MODEL 1
REMARK VINA RESULT:    -6.716      0.000      0.000
REMARK INTER + INTRA:          -7.787
REMARK INTER:                  -7.305
REMARK INTRA:                  -0.482
REMARK UNBOUND:                -0.482
REMARK SMILES C=C(C)[C@@H]1CC[C@]2(C)CC[C@@]3(C)[C@H](CC[C@@H]4[C@]5(C)CC[C@@H](O)C(C)(C)[C@H]5CC[C@@]43C)[C@H]12
REMARK SMILES IDX 4 1 5 2 6 3 7 4 31 5 13 6 14 7 15 8 16 9 17 10 19 11 20 12
REMARK SMILES IDX 21 13 23 14 26 15 27 16 28 17 29 18 11 19 10 20 9 21 12 22
REMARK SMILES IDX 30 23 24 24 25 25 18 26 8 27 2 28 3 29 1 30 22 31
REMARK H PARENT 22 32
REMARK Flexibility Score: inf
ROOT
ATOM      1  C   UNL     1     100.374  44.409 135.354  1.00  0.00     0.018 C 
ATOM      2  C   UNL     1     100.487  44.773 133.879  1.00  0.00     0.009 C 
ATOM      3  C   UNL     1     100.822  46.262 133.843  1.00  0.00     0.008 C 
ATOM      4  C   UNL     1     101.430  46.637 135.229  1.00  0.00    -0.029 C 
ATOM      5  C   UNL     1     101.414  45.313 136.060  1.00  0.00     0.006 C 
ATOM      6  C   UNL     1     102.838  44.702 136.330  1.00  0.00    -0.000 C 
ATOM      7  C   UNL     1     103.496  44.106 135.078  1.00  0.00     0.005 C 
ATOM      8  C   UNL     1     104.853  43.501 135.369  1.00  0.00     0.005 C 
ATOM      9  C   UNL     1     105.879  44.476 136.030  1.00  0.00     0.002 C 
ATOM     10  C   UNL     1     107.300  43.744 136.261  1.00  0.00    -0.026 C 
ATOM     11  C   UNL     1     107.732  42.925 134.995  1.00  0.00     0.010 C 
ATOM     12  C   UNL     1     109.005  42.091 135.189  1.00  0.00     0.033 C 
ATOM     13  C   UNL     1     108.860  41.116 136.375  1.00  0.00     0.120 C 
ATOM     14  C   UNL     1     108.433  41.795 137.717  1.00  0.00    -0.006 C 
ATOM     15  C   UNL     1     107.174  42.725 137.456  1.00  0.00     0.003 C 
ATOM     16  C   UNL     1     106.581  43.386 138.729  1.00  0.00     0.005 C 
ATOM     17  C   UNL     1     105.227  44.073 138.467  1.00  0.00     0.008 C 
ATOM     18  C   UNL     1     105.255  45.156 137.338  1.00  0.00    -0.024 C 
ATOM     19  C   UNL     1     103.766  45.740 137.057  1.00  0.00    -0.024 C 
ATOM     20  C   UNL     1     103.839  47.082 136.215  1.00  0.00     0.008 C 
ATOM     21  C   UNL     1     102.848  47.263 135.047  1.00  0.00     0.007 C 
ATOM     22  C   UNL     1     103.073  46.087 138.422  1.00  0.00     0.012 C 
ATOM     23  C   UNL     1     106.145  46.362 137.836  1.00  0.00     0.012 C 
ATOM     24  C   UNL     1     108.035  40.650 138.687  1.00  0.00     0.014 C 
ATOM     25  C   UNL     1     109.627  42.539 138.374  1.00  0.00     0.014 C 
ATOM     26  C   UNL     1     108.389  44.835 136.493  1.00  0.00     0.012 C 
ATOM     27  C   UNL     1     100.519  47.696 135.907  1.00  0.00     0.011 C 
ENDROOT
BRANCH   1  28
ATOM     28  C   UNL     1     100.401  42.924 135.726  1.00  0.00    -0.077 C 
ATOM     29  C   UNL     1     100.066  42.523 137.133  1.00  0.00     0.039 C 
ATOM     30  C   UNL     1     100.536  41.945 134.803  1.00  0.00     0.008 C 
ENDBRANCH   1  28
BRANCH  13  31
ATOM     31  O   UNL     1     110.022  40.340 136.535  1.00  0.00    -0.393 OA
ATOM     32  H   UNL     1     110.801  40.908 136.290  1.00  0.00     0.210 HD
ENDBRANCH  13  31
TORSDOF 2
ENDMDL
MODEL 2
REMARK VINA RESULT:    -6.578      3.102      7.466
REMARK INTER + INTRA:          -7.637
REMARK INTER:                  -7.155
REMARK INTRA:                  -0.481
REMARK UNBOUND:                -0.482
REMARK SMILES C=C(C)[C@@H]1CC[C@]2(C)CC[C@@]3(C)[C@H](CC[C@@H]4[C@]5(C)CC[C@@H](O)C(C)(C)[C@H]5CC[C@@]43C)[C@H]12
REMARK SMILES IDX 4 1 5 2 6 3 7 4 31 5 13 6 14 7 15 8 16 9 17 10 19 11 20 12
REMARK SMILES IDX 21 13 23 14 26 15 27 16 28 17 29 18 11 19 10 20 9 21 12 22
REMARK SMILES IDX 30 23 24 24 25 25 18 26 8 27 2 28 3 29 1 30 22 31
REMARK H PARENT 22 32
REMARK Flexibility Score: inf
ROOT
ATOM      1  C   UNL     1     106.194  42.736 137.099  1.00  0.00     0.018 C 
ATOM      2  C   UNL     1     105.381  41.512 137.500  1.00  0.00     0.009 C 
ATOM      3  C   UNL     1     104.653  41.900 138.785  1.00  0.00     0.008 C 
ATOM      4  C   UNL     1     104.595  43.457 138.837  1.00  0.00    -0.029 C 
ATOM      5  C   UNL     1     105.330  43.942 137.544  1.00  0.00     0.006 C 
ATOM      6  C   UNL     1     104.385  44.591 136.468  1.00  0.00    -0.000 C 
ATOM      7  C   UNL     1     103.466  43.580 135.769  1.00  0.00     0.005 C 
ATOM      8  C   UNL     1     102.586  44.225 134.720  1.00  0.00     0.005 C 
ATOM      9  C   UNL     1     101.696  45.398 135.240  1.00  0.00     0.002 C 
ATOM     10  C   UNL     1     100.772  45.987 134.054  1.00  0.00    -0.026 C 
ATOM     11  C   UNL     1     100.106  44.835 133.223  1.00  0.00     0.010 C 
ATOM     12  C   UNL     1      99.324  45.315 131.995  1.00  0.00     0.033 C 
ATOM     13  C   UNL     1     100.218  46.143 131.051  1.00  0.00     0.120 C 
ATOM     14  C   UNL     1     100.950  47.339 131.743  1.00  0.00    -0.006 C 
ATOM     15  C   UNL     1     101.665  46.822 133.060  1.00  0.00     0.003 C 
ATOM     16  C   UNL     1     102.518  47.890 133.798  1.00  0.00     0.005 C 
ATOM     17  C   UNL     1     103.384  47.288 134.921  1.00  0.00     0.008 C 
ATOM     18  C   UNL     1     102.584  46.490 136.003  1.00  0.00    -0.024 C 
ATOM     19  C   UNL     1     103.588  45.801 137.076  1.00  0.00    -0.024 C 
ATOM     20  C   UNL     1     102.795  45.331 138.366  1.00  0.00     0.008 C 
ATOM     21  C   UNL     1     103.116  43.940 138.952  1.00  0.00     0.007 C 
ATOM     22  C   UNL     1     104.655  46.853 137.547  1.00  0.00     0.012 C 
ATOM     23  C   UNL     1     101.678  47.511 136.797  1.00  0.00     0.012 C 
ATOM     24  C   UNL     1     102.022  47.844 130.739  1.00  0.00     0.014 C 
ATOM     25  C   UNL     1      99.979  48.525 131.990  1.00  0.00     0.014 C 
ATOM     26  C   UNL     1      99.617  46.817 134.690  1.00  0.00     0.012 C 
ATOM     27  C   UNL     1     105.363  43.947 140.094  1.00  0.00     0.011 C 
ENDROOT
BRANCH   1  28
ATOM     28  C   UNL     1     106.747  42.788 135.672  1.00  0.00    -0.077 C 
ATOM     29  C   UNL     1     107.752  43.847 135.322  1.00  0.00     0.039 C 
ATOM     30  C   UNL     1     106.509  41.815 134.764  1.00  0.00     0.008 C 
ENDBRANCH   1  28
BRANCH  13  31
ATOM     31  O   UNL     1      99.501  46.564 129.915  1.00  0.00    -0.393 OA
ATOM     32  H   UNL     1      98.682  46.003 129.851  1.00  0.00     0.210 HD
ENDBRANCH  13  31
TORSDOF 2
ENDMDL
MODEL 3
REMARK VINA RESULT:    -6.553      2.448      7.399
REMARK INTER + INTRA:          -7.610
REMARK INTER:                  -7.132
REMARK INTRA:                  -0.478
REMARK UNBOUND:                -0.482
REMARK SMILES C=C(C)[C@@H]1CC[C@]2(C)CC[C@@]3(C)[C@H](CC[C@@H]4[C@]5(C)CC[C@@H](O)C(C)(C)[C@H]5CC[C@@]43C)[C@H]12
REMARK SMILES IDX 4 1 5 2 6 3 7 4 31 5 13 6 14 7 15 8 16 9 17 10 19 11 20 12
REMARK SMILES IDX 21 13 23 14 26 15 27 16 28 17 29 18 11 19 10 20 9 21 12 22
REMARK SMILES IDX 30 23 24 24 25 25 18 26 8 27 2 28 3 29 1 30 22 31
REMARK H PARENT 22 32
REMARK Flexibility Score: inf
ROOT
ATOM      1  C   UNL     1     109.092  41.758 136.936  1.00  0.00     0.018 C 
ATOM      2  C   UNL     1     108.888  40.803 138.106  1.00  0.00     0.009 C 
ATOM      3  C   UNL     1     109.148  41.629 139.365  1.00  0.00     0.008 C 
ATOM      4  C   UNL     1     108.964  43.130 138.985  1.00  0.00    -0.029 C 
ATOM      5  C   UNL     1     108.607  43.131 137.462  1.00  0.00     0.006 C 
ATOM      6  C   UNL     1     107.122  43.543 137.147  1.00  0.00    -0.000 C 
ATOM      7  C   UNL     1     106.091  42.483 137.560  1.00  0.00     0.005 C 
ATOM      8  C   UNL     1     104.673  42.891 137.222  1.00  0.00     0.005 C 
ATOM      9  C   UNL     1     104.221  44.259 137.827  1.00  0.00     0.002 C 
ATOM     10  C   UNL     1     102.687  44.578 137.439  1.00  0.00    -0.026 C 
ATOM     11  C   UNL     1     101.774  43.318 137.635  1.00  0.00     0.010 C 
ATOM     12  C   UNL     1     100.329  43.506 137.157  1.00  0.00     0.033 C 
ATOM     13  C   UNL     1     100.281  43.917 135.671  1.00  0.00     0.120 C 
ATOM     14  C   UNL     1     101.147  45.171 135.322  1.00  0.00    -0.006 C 
ATOM     15  C   UNL     1     102.605  44.981 135.918  1.00  0.00     0.003 C 
ATOM     16  C   UNL     1     103.605  46.113 135.559  1.00  0.00     0.005 C 
ATOM     17  C   UNL     1     105.057  45.769 135.945  1.00  0.00     0.008 C 
ATOM     18  C   UNL     1     105.262  45.417 137.455  1.00  0.00    -0.024 C 
ATOM     19  C   UNL     1     106.793  44.959 137.741  1.00  0.00    -0.024 C 
ATOM     20  C   UNL     1     107.104  44.978 139.296  1.00  0.00     0.008 C 
ATOM     21  C   UNL     1     107.884  43.791 139.897  1.00  0.00     0.007 C 
ATOM     22  C   UNL     1     107.780  45.974 137.060  1.00  0.00     0.012 C 
ATOM     23  C   UNL     1     104.995  46.721 138.305  1.00  0.00     0.012 C 
ATOM     24  C   UNL     1     101.229  45.237 133.773  1.00  0.00     0.014 C 
ATOM     25  C   UNL     1     100.454  46.480 135.788  1.00  0.00     0.014 C 
ATOM     26  C   UNL     1     102.152  45.684 138.399  1.00  0.00     0.012 C 
ATOM     27  C   UNL     1     110.308  43.873 139.211  1.00  0.00     0.011 C 
ENDROOT
BRANCH   1  28
ATOM     28  C   UNL     1     108.559  41.329 135.566  1.00  0.00    -0.077 C 
ATOM     29  C   UNL     1     108.895  42.164 134.364  1.00  0.00     0.039 C 
ATOM     30  C   UNL     1     107.953  40.138 135.361  1.00  0.00     0.008 C 
ENDBRANCH   1  28
BRANCH  13  31
ATOM     31  O   UNL     1      98.952  44.069 135.232  1.00  0.00    -0.393 OA
ATOM     32  H   UNL     1      98.748  45.042 135.218  1.00  0.00     0.210 HD
ENDBRANCH  13  31
TORSDOF 2
ENDMDL
MODEL 4
REMARK VINA RESULT:    -6.400      1.862      4.154
REMARK INTER + INTRA:          -7.443
REMARK INTER:                  -6.967
REMARK INTRA:                  -0.476
REMARK UNBOUND:                -0.482
REMARK SMILES C=C(C)[C@@H]1CC[C@]2(C)CC[C@@]3(C)[C@H](CC[C@@H]4[C@]5(C)CC[C@@H](O)C(C)(C)[C@H]5CC[C@@]43C)[C@H]12
REMARK SMILES IDX 4 1 5 2 6 3 7 4 31 5 13 6 14 7 15 8 16 9 17 10 19 11 20 12
REMARK SMILES IDX 21 13 23 14 26 15 27 16 28 17 29 18 11 19 10 20 9 21 12 22
REMARK SMILES IDX 30 23 24 24 25 25 18 26 8 27 2 28 3 29 1 30 22 31
REMARK H PARENT 22 32
REMARK Flexibility Score: inf
ROOT
ATOM      1  C   UNL     1     100.330  48.495 132.619  1.00  0.00     0.018 C 
ATOM      2  C   UNL     1     100.820  49.855 133.101  1.00  0.00     0.009 C 
ATOM      3  C   UNL     1     100.120  50.099 134.437  1.00  0.00     0.008 C 
ATOM      4  C   UNL     1      99.673  48.711 134.989  1.00  0.00    -0.029 C 
ATOM      5  C   UNL     1     100.129  47.671 133.914  1.00  0.00     0.006 C 
ATOM      6  C   UNL     1     101.313  46.743 134.372  1.00  0.00    -0.000 C 
ATOM      7  C   UNL     1     102.659  47.475 134.479  1.00  0.00     0.005 C 
ATOM      8  C   UNL     1     103.787  46.556 134.895  1.00  0.00     0.005 C 
ATOM      9  C   UNL     1     103.551  45.793 136.238  1.00  0.00     0.002 C 
ATOM     10  C   UNL     1     104.826  44.874 136.608  1.00  0.00    -0.026 C 
ATOM     11  C   UNL     1     106.171  45.654 136.399  1.00  0.00     0.010 C 
ATOM     12  C   UNL     1     107.431  44.802 136.599  1.00  0.00     0.033 C 
ATOM     13  C   UNL     1     107.429  43.574 135.667  1.00  0.00     0.120 C 
ATOM     14  C   UNL     1     106.142  42.692 135.767  1.00  0.00    -0.006 C 
ATOM     15  C   UNL     1     104.861  43.621 135.655  1.00  0.00     0.003 C 
ATOM     16  C   UNL     1     103.508  42.860 135.639  1.00  0.00     0.005 C 
ATOM     17  C   UNL     1     102.317  43.771 135.283  1.00  0.00     0.008 C 
ATOM     18  C   UNL     1     102.151  45.018 136.213  1.00  0.00    -0.024 C 
ATOM     19  C   UNL     1     100.947  45.974 135.692  1.00  0.00    -0.024 C 
ATOM     20  C   UNL     1     100.521  47.006 136.819  1.00  0.00     0.008 C 
ATOM     21  C   UNL     1     100.278  48.473 136.408  1.00  0.00     0.007 C 
ATOM     22  C   UNL     1      99.684  45.098 135.367  1.00  0.00     0.012 C 
ATOM     23  C   UNL     1     101.754  44.506 137.654  1.00  0.00     0.012 C 
ATOM     24  C   UNL     1     106.178  41.715 134.561  1.00  0.00     0.014 C 
ATOM     25  C   UNL     1     106.161  41.816 137.050  1.00  0.00     0.014 C 
ATOM     26  C   UNL     1     104.746  44.498 138.118  1.00  0.00     0.012 C 
ATOM     27  C   UNL     1      98.126  48.695 135.115  1.00  0.00     0.011 C 
ENDROOT
BRANCH   1  28
ATOM     28  C   UNL     1     101.115  47.813 131.495  1.00  0.00    -0.077 C 
ATOM     29  C   UNL     1     100.566  46.554 130.890  1.00  0.00     0.039 C 
ATOM     30  C   UNL     1     102.184  48.389 130.900  1.00  0.00     0.008 C 
ENDBRANCH   1  28
BRANCH  13  31
ATOM     31  O   UNL     1     108.596  42.807 135.839  1.00  0.00    -0.393 OA
ATOM     32  H   UNL     1     108.349  41.994 136.356  1.00  0.00     0.210 HD
ENDBRANCH  13  31
TORSDOF 2
ENDMDL
MODEL 5
REMARK VINA RESULT:    -6.337      3.219      7.233
REMARK INTER + INTRA:          -7.374
REMARK INTER:                  -6.905
REMARK INTRA:                  -0.470
REMARK UNBOUND:                -0.482
REMARK SMILES C=C(C)[C@@H]1CC[C@]2(C)CC[C@@]3(C)[C@H](CC[C@@H]4[C@]5(C)CC[C@@H](O)C(C)(C)[C@H]5CC[C@@]43C)[C@H]12
REMARK SMILES IDX 4 1 5 2 6 3 7 4 31 5 13 6 14 7 15 8 16 9 17 10 19 11 20 12
REMARK SMILES IDX 21 13 23 14 26 15 27 16 28 17 29 18 11 19 10 20 9 21 12 22
REMARK SMILES IDX 30 23 24 24 25 25 18 26 8 27 2 28 3 29 1 30 22 31
REMARK H PARENT 22 32
REMARK Flexibility Score: inf
ROOT
ATOM      1  C   UNL     1     106.704  39.354 137.459  1.00  0.00     0.018 C 
ATOM      2  C   UNL     1     107.257  39.047 138.846  1.00  0.00     0.009 C 
ATOM      3  C   UNL     1     108.720  39.483 138.815  1.00  0.00     0.008 C 
ATOM      4  C   UNL     1     108.876  40.512 137.655  1.00  0.00    -0.029 C 
ATOM      5  C   UNL     1     107.454  40.633 137.015  1.00  0.00     0.006 C 
ATOM      6  C   UNL     1     106.746  42.014 137.271  1.00  0.00    -0.000 C 
ATOM      7  C   UNL     1     106.293  42.209 138.725  1.00  0.00     0.005 C 
ATOM      8  C   UNL     1     105.590  43.532 138.941  1.00  0.00     0.005 C 
ATOM      9  C   UNL     1     106.418  44.790 138.526  1.00  0.00     0.002 C 
ATOM     10  C   UNL     1     105.594  46.145 138.832  1.00  0.00    -0.026 C 
ATOM     11  C   UNL     1     104.933  46.102 140.254  1.00  0.00     0.010 C 
ATOM     12  C   UNL     1     104.021  47.296 140.561  1.00  0.00     0.033 C 
ATOM     13  C   UNL     1     102.904  47.433 139.507  1.00  0.00     0.120 C 
ATOM     14  C   UNL     1     103.416  47.492 138.031  1.00  0.00    -0.006 C 
ATOM     15  C   UNL     1     104.431  46.300 137.781  1.00  0.00     0.003 C 
ATOM     16  C   UNL     1     104.944  46.179 136.321  1.00  0.00     0.005 C 
ATOM     17  C   UNL     1     105.724  44.874 136.070  1.00  0.00     0.008 C 
ATOM     18  C   UNL     1     106.946  44.652 137.021  1.00  0.00    -0.024 C 
ATOM     19  C   UNL     1     107.632  43.205 136.758  1.00  0.00    -0.024 C 
ATOM     20  C   UNL     1     109.069  43.135 137.423  1.00  0.00     0.008 C 
ATOM     21  C   UNL     1     109.453  41.857 138.197  1.00  0.00     0.007 C 
ATOM     22  C   UNL     1     107.825  42.990 135.214  1.00  0.00     0.012 C 
ATOM     23  C   UNL     1     108.030  45.753 136.692  1.00  0.00     0.012 C 
ATOM     24  C   UNL     1     102.172  47.309 137.121  1.00  0.00     0.014 C 
ATOM     25  C   UNL     1     104.008  48.889 137.699  1.00  0.00     0.014 C 
ATOM     26  C   UNL     1     106.591  47.343 138.829  1.00  0.00     0.012 C 
ATOM     27  C   UNL     1     109.876  39.944 136.612  1.00  0.00     0.011 C 
ENDROOT
BRANCH   1  28
ATOM     28  C   UNL     1     105.183  39.364 137.285  1.00  0.00    -0.077 C 
ATOM     29  C   UNL     1     104.614  39.528 135.905  1.00  0.00     0.039 C 
ATOM     30  C   UNL     1     104.334  39.051 138.288  1.00  0.00     0.008 C 
ENDBRANCH   1  28
BRANCH  13  31
ATOM     31  O   UNL     1     102.058  48.518 139.805  1.00  0.00    -0.393 OA
ATOM     32  H   UNL     1     102.632  49.276 140.097  1.00  0.00     0.210 HD
ENDBRANCH  13  31
TORSDOF 2
ENDMDL
MODEL 6
REMARK VINA RESULT:    -6.171      3.467      7.820
REMARK INTER + INTRA:          -7.194
REMARK INTER:                  -6.714
REMARK INTRA:                  -0.481
REMARK UNBOUND:                -0.482
REMARK SMILES C=C(C)[C@@H]1CC[C@]2(C)CC[C@@]3(C)[C@H](CC[C@@H]4[C@]5(C)CC[C@@H](O)C(C)(C)[C@H]5CC[C@@]43C)[C@H]12
REMARK SMILES IDX 4 1 5 2 6 3 7 4 31 5 13 6 14 7 15 8 16 9 17 10 19 11 20 12
REMARK SMILES IDX 21 13 23 14 26 15 27 16 28 17 29 18 11 19 10 20 9 21 12 22
REMARK SMILES IDX 30 23 24 24 25 25 18 26 8 27 2 28 3 29 1 30 22 31
REMARK H PARENT 22 32
REMARK Flexibility Score: inf
ROOT
ATOM      1  C   UNL     1     108.555  43.030 136.463  1.00  0.00     0.018 C 
ATOM      2  C   UNL     1     108.771  42.691 134.993  1.00  0.00     0.009 C 
ATOM      3  C   UNL     1     109.006  41.183 134.945  1.00  0.00     0.008 C 
ATOM      4  C   UNL     1     108.405  40.575 136.249  1.00  0.00    -0.029 C 
ATOM      5  C   UNL     1     107.833  41.792 137.048  1.00  0.00     0.006 C 
ATOM      6  C   UNL     1     106.262  41.837 137.119  1.00  0.00    -0.000 C 
ATOM      7  C   UNL     1     105.598  42.188 135.781  1.00  0.00     0.005 C 
ATOM      8  C   UNL     1     104.088  42.251 135.882  1.00  0.00     0.005 C 
ATOM      9  C   UNL     1     103.411  40.953 136.426  1.00  0.00     0.002 C 
ATOM     10  C   UNL     1     101.805  41.114 136.457  1.00  0.00    -0.026 C 
ATOM     11  C   UNL     1     101.270  41.755 135.129  1.00  0.00     0.010 C 
ATOM     12  C   UNL     1      99.768  42.064 135.140  1.00  0.00     0.033 C 
ATOM     13  C   UNL     1      99.397  42.992 136.314  1.00  0.00     0.120 C 
ATOM     14  C   UNL     1      99.866  42.478 137.713  1.00  0.00    -0.006 C 
ATOM     15  C   UNL     1     101.398  42.075 137.636  1.00  0.00     0.003 C 
ATOM     16  C   UNL     1     102.024  41.638 138.988  1.00  0.00     0.005 C 
ATOM     17  C   UNL     1     103.556  41.497 138.917  1.00  0.00     0.008 C 
ATOM     18  C   UNL     1     104.068  40.509 137.817  1.00  0.00    -0.024 C 
ATOM     19  C   UNL     1     105.689  40.513 137.741  1.00  0.00    -0.024 C 
ATOM     20  C   UNL     1     106.217  39.260 136.926  1.00  0.00     0.008 C 
ATOM     21  C   UNL     1     107.346  39.483 135.898  1.00  0.00     0.007 C 
ATOM     22  C   UNL     1     106.282  40.404 139.192  1.00  0.00     0.012 C 
ATOM     23  C   UNL     1     103.620  39.049 138.220  1.00  0.00     0.012 C 
ATOM     24  C   UNL     1      99.693  43.662 138.703  1.00  0.00     0.014 C 
ATOM     25  C   UNL     1      98.950  41.333 138.227  1.00  0.00     0.014 C 
ATOM     26  C   UNL     1     101.166  39.696 136.569  1.00  0.00     0.012 C 
ATOM     27  C   UNL     1     109.543  39.901 137.060  1.00  0.00     0.011 C 
ENDROOT
BRANCH   1  28
ATOM     28  C   UNL     1     107.943  44.394 136.797  1.00  0.00    -0.077 C 
ATOM     29  C   UNL     1     107.906  44.839 138.231  1.00  0.00     0.039 C 
ATOM     30  C   UNL     1     107.600  45.290 135.846  1.00  0.00     0.008 C 
ENDBRANCH   1  28
BRANCH  13  31
ATOM     31  O   UNL     1      98.021  43.290 136.308  1.00  0.00    -0.393 OA
ATOM     32  H   UNL     1      97.815  43.785 137.146  1.00  0.00     0.210 HD
ENDBRANCH  13  31
TORSDOF 2
ENDMDL
MODEL 7
REMARK VINA RESULT:    -6.129      2.823      7.518
REMARK INTER + INTRA:          -7.148
REMARK INTER:                  -6.685
REMARK INTRA:                  -0.463
REMARK UNBOUND:                -0.482
REMARK SMILES C=C(C)[C@@H]1CC[C@]2(C)CC[C@@]3(C)[C@H](CC[C@@H]4[C@]5(C)CC[C@@H](O)C(C)(C)[C@H]5CC[C@@]43C)[C@H]12
REMARK SMILES IDX 4 1 5 2 6 3 7 4 31 5 13 6 14 7 15 8 16 9 17 10 19 11 20 12
REMARK SMILES IDX 21 13 23 14 26 15 27 16 28 17 29 18 11 19 10 20 9 21 12 22
REMARK SMILES IDX 30 23 24 24 25 25 18 26 8 27 2 28 3 29 1 30 22 31
REMARK H PARENT 22 32
REMARK Flexibility Score: inf
ROOT
ATOM      1  C   UNL     1     108.439  42.380 137.519  1.00  0.00     0.018 C 
ATOM      2  C   UNL     1     109.079  42.362 136.136  1.00  0.00     0.009 C 
ATOM      3  C   UNL     1     108.478  41.157 135.416  1.00  0.00     0.008 C 
ATOM      4  C   UNL     1     107.137  40.808 136.130  1.00  0.00    -0.029 C 
ATOM      5  C   UNL     1     107.003  41.846 137.292  1.00  0.00     0.006 C 
ATOM      6  C   UNL     1     105.862  42.907 137.083  1.00  0.00    -0.000 C 
ATOM      7  C   UNL     1     106.169  43.929 135.979  1.00  0.00     0.005 C 
ATOM      8  C   UNL     1     105.068  44.955 135.816  1.00  0.00     0.005 C 
ATOM      9  C   UNL     1     103.652  44.358 135.533  1.00  0.00     0.002 C 
ATOM     10  C   UNL     1     102.563  45.535 135.338  1.00  0.00    -0.026 C 
ATOM     11  C   UNL     1     103.112  46.672 134.407  1.00  0.00     0.010 C 
ATOM     12  C   UNL     1     102.186  47.888 134.285  1.00  0.00     0.033 C 
ATOM     13  C   UNL     1     101.877  48.496 135.668  1.00  0.00     0.120 C 
ATOM     14  C   UNL     1     101.315  47.474 136.708  1.00  0.00    -0.006 C 
ATOM     15  C   UNL     1     102.243  46.189 136.734  1.00  0.00     0.003 C 
ATOM     16  C   UNL     1     101.856  45.129 137.801  1.00  0.00     0.005 C 
ATOM     17  C   UNL     1     102.920  44.026 137.957  1.00  0.00     0.008 C 
ATOM     18  C   UNL     1     103.266  43.264 136.635  1.00  0.00    -0.024 C 
ATOM     19  C   UNL     1     104.472  42.204 136.875  1.00  0.00    -0.024 C 
ATOM     20  C   UNL     1     104.562  41.174 135.673  1.00  0.00     0.008 C 
ATOM     21  C   UNL     1     105.957  40.833 135.109  1.00  0.00     0.007 C 
ATOM     22  C   UNL     1     104.188  41.372 138.176  1.00  0.00     0.012 C 
ATOM     23  C   UNL     1     101.994  42.436 136.198  1.00  0.00     0.012 C 
ATOM     24  C   UNL     1     101.366  48.176 138.093  1.00  0.00     0.014 C 
ATOM     25  C   UNL     1      99.821  47.153 136.429  1.00  0.00     0.014 C 
ATOM     26  C   UNL     1     101.307  44.937 134.635  1.00  0.00     0.012 C 
ATOM     27  C   UNL     1     107.238  39.373 136.715  1.00  0.00     0.011 C 
ENDROOT
BRANCH   1  28
ATOM     28  C   UNL     1     108.563  43.663 138.346  1.00  0.00    -0.077 C 
ATOM     29  C   UNL     1     108.264  43.609 139.816  1.00  0.00     0.039 C 
ATOM     30  C   UNL     1     109.102  44.799 137.850  1.00  0.00     0.008 C 
ENDBRANCH   1  28
BRANCH  13  31
ATOM     31  O   UNL     1     101.043  49.624 135.549  1.00  0.00    -0.393 OA
ATOM     32  H   UNL     1     100.172  49.402 135.975  1.00  0.00     0.210 HD
ENDBRANCH  13  31
TORSDOF 2
ENDMDL
