MODEL 1
REMARK VINA RESULT:    -3.279      0.000      0.000
REMARK INTER + INTRA:          -5.673
REMARK INTER:                  -5.004
REMARK INTRA:                  -0.668
REMARK UNBOUND:                -0.668
REMARK SMILES O=C([O-])CCCCCCCCC(=O)[O-]
REMARK SMILES IDX 7 1 6 2 5 3 4 4 2 5 1 6 3 7 8 8 9 9 10 10 11 11 12 12 13 13
REMARK SMILES IDX 14 14
REMARK H PARENT
REMARK Flexibility Score: inf
ROOT
ATOM      1  C   UNL     1      14.837  13.257   7.016  1.00  0.00     0.000 C 
ENDROOT
BRANCH   1   2
ATOM      2  C   UNL     1      13.872  12.851   8.140  1.00  0.00     0.000 C 
BRANCH   2   3
ATOM      3  C   UNL     1      14.456  13.099   9.541  1.00  0.00     0.006 C 
BRANCH   3   4
ATOM      4  C   UNL     1      14.016  12.041  10.559  1.00  0.00     0.053 C 
BRANCH   4   5
ATOM      5  C   UNL     1      15.159  11.665  11.449  1.00  0.00     0.041 C 
ATOM      6  O   UNL     1      14.954  11.378  12.658  1.00  0.00    -0.550 OA
ATOM      7  O   UNL     1      16.458  11.682  10.956  1.00  0.00    -0.550 OA
ENDBRANCH   4   5
ENDBRANCH   3   4
ENDBRANCH   2   3
ENDBRANCH   1   2
BRANCH   1   8
ATOM      8  C   UNL     1      16.207  13.646   7.583  1.00  0.00     0.000 C 
BRANCH   8   9
ATOM      9  C   UNL     1      16.578  15.082   7.190  1.00  0.00     0.000 C 
BRANCH   9  10
ATOM     10  C   UNL     1      16.734  15.969   8.431  1.00  0.00     0.006 C 
BRANCH  10  11
ATOM     11  C   UNL     1      15.497  16.848   8.638  1.00  0.00     0.053 C 
BRANCH  11  12
ATOM     12  C   UNL     1      15.862  18.105   9.361  1.00  0.00     0.041 C 
ATOM     13  O   UNL     1      16.826  18.810   8.961  1.00  0.00    -0.550 OA
ATOM     14  O   UNL     1      15.171  18.473  10.509  1.00  0.00    -0.550 OA
ENDBRANCH  11  12
ENDBRANCH  10  11
ENDBRANCH   9  10
ENDBRANCH   8   9
ENDBRANCH   1   8
TORSDOF 9
ENDMDL
MODEL 2
REMARK VINA RESULT:    -3.275      0.409      5.610
REMARK INTER + INTRA:          -5.666
REMARK INTER:                  -5.042
REMARK INTRA:                  -0.624
REMARK UNBOUND:                -0.668
REMARK SMILES O=C([O-])CCCCCCCCC(=O)[O-]
REMARK SMILES IDX 7 1 6 2 5 3 4 4 2 5 1 6 3 7 8 8 9 9 10 10 11 11 12 12 13 13
REMARK SMILES IDX 14 14
REMARK H PARENT
REMARK Flexibility Score: inf
ROOT
ATOM      1  C   UNL     1      16.347  13.503   7.601  1.00  0.00     0.000 C 
ENDROOT
BRANCH   1   2
ATOM      2  C   UNL     1      16.854  14.920   7.299  1.00  0.00     0.000 C 
BRANCH   2   3
ATOM      3  C   UNL     1      16.801  15.844   8.528  1.00  0.00     0.006 C 
BRANCH   3   4
ATOM      4  C   UNL     1      15.627  16.828   8.475  1.00  0.00     0.053 C 
BRANCH   4   5
ATOM      5  C   UNL     1      15.941  18.058   9.268  1.00  0.00     0.041 C 
ATOM      6  O   UNL     1      15.368  18.266  10.369  1.00  0.00    -0.550 OA
ATOM      7  O   UNL     1      16.831  19.000   8.766  1.00  0.00    -0.550 OA
ENDBRANCH   4   5
ENDBRANCH   3   4
ENDBRANCH   2   3
ENDBRANCH   1   2
BRANCH   1   8
ATOM      8  C   UNL     1      14.975  13.263   6.960  1.00  0.00     0.000 C 
BRANCH   8   9
ATOM      9  C   UNL     1      13.922  12.924   8.022  1.00  0.00     0.000 C 
BRANCH   9  10
ATOM     10  C   UNL     1      14.523  12.976   9.431  1.00  0.00     0.006 C 
BRANCH  10  11
ATOM     11  C   UNL     1      13.942  11.871  10.318  1.00  0.00     0.053 C 
BRANCH  11  12
ATOM     12  C   UNL     1      14.847  11.599  11.478  1.00  0.00     0.041 C 
ATOM     13  O   UNL     1      15.902  10.929  11.315  1.00  0.00    -0.550 OA
ATOM     14  O   UNL     1      14.502  12.041  12.749  1.00  0.00    -0.550 OA
ENDBRANCH  11  12
ENDBRANCH  10  11
ENDBRANCH   9  10
ENDBRANCH   8   9
ENDBRANCH   1   8
TORSDOF 9
ENDMDL
MODEL 3
REMARK VINA RESULT:    -3.225      1.420      2.157
REMARK INTER + INTRA:          -5.591
REMARK INTER:                  -5.025
REMARK INTRA:                  -0.565
REMARK UNBOUND:                -0.668
REMARK SMILES O=C([O-])CCCCCCCCC(=O)[O-]
REMARK SMILES IDX 7 1 6 2 5 3 4 4 2 5 1 6 3 7 8 8 9 9 10 10 11 11 12 12 13 13
REMARK SMILES IDX 14 14
REMARK H PARENT
REMARK Flexibility Score: inf
ROOT
ATOM      1  C   UNL     1      13.792  12.859   8.227  1.00  0.00     0.000 C 
ENDROOT
BRANCH   1   2
ATOM      2  C   UNL     1      14.330  13.016   9.657  1.00  0.00     0.000 C 
BRANCH   2   3
ATOM      3  C   UNL     1      14.163  11.740  10.497  1.00  0.00     0.006 C 
BRANCH   3   4
ATOM      4  C   UNL     1      14.748  11.880  11.907  1.00  0.00     0.053 C 
BRANCH   4   5
ATOM      5  C   UNL     1      13.997  12.917  12.682  1.00  0.00     0.041 C 
ATOM      6  O   UNL     1      14.594  13.933  13.125  1.00  0.00    -0.550 OA
ATOM      7  O   UNL     1      12.648  12.735  12.960  1.00  0.00    -0.550 OA
ENDBRANCH   4   5
ENDBRANCH   3   4
ENDBRANCH   2   3
ENDBRANCH   1   2
BRANCH   1   8
ATOM      8  C   UNL     1      14.877  13.185   7.194  1.00  0.00     0.000 C 
BRANCH   8   9
ATOM      9  C   UNL     1      16.115  13.790   7.867  1.00  0.00     0.000 C 
BRANCH   9  10
ATOM     10  C   UNL     1      16.464  15.152   7.257  1.00  0.00     0.006 C 
BRANCH  10  11
ATOM     11  C   UNL     1      17.125  16.066   8.293  1.00  0.00     0.053 C 
BRANCH  11  12
ATOM     12  C   UNL     1      16.201  17.179   8.676  1.00  0.00     0.041 C 
ATOM     13  O   UNL     1      14.988  16.941   8.918  1.00  0.00    -0.550 OA
ATOM     14  O   UNL     1      16.667  18.487   8.717  1.00  0.00    -0.550 OA
ENDBRANCH  11  12
ENDBRANCH  10  11
ENDBRANCH   9  10
ENDBRANCH   8   9
ENDBRANCH   1   8
TORSDOF 9
ENDMDL
MODEL 4
REMARK VINA RESULT:    -3.119      2.390      3.841
REMARK INTER + INTRA:          -5.428
REMARK INTER:                  -5.049
REMARK INTRA:                  -0.379
REMARK UNBOUND:                -0.668
REMARK SMILES O=C([O-])CCCCCCCCC(=O)[O-]
REMARK SMILES IDX 7 1 6 2 5 3 4 4 2 5 1 6 3 7 8 8 9 9 10 10 11 11 12 12 13 13
REMARK SMILES IDX 14 14
REMARK H PARENT
REMARK Flexibility Score: inf
ROOT
ATOM      1  C   UNL     1      15.493  16.866   8.298  1.00  0.00     0.000 C 
ENDROOT
BRANCH   1   2
ATOM      2  C   UNL     1      15.956  15.764   7.333  1.00  0.00     0.000 C 
BRANCH   2   3
ATOM      3  C   UNL     1      15.989  14.375   7.992  1.00  0.00     0.006 C 
BRANCH   3   4
ATOM      4  C   UNL     1      15.029  14.263   9.182  1.00  0.00     0.053 C 
BRANCH   4   5
ATOM      5  C   UNL     1      14.241  12.994   9.100  1.00  0.00     0.041 C 
ATOM      6  O   UNL     1      13.721  12.639   8.010  1.00  0.00    -0.550 OA
ATOM      7  O   UNL     1      14.039  12.226  10.241  1.00  0.00    -0.550 OA
ENDBRANCH   4   5
ENDBRANCH   3   4
ENDBRANCH   2   3
ENDBRANCH   1   2
BRANCH   1   8
ATOM      8  C   UNL     1      16.693  17.565   8.947  1.00  0.00     0.000 C 
BRANCH   8   9
ATOM      9  C   UNL     1      16.318  18.975   9.422  1.00  0.00     0.000 C 
BRANCH   9  10
ATOM     10  C   UNL     1      15.349  18.917  10.608  1.00  0.00     0.006 C 
BRANCH  10  11
ATOM     11  C   UNL     1      15.173  20.300  11.242  1.00  0.00     0.053 C 
BRANCH  11  12
ATOM     12  C   UNL     1      13.776  20.471  11.750  1.00  0.00     0.041 C 
ATOM     13  O   UNL     1      13.246  21.613  11.775  1.00  0.00    -0.550 OA
ATOM     14  O   UNL     1      13.078  19.377  12.245  1.00  0.00    -0.550 OA
ENDBRANCH  11  12
ENDBRANCH  10  11
ENDBRANCH   9  10
ENDBRANCH   8   9
ENDBRANCH   1   8
TORSDOF 9
ENDMDL
MODEL 5
REMARK VINA RESULT:    -3.057      1.826      6.341
REMARK INTER + INTRA:          -5.334
REMARK INTER:                  -4.885
REMARK INTRA:                  -0.449
REMARK UNBOUND:                -0.668
REMARK SMILES O=C([O-])CCCCCCCCC(=O)[O-]
REMARK SMILES IDX 7 1 6 2 5 3 4 4 2 5 1 6 3 7 8 8 9 9 10 10 11 11 12 12 13 13
REMARK SMILES IDX 14 14
REMARK H PARENT
REMARK Flexibility Score: inf
ROOT
ATOM      1  C   UNL     1      15.603  17.242   8.690  1.00  0.00     0.000 C 
ENDROOT
BRANCH   1   2
ATOM      2  C   UNL     1      16.654  18.338   8.918  1.00  0.00     0.000 C 
BRANCH   2   3
ATOM      3  C   UNL     1      16.255  19.319  10.033  1.00  0.00     0.006 C 
BRANCH   3   4
ATOM      4  C   UNL     1      15.185  18.745  10.969  1.00  0.00     0.053 C 
BRANCH   4   5
ATOM      5  C   UNL     1      14.343  19.845  11.536  1.00  0.00     0.041 C 
ATOM      6  O   UNL     1      14.715  21.044  11.435  1.00  0.00    -0.550 OA
ATOM      7  O   UNL     1      13.172  19.542  12.219  1.00  0.00    -0.550 OA
ENDBRANCH   4   5
ENDBRANCH   3   4
ENDBRANCH   2   3
ENDBRANCH   1   2
BRANCH   1   8
ATOM      8  C   UNL     1      16.255  15.855   8.659  1.00  0.00     0.000 C 
BRANCH   8   9
ATOM      9  C   UNL     1      15.432  14.840   9.461  1.00  0.00     0.000 C 
BRANCH   9  10
ATOM     10  C   UNL     1      15.345  13.497   8.727  1.00  0.00     0.006 C 
BRANCH  10  11
ATOM     11  C   UNL     1      14.071  12.740   9.114  1.00  0.00     0.053 C 
BRANCH  11  12
ATOM     12  C   UNL     1      14.181  12.207  10.507  1.00  0.00     0.041 C 
ATOM     13  O   UNL     1      15.023  11.310  10.777  1.00  0.00    -0.550 OA
ATOM     14  O   UNL     1      13.319  12.662  11.497  1.00  0.00    -0.550 OA
ENDBRANCH  11  12
ENDBRANCH  10  11
ENDBRANCH   9  10
ENDBRANCH   8   9
ENDBRANCH   1   8
TORSDOF 9
ENDMDL
MODEL 6
REMARK VINA RESULT:    -3.049      2.534      6.701
REMARK INTER + INTRA:          -5.322
REMARK INTER:                  -4.999
REMARK INTRA:                  -0.323
REMARK UNBOUND:                -0.668
REMARK SMILES O=C([O-])CCCCCCCCC(=O)[O-]
REMARK SMILES IDX 7 1 6 2 5 3 4 4 2 5 1 6 3 7 8 8 9 9 10 10 11 11 12 12 13 13
REMARK SMILES IDX 14 14
REMARK H PARENT
REMARK Flexibility Score: inf
ROOT
ATOM      1  C   UNL     1      16.925  18.266   8.800  1.00  0.00     0.000 C 
ENDROOT
BRANCH   1   2
ATOM      2  C   UNL     1      16.694  19.475   9.719  1.00  0.00     0.000 C 
BRANCH   2   3
ATOM      3  C   UNL     1      15.462  19.305  10.624  1.00  0.00     0.006 C 
BRANCH   3   4
ATOM      4  C   UNL     1      15.083  20.599  11.354  1.00  0.00     0.053 C 
BRANCH   4   5
ATOM      5  C   UNL     1      13.684  20.512  11.875  1.00  0.00     0.041 C 
ATOM      6  O   UNL     1      13.146  19.390  12.065  1.00  0.00    -0.550 OA
ATOM      7  O   UNL     1      12.954  21.673  12.104  1.00  0.00    -0.550 OA
ENDBRANCH   4   5
ENDBRANCH   3   4
ENDBRANCH   2   3
ENDBRANCH   1   2
BRANCH   1   8
ATOM      8  C   UNL     1      15.754  17.281   8.884  1.00  0.00     0.000 C 
BRANCH   8   9
ATOM      9  C   UNL     1      16.242  15.875   9.255  1.00  0.00     0.000 C 
BRANCH   9  10
ATOM     10  C   UNL     1      15.261  14.805   8.764  1.00  0.00     0.006 C 
BRANCH  10  11
ATOM     11  C   UNL     1      14.875  13.850   9.899  1.00  0.00     0.053 C 
BRANCH  11  12
ATOM     12  C   UNL     1      14.112  12.681   9.364  1.00  0.00     0.041 C 
ATOM     13  O   UNL     1      13.710  12.678   8.170  1.00  0.00    -0.550 OA
ATOM     14  O   UNL     1      13.798  11.614  10.197  1.00  0.00    -0.550 OA
ENDBRANCH  11  12
ENDBRANCH  10  11
ENDBRANCH   9  10
ENDBRANCH   8   9
ENDBRANCH   1   8
TORSDOF 9
ENDMDL
MODEL 7
REMARK VINA RESULT:    -2.759      1.521      2.193
REMARK INTER + INTRA:          -4.879
REMARK INTER:                  -4.016
REMARK INTRA:                  -0.864
REMARK UNBOUND:                -0.668
REMARK SMILES O=C([O-])CCCCCCCCC(=O)[O-]
REMARK SMILES IDX 7 1 6 2 5 3 4 4 2 5 1 6 3 7 8 8 9 9 10 10 11 11 12 12 13 13
REMARK SMILES IDX 14 14
REMARK H PARENT
REMARK Flexibility Score: inf
ROOT
ATOM      1  C   UNL     1      15.688  14.507   7.501  1.00  0.00     0.000 C 
ENDROOT
BRANCH   1   2
ATOM      2  C   UNL     1      16.708  13.728   8.345  1.00  0.00     0.000 C 
BRANCH   2   3
ATOM      3  C   UNL     1      16.165  13.353   9.733  1.00  0.00     0.006 C 
BRANCH   3   4
ATOM      4  C   UNL     1      14.669  13.655   9.884  1.00  0.00     0.053 C 
BRANCH   4   5
ATOM      5  C   UNL     1      13.993  12.570  10.662  1.00  0.00     0.041 C 
ATOM      6  O   UNL     1      13.752  11.459  10.121  1.00  0.00    -0.550 OA
ATOM      7  O   UNL     1      13.584  12.804  11.969  1.00  0.00    -0.550 OA
ENDBRANCH   4   5
ENDBRANCH   3   4
ENDBRANCH   2   3
ENDBRANCH   1   2
BRANCH   1   8
ATOM      8  C   UNL     1      16.277  15.837   7.018  1.00  0.00     0.000 C 
BRANCH   8   9
ATOM      9  C   UNL     1      16.835  16.651   8.192  1.00  0.00     0.000 C 
BRANCH   9  10
ATOM     10  C   UNL     1      15.705  17.296   9.002  1.00  0.00     0.006 C 
BRANCH  10  11
ATOM     11  C   UNL     1      16.036  17.305  10.497  1.00  0.00     0.053 C 
BRANCH  11  12
ATOM     12  C   UNL     1      15.529  18.558  11.139  1.00  0.00     0.041 C 
ATOM     13  O   UNL     1      15.366  19.600  10.452  1.00  0.00    -0.550 OA
ATOM     14  O   UNL     1      15.287  18.590  12.507  1.00  0.00    -0.550 OA
ENDBRANCH  11  12
ENDBRANCH  10  11
ENDBRANCH   9  10
ENDBRANCH   8   9
ENDBRANCH   1   8
TORSDOF 9
ENDMDL
MODEL 8
REMARK VINA RESULT:    -2.708      1.285      5.481
REMARK INTER + INTRA:          -4.801
REMARK INTER:                  -4.191
REMARK INTRA:                  -0.610
REMARK UNBOUND:                -0.668
REMARK SMILES O=C([O-])CCCCCCCCC(=O)[O-]
REMARK SMILES IDX 7 1 6 2 5 3 4 4 2 5 1 6 3 7 8 8 9 9 10 10 11 11 12 12 13 13
REMARK SMILES IDX 14 14
REMARK H PARENT
REMARK Flexibility Score: inf
ROOT
ATOM      1  C   UNL     1      15.614  15.241   7.275  1.00  0.00     0.000 C 
ENDROOT
BRANCH   1   2
ATOM      2  C   UNL     1      16.950  15.997   7.302  1.00  0.00     0.000 C 
BRANCH   2   3
ATOM      3  C   UNL     1      16.967  17.136   8.335  1.00  0.00     0.006 C 
BRANCH   3   4
ATOM      4  C   UNL     1      15.629  17.286   9.069  1.00  0.00     0.053 C 
BRANCH   4   5
ATOM      5  C   UNL     1      15.741  18.311  10.153  1.00  0.00     0.041 C 
ATOM      6  O   UNL     1      16.007  19.509   9.868  1.00  0.00    -0.550 OA
ATOM      7  O   UNL     1      15.601  17.935  11.483  1.00  0.00    -0.550 OA
ENDBRANCH   4   5
ENDBRANCH   3   4
ENDBRANCH   2   3
ENDBRANCH   1   2
BRANCH   1   8
ATOM      8  C   UNL     1      15.841  13.726   7.253  1.00  0.00     0.000 C 
BRANCH   8   9
ATOM      9  C   UNL     1      15.843  13.147   8.673  1.00  0.00     0.000 C 
BRANCH   9  10
ATOM     10  C   UNL     1      14.550  13.506   9.415  1.00  0.00     0.006 C 
BRANCH  10  11
ATOM     11  C   UNL     1      14.053  12.325  10.256  1.00  0.00     0.053 C 
BRANCH  11  12
ATOM     12  C   UNL     1      13.968  12.709  11.699  1.00  0.00     0.041 C 
ATOM     13  O   UNL     1      12.863  12.661  12.303  1.00  0.00    -0.550 OA
ATOM     14  O   UNL     1      15.097  13.167  12.365  1.00  0.00    -0.550 OA
ENDBRANCH  11  12
ENDBRANCH  10  11
ENDBRANCH   9  10
ENDBRANCH   8   9
ENDBRANCH   1   8
TORSDOF 9
ENDMDL
MODEL 9
REMARK VINA RESULT:    -2.518      3.462      4.684
REMARK INTER + INTRA:          -4.510
REMARK INTER:                  -4.102
REMARK INTRA:                  -0.408
REMARK UNBOUND:                -0.668
REMARK SMILES O=C([O-])CCCCCCCCC(=O)[O-]
REMARK SMILES IDX 7 1 6 2 5 3 4 4 2 5 1 6 3 7 8 8 9 9 10 10 11 11 12 12 13 13
REMARK SMILES IDX 14 14
REMARK H PARENT
REMARK Flexibility Score: inf
ROOT
ATOM      1  C   UNL     1      15.708  16.735   9.346  1.00  0.00     0.000 C 
ENDROOT
BRANCH   1   2
ATOM      2  C   UNL     1      16.738  16.762   8.207  1.00  0.00     0.000 C 
BRANCH   2   3
ATOM      3  C   UNL     1      16.440  15.724   7.113  1.00  0.00     0.006 C 
BRANCH   3   4
ATOM      4  C   UNL     1      16.912  14.315   7.493  1.00  0.00     0.053 C 
BRANCH   4   5
ATOM      5  C   UNL     1      16.174  13.285   6.697  1.00  0.00     0.041 C 
ATOM      6  O   UNL     1      14.937  13.123   6.862  1.00  0.00    -0.550 OA
ATOM      7  O   UNL     1      16.863  12.469   5.809  1.00  0.00    -0.550 OA
ENDBRANCH   4   5
ENDBRANCH   3   4
ENDBRANCH   2   3
ENDBRANCH   1   2
BRANCH   1   8
ATOM      8  C   UNL     1      16.401  16.642  10.710  1.00  0.00     0.000 C 
BRANCH   8   9
ATOM      9  C   UNL     1      16.146  17.903  11.545  1.00  0.00     0.000 C 
BRANCH   9  10
ATOM     10  C   UNL     1      15.090  18.797  10.885  1.00  0.00     0.006 C 
BRANCH  10  11
ATOM     11  C   UNL     1      15.475  20.275  10.995  1.00  0.00     0.053 C 
BRANCH  11  12
ATOM     12  C   UNL     1      14.598  20.973  11.986  1.00  0.00     0.041 C 
ATOM     13  O   UNL     1      15.077  21.388  13.075  1.00  0.00    -0.550 OA
ATOM     14  O   UNL     1      13.241  21.121  11.730  1.00  0.00    -0.550 OA
ENDBRANCH  11  12
ENDBRANCH  10  11
ENDBRANCH   9  10
ENDBRANCH   8   9
ENDBRANCH   1   8
TORSDOF 9
ENDMDL
