MODEL 1
REMARK VINA RESULT:    -2.392      0.000      0.000
REMARK INTER + INTRA:          -2.704
REMARK INTER:                  -2.672
REMARK INTRA:                  -0.032
REMARK UNBOUND:                -0.032
REMARK SMILES CCCC(=O)[O-]
REMARK SMILES IDX 3 1 4 2 5 3 6 4 2 5 1 6
REMARK H PARENT
REMARK Flexibility Score: inf
ROOT
ATOM      1  C   UNL     1       0.923 -50.163  10.724  1.00  0.00     0.052 C 
ENDROOT
BRANCH   1   2
ATOM      2  C   UNL     1       2.345 -50.100  10.256  1.00  0.00     0.041 C 
ATOM      3  O   UNL     1       2.633 -50.392   9.065  1.00  0.00    -0.550 OA
ATOM      4  O   UNL     1       3.347 -49.686  11.124  1.00  0.00    -0.550 OA
ENDBRANCH   1   2
BRANCH   1   5
ATOM      5  C   UNL     1      -0.027 -50.592   9.599  1.00  0.00     0.003 C 
ATOM      6  C   UNL     1      -1.096 -49.539   9.307  1.00  0.00     0.004 C 
ENDBRANCH   1   5
TORSDOF 2
ENDMDL
MODEL 2
REMARK VINA RESULT:    -2.175      2.630      3.351
REMARK INTER + INTRA:          -2.461
REMARK INTER:                  -2.402
REMARK INTRA:                  -0.059
REMARK UNBOUND:                -0.032
REMARK SMILES CCCC(=O)[O-]
REMARK SMILES IDX 3 1 4 2 5 3 6 4 2 5 1 6
REMARK H PARENT
REMARK Flexibility Score: inf
ROOT
ATOM      1  C   UNL     1       0.110 -49.924  10.833  1.00  0.00     0.052 C 
ENDROOT
BRANCH   1   2
ATOM      2  C   UNL     1      -0.712 -50.099   9.593  1.00  0.00     0.041 C 
ATOM      3  O   UNL     1      -1.124 -49.092   8.959  1.00  0.00    -0.550 OA
ATOM      4  O   UNL     1      -0.995 -51.374   9.118  1.00  0.00    -0.550 OA
ENDBRANCH   1   2
BRANCH   1   5
ATOM      5  C   UNL     1       1.455 -50.655  10.732  1.00  0.00     0.003 C 
ATOM      6  C   UNL     1       2.268 -50.214   9.515  1.00  0.00     0.004 C 
ENDBRANCH   1   5
TORSDOF 2
ENDMDL
MODEL 3
REMARK VINA RESULT:    -2.169      5.377      6.292
REMARK INTER + INTRA:          -2.455
REMARK INTER:                  -2.447
REMARK INTRA:                  -0.008
REMARK UNBOUND:                -0.032
REMARK SMILES CCCC(=O)[O-]
REMARK SMILES IDX 3 1 4 2 5 3 6 4 2 5 1 6
REMARK H PARENT
REMARK Flexibility Score: inf
ROOT
ATOM      1  C   UNL     1       6.354 -53.231   9.884  1.00  0.00     0.052 C 
ENDROOT
BRANCH   1   2
ATOM      2  C   UNL     1       7.753 -53.294  10.417  1.00  0.00     0.041 C 
ATOM      3  O   UNL     1       8.313 -54.408  10.592  1.00  0.00    -0.550 OA
ATOM      4  O   UNL     1       8.449 -52.123  10.687  1.00  0.00    -0.550 OA
ENDBRANCH   1   2
BRANCH   1   5
ATOM      5  C   UNL     1       5.313 -53.335  11.006  1.00  0.00     0.003 C 
ATOM      6  C   UNL     1       4.109 -52.423  10.770  1.00  0.00     0.004 C 
ENDBRANCH   1   5
TORSDOF 2
ENDMDL
MODEL 4
REMARK VINA RESULT:    -2.067      2.055      3.535
REMARK INTER + INTRA:          -2.340
REMARK INTER:                  -2.307
REMARK INTRA:                  -0.033
REMARK UNBOUND:                -0.032
REMARK SMILES CCCC(=O)[O-]
REMARK SMILES IDX 3 1 4 2 5 3 6 4 2 5 1 6
REMARK H PARENT
REMARK Flexibility Score: inf
ROOT
ATOM      1  C   UNL     1       2.022 -50.253   9.608  1.00  0.00     0.052 C 
ENDROOT
BRANCH   1   2
ATOM      2  C   UNL     1       0.595 -50.330  10.057  1.00  0.00     0.041 C 
ATOM      3  O   UNL     1       0.235 -49.760  11.121  1.00  0.00    -0.550 OA
ATOM      4  O   UNL     1      -0.344 -51.000   9.283  1.00  0.00    -0.550 OA
ENDBRANCH   1   2
BRANCH   1   5
ATOM      5  C   UNL     1       2.992 -50.231  10.796  1.00  0.00     0.003 C 
ATOM      6  C   UNL     1       3.620 -51.600  11.061  1.00  0.00     0.004 C 
ENDBRANCH   1   5
TORSDOF 2
ENDMDL
MODEL 5
REMARK VINA RESULT:    -1.727      2.483      3.260
REMARK INTER + INTRA:          -1.960
REMARK INTER:                  -1.941
REMARK INTRA:                  -0.019
REMARK UNBOUND:                -0.032
REMARK SMILES CCCC(=O)[O-]
REMARK SMILES IDX 3 1 4 2 5 3 6 4 2 5 1 6
REMARK H PARENT
REMARK Flexibility Score: inf
ROOT
ATOM      1  C   UNL     1       0.951 -50.051   9.561  1.00  0.00     0.052 C 
ENDROOT
BRANCH   1   2
ATOM      2  C   UNL     1       0.002 -50.501  10.629  1.00  0.00     0.041 C 
ATOM      3  O   UNL     1       0.088 -51.665  11.104  1.00  0.00    -0.550 OA
ATOM      4  O   UNL     1      -0.956 -49.625  11.125  1.00  0.00    -0.550 OA
ENDBRANCH   1   2
BRANCH   1   5
ATOM      5  C   UNL     1       2.366 -50.599   9.790  1.00  0.00     0.003 C 
ATOM      6  C   UNL     1       3.096 -50.892   8.480  1.00  0.00     0.004 C 
ENDBRANCH   1   5
TORSDOF 2
ENDMDL
MODEL 6
REMARK VINA RESULT:    -1.525      2.463      3.876
REMARK INTER + INTRA:          -1.735
REMARK INTER:                  -1.727
REMARK INTRA:                  -0.008
REMARK UNBOUND:                -0.032
REMARK SMILES CCCC(=O)[O-]
REMARK SMILES IDX 3 1 4 2 5 3 6 4 2 5 1 6
REMARK H PARENT
REMARK Flexibility Score: inf
ROOT
ATOM      1  C   UNL     1       3.690 -51.889   9.677  1.00  0.00     0.052 C 
ENDROOT
BRANCH   1   2
ATOM      2  C   UNL     1       2.722 -50.771   9.922  1.00  0.00     0.041 C 
ATOM      3  O   UNL     1       1.661 -50.695   9.248  1.00  0.00    -0.550 OA
ATOM      4  O   UNL     1       2.975 -49.836  10.917  1.00  0.00    -0.550 OA
ENDBRANCH   1   2
BRANCH   1   5
ATOM      5  C   UNL     1       4.321 -52.392  10.981  1.00  0.00     0.003 C 
ATOM      6  C   UNL     1       4.397 -53.918  11.041  1.00  0.00     0.004 C 
ENDBRANCH   1   5
TORSDOF 2
ENDMDL
MODEL 7
REMARK VINA RESULT:    -1.278      1.301      2.471
REMARK INTER + INTRA:          -1.459
REMARK INTER:                  -1.641
REMARK INTRA:                   0.182
REMARK UNBOUND:                -0.032
REMARK SMILES CCCC(=O)[O-]
REMARK SMILES IDX 3 1 4 2 5 3 6 4 2 5 1 6
REMARK H PARENT
REMARK Flexibility Score: inf
ROOT
ATOM      1  C   UNL     1       0.960 -50.405  10.232  1.00  0.00     0.052 C 
ENDROOT
BRANCH   1   2
ATOM      2  C   UNL     1       2.415 -50.162   9.968  1.00  0.00     0.041 C 
ATOM      3  O   UNL     1       3.142 -49.645  10.858  1.00  0.00    -0.550 OA
ATOM      4  O   UNL     1       2.975 -50.536   8.754  1.00  0.00    -0.550 OA
ENDBRANCH   1   2
BRANCH   1   5
ATOM      5  C   UNL     1       0.742 -51.636  11.121  1.00  0.00     0.003 C 
ATOM      6  C   UNL     1       1.939 -52.587  11.104  1.00  0.00     0.004 C 
ENDBRANCH   1   5
TORSDOF 2
ENDMDL
MODEL 8
REMARK VINA RESULT:    -1.128      4.696      5.414
REMARK INTER + INTRA:          -1.291
REMARK INTER:                  -1.285
REMARK INTRA:                  -0.006
REMARK UNBOUND:                -0.032
REMARK SMILES CCCC(=O)[O-]
REMARK SMILES IDX 3 1 4 2 5 3 6 4 2 5 1 6
REMARK H PARENT
REMARK Flexibility Score: inf
ROOT
ATOM      1  C   UNL     1       4.476 -54.569  10.475  1.00  0.00     0.052 C 
ENDROOT
BRANCH   1   2
ATOM      2  C   UNL     1       4.749 -53.130  10.793  1.00  0.00     0.041 C 
ATOM      3  O   UNL     1       5.908 -52.765  11.125  1.00  0.00    -0.550 OA
ATOM      4  O   UNL     1       3.734 -52.188  10.690  1.00  0.00    -0.550 OA
ENDBRANCH   1   2
BRANCH   1   5
ATOM      5  C   UNL     1       3.175 -55.058  11.125  1.00  0.00     0.003 C 
ATOM      6  C   UNL     1       2.981 -56.567  10.977  1.00  0.00     0.004 C 
ENDBRANCH   1   5
TORSDOF 2
ENDMDL
