MODEL 1
REMARK VINA RESULT:    -3.752      0.000      0.000
REMARK INTER + INTRA:          -8.103
REMARK INTER:                  -6.385
REMARK INTRA:                  -1.718
REMARK UNBOUND:                -1.718
REMARK SMILES CCCCCCCCCCCCCC(=O)[O-]
REMARK SMILES IDX 8 1 9 2 10 3 11 4 12 5 13 6 14 7 15 8 16 9 7 10 6 11 5 12
REMARK SMILES IDX 4 13 3 14 2 15 1 16
REMARK H PARENT
REMARK Flexibility Score: inf
ROOT
ATOM      1  C   UNL     1       1.516  14.942   9.285  1.00  0.00     0.000 C 
ENDROOT
BRANCH   1   2
ATOM      2  C   UNL     1       2.129  14.307   8.027  1.00  0.00     0.000 C 
BRANCH   2   3
ATOM      3  C   UNL     1       2.548  12.856   8.292  1.00  0.00     0.000 C 
BRANCH   3   4
ATOM      4  C   UNL     1       3.969  12.591   7.781  1.00  0.00     0.000 C 
BRANCH   4   5
ATOM      5  C   UNL     1       4.568  11.344   8.442  1.00  0.00     0.006 C 
BRANCH   5   6
ATOM      6  C   UNL     1       3.479  10.504   9.116  1.00  0.00     0.053 C 
BRANCH   6   7
ATOM      7  C   UNL     1       3.174   9.289   8.298  1.00  0.00     0.041 C 
ATOM      8  O   UNL     1       2.231   9.306   7.465  1.00  0.00    -0.550 OA
ATOM      9  O   UNL     1       3.905   8.122   8.488  1.00  0.00    -0.550 OA
ENDBRANCH   6   7
ENDBRANCH   5   6
ENDBRANCH   4   5
ENDBRANCH   3   4
ENDBRANCH   2   3
ENDBRANCH   1   2
BRANCH   1  10
ATOM     10  C   UNL     1       1.999  14.280  10.589  1.00  0.00     0.000 C 
BRANCH  10  11
ATOM     11  C   UNL     1       2.606  15.243  11.626  1.00  0.00    -0.000 C 
BRANCH  11  12
ATOM     12  C   UNL     1       3.841  14.660  12.334  1.00  0.00    -0.000 C 
BRANCH  12  13
ATOM     13  C   UNL     1       4.459  13.479  11.567  1.00  0.00    -0.000 C 
BRANCH  13  14
ATOM     14  C   UNL     1       5.817  13.826  10.937  1.00  0.00    -0.000 C 
BRANCH  14  15
ATOM     15  C   UNL     1       6.910  12.874  11.437  1.00  0.00    -0.003 C 
ATOM     16  C   UNL     1       6.350  11.478  11.697  1.00  0.00     0.004 C 
ENDBRANCH  14  15
ENDBRANCH  13  14
ENDBRANCH  12  13
ENDBRANCH  11  12
ENDBRANCH  10  11
ENDBRANCH   1  10
TORSDOF 12
ENDMDL
MODEL 2
REMARK VINA RESULT:    -3.725      2.738      4.310
REMARK INTER + INTRA:          -8.056
REMARK INTER:                  -5.768
REMARK INTRA:                  -2.288
REMARK UNBOUND:                -1.718
REMARK SMILES CCCCCCCCCCCCCC(=O)[O-]
REMARK SMILES IDX 8 1 9 2 10 3 11 4 12 5 13 6 14 7 15 8 16 9 7 10 6 11 5 12
REMARK SMILES IDX 4 13 3 14 2 15 1 16
REMARK H PARENT
REMARK Flexibility Score: inf
ROOT
ATOM      1  C   UNL     1       2.362  14.706  11.457  1.00  0.00     0.000 C 
ENDROOT
BRANCH   1   2
ATOM      2  C   UNL     1       3.826  14.253  11.343  1.00  0.00     0.000 C 
BRANCH   2   3
ATOM      3  C   UNL     1       3.974  12.774  11.720  1.00  0.00     0.000 C 
BRANCH   3   4
ATOM      4  C   UNL     1       2.673  12.224  12.314  1.00  0.00     0.000 C 
BRANCH   4   5
ATOM      5  C   UNL     1       2.441  10.771  11.883  1.00  0.00     0.006 C 
BRANCH   5   6
ATOM      6  C   UNL     1       1.134  10.633  11.097  1.00  0.00     0.053 C 
BRANCH   6   7
ATOM      7  C   UNL     1      -0.022  11.113  11.917  1.00  0.00     0.041 C 
ATOM      8  O   UNL     1      -0.369  10.485  12.952  1.00  0.00    -0.550 OA
ATOM      9  O   UNL     1      -0.745  12.228  11.513  1.00  0.00    -0.550 OA
ENDBRANCH   6   7
ENDBRANCH   5   6
ENDBRANCH   4   5
ENDBRANCH   3   4
ENDBRANCH   2   3
ENDBRANCH   1   2
BRANCH   1  10
ATOM     10  C   UNL     1       1.861  15.443  10.201  1.00  0.00     0.000 C 
BRANCH  10  11
ATOM     11  C   UNL     1       0.771  14.705   9.401  1.00  0.00    -0.000 C 
BRANCH  11  12
ATOM     12  C   UNL     1       1.315  13.497   8.621  1.00  0.00    -0.000 C 
BRANCH  12  13
ATOM     13  C   UNL     1       2.471  13.872   7.679  1.00  0.00    -0.000 C 
BRANCH  13  14
ATOM     14  C   UNL     1       3.713  12.990   7.882  1.00  0.00    -0.000 C 
BRANCH  14  15
ATOM     15  C   UNL     1       3.310  11.559   8.259  1.00  0.00    -0.003 C 
ATOM     16  C   UNL     1       4.524  10.740   8.692  1.00  0.00     0.004 C 
ENDBRANCH  14  15
ENDBRANCH  13  14
ENDBRANCH  12  13
ENDBRANCH  11  12
ENDBRANCH  10  11
ENDBRANCH   1  10
TORSDOF 12
ENDMDL
MODEL 3
REMARK VINA RESULT:    -3.721      2.143      4.381
REMARK INTER + INTRA:          -8.051
REMARK INTER:                  -6.387
REMARK INTRA:                  -1.663
REMARK UNBOUND:                -1.718
REMARK SMILES CCCCCCCCCCCCCC(=O)[O-]
REMARK SMILES IDX 8 1 9 2 10 3 11 4 12 5 13 6 14 7 15 8 16 9 7 10 6 11 5 12
REMARK SMILES IDX 4 13 3 14 2 15 1 16
REMARK H PARENT
REMARK Flexibility Score: inf
ROOT
ATOM      1  C   UNL     1       6.350  11.299  11.101  1.00  0.00     0.000 C 
ENDROOT
BRANCH   1   2
ATOM      2  C   UNL     1       6.339  10.590   9.739  1.00  0.00     0.000 C 
BRANCH   2   3
ATOM      3  C   UNL     1       5.112  11.000   8.915  1.00  0.00     0.000 C 
BRANCH   3   4
ATOM      4  C   UNL     1       3.826  10.870   9.740  1.00  0.00     0.000 C 
BRANCH   4   5
ATOM      5  C   UNL     1       2.863  12.025   9.445  1.00  0.00     0.006 C 
BRANCH   5   6
ATOM      6  C   UNL     1       3.514  13.062   8.525  1.00  0.00     0.053 C 
BRANCH   6   7
ATOM      7  C   UNL     1       2.469  13.846   7.797  1.00  0.00     0.041 C 
ATOM      8  O   UNL     1       1.838  14.762   8.387  1.00  0.00    -0.550 OA
ATOM      9  O   UNL     1       2.158  13.534   6.479  1.00  0.00    -0.550 OA
ENDBRANCH   6   7
ENDBRANCH   5   6
ENDBRANCH   4   5
ENDBRANCH   3   4
ENDBRANCH   2   3
ENDBRANCH   1   2
BRANCH   1  10
ATOM     10  C   UNL     1       6.968  12.708  11.041  1.00  0.00     0.000 C 
BRANCH  10  11
ATOM     11  C   UNL     1       5.964  13.869  11.173  1.00  0.00    -0.000 C 
BRANCH  11  12
ATOM     12  C   UNL     1       5.111  13.781  12.450  1.00  0.00    -0.000 C 
BRANCH  12  13
ATOM     13  C   UNL     1       4.198  15.005  12.637  1.00  0.00    -0.000 C 
BRANCH  13  14
ATOM     14  C   UNL     1       2.901  14.908  11.819  1.00  0.00    -0.000 C 
BRANCH  14  15
ATOM     15  C   UNL     1       1.957  13.857  12.415  1.00  0.00    -0.003 C 
ATOM     16  C   UNL     1       1.826  14.027  13.927  1.00  0.00     0.004 C 
ENDBRANCH  14  15
ENDBRANCH  13  14
ENDBRANCH  12  13
ENDBRANCH  11  12
ENDBRANCH  10  11
ENDBRANCH   1  10
TORSDOF 12
ENDMDL
MODEL 4
REMARK VINA RESULT:    -3.716      2.874      4.947
REMARK INTER + INTRA:          -8.042
REMARK INTER:                  -6.267
REMARK INTRA:                  -1.775
REMARK UNBOUND:                -1.718
REMARK SMILES CCCCCCCCCCCCCC(=O)[O-]
REMARK SMILES IDX 8 1 9 2 10 3 11 4 12 5 13 6 14 7 15 8 16 9 7 10 6 11 5 12
REMARK SMILES IDX 4 13 3 14 2 15 1 16
REMARK H PARENT
REMARK Flexibility Score: inf
ROOT
ATOM      1  C   UNL     1       1.430  14.288   9.707  1.00  0.00     0.000 C 
ENDROOT
BRANCH   1   2
ATOM      2  C   UNL     1       2.078  15.201  10.760  1.00  0.00     0.000 C 
BRANCH   2   3
ATOM      3  C   UNL     1       2.658  14.379  11.917  1.00  0.00     0.000 C 
BRANCH   3   4
ATOM      4  C   UNL     1       4.029  14.917  12.342  1.00  0.00     0.000 C 
BRANCH   4   5
ATOM      5  C   UNL     1       5.109  13.836  12.215  1.00  0.00     0.006 C 
BRANCH   5   6
ATOM      6  C   UNL     1       5.133  12.937  13.455  1.00  0.00     0.053 C 
BRANCH   6   7
ATOM      7  C   UNL     1       6.468  12.276  13.596  1.00  0.00     0.041 C 
ATOM      8  O   UNL     1       7.285  12.287  12.638  1.00  0.00    -0.550 OA
ATOM      9  O   UNL     1       6.792  11.607  14.770  1.00  0.00    -0.550 OA
ENDBRANCH   6   7
ENDBRANCH   5   6
ENDBRANCH   4   5
ENDBRANCH   3   4
ENDBRANCH   2   3
ENDBRANCH   1   2
BRANCH   1  10
ATOM     10  C   UNL     1       1.890  14.604   8.272  1.00  0.00     0.000 C 
BRANCH  10  11
ATOM     11  C   UNL     1       2.688  13.484   7.579  1.00  0.00    -0.000 C 
BRANCH  11  12
ATOM     12  C   UNL     1       3.813  12.916   8.461  1.00  0.00    -0.000 C 
BRANCH  12  13
ATOM     13  C   UNL     1       3.609  11.429   8.796  1.00  0.00    -0.000 C 
BRANCH  13  14
ATOM     14  C   UNL     1       3.686  11.145  10.304  1.00  0.00    -0.000 C 
BRANCH  14  15
ATOM     15  C   UNL     1       2.302  10.798  10.865  1.00  0.00    -0.003 C 
ATOM     16  C   UNL     1       1.312  10.491   9.744  1.00  0.00     0.004 C 
ENDBRANCH  14  15
ENDBRANCH  13  14
ENDBRANCH  12  13
ENDBRANCH  11  12
ENDBRANCH  10  11
ENDBRANCH   1  10
TORSDOF 12
ENDMDL
MODEL 5
REMARK VINA RESULT:    -3.692      2.659      4.331
REMARK INTER + INTRA:          -8.000
REMARK INTER:                  -6.436
REMARK INTRA:                  -1.564
REMARK UNBOUND:                -1.718
REMARK SMILES CCCCCCCCCCCCCC(=O)[O-]
REMARK SMILES IDX 8 1 9 2 10 3 11 4 12 5 13 6 14 7 15 8 16 9 7 10 6 11 5 12
REMARK SMILES IDX 4 13 3 14 2 15 1 16
REMARK H PARENT
REMARK Flexibility Score: inf
ROOT
ATOM      1  C   UNL     1       4.544  13.498  10.545  1.00  0.00     0.000 C 
ENDROOT
BRANCH   1   2
ATOM      2  C   UNL     1       4.420  12.056  10.031  1.00  0.00     0.000 C 
BRANCH   2   3
ATOM      3  C   UNL     1       3.984  12.033   8.561  1.00  0.00     0.000 C 
BRANCH   3   4
ATOM      4  C   UNL     1       3.616  13.439   8.073  1.00  0.00     0.000 C 
BRANCH   4   5
ATOM      5  C   UNL     1       2.294  13.425   7.298  1.00  0.00     0.006 C 
BRANCH   5   6
ATOM      6  C   UNL     1       1.125  13.047   8.213  1.00  0.00     0.053 C 
BRANCH   6   7
ATOM      7  C   UNL     1       0.957  14.067   9.294  1.00  0.00     0.041 C 
ATOM      8  O   UNL     1       0.776  15.278   9.001  1.00  0.00    -0.550 OA
ATOM      9  O   UNL     1       1.044  13.687  10.628  1.00  0.00    -0.550 OA
ENDBRANCH   6   7
ENDBRANCH   5   6
ENDBRANCH   4   5
ENDBRANCH   3   4
ENDBRANCH   2   3
ENDBRANCH   1   2
BRANCH   1  10
ATOM     10  C   UNL     1       5.976  13.859  10.983  1.00  0.00     0.000 C 
BRANCH  10  11
ATOM     11  C   UNL     1       6.665  12.821  11.890  1.00  0.00    -0.000 C 
BRANCH  11  12
ATOM     12  C   UNL     1       7.869  12.143  11.215  1.00  0.00    -0.000 C 
BRANCH  12  13
ATOM     13  C   UNL     1       7.878  10.618  11.417  1.00  0.00    -0.000 C 
BRANCH  13  14
ATOM     14  C   UNL     1       7.750   9.843  10.097  1.00  0.00    -0.000 C 
BRANCH  14  15
ATOM     15  C   UNL     1       8.076  10.745   8.901  1.00  0.00    -0.003 C 
ATOM     16  C   UNL     1       7.218  10.387   7.690  1.00  0.00     0.004 C 
ENDBRANCH  14  15
ENDBRANCH  13  14
ENDBRANCH  12  13
ENDBRANCH  11  12
ENDBRANCH  10  11
ENDBRANCH   1  10
TORSDOF 12
ENDMDL
MODEL 6
REMARK VINA RESULT:    -3.647      2.745      3.182
REMARK INTER + INTRA:          -7.923
REMARK INTER:                  -6.129
REMARK INTRA:                  -1.795
REMARK UNBOUND:                -1.718
REMARK SMILES CCCCCCCCCCCCCC(=O)[O-]
REMARK SMILES IDX 8 1 9 2 10 3 11 4 12 5 13 6 14 7 15 8 16 9 7 10 6 11 5 12
REMARK SMILES IDX 4 13 3 14 2 15 1 16
REMARK H PARENT
REMARK Flexibility Score: inf
ROOT
ATOM      1  C   UNL     1       2.262  14.322   7.923  1.00  0.00     0.000 C 
ENDROOT
BRANCH   1   2
ATOM      2  C   UNL     1       1.861  12.961   7.333  1.00  0.00     0.000 C 
BRANCH   2   3
ATOM      3  C   UNL     1       2.359  11.811   8.217  1.00  0.00     0.000 C 
BRANCH   3   4
ATOM      4  C   UNL     1       1.220  10.839   8.549  1.00  0.00     0.000 C 
BRANCH   4   5
ATOM      5  C   UNL     1       0.658  11.107   9.950  1.00  0.00     0.006 C 
BRANCH   5   6
ATOM      6  C   UNL     1       1.579  10.531  11.030  1.00  0.00     0.053 C 
BRANCH   6   7
ATOM      7  C   UNL     1       1.039  10.832  12.393  1.00  0.00     0.041 C 
ATOM      8  O   UNL     1      -0.132  10.487  12.701  1.00  0.00    -0.550 OA
ATOM      9  O   UNL     1       1.813  11.535  13.308  1.00  0.00    -0.550 OA
ENDBRANCH   6   7
ENDBRANCH   5   6
ENDBRANCH   4   5
ENDBRANCH   3   4
ENDBRANCH   2   3
ENDBRANCH   1   2
BRANCH   1  10
ATOM     10  C   UNL     1       1.227  14.873   8.922  1.00  0.00     0.000 C 
BRANCH  10  11
ATOM     11  C   UNL     1       1.810  15.383  10.253  1.00  0.00    -0.000 C 
BRANCH  11  12
ATOM     12  C   UNL     1       2.409  14.259  11.114  1.00  0.00    -0.000 C 
BRANCH  12  13
ATOM     13  C   UNL     1       3.508  14.763  12.064  1.00  0.00    -0.000 C 
BRANCH  13  14
ATOM     14  C   UNL     1       4.856  14.061  11.840  1.00  0.00    -0.000 C 
BRANCH  14  15
ATOM     15  C   UNL     1       4.881  13.350  10.481  1.00  0.00    -0.003 C 
ATOM     16  C   UNL     1       5.272  11.882  10.634  1.00  0.00     0.004 C 
ENDBRANCH  14  15
ENDBRANCH  13  14
ENDBRANCH  12  13
ENDBRANCH  11  12
ENDBRANCH  10  11
ENDBRANCH   1  10
TORSDOF 12
ENDMDL
MODEL 7
REMARK VINA RESULT:    -3.644      1.825      4.612
REMARK INTER + INTRA:          -7.919
REMARK INTER:                  -6.291
REMARK INTRA:                  -1.628
REMARK UNBOUND:                -1.718
REMARK SMILES CCCCCCCCCCCCCC(=O)[O-]
REMARK SMILES IDX 8 1 9 2 10 3 11 4 12 5 13 6 14 7 15 8 16 9 7 10 6 11 5 12
REMARK SMILES IDX 4 13 3 14 2 15 1 16
REMARK H PARENT
REMARK Flexibility Score: inf
ROOT
ATOM      1  C   UNL     1       5.131  12.792  12.604  1.00  0.00     0.000 C 
ENDROOT
BRANCH   1   2
ATOM      2  C   UNL     1       4.841  14.044  11.763  1.00  0.00     0.000 C 
BRANCH   2   3
ATOM      3  C   UNL     1       3.706  14.870  12.380  1.00  0.00     0.000 C 
BRANCH   3   4
ATOM      4  C   UNL     1       2.545  15.035  11.393  1.00  0.00     0.000 C 
BRANCH   4   5
ATOM      5  C   UNL     1       2.783  14.215  10.120  1.00  0.00     0.006 C 
BRANCH   5   6
ATOM      6  C   UNL     1       1.549  14.237   9.213  1.00  0.00     0.053 C 
BRANCH   6   7
ATOM      7  C   UNL     1       1.868  13.638   7.880  1.00  0.00     0.041 C 
ATOM      8  O   UNL     1       2.657  14.223   7.094  1.00  0.00    -0.550 OA
ATOM      9  O   UNL     1       1.256  12.453   7.487  1.00  0.00    -0.550 OA
ENDBRANCH   6   7
ENDBRANCH   5   6
ENDBRANCH   4   5
ENDBRANCH   3   4
ENDBRANCH   2   3
ENDBRANCH   1   2
BRANCH   1  10
ATOM     10  C   UNL     1       6.606  12.351  12.538  1.00  0.00     0.000 C 
BRANCH  10  11
ATOM     11  C   UNL     1       7.343  12.725  11.238  1.00  0.00    -0.000 C 
BRANCH  11  12
ATOM     12  C   UNL     1       7.841  11.497  10.457  1.00  0.00    -0.000 C 
BRANCH  12  13
ATOM     13  C   UNL     1       6.727  10.469  10.200  1.00  0.00    -0.000 C 
BRANCH  13  14
ATOM     14  C   UNL     1       6.130  10.580   8.788  1.00  0.00    -0.000 C 
BRANCH  14  15
ATOM     15  C   UNL     1       4.835  11.400   8.806  1.00  0.00    -0.003 C 
ATOM     16  C   UNL     1       3.781  10.747   9.697  1.00  0.00     0.004 C 
ENDBRANCH  14  15
ENDBRANCH  13  14
ENDBRANCH  12  13
ENDBRANCH  11  12
ENDBRANCH  10  11
ENDBRANCH   1  10
TORSDOF 12
ENDMDL
MODEL 8
REMARK VINA RESULT:    -3.631      2.086      4.561
REMARK INTER + INTRA:          -7.897
REMARK INTER:                  -6.655
REMARK INTRA:                  -1.242
REMARK UNBOUND:                -1.718
REMARK SMILES CCCCCCCCCCCCCC(=O)[O-]
REMARK SMILES IDX 8 1 9 2 10 3 11 4 12 5 13 6 14 7 15 8 16 9 7 10 6 11 5 12
REMARK SMILES IDX 4 13 3 14 2 15 1 16
REMARK H PARENT
REMARK Flexibility Score: inf
ROOT
ATOM      1  C   UNL     1       4.761  13.879  11.041  1.00  0.00     0.000 C 
ENDROOT
BRANCH   1   2
ATOM      2  C   UNL     1       6.168  13.470  11.501  1.00  0.00     0.000 C 
BRANCH   2   3
ATOM      3  C   UNL     1       6.102  12.334  12.530  1.00  0.00     0.000 C 
BRANCH   3   4
ATOM      4  C   UNL     1       7.482  11.703  12.743  1.00  0.00     0.000 C 
BRANCH   4   5
ATOM      5  C   UNL     1       8.172  11.421  11.403  1.00  0.00     0.006 C 
BRANCH   5   6
ATOM      6  C   UNL     1       7.605  10.157  10.749  1.00  0.00     0.053 C 
BRANCH   6   7
ATOM      7  C   UNL     1       7.024  10.477   9.408  1.00  0.00     0.041 C 
ATOM      8  O   UNL     1       7.768  10.552   8.396  1.00  0.00    -0.550 OA
ATOM      9  O   UNL     1       5.665  10.738   9.284  1.00  0.00    -0.550 OA
ENDBRANCH   6   7
ENDBRANCH   5   6
ENDBRANCH   4   5
ENDBRANCH   3   4
ENDBRANCH   2   3
ENDBRANCH   1   2
BRANCH   1  10
ATOM     10  C   UNL     1       3.965  14.625  12.128  1.00  0.00     0.000 C 
BRANCH  10  11
ATOM     11  C   UNL     1       2.447  14.368  12.121  1.00  0.00    -0.000 C 
BRANCH  11  12
ATOM     12  C   UNL     1       2.011  13.384  11.022  1.00  0.00    -0.000 C 
BRANCH  12  13
ATOM     13  C   UNL     1       1.063  14.025   9.996  1.00  0.00    -0.000 C 
BRANCH  13  14
ATOM     14  C   UNL     1       1.808  14.832   8.921  1.00  0.00    -0.000 C 
BRANCH  14  15
ATOM     15  C   UNL     1       2.019  13.991   7.656  1.00  0.00    -0.003 C 
ATOM     16  C   UNL     1       3.409  13.360   7.638  1.00  0.00     0.004 C 
ENDBRANCH  14  15
ENDBRANCH  13  14
ENDBRANCH  12  13
ENDBRANCH  11  12
ENDBRANCH  10  11
ENDBRANCH   1  10
TORSDOF 12
ENDMDL
MODEL 9
REMARK VINA RESULT:    -3.576      1.958      4.299
REMARK INTER + INTRA:          -7.804
REMARK INTER:                  -6.007
REMARK INTRA:                  -1.796
REMARK UNBOUND:                -1.718
REMARK SMILES CCCCCCCCCCCCCC(=O)[O-]
REMARK SMILES IDX 8 1 9 2 10 3 11 4 12 5 13 6 14 7 15 8 16 9 7 10 6 11 5 12
REMARK SMILES IDX 4 13 3 14 2 15 1 16
REMARK H PARENT
REMARK Flexibility Score: inf
ROOT
ATOM      1  C   UNL     1       1.866  13.594  11.446  1.00  0.00     0.000 C 
ENDROOT
BRANCH   1   2
ATOM      2  C   UNL     1       2.591  14.937  11.629  1.00  0.00     0.000 C 
BRANCH   2   3
ATOM      3  C   UNL     1       4.046  14.721  12.063  1.00  0.00     0.000 C 
BRANCH   3   4
ATOM      4  C   UNL     1       4.616  13.434  11.458  1.00  0.00     0.000 C 
BRANCH   4   5
ATOM      5  C   UNL     1       5.974  13.086  12.080  1.00  0.00     0.006 C 
BRANCH   5   6
ATOM      6  C   UNL     1       7.030  12.852  10.996  1.00  0.00     0.053 C 
BRANCH   6   7
ATOM      7  C   UNL     1       7.249  11.387  10.787  1.00  0.00     0.041 C 
ATOM      8  O   UNL     1       6.773  10.813   9.772  1.00  0.00    -0.550 OA
ATOM      9  O   UNL     1       7.940  10.645  11.737  1.00  0.00    -0.550 OA
ENDBRANCH   6   7
ENDBRANCH   5   6
ENDBRANCH   4   5
ENDBRANCH   3   4
ENDBRANCH   2   3
ENDBRANCH   1   2
BRANCH   1  10
ATOM     10  C   UNL     1       0.920  13.583  10.230  1.00  0.00     0.000 C 
BRANCH  10  11
ATOM     11  C   UNL     1       1.389  14.424   9.028  1.00  0.00    -0.000 C 
BRANCH  11  12
ATOM     12  C   UNL     1       1.775  13.566   7.811  1.00  0.00    -0.000 C 
BRANCH  12  13
ATOM     13  C   UNL     1       3.294  13.525   7.575  1.00  0.00    -0.000 C 
BRANCH  13  14
ATOM     14  C   UNL     1       3.952  12.265   8.159  1.00  0.00    -0.000 C 
BRANCH  14  15
ATOM     15  C   UNL     1       2.928  11.133   8.306  1.00  0.00    -0.003 C 
ATOM     16  C   UNL     1       3.023  10.478   9.682  1.00  0.00     0.004 C 
ENDBRANCH  14  15
ENDBRANCH  13  14
ENDBRANCH  12  13
ENDBRANCH  11  12
ENDBRANCH  10  11
ENDBRANCH   1  10
TORSDOF 12
ENDMDL
