MODEL 1
REMARK VINA RESULT:     9.512      0.000      0.000
REMARK INTER + INTRA:          16.529
REMARK INTER:                  17.297
REMARK INTRA:                  -0.769
REMARK UNBOUND:                -0.769
REMARK SMILES CCCCCCCCCCCCCC[C@@H](C)C(=O)[O-]
REMARK SMILES IDX 9 1 10 2 11 3 12 4 13 5 14 6 15 7 16 8 17 9 18 10 19 11 8 12
REMARK SMILES IDX 7 13 6 14 5 15 4 16 3 17 2 18 1 19
REMARK H PARENT
REMARK Flexibility Score: inf
ROOT
ATOM      1  C   UNL     1     -32.577  12.267  18.894  1.00  0.00     0.000 C 
ENDROOT
BRANCH   1   2
ATOM      2  C   UNL     1     -32.613  13.036  17.561  1.00  0.00     0.000 C 
BRANCH   2   3
ATOM      3  C   UNL     1     -33.837  13.957  17.446  1.00  0.00     0.000 C 
BRANCH   3   4
ATOM      4  C   UNL     1     -33.960  14.607  16.060  1.00  0.00     0.000 C 
BRANCH   4   5
ATOM      5  C   UNL     1     -34.620  15.989  16.156  1.00  0.00     0.001 C 
BRANCH   5   6
ATOM      6  C   UNL     1     -36.110  15.863  16.514  1.00  0.00     0.009 C 
BRANCH   6   7
ATOM      7  C   UNL     1     -36.474  16.614  17.815  1.00  0.00     0.032 C 
ATOM      8  C   UNL     1     -35.968  18.063  17.814  1.00  0.00     0.014 C 
BRANCH   7   9
ATOM      9  C   UNL     1     -37.965  16.597  18.015  1.00  0.00     0.044 C 
ATOM     10  O   UNL     1     -38.710  17.353  17.337  1.00  0.00    -0.550 OA
ATOM     11  O   UNL     1     -38.530  15.743  18.954  1.00  0.00    -0.550 OA
ENDBRANCH   7   9
ENDBRANCH   6   7
ENDBRANCH   5   6
ENDBRANCH   4   5
ENDBRANCH   3   4
ENDBRANCH   2   3
ENDBRANCH   1   2
BRANCH   1  12
ATOM     12  C   UNL     1     -33.528  12.859  19.946  1.00  0.00     0.000 C 
BRANCH  12  13
ATOM     13  C   UNL     1     -33.876  11.853  21.057  1.00  0.00    -0.000 C 
BRANCH  13  14
ATOM     14  C   UNL     1     -34.008  10.411  20.537  1.00  0.00    -0.000 C 
BRANCH  14  15
ATOM     15  C   UNL     1     -33.234   9.350  21.347  1.00  0.00    -0.000 C 
BRANCH  15  16
ATOM     16  C   UNL     1     -33.976   8.796  22.580  1.00  0.00    -0.000 C 
BRANCH  16  17
ATOM     17  C   UNL     1     -34.359   7.308  22.493  1.00  0.00    -0.000 C 
BRANCH  17  18
ATOM     18  C   UNL     1     -35.048   6.795  23.765  1.00  0.00    -0.003 C 
ATOM     19  C   UNL     1     -34.223   7.121  25.007  1.00  0.00     0.004 C 
ENDBRANCH  17  18
ENDBRANCH  16  17
ENDBRANCH  15  16
ENDBRANCH  14  15
ENDBRANCH  13  14
ENDBRANCH  12  13
ENDBRANCH   1  12
TORSDOF 14
ENDMDL
MODEL 2
REMARK VINA RESULT:     9.658      1.152      2.194
REMARK INTER + INTRA:          16.794
REMARK INTER:                  17.526
REMARK INTRA:                  -0.732
REMARK UNBOUND:                -0.769
REMARK SMILES CCCCCCCCCCCCCC[C@@H](C)C(=O)[O-]
REMARK SMILES IDX 9 1 10 2 11 3 12 4 13 5 14 6 15 7 16 8 17 9 18 10 19 11 8 12
REMARK SMILES IDX 7 13 6 14 5 15 4 16 3 17 2 18 1 19
REMARK H PARENT
REMARK Flexibility Score: inf
ROOT
ATOM      1  C   UNL     1     -33.496  13.577  16.750  1.00  0.00     0.000 C 
ENDROOT
BRANCH   1   2
ATOM      2  C   UNL     1     -34.339  14.707  17.366  1.00  0.00     0.000 C 
BRANCH   2   3
ATOM      3  C   UNL     1     -34.927  15.650  16.304  1.00  0.00     0.000 C 
BRANCH   3   4
ATOM      4  C   UNL     1     -35.042  17.100  16.798  1.00  0.00     0.000 C 
BRANCH   4   5
ATOM      5  C   UNL     1     -35.928  17.187  18.046  1.00  0.00     0.001 C 
BRANCH   5   6
ATOM      6  C   UNL     1     -37.355  17.626  17.679  1.00  0.00     0.009 C 
BRANCH   6   7
ATOM      7  C   UNL     1     -38.347  16.442  17.625  1.00  0.00     0.032 C 
ATOM      8  C   UNL     1     -38.270  15.559  18.878  1.00  0.00     0.014 C 
BRANCH   7   9
ATOM      9  C   UNL     1     -39.750  16.957  17.452  1.00  0.00     0.044 C 
ATOM     10  O   UNL     1     -39.990  17.907  16.660  1.00  0.00    -0.550 OA
ATOM     11  O   UNL     1     -40.793  16.385  18.169  1.00  0.00    -0.550 OA
ENDBRANCH   7   9
ENDBRANCH   6   7
ENDBRANCH   5   6
ENDBRANCH   4   5
ENDBRANCH   3   4
ENDBRANCH   2   3
ENDBRANCH   1   2
BRANCH   1  12
ATOM     12  C   UNL     1     -32.544  12.925  17.766  1.00  0.00     0.000 C 
BRANCH  12  13
ATOM     13  C   UNL     1     -33.212  12.690  19.132  1.00  0.00    -0.000 C 
BRANCH  13  14
ATOM     14  C   UNL     1     -33.093  11.232  19.612  1.00  0.00    -0.000 C 
BRANCH  14  15
ATOM     15  C   UNL     1     -33.679  10.953  21.012  1.00  0.00    -0.000 C 
BRANCH  15  16
ATOM     16  C   UNL     1     -34.330   9.566  21.186  1.00  0.00    -0.000 C 
BRANCH  16  17
ATOM     17  C   UNL     1     -33.660   8.661  22.234  1.00  0.00    -0.000 C 
BRANCH  17  18
ATOM     18  C   UNL     1     -34.483   7.405  22.550  1.00  0.00    -0.003 C 
ATOM     19  C   UNL     1     -34.521   7.135  24.051  1.00  0.00     0.004 C 
ENDBRANCH  17  18
ENDBRANCH  16  17
ENDBRANCH  15  16
ENDBRANCH  14  15
ENDBRANCH  13  14
ENDBRANCH  12  13
ENDBRANCH   1  12
TORSDOF 14
ENDMDL
MODEL 3
REMARK VINA RESULT:    10.053      1.168      2.083
REMARK INTER + INTRA:          17.513
REMARK INTER:                  18.107
REMARK INTRA:                  -0.595
REMARK UNBOUND:                -0.769
REMARK SMILES CCCCCCCCCCCCCC[C@@H](C)C(=O)[O-]
REMARK SMILES IDX 9 1 10 2 11 3 12 4 13 5 14 6 15 7 16 8 17 9 18 10 19 11 8 12
REMARK SMILES IDX 7 13 6 14 5 15 4 16 3 17 2 18 1 19
REMARK H PARENT
REMARK Flexibility Score: inf
ROOT
ATOM      1  C   UNL     1     -33.253  13.592  17.189  1.00  0.00     0.000 C 
ENDROOT
BRANCH   1   2
ATOM      2  C   UNL     1     -34.160  14.643  17.853  1.00  0.00     0.000 C 
BRANCH   2   3
ATOM      3  C   UNL     1     -34.884  15.529  16.826  1.00  0.00     0.000 C 
BRANCH   3   4
ATOM      4  C   UNL     1     -34.828  17.021  17.188  1.00  0.00     0.000 C 
BRANCH   4   5
ATOM      5  C   UNL     1     -36.177  17.507  17.730  1.00  0.00     0.001 C 
BRANCH   5   6
ATOM      6  C   UNL     1     -37.302  16.524  17.369  1.00  0.00     0.009 C 
BRANCH   6   7
ATOM      7  C   UNL     1     -38.637  16.863  18.069  1.00  0.00     0.032 C 
ATOM      8  C   UNL     1     -39.767  17.142  17.069  1.00  0.00     0.014 C 
BRANCH   7   9
ATOM      9  C   UNL     1     -39.036  15.738  18.984  1.00  0.00     0.044 C 
ATOM     10  O   UNL     1     -39.550  15.979  20.109  1.00  0.00    -0.550 OA
ATOM     11  O   UNL     1     -38.839  14.420  18.592  1.00  0.00    -0.550 OA
ENDBRANCH   7   9
ENDBRANCH   6   7
ENDBRANCH   5   6
ENDBRANCH   4   5
ENDBRANCH   3   4
ENDBRANCH   2   3
ENDBRANCH   1   2
BRANCH   1  12
ATOM     12  C   UNL     1     -33.256  12.249  17.936  1.00  0.00     0.000 C 
BRANCH  12  13
ATOM     13  C   UNL     1     -32.891  12.401  19.423  1.00  0.00    -0.000 C 
BRANCH  13  14
ATOM     14  C   UNL     1     -33.810  11.583  20.349  1.00  0.00    -0.000 C 
BRANCH  14  15
ATOM     15  C   UNL     1     -33.267  10.196  20.750  1.00  0.00    -0.000 C 
BRANCH  15  16
ATOM     16  C   UNL     1     -34.057   9.480  21.865  1.00  0.00    -0.000 C 
BRANCH  16  17
ATOM     17  C   UNL     1     -33.615   8.033  22.147  1.00  0.00    -0.000 C 
BRANCH  17  18
ATOM     18  C   UNL     1     -34.723   7.186  22.787  1.00  0.00    -0.003 C 
ATOM     19  C   UNL     1     -34.563   7.125  24.303  1.00  0.00     0.004 C 
ENDBRANCH  17  18
ENDBRANCH  16  17
ENDBRANCH  15  16
ENDBRANCH  14  15
ENDBRANCH  13  14
ENDBRANCH  12  13
ENDBRANCH   1  12
TORSDOF 14
ENDMDL
MODEL 4
REMARK VINA RESULT:    10.166      3.889      9.073
REMARK INTER + INTRA:          17.718
REMARK INTER:                  18.307
REMARK INTRA:                  -0.589
REMARK UNBOUND:                -0.769
REMARK SMILES CCCCCCCCCCCCCC[C@@H](C)C(=O)[O-]
REMARK SMILES IDX 9 1 10 2 11 3 12 4 13 5 14 6 15 7 16 8 17 9 18 10 19 11 8 12
REMARK SMILES IDX 7 13 6 14 5 15 4 16 3 17 2 18 1 19
REMARK H PARENT
REMARK Flexibility Score: inf
ROOT
ATOM      1  C   UNL     1     -32.412  12.773  18.595  1.00  0.00     0.000 C 
ENDROOT
BRANCH   1   2
ATOM      2  C   UNL     1     -33.213  12.583  19.895  1.00  0.00     0.000 C 
BRANCH   2   3
ATOM      3  C   UNL     1     -33.953  11.236  19.939  1.00  0.00     0.000 C 
BRANCH   3   4
ATOM      4  C   UNL     1     -33.913  10.585  21.330  1.00  0.00     0.000 C 
BRANCH   4   5
ATOM      5  C   UNL     1     -33.389   9.146  21.249  1.00  0.00     0.001 C 
BRANCH   5   6
ATOM      6  C   UNL     1     -33.497   8.443  22.612  1.00  0.00     0.009 C 
BRANCH   6   7
ATOM      7  C   UNL     1     -34.705   7.483  22.693  1.00  0.00     0.032 C 
ATOM      8  C   UNL     1     -34.502   6.217  21.850  1.00  0.00     0.014 C 
BRANCH   7   9
ATOM      9  C   UNL     1     -34.962   7.103  24.126  1.00  0.00     0.044 C 
ATOM     10  O   UNL     1     -36.131   7.128  24.595  1.00  0.00    -0.550 OA
ATOM     11  O   UNL     1     -33.906   6.721  24.943  1.00  0.00    -0.550 OA
ENDBRANCH   7   9
ENDBRANCH   6   7
ENDBRANCH   5   6
ENDBRANCH   4   5
ENDBRANCH   3   4
ENDBRANCH   2   3
ENDBRANCH   1   2
BRANCH   1  12
ATOM     12  C   UNL     1     -33.270  12.580  17.335  1.00  0.00     0.000 C 
BRANCH  12  13
ATOM     13  C   UNL     1     -33.574  13.907  16.620  1.00  0.00    -0.000 C 
BRANCH  13  14
ATOM     14  C   UNL     1     -34.294  14.922  17.526  1.00  0.00    -0.000 C 
BRANCH  14  15
ATOM     15  C   UNL     1     -34.920  16.126  16.793  1.00  0.00    -0.000 C 
BRANCH  15  16
ATOM     16  C   UNL     1     -35.495  17.226  17.709  1.00  0.00    -0.000 C 
BRANCH  16  17
ATOM     17  C   UNL     1     -37.031  17.318  17.727  1.00  0.00    -0.000 C 
BRANCH  17  18
ATOM     18  C   UNL     1     -37.709  15.944  17.829  1.00  0.00    -0.003 C 
ATOM     19  C   UNL     1     -38.782  15.939  18.914  1.00  0.00     0.004 C 
ENDBRANCH  17  18
ENDBRANCH  16  17
ENDBRANCH  15  16
ENDBRANCH  14  15
ENDBRANCH  13  14
ENDBRANCH  12  13
ENDBRANCH   1  12
TORSDOF 14
ENDMDL
MODEL 5
REMARK VINA RESULT:    10.239      1.347      1.725
REMARK INTER + INTRA:          17.850
REMARK INTER:                  18.654
REMARK INTRA:                  -0.804
REMARK UNBOUND:                -0.769
REMARK SMILES CCCCCCCCCCCCCC[C@@H](C)C(=O)[O-]
REMARK SMILES IDX 9 1 10 2 11 3 12 4 13 5 14 6 15 7 16 8 17 9 18 10 19 11 8 12
REMARK SMILES IDX 7 13 6 14 5 15 4 16 3 17 2 18 1 19
REMARK H PARENT
REMARK Flexibility Score: inf
ROOT
ATOM      1  C   UNL     1     -32.477  12.323  18.685  1.00  0.00     0.000 C 
ENDROOT
BRANCH   1   2
ATOM      2  C   UNL     1     -32.470  13.114  17.366  1.00  0.00     0.000 C 
BRANCH   2   3
ATOM      3  C   UNL     1     -33.793  13.855  17.116  1.00  0.00     0.000 C 
BRANCH   3   4
ATOM      4  C   UNL     1     -33.857  14.497  15.721  1.00  0.00     0.000 C 
BRANCH   4   5
ATOM      5  C   UNL     1     -34.659  15.804  15.754  1.00  0.00     0.001 C 
BRANCH   5   6
ATOM      6  C   UNL     1     -35.921  15.655  16.619  1.00  0.00     0.009 C 
BRANCH   6   7
ATOM      7  C   UNL     1     -36.439  17.008  17.153  1.00  0.00     0.032 C 
ATOM      8  C   UNL     1     -37.708  16.854  18.003  1.00  0.00     0.014 C 
BRANCH   7   9
ATOM      9  C   UNL     1     -35.366  17.685  17.962  1.00  0.00     0.044 C 
ATOM     10  O   UNL     1     -34.804  17.080  18.913  1.00  0.00    -0.550 OA
ATOM     11  O   UNL     1     -34.988  18.988  17.661  1.00  0.00    -0.550 OA
ENDBRANCH   7   9
ENDBRANCH   6   7
ENDBRANCH   5   6
ENDBRANCH   4   5
ENDBRANCH   3   4
ENDBRANCH   2   3
ENDBRANCH   1   2
BRANCH   1  12
ATOM     12  C   UNL     1     -33.556  12.813  19.665  1.00  0.00     0.000 C 
BRANCH  12  13
ATOM     13  C   UNL     1     -33.658  11.928  20.919  1.00  0.00    -0.000 C 
BRANCH  13  14
ATOM     14  C   UNL     1     -34.067  10.480  20.596  1.00  0.00    -0.000 C 
BRANCH  14  15
ATOM     15  C   UNL     1     -33.200   9.391  21.262  1.00  0.00    -0.000 C 
BRANCH  15  16
ATOM     16  C   UNL     1     -33.795   8.770  22.542  1.00  0.00    -0.000 C 
BRANCH  16  17
ATOM     17  C   UNL     1     -34.342   7.341  22.376  1.00  0.00    -0.000 C 
BRANCH  17  18
ATOM     18  C   UNL     1     -35.066   6.831  23.630  1.00  0.00    -0.003 C 
ATOM     19  C   UNL     1     -34.234   7.080  24.885  1.00  0.00     0.004 C 
ENDBRANCH  17  18
ENDBRANCH  16  17
ENDBRANCH  15  16
ENDBRANCH  14  15
ENDBRANCH  13  14
ENDBRANCH  12  13
ENDBRANCH   1  12
TORSDOF 14
ENDMDL
MODEL 6
REMARK VINA RESULT:    10.254      1.953      2.405
REMARK INTER + INTRA:          17.877
REMARK INTER:                  18.477
REMARK INTRA:                  -0.600
REMARK UNBOUND:                -0.769
REMARK SMILES CCCCCCCCCCCCCC[C@@H](C)C(=O)[O-]
REMARK SMILES IDX 9 1 10 2 11 3 12 4 13 5 14 6 15 7 16 8 17 9 18 10 19 11 8 12
REMARK SMILES IDX 7 13 6 14 5 15 4 16 3 17 2 18 1 19
REMARK H PARENT
REMARK Flexibility Score: inf
ROOT
ATOM      1  C   UNL     1     -32.854  12.645  19.539  1.00  0.00     0.000 C 
ENDROOT
BRANCH   1   2
ATOM      2  C   UNL     1     -32.270  12.678  18.116  1.00  0.00     0.000 C 
BRANCH   2   3
ATOM      3  C   UNL     1     -33.359  12.664  17.032  1.00  0.00     0.000 C 
BRANCH   3   4
ATOM      4  C   UNL     1     -33.641  14.061  16.459  1.00  0.00     0.000 C 
BRANCH   4   5
ATOM      5  C   UNL     1     -34.377  14.937  17.481  1.00  0.00     0.001 C 
BRANCH   5   6
ATOM      6  C   UNL     1     -34.858  16.248  16.839  1.00  0.00     0.009 C 
BRANCH   6   7
ATOM      7  C   UNL     1     -35.563  17.181  17.847  1.00  0.00     0.032 C 
ATOM      8  C   UNL     1     -35.207  18.658  17.625  1.00  0.00     0.014 C 
BRANCH   7   9
ATOM      9  C   UNL     1     -37.054  17.000  17.758  1.00  0.00     0.044 C 
ATOM     10  O   UNL     1     -37.809  17.991  17.572  1.00  0.00    -0.550 OA
ATOM     11  O   UNL     1     -37.607  15.732  17.880  1.00  0.00    -0.550 OA
ENDBRANCH   7   9
ENDBRANCH   6   7
ENDBRANCH   5   6
ENDBRANCH   4   5
ENDBRANCH   3   4
ENDBRANCH   2   3
ENDBRANCH   1   2
BRANCH   1  12
ATOM     12  C   UNL     1     -33.642  11.356  19.827  1.00  0.00     0.000 C 
BRANCH  12  13
ATOM     13  C   UNL     1     -34.041  11.228  21.307  1.00  0.00    -0.000 C 
BRANCH  13  14
ATOM     14  C   UNL     1     -33.987  12.570  22.058  1.00  0.00    -0.000 C 
BRANCH  14  15
ATOM     15  C   UNL     1     -34.414  12.509  23.540  1.00  0.00    -0.000 C 
BRANCH  15  16
ATOM     16  C   UNL     1     -33.835  11.326  24.341  1.00  0.00    -0.000 C 
BRANCH  16  17
ATOM     17  C   UNL     1     -34.604  10.973  25.626  1.00  0.00    -0.000 C 
BRANCH  17  18
ATOM     18  C   UNL     1     -33.908   9.888  26.459  1.00  0.00    -0.003 C 
ATOM     19  C   UNL     1     -32.656  10.436  27.138  1.00  0.00     0.004 C 
ENDBRANCH  17  18
ENDBRANCH  16  17
ENDBRANCH  15  16
ENDBRANCH  14  15
ENDBRANCH  13  14
ENDBRANCH  12  13
ENDBRANCH   1  12
TORSDOF 14
ENDMDL
MODEL 7
REMARK VINA RESULT:    10.692      3.179      8.112
REMARK INTER + INTRA:          18.674
REMARK INTER:                  19.219
REMARK INTRA:                  -0.545
REMARK UNBOUND:                -0.769
REMARK SMILES CCCCCCCCCCCCCC[C@@H](C)C(=O)[O-]
REMARK SMILES IDX 9 1 10 2 11 3 12 4 13 5 14 6 15 7 16 8 17 9 18 10 19 11 8 12
REMARK SMILES IDX 7 13 6 14 5 15 4 16 3 17 2 18 1 19
REMARK H PARENT
REMARK Flexibility Score: inf
ROOT
ATOM      1  C   UNL     1     -34.255  15.465  17.393  1.00  0.00     0.000 C 
ENDROOT
BRANCH   1   2
ATOM      2  C   UNL     1     -34.151  14.232  16.478  1.00  0.00     0.000 C 
BRANCH   2   3
ATOM      3  C   UNL     1     -32.916  13.371  16.788  1.00  0.00     0.000 C 
BRANCH   3   4
ATOM      4  C   UNL     1     -33.242  12.174  17.694  1.00  0.00     0.000 C 
BRANCH   4   5
ATOM      5  C   UNL     1     -32.572  12.323  19.065  1.00  0.00     0.001 C 
BRANCH   5   6
ATOM      6  C   UNL     1     -33.596  12.728  20.137  1.00  0.00     0.009 C 
BRANCH   6   7
ATOM      7  C   UNL     1     -33.511  11.847  21.404  1.00  0.00     0.032 C 
ATOM      8  C   UNL     1     -34.295  12.441  22.582  1.00  0.00     0.014 C 
BRANCH   7   9
ATOM      9  C   UNL     1     -34.021  10.464  21.101  1.00  0.00     0.044 C 
ATOM     10  O   UNL     1     -34.920  10.288  20.237  1.00  0.00    -0.550 OA
ATOM     11  O   UNL     1     -33.498   9.369  21.777  1.00  0.00    -0.550 OA
ENDBRANCH   7   9
ENDBRANCH   6   7
ENDBRANCH   5   6
ENDBRANCH   4   5
ENDBRANCH   3   4
ENDBRANCH   2   3
ENDBRANCH   1   2
BRANCH   1  12
ATOM     12  C   UNL     1     -34.927  16.662  16.702  1.00  0.00     0.000 C 
BRANCH  12  13
ATOM     13  C   UNL     1     -35.519  17.666  17.706  1.00  0.00    -0.000 C 
BRANCH  13  14
ATOM     14  C   UNL     1     -37.052  17.575  17.807  1.00  0.00    -0.000 C 
BRANCH  14  15
ATOM     15  C   UNL     1     -37.641  16.166  17.584  1.00  0.00    -0.000 C 
BRANCH  15  16
ATOM     16  C   UNL     1     -38.827  15.799  18.498  1.00  0.00    -0.000 C 
BRANCH  16  17
ATOM     17  C   UNL     1     -39.994  16.802  18.483  1.00  0.00    -0.000 C 
BRANCH  17  18
ATOM     18  C   UNL     1     -40.135  17.531  17.139  1.00  0.00    -0.003 C 
ATOM     19  C   UNL     1     -41.092  16.791  16.210  1.00  0.00     0.004 C 
ENDBRANCH  17  18
ENDBRANCH  16  17
ENDBRANCH  15  16
ENDBRANCH  14  15
ENDBRANCH  13  14
ENDBRANCH  12  13
ENDBRANCH   1  12
TORSDOF 14
ENDMDL
