MODEL 1
REMARK VINA RESULT:    -4.842      0.000      0.000
REMARK INTER + INTRA:          -8.162
REMARK INTER:                  -6.398
REMARK INTRA:                  -1.764
REMARK UNBOUND:                -1.764
REMARK SMILES CC[C@@H](C=C[C@@H](C)[C@@H]1CC[C@H]2C3=CC[C@H]4C[C@@H](O)CC[C@]4(C)[C@@H]3CC[C@]21C)C(C)C
REMARK SMILES IDX 6 1 7 2 5 3 4 4 3 5 2 6 1 7 28 8 29 9 30 10 8 11 9 12 26 13
REMARK SMILES IDX 10 14 11 15 25 16 27 17 12 18 24 19 23 20 13 21 21 22 14 23
REMARK SMILES IDX 15 24 20 25 22 26 16 27 19 28 17 29 18 30
REMARK H PARENT 18 31
REMARK Flexibility Score: inf
ROOT
ATOM      1  C   UNL     1       0.985   6.881  -4.755  1.00  0.00     0.012 C 
ATOM      2  C   UNL     1       0.836   7.962  -3.675  1.00  0.00     0.012 C 
ENDROOT
BRANCH   1   3
ATOM      3  C   UNL     1      -0.306   6.088  -4.782  1.00  0.00    -0.028 C 
ATOM      4  C   UNL     1      -0.349   4.826  -4.319  1.00  0.00    -0.027 C 
BRANCH   4   5
ATOM      5  C   UNL     1      -1.630   4.004  -4.341  1.00  0.00     0.014 C 
BRANCH   5   6
ATOM      6  C   UNL     1      -1.381   2.550  -4.823  1.00  0.00     0.004 C 
ATOM      7  C   UNL     1      -0.141   1.860  -4.241  1.00  0.00     0.004 C 
ENDBRANCH   5   6
BRANCH   5   8
ATOM      8  C   UNL     1      -2.797   4.764  -5.059  1.00  0.00    -0.011 C 
ATOM      9  C   UNL     1      -3.450   4.018  -6.231  1.00  0.00     0.008 C 
ATOM     10  C   UNL     1      -3.880   5.248  -4.079  1.00  0.00     0.008 C 
ENDBRANCH   5   8
ENDBRANCH   4   5
ENDBRANCH   1   3
BRANCH   1  11
ATOM     11  C   UNL     1       2.252   5.992  -4.483  1.00  0.00     0.002 C 
ATOM     12  C   UNL     1       3.184   6.642  -3.432  1.00  0.00     0.005 C 
ATOM     13  C   UNL     1       3.174   5.603  -5.699  1.00  0.00    -0.023 C 
ATOM     14  C   UNL     1       4.626   6.502  -3.900  1.00  0.00     0.009 C 
ATOM     15  C   UNL     1       4.634   5.620  -5.147  1.00  0.00     0.021 C 
ATOM     16  C   UNL     1       2.821   4.180  -6.263  1.00  0.00     0.008 C 
ATOM     17  C   UNL     1       3.090   6.626  -6.863  1.00  0.00     0.012 C 
ATOM     18  C   UNL     1       5.140   4.230  -4.809  1.00  0.00    -0.067 C 
ATOM     19  C   UNL     1       3.028   3.007  -5.255  1.00  0.00     0.009 C 
ATOM     20  C   UNL     1       4.133   3.278  -4.191  1.00  0.00     0.021 C 
ATOM     21  C   UNL     1       6.353   3.821  -5.249  1.00  0.00    -0.027 C 
ATOM     22  C   UNL     1       4.830   2.013  -3.562  1.00  0.00    -0.023 C 
ATOM     23  C   UNL     1       6.907   2.437  -5.004  1.00  0.00     0.031 C 
ATOM     24  C   UNL     1       5.817   1.417  -4.619  1.00  0.00     0.002 C 
ATOM     25  C   UNL     1       3.783   0.934  -3.153  1.00  0.00     0.010 C 
ATOM     26  C   UNL     1       5.579   2.481  -2.273  1.00  0.00     0.012 C 
ATOM     27  C   UNL     1       6.447   0.080  -4.165  1.00  0.00     0.036 C 
ATOM     28  C   UNL     1       4.442  -0.368  -2.661  1.00  0.00     0.032 C 
ATOM     29  C   UNL     1       5.364  -0.943  -3.744  1.00  0.00     0.114 C 
BRANCH  29  30
ATOM     30  O   UNL     1       5.928  -2.151  -3.305  1.00  0.00    -0.393 OA
ATOM     31  H   UNL     1       6.766  -2.323  -3.820  1.00  0.00     0.210 HD
ENDBRANCH  29  30
ENDBRANCH   1  11
TORSDOF 6
ENDMDL
MODEL 2
REMARK VINA RESULT:    -4.735      5.091      9.945
REMARK INTER + INTRA:          -8.022
REMARK INTER:                  -6.320
REMARK INTRA:                  -1.701
REMARK UNBOUND:                -1.764
REMARK SMILES CC[C@@H](C=C[C@@H](C)[C@@H]1CC[C@H]2C3=CC[C@H]4C[C@@H](O)CC[C@]4(C)[C@@H]3CC[C@]21C)C(C)C
REMARK SMILES IDX 6 1 7 2 5 3 4 4 3 5 2 6 1 7 28 8 29 9 30 10 8 11 9 12 26 13
REMARK SMILES IDX 10 14 11 15 25 16 27 17 12 18 24 19 23 20 13 21 21 22 14 23
REMARK SMILES IDX 15 24 20 25 22 26 16 27 19 28 17 29 18 30
REMARK H PARENT 18 31
REMARK Flexibility Score: inf
ROOT
ATOM      1  C   UNL     1       5.844  -6.493   0.051  1.00  0.00     0.012 C 
ATOM      2  C   UNL     1       6.026  -7.478  -1.112  1.00  0.00     0.012 C 
ENDROOT
BRANCH   1   3
ATOM      3  C   UNL     1       4.386  -6.546   0.463  1.00  0.00    -0.028 C 
ATOM      4  C   UNL     1       3.441  -5.928  -0.267  1.00  0.00    -0.027 C 
BRANCH   4   5
ATOM      5  C   UNL     1       1.971  -5.959   0.129  1.00  0.00     0.014 C 
BRANCH   5   6
ATOM      6  C   UNL     1       1.133  -6.863  -0.815  1.00  0.00     0.004 C 
ATOM      7  C   UNL     1       1.858  -7.372  -2.067  1.00  0.00     0.004 C 
ENDBRANCH   5   6
BRANCH   5   8
ATOM      8  C   UNL     1       1.401  -4.520   0.368  1.00  0.00    -0.011 C 
ATOM      9  C   UNL     1      -0.061  -4.310  -0.046  1.00  0.00     0.008 C 
ATOM     10  C   UNL     1       1.611  -4.033   1.813  1.00  0.00     0.008 C 
ENDBRANCH   5   8
ENDBRANCH   4   5
ENDBRANCH   1   3
BRANCH   1  11
ATOM     11  C   UNL     1       6.319  -5.053  -0.358  1.00  0.00     0.002 C 
ATOM     12  C   UNL     1       7.637  -5.100  -1.168  1.00  0.00     0.005 C 
ATOM     13  C   UNL     1       6.544  -3.983   0.777  1.00  0.00    -0.023 C 
ATOM     14  C   UNL     1       8.560  -3.997  -0.668  1.00  0.00     0.009 C 
ATOM     15  C   UNL     1       7.779  -3.141   0.326  1.00  0.00     0.021 C 
ATOM     16  C   UNL     1       5.289  -3.056   0.959  1.00  0.00     0.008 C 
ATOM     17  C   UNL     1       6.879  -4.629   2.148  1.00  0.00     0.012 C 
ATOM     18  C   UNL     1       7.378  -1.823  -0.310  1.00  0.00    -0.067 C 
ATOM     19  C   UNL     1       4.925  -2.195  -0.290  1.00  0.00     0.009 C 
ATOM     20  C   UNL     1       6.145  -1.849  -1.194  1.00  0.00     0.021 C 
ATOM     21  C   UNL     1       7.966  -0.670   0.084  1.00  0.00    -0.027 C 
ATOM     22  C   UNL     1       6.024  -0.546  -2.071  1.00  0.00    -0.023 C 
ATOM     23  C   UNL     1       7.588   0.689  -0.458  1.00  0.00     0.031 C 
ATOM     24  C   UNL     1       6.204   0.695  -1.138  1.00  0.00     0.002 C 
ATOM     25  C   UNL     1       4.642  -0.471  -2.787  1.00  0.00     0.010 C 
ATOM     26  C   UNL     1       7.138  -0.611  -3.166  1.00  0.00     0.012 C 
ATOM     27  C   UNL     1       5.953   2.036  -1.867  1.00  0.00     0.036 C 
ATOM     28  C   UNL     1       4.443   0.856  -3.542  1.00  0.00     0.032 C 
ATOM     29  C   UNL     1       4.580   2.044  -2.582  1.00  0.00     0.114 C 
BRANCH  29  30
ATOM     30  O   UNL     1       4.355   3.247  -3.269  1.00  0.00    -0.393 OA
ATOM     31  H   UNL     1       5.067   3.364  -3.960  1.00  0.00     0.210 HD
ENDBRANCH  29  30
ENDBRANCH   1  11
TORSDOF 6
ENDMDL
MODEL 3
REMARK VINA RESULT:    -4.715      5.781     10.008
REMARK INTER + INTRA:          -7.995
REMARK INTER:                  -6.319
REMARK INTRA:                  -1.676
REMARK UNBOUND:                -1.764
REMARK SMILES CC[C@@H](C=C[C@@H](C)[C@@H]1CC[C@H]2C3=CC[C@H]4C[C@@H](O)CC[C@]4(C)[C@@H]3CC[C@]21C)C(C)C
REMARK SMILES IDX 6 1 7 2 5 3 4 4 3 5 2 6 1 7 28 8 29 9 30 10 8 11 9 12 26 13
REMARK SMILES IDX 10 14 11 15 25 16 27 17 12 18 24 19 23 20 13 21 21 22 14 23
REMARK SMILES IDX 15 24 20 25 22 26 16 27 19 28 17 29 18 30
REMARK H PARENT 18 31
REMARK Flexibility Score: inf
ROOT
ATOM      1  C   UNL     1       5.434  -0.576   0.739  1.00  0.00     0.012 C 
ATOM      2  C   UNL     1       4.729   0.373   1.717  1.00  0.00     0.012 C 
ENDROOT
BRANCH   1   3
ATOM      3  C   UNL     1       5.066  -0.134  -0.664  1.00  0.00    -0.028 C 
ATOM      4  C   UNL     1       4.867  -1.037  -1.640  1.00  0.00    -0.027 C 
BRANCH   4   5
ATOM      5  C   UNL     1       4.505  -0.621  -3.059  1.00  0.00     0.014 C 
BRANCH   5   6
ATOM      6  C   UNL     1       5.620  -0.984  -4.076  1.00  0.00     0.004 C 
ATOM      7  C   UNL     1       6.741  -1.884  -3.541  1.00  0.00     0.004 C 
ENDBRANCH   5   6
BRANCH   5   8
ATOM      8  C   UNL     1       3.990   0.857  -3.119  1.00  0.00    -0.011 C 
ATOM      9  C   UNL     1       4.743   1.781  -4.086  1.00  0.00     0.008 C 
ATOM     10  C   UNL     1       2.476   0.947  -3.383  1.00  0.00     0.008 C 
ENDBRANCH   5   8
ENDBRANCH   4   5
ENDBRANCH   1   3
BRANCH   1  11
ATOM     11  C   UNL     1       5.051  -2.070   1.037  1.00  0.00     0.002 C 
ATOM     12  C   UNL     1       4.247  -2.196   2.353  1.00  0.00     0.005 C 
ATOM     13  C   UNL     1       6.205  -3.140   1.129  1.00  0.00    -0.023 C 
ATOM     14  C   UNL     1       4.769  -3.394   3.136  1.00  0.00     0.009 C 
ATOM     15  C   UNL     1       5.773  -4.132   2.254  1.00  0.00     0.021 C 
ATOM     16  C   UNL     1       6.397  -3.905  -0.229  1.00  0.00     0.008 C 
ATOM     17  C   UNL     1       7.566  -2.516   1.536  1.00  0.00     0.012 C 
ATOM     18  C   UNL     1       5.158  -5.403   1.698  1.00  0.00    -0.067 C 
ATOM     19  C   UNL     1       5.161  -4.737  -0.692  1.00  0.00     0.009 C 
ATOM     20  C   UNL     1       4.268  -5.243   0.480  1.00  0.00     0.021 C 
ATOM     21  C   UNL     1       5.573  -6.612   2.142  1.00  0.00    -0.027 C 
ATOM     22  C   UNL     1       3.412  -6.537   0.205  1.00  0.00    -0.023 C 
ATOM     23  C   UNL     1       5.052  -7.924   1.603  1.00  0.00     0.031 C 
ATOM     24  C   UNL     1       4.366  -7.775   0.230  1.00  0.00     0.002 C 
ATOM     25  C   UNL     1       2.692  -6.456  -1.175  1.00  0.00     0.010 C 
ATOM     26  C   UNL     1       2.321  -6.626   1.320  1.00  0.00     0.012 C 
ATOM     27  C   UNL     1       3.659  -9.087  -0.179  1.00  0.00     0.036 C 
ATOM     28  C   UNL     1       1.958  -7.763  -1.532  1.00  0.00     0.032 C 
ATOM     29  C   UNL     1       2.938  -8.942  -1.541  1.00  0.00     0.114 C 
BRANCH  29  30
ATOM     30  O   UNL     1       2.271 -10.121  -1.908  1.00  0.00    -0.393 OA
ATOM     31  H   UNL     1       2.668 -10.888  -1.407  1.00  0.00     0.210 HD
ENDBRANCH  29  30
ENDBRANCH   1  11
TORSDOF 6
ENDMDL
MODEL 4
REMARK VINA RESULT:    -4.643      5.302      9.229
REMARK INTER + INTRA:          -7.900
REMARK INTER:                  -6.275
REMARK INTRA:                  -1.625
REMARK UNBOUND:                -1.764
REMARK SMILES CC[C@@H](C=C[C@@H](C)[C@@H]1CC[C@H]2C3=CC[C@H]4C[C@@H](O)CC[C@]4(C)[C@@H]3CC[C@]21C)C(C)C
REMARK SMILES IDX 6 1 7 2 5 3 4 4 3 5 2 6 1 7 28 8 29 9 30 10 8 11 9 12 26 13
REMARK SMILES IDX 10 14 11 15 25 16 27 17 12 18 24 19 23 20 13 21 21 22 14 23
REMARK SMILES IDX 15 24 20 25 22 26 16 27 19 28 17 29 18 30
REMARK H PARENT 18 31
REMARK Flexibility Score: inf
ROOT
ATOM      1  C   UNL     1       5.722   0.713   0.595  1.00  0.00     0.012 C 
ATOM      2  C   UNL     1       5.137   1.964   1.263  1.00  0.00     0.012 C 
ENDROOT
BRANCH   1   3
ATOM      3  C   UNL     1       5.514   0.860  -0.899  1.00  0.00    -0.028 C 
ATOM      4  C   UNL     1       4.501   0.228  -1.519  1.00  0.00    -0.027 C 
BRANCH   4   5
ATOM      5  C   UNL     1       4.273   0.352  -3.019  1.00  0.00     0.014 C 
BRANCH   5   6
ATOM      6  C   UNL     1       5.552   0.014  -3.832  1.00  0.00     0.004 C 
ATOM      7  C   UNL     1       5.991  -1.455  -3.801  1.00  0.00     0.004 C 
ENDBRANCH   5   6
BRANCH   5   8
ATOM      8  C   UNL     1       3.572   1.702  -3.393  1.00  0.00    -0.011 C 
ATOM      9  C   UNL     1       4.258   2.521  -4.494  1.00  0.00     0.008 C 
ATOM     10  C   UNL     1       2.081   1.522  -3.727  1.00  0.00     0.008 C 
ENDBRANCH   5   8
ENDBRANCH   4   5
ENDBRANCH   1   3
BRANCH   1  11
ATOM     11  C   UNL     1       5.073  -0.591   1.185  1.00  0.00     0.002 C 
ATOM     12  C   UNL     1       4.575  -0.369   2.633  1.00  0.00     0.005 C 
ATOM     13  C   UNL     1       5.932  -1.911   1.218  1.00  0.00    -0.023 C 
ATOM     14  C   UNL     1       4.959  -1.578   3.476  1.00  0.00     0.009 C 
ATOM     15  C   UNL     1       5.539  -2.638   2.543  1.00  0.00     0.021 C 
ATOM     16  C   UNL     1       5.631  -2.831  -0.018  1.00  0.00     0.008 C 
ATOM     17  C   UNL     1       7.458  -1.630   1.260  1.00  0.00     0.012 C 
ATOM     18  C   UNL     1       4.534  -3.751   2.314  1.00  0.00    -0.067 C 
ATOM     19  C   UNL     1       4.162  -3.351  -0.106  1.00  0.00     0.009 C 
ATOM     20  C   UNL     1       3.459  -3.485   1.277  1.00  0.00     0.021 C 
ATOM     21  C   UNL     1       4.739  -4.976   2.851  1.00  0.00    -0.027 C 
ATOM     22  C   UNL     1       2.282  -4.528   1.370  1.00  0.00    -0.023 C 
ATOM     23  C   UNL     1       3.817  -6.152   2.627  1.00  0.00     0.031 C 
ATOM     24  C   UNL     1       2.898  -5.964   1.403  1.00  0.00     0.002 C 
ATOM     25  C   UNL     1       1.313  -4.399   0.156  1.00  0.00     0.010 C 
ATOM     26  C   UNL     1       1.477  -4.216   2.672  1.00  0.00     0.012 C 
ATOM     27  C   UNL     1       1.828  -7.079   1.340  1.00  0.00     0.036 C 
ATOM     28  C   UNL     1       0.231  -5.495   0.149  1.00  0.00     0.032 C 
ATOM     29  C   UNL     1       0.878  -6.885   0.134  1.00  0.00     0.114 C 
BRANCH  29  30
ATOM     30  O   UNL     1      -0.114  -7.877   0.084  1.00  0.00    -0.393 OA
ATOM     31  H   UNL     1      -0.890  -7.588   0.641  1.00  0.00     0.210 HD
ENDBRANCH  29  30
ENDBRANCH   1  11
TORSDOF 6
ENDMDL
MODEL 5
REMARK VINA RESULT:    -4.310      3.440      6.074
REMARK INTER + INTRA:          -7.459
REMARK INTER:                  -6.004
REMARK INTRA:                  -1.455
REMARK UNBOUND:                -1.764
REMARK SMILES CC[C@@H](C=C[C@@H](C)[C@@H]1CC[C@H]2C3=CC[C@H]4C[C@@H](O)CC[C@]4(C)[C@@H]3CC[C@]21C)C(C)C
REMARK SMILES IDX 6 1 7 2 5 3 4 4 3 5 2 6 1 7 28 8 29 9 30 10 8 11 9 12 26 13
REMARK SMILES IDX 10 14 11 15 25 16 27 17 12 18 24 19 23 20 13 21 21 22 14 23
REMARK SMILES IDX 15 24 20 25 22 26 16 27 19 28 17 29 18 30
REMARK H PARENT 18 31
REMARK Flexibility Score: inf
ROOT
ATOM      1  C   UNL     1      -2.647   3.244  -5.827  1.00  0.00     0.012 C 
ATOM      2  C   UNL     1      -3.366   2.602  -7.020  1.00  0.00     0.012 C 
ENDROOT
BRANCH   1   3
ATOM      3  C   UNL     1      -3.484   4.425  -5.376  1.00  0.00    -0.028 C 
ATOM      4  C   UNL     1      -3.357   4.925  -4.135  1.00  0.00    -0.027 C 
BRANCH   4   5
ATOM      5  C   UNL     1      -4.191   6.104  -3.654  1.00  0.00     0.014 C 
BRANCH   5   6
ATOM      6  C   UNL     1      -5.554   6.193  -4.390  1.00  0.00     0.004 C 
ATOM      7  C   UNL     1      -6.798   6.184  -3.493  1.00  0.00     0.004 C 
ENDBRANCH   5   6
BRANCH   5   8
ATOM      8  C   UNL     1      -3.357   7.429  -3.613  1.00  0.00    -0.011 C 
ATOM      9  C   UNL     1      -3.524   8.278  -2.345  1.00  0.00     0.008 C 
ATOM     10  C   UNL     1      -1.862   7.198  -3.893  1.00  0.00     0.008 C 
ENDBRANCH   5   8
ENDBRANCH   4   5
ENDBRANCH   1   3
BRANCH   1  11
ATOM     11  C   UNL     1      -1.175   3.640  -6.210  1.00  0.00     0.002 C 
ATOM     12  C   UNL     1      -0.808   3.149  -7.631  1.00  0.00     0.005 C 
ATOM     13  C   UNL     1      -0.000   3.171  -5.271  1.00  0.00    -0.023 C 
ATOM     14  C   UNL     1       0.597   2.562  -7.600  1.00  0.00     0.009 C 
ATOM     15  C   UNL     1       1.192   2.834  -6.221  1.00  0.00     0.021 C 
ATOM     16  C   UNL     1       0.414   4.294  -4.254  1.00  0.00     0.008 C 
ATOM     17  C   UNL     1      -0.352   1.890  -4.470  1.00  0.00     0.012 C 
ATOM     18  C   UNL     1       2.208   3.958  -6.294  1.00  0.00    -0.067 C 
ATOM     19  C   UNL     1       0.966   5.599  -4.908  1.00  0.00     0.009 C 
ATOM     20  C   UNL     1       1.652   5.370  -6.288  1.00  0.00     0.021 C 
ATOM     21  C   UNL     1       3.527   3.695  -6.146  1.00  0.00    -0.027 C 
ATOM     22  C   UNL     1       2.735   6.429  -6.719  1.00  0.00    -0.023 C 
ATOM     23  C   UNL     1       4.597   4.762  -6.151  1.00  0.00     0.031 C 
ATOM     24  C   UNL     1       4.034   6.173  -5.889  1.00  0.00     0.002 C 
ATOM     25  C   UNL     1       2.233   7.885  -6.475  1.00  0.00     0.010 C 
ATOM     26  C   UNL     1       2.985   6.250  -8.251  1.00  0.00     0.012 C 
ATOM     27  C   UNL     1       5.118   7.251  -6.120  1.00  0.00     0.036 C 
ATOM     28  C   UNL     1       3.321   8.937  -6.760  1.00  0.00     0.032 C 
ATOM     29  C   UNL     1       4.558   8.676  -5.891  1.00  0.00     0.114 C 
BRANCH  29  30
ATOM     30  O   UNL     1       5.527   9.664  -6.125  1.00  0.00    -0.393 OA
ATOM     31  H   UNL     1       5.233  10.516  -5.696  1.00  0.00     0.210 HD
ENDBRANCH  29  30
ENDBRANCH   1  11
TORSDOF 6
ENDMDL
MODEL 6
REMARK VINA RESULT:    -4.278      2.386      6.976
REMARK INTER + INTRA:          -7.418
REMARK INTER:                  -5.432
REMARK INTRA:                  -1.986
REMARK UNBOUND:                -1.764
REMARK SMILES CC[C@@H](C=C[C@@H](C)[C@@H]1CC[C@H]2C3=CC[C@H]4C[C@@H](O)CC[C@]4(C)[C@@H]3CC[C@]21C)C(C)C
REMARK SMILES IDX 6 1 7 2 5 3 4 4 3 5 2 6 1 7 28 8 29 9 30 10 8 11 9 12 26 13
REMARK SMILES IDX 10 14 11 15 25 16 27 17 12 18 24 19 23 20 13 21 21 22 14 23
REMARK SMILES IDX 15 24 20 25 22 26 16 27 19 28 17 29 18 30
REMARK H PARENT 18 31
REMARK Flexibility Score: inf
ROOT
ATOM      1  C   UNL     1       8.075   2.396  -5.218  1.00  0.00     0.012 C 
ATOM      2  C   UNL     1       8.666   1.818  -6.511  1.00  0.00     0.012 C 
ENDROOT
BRANCH   1   3
ATOM      3  C   UNL     1       7.989   1.263  -4.214  1.00  0.00    -0.028 C 
ATOM      4  C   UNL     1       6.827   0.624  -3.995  1.00  0.00    -0.027 C 
BRANCH   4   5
ATOM      5  C   UNL     1       6.711  -0.512  -2.988  1.00  0.00     0.014 C 
BRANCH   5   6
ATOM      6  C   UNL     1       7.045  -1.889  -3.622  1.00  0.00     0.004 C 
ATOM      7  C   UNL     1       7.049  -1.932  -5.155  1.00  0.00     0.004 C 
ENDBRANCH   5   6
BRANCH   5   8
ATOM      8  C   UNL     1       5.367  -0.445  -2.185  1.00  0.00    -0.011 C 
ATOM      9  C   UNL     1       5.308   0.621  -1.082  1.00  0.00     0.008 C 
ATOM     10  C   UNL     1       4.136  -0.319  -3.100  1.00  0.00     0.008 C 
ENDBRANCH   5   8
ENDBRANCH   4   5
ENDBRANCH   1   3
BRANCH   1  11
ATOM     11  C   UNL     1       6.689   3.082  -5.496  1.00  0.00     0.002 C 
ATOM     12  C   UNL     1       6.557   3.511  -6.977  1.00  0.00     0.005 C 
ATOM     13  C   UNL     1       6.288   4.343  -4.641  1.00  0.00    -0.023 C 
ATOM     14  C   UNL     1       5.941   4.903  -7.032  1.00  0.00     0.009 C 
ATOM     15  C   UNL     1       5.520   5.290  -5.617  1.00  0.00     0.021 C 
ATOM     16  C   UNL     1       5.371   3.953  -3.426  1.00  0.00     0.008 C 
ATOM     17  C   UNL     1       7.521   5.113  -4.097  1.00  0.00     0.012 C 
ATOM     18  C   UNL     1       4.015   5.180  -5.462  1.00  0.00    -0.067 C 
ATOM     19  C   UNL     1       3.999   3.323  -3.817  1.00  0.00     0.009 C 
ATOM     20  C   UNL     1       3.463   3.791  -5.203  1.00  0.00     0.021 C 
ATOM     21  C   UNL     1       3.259   6.297  -5.343  1.00  0.00    -0.027 C 
ATOM     22  C   UNL     1       1.904   3.730  -5.412  1.00  0.00    -0.023 C 
ATOM     23  C   UNL     1       1.763   6.274  -5.132  1.00  0.00     0.031 C 
ATOM     24  C   UNL     1       1.253   4.911  -4.622  1.00  0.00     0.002 C 
ATOM     25  C   UNL     1       1.317   2.375  -4.911  1.00  0.00     0.010 C 
ATOM     26  C   UNL     1       1.629   3.842  -6.946  1.00  0.00     0.012 C 
ATOM     27  C   UNL     1      -0.292   4.862  -4.630  1.00  0.00     0.036 C 
ATOM     28  C   UNL     1      -0.221   2.341  -4.976  1.00  0.00     0.032 C 
ATOM     29  C   UNL     1      -0.818   3.487  -4.151  1.00  0.00     0.114 C 
BRANCH  29  30
ATOM     30  O   UNL     1      -2.220   3.424  -4.181  1.00  0.00    -0.393 OA
ATOM     31  H   UNL     1      -2.590   4.198  -3.670  1.00  0.00     0.210 HD
ENDBRANCH  29  30
ENDBRANCH   1  11
TORSDOF 6
ENDMDL
MODEL 7
REMARK VINA RESULT:    -4.240      3.828      7.757
REMARK INTER + INTRA:          -7.367
REMARK INTER:                  -5.520
REMARK INTRA:                  -1.847
REMARK UNBOUND:                -1.764
REMARK SMILES CC[C@@H](C=C[C@@H](C)[C@@H]1CC[C@H]2C3=CC[C@H]4C[C@@H](O)CC[C@]4(C)[C@@H]3CC[C@]21C)C(C)C
REMARK SMILES IDX 6 1 7 2 5 3 4 4 3 5 2 6 1 7 28 8 29 9 30 10 8 11 9 12 26 13
REMARK SMILES IDX 10 14 11 15 25 16 27 17 12 18 24 19 23 20 13 21 21 22 14 23
REMARK SMILES IDX 15 24 20 25 22 26 16 27 19 28 17 29 18 30
REMARK H PARENT 18 31
REMARK Flexibility Score: inf
ROOT
ATOM      1  C   UNL     1      -5.964   8.957  -5.023  1.00  0.00     0.012 C 
ATOM      2  C   UNL     1      -6.019  10.125  -6.017  1.00  0.00     0.012 C 
ENDROOT
BRANCH   1   3
ATOM      3  C   UNL     1      -5.525   9.522  -3.686  1.00  0.00    -0.028 C 
ATOM      4  C   UNL     1      -4.936   8.737  -2.767  1.00  0.00    -0.027 C 
BRANCH   4   5
ATOM      5  C   UNL     1      -4.492   9.276  -1.414  1.00  0.00     0.014 C 
BRANCH   5   6
ATOM      6  C   UNL     1      -2.949   9.407  -1.317  1.00  0.00     0.004 C 
ATOM      7  C   UNL     1      -2.145   8.569  -2.318  1.00  0.00     0.004 C 
ENDBRANCH   5   6
BRANCH   5   8
ATOM      8  C   UNL     1      -5.183   8.519  -0.230  1.00  0.00    -0.011 C 
ATOM      9  C   UNL     1      -5.618   7.078  -0.530  1.00  0.00     0.008 C 
ATOM     10  C   UNL     1      -4.349   8.555   1.063  1.00  0.00     0.008 C 
ENDBRANCH   5   8
ENDBRANCH   4   5
ENDBRANCH   1   3
BRANCH   1  11
ATOM     11  C   UNL     1      -5.020   7.818  -5.552  1.00  0.00     0.002 C 
ATOM     12  C   UNL     1      -4.637   8.044  -7.035  1.00  0.00     0.005 C 
ATOM     13  C   UNL     1      -5.513   6.325  -5.454  1.00  0.00    -0.023 C 
ATOM     14  C   UNL     1      -4.724   6.715  -7.773  1.00  0.00     0.009 C 
ATOM     15  C   UNL     1      -4.986   5.619  -6.743  1.00  0.00     0.021 C 
ATOM     16  C   UNL     1      -4.952   5.610  -4.173  1.00  0.00     0.008 C 
ATOM     17  C   UNL     1      -7.061   6.207  -5.442  1.00  0.00     0.012 C 
ATOM     18  C   UNL     1      -3.723   4.818  -6.487  1.00  0.00    -0.067 C 
ATOM     19  C   UNL     1      -3.397   5.488  -4.120  1.00  0.00     0.009 C 
ATOM     20  C   UNL     1      -2.723   5.428  -5.523  1.00  0.00     0.021 C 
ATOM     21  C   UNL     1      -3.624   3.542  -6.928  1.00  0.00    -0.027 C 
ATOM     22  C   UNL     1      -1.322   4.712  -5.601  1.00  0.00    -0.023 C 
ATOM     23  C   UNL     1      -2.426   2.660  -6.669  1.00  0.00     0.031 C 
ATOM     24  C   UNL     1      -1.551   3.168  -5.506  1.00  0.00     0.002 C 
ATOM     25  C   UNL     1      -0.384   5.177  -4.446  1.00  0.00     0.010 C 
ATOM     26  C   UNL     1      -0.661   5.114  -6.958  1.00  0.00     0.012 C 
ATOM     27  C   UNL     1      -0.230   2.369  -5.418  1.00  0.00     0.036 C 
ATOM     28  C   UNL     1       0.942   4.394  -4.416  1.00  0.00     0.032 C 
ATOM     29  C   UNL     1       0.674   2.891  -4.274  1.00  0.00     0.114 C 
BRANCH  29  30
ATOM     30  O   UNL     1       1.887   2.189  -4.205  1.00  0.00    -0.393 OA
ATOM     31  H   UNL     1       2.006   1.840  -3.276  1.00  0.00     0.210 HD
ENDBRANCH  29  30
ENDBRANCH   1  11
TORSDOF 6
ENDMDL
MODEL 8
REMARK VINA RESULT:    -4.037      5.655     10.251
REMARK INTER + INTRA:          -7.099
REMARK INTER:                  -5.369
REMARK INTRA:                  -1.730
REMARK UNBOUND:                -1.764
REMARK SMILES CC[C@@H](C=C[C@@H](C)[C@@H]1CC[C@H]2C3=CC[C@H]4C[C@@H](O)CC[C@]4(C)[C@@H]3CC[C@]21C)C(C)C
REMARK SMILES IDX 6 1 7 2 5 3 4 4 3 5 2 6 1 7 28 8 29 9 30 10 8 11 9 12 26 13
REMARK SMILES IDX 10 14 11 15 25 16 27 17 12 18 24 19 23 20 13 21 21 22 14 23
REMARK SMILES IDX 15 24 20 25 22 26 16 27 19 28 17 29 18 30
REMARK H PARENT 18 31
REMARK Flexibility Score: inf
ROOT
ATOM      1  C   UNL     1       8.235  -1.341   0.681  1.00  0.00     0.012 C 
ATOM      2  C   UNL     1       8.624  -0.983   2.122  1.00  0.00     0.012 C 
ENDROOT
BRANCH   1   3
ATOM      3  C   UNL     1       7.317  -0.246   0.175  1.00  0.00    -0.028 C 
ATOM      4  C   UNL     1       6.010  -0.483  -0.033  1.00  0.00    -0.027 C 
BRANCH   4   5
ATOM      5  C   UNL     1       5.068   0.596  -0.547  1.00  0.00     0.014 C 
BRANCH   5   6
ATOM      6  C   UNL     1       4.476   0.238  -1.937  1.00  0.00     0.004 C 
ATOM      7  C   UNL     1       5.453  -0.398  -2.933  1.00  0.00     0.004 C 
ENDBRANCH   5   6
BRANCH   5   8
ATOM      8  C   UNL     1       5.699   2.025  -0.429  1.00  0.00    -0.011 C 
ATOM      9  C   UNL     1       5.544   2.922  -1.665  1.00  0.00     0.008 C 
ATOM     10  C   UNL     1       5.227   2.779   0.827  1.00  0.00     0.008 C 
ENDBRANCH   5   8
ENDBRANCH   4   5
ENDBRANCH   1   3
BRANCH   1  11
ATOM     11  C   UNL     1       7.585  -2.770   0.618  1.00  0.00     0.002 C 
ATOM     12  C   UNL     1       7.993  -3.632   1.836  1.00  0.00     0.005 C 
ATOM     13  C   UNL     1       7.850  -3.662  -0.654  1.00  0.00    -0.023 C 
ATOM     14  C   UNL     1       8.327  -5.038   1.355  1.00  0.00     0.009 C 
ATOM     15  C   UNL     1       7.967  -5.127  -0.127  1.00  0.00     0.021 C 
ATOM     16  C   UNL     1       6.681  -3.550  -1.697  1.00  0.00     0.008 C 
ATOM     17  C   UNL     1       9.180  -3.303  -1.368  1.00  0.00     0.012 C 
ATOM     18  C   UNL     1       6.682  -5.912  -0.314  1.00  0.00    -0.067 C 
ATOM     19  C   UNL     1       5.295  -4.047  -1.182  1.00  0.00     0.009 C 
ATOM     20  C   UNL     1       5.389  -5.152  -0.088  1.00  0.00     0.021 C 
ATOM     21  C   UNL     1       6.713  -7.147  -0.867  1.00  0.00    -0.027 C 
ATOM     22  C   UNL     1       4.154  -6.120   0.043  1.00  0.00    -0.023 C 
ATOM     23  C   UNL     1       5.476  -7.972  -1.139  1.00  0.00     0.031 C 
ATOM     24  C   UNL     1       4.187  -7.126  -1.154  1.00  0.00     0.002 C 
ATOM     25  C   UNL     1       2.810  -5.330   0.029  1.00  0.00     0.010 C 
ATOM     26  C   UNL     1       4.274  -6.855   1.417  1.00  0.00     0.012 C 
ATOM     27  C   UNL     1       2.934  -8.030  -1.213  1.00  0.00     0.036 C 
ATOM     28  C   UNL     1       1.582  -6.259   0.018  1.00  0.00     0.032 C 
ATOM     29  C   UNL     1       1.631  -7.196  -1.196  1.00  0.00     0.114 C 
BRANCH  29  30
ATOM     30  O   UNL     1       0.487  -8.010  -1.223  1.00  0.00    -0.393 OA
ATOM     31  H   UNL     1      -0.118  -7.695  -1.952  1.00  0.00     0.210 HD
ENDBRANCH  29  30
ENDBRANCH   1  11
TORSDOF 6
ENDMDL
MODEL 9
REMARK VINA RESULT:    -4.021      4.449      7.705
REMARK INTER + INTRA:          -7.078
REMARK INTER:                  -5.831
REMARK INTRA:                  -1.247
REMARK UNBOUND:                -1.764
REMARK SMILES CC[C@@H](C=C[C@@H](C)[C@@H]1CC[C@H]2C3=CC[C@H]4C[C@@H](O)CC[C@]4(C)[C@@H]3CC[C@]21C)C(C)C
REMARK SMILES IDX 6 1 7 2 5 3 4 4 3 5 2 6 1 7 28 8 29 9 30 10 8 11 9 12 26 13
REMARK SMILES IDX 10 14 11 15 25 16 27 17 12 18 24 19 23 20 13 21 21 22 14 23
REMARK SMILES IDX 15 24 20 25 22 26 16 27 19 28 17 29 18 30
REMARK H PARENT 18 31
REMARK Flexibility Score: inf
ROOT
ATOM      1  C   UNL     1       4.548  -0.109  -2.599  1.00  0.00     0.012 C 
ATOM      2  C   UNL     1       5.386  -0.395  -3.852  1.00  0.00     0.012 C 
ENDROOT
BRANCH   1   3
ATOM      3  C   UNL     1       3.403   0.792  -3.017  1.00  0.00    -0.028 C 
ATOM      4  C   UNL     1       3.625   1.885  -3.767  1.00  0.00    -0.027 C 
BRANCH   4   5
ATOM      5  C   UNL     1       2.495   2.811  -4.195  1.00  0.00     0.014 C 
BRANCH   5   6
ATOM      6  C   UNL     1       1.210   2.025  -4.572  1.00  0.00     0.004 C 
ATOM      7  C   UNL     1       0.354   2.643  -5.685  1.00  0.00     0.004 C 
ENDBRANCH   5   6
BRANCH   5   8
ATOM      8  C   UNL     1       2.974   3.868  -5.247  1.00  0.00    -0.011 C 
ATOM      9  C   UNL     1       3.186   5.289  -4.707  1.00  0.00     0.008 C 
ATOM     10  C   UNL     1       4.223   3.411  -6.021  1.00  0.00     0.008 C 
ENDBRANCH   5   8
ENDBRANCH   4   5
ENDBRANCH   1   3
BRANCH   1  11
ATOM     11  C   UNL     1       5.438   0.511  -1.462  1.00  0.00     0.002 C 
ATOM     12  C   UNL     1       6.894   0.730  -1.939  1.00  0.00     0.005 C 
ATOM     13  C   UNL     1       5.542  -0.252  -0.087  1.00  0.00    -0.023 C 
ATOM     14  C   UNL     1       7.845   0.284  -0.837  1.00  0.00     0.009 C 
ATOM     15  C   UNL     1       7.013  -0.052   0.398  1.00  0.00     0.021 C 
ATOM     16  C   UNL     1       4.536   0.323   0.974  1.00  0.00     0.008 C 
ATOM     17  C   UNL     1       5.288  -1.776  -0.229  1.00  0.00     0.012 C 
ATOM     18  C   UNL     1       7.134   1.050   1.434  1.00  0.00    -0.067 C 
ATOM     19  C   UNL     1       4.775   1.815   1.362  1.00  0.00     0.009 C 
ATOM     20  C   UNL     1       6.258   2.271   1.226  1.00  0.00     0.021 C 
ATOM     21  C   UNL     1       7.819   0.834   2.581  1.00  0.00    -0.027 C 
ATOM     22  C   UNL     1       6.709   3.479   2.131  1.00  0.00    -0.023 C 
ATOM     23  C   UNL     1       7.942   1.857   3.687  1.00  0.00     0.031 C 
ATOM     24  C   UNL     1       6.871   2.962   3.597  1.00  0.00     0.002 C 
ATOM     25  C   UNL     1       5.665   4.636   2.092  1.00  0.00     0.010 C 
ATOM     26  C   UNL     1       8.058   4.019   1.557  1.00  0.00     0.012 C 
ATOM     27  C   UNL     1       7.165   4.098   4.605  1.00  0.00     0.036 C 
ATOM     28  C   UNL     1       6.012   5.772   3.072  1.00  0.00     0.032 C 
ATOM     29  C   UNL     1       6.115   5.231   4.504  1.00  0.00     0.114 C 
BRANCH  29  30
ATOM     30  O   UNL     1       6.389   6.279   5.397  1.00  0.00    -0.393 OA
ATOM     31  H   UNL     1       5.540   6.769   5.591  1.00  0.00     0.210 HD
ENDBRANCH  29  30
ENDBRANCH   1  11
TORSDOF 6
ENDMDL
