MODEL 1
REMARK VINA RESULT:    -7.228      0.000      0.000
REMARK INTER + INTRA:          -8.760
REMARK INTER:                  -8.496
REMARK INTRA:                  -0.264
REMARK UNBOUND:                -0.264
REMARK SMILES O=c1cc(-c2ccc(O)c(O)c2)oc2cc(O)cc(O)c12
REMARK SMILES IDX 4 1 3 2 2 3 1 4 21 5 19 6 18 7 16 8 15 9 14 10 13 11 5 12
REMARK SMILES IDX 6 13 7 14 8 15 12 16 10 17 9 18 11 20 20 22 17 24
REMARK H PARENT 9 19 11 21 20 23 17 25
REMARK Flexibility Score: inf
ROOT
ATOM      1  C   UNL     1     165.541 154.870 151.134  1.00  0.00     0.138 A 
ATOM      2  C   UNL     1     164.441 154.001 151.123  1.00  0.00     0.100 A 
ATOM      3  C   UNL     1     164.615 152.671 150.739  1.00  0.00     0.197 A 
ATOM      4  O   UNL     1     163.599 151.931 150.680  1.00  0.00    -0.289 OA
ATOM      5  C   UNL     1     165.906 152.202 150.396  1.00  0.00     0.107 A 
ATOM      6  C   UNL     1     166.210 150.857 150.028  1.00  0.00     0.134 A 
ATOM      7  C   UNL     1     167.504 150.536 149.596  1.00  0.00     0.093 A 
ATOM      8  C   UNL     1     168.516 151.495 149.575  1.00  0.00     0.123 A 
ATOM      9  C   UNL     1     168.242 152.800 149.983  1.00  0.00     0.094 A 
ATOM     10  C   UNL     1     166.954 153.161 150.387  1.00  0.00     0.146 A 
ATOM     11  O   UNL     1     166.731 154.418 150.755  1.00  0.00    -0.456 OA
ENDROOT
BRANCH   1  12
ATOM     12  C   UNL     1     165.411 156.294 151.535  1.00  0.00     0.021 A 
ATOM     13  C   UNL     1     165.055 157.254 150.572  1.00  0.00     0.016 A 
ATOM     14  C   UNL     1     164.934 158.601 150.921  1.00  0.00     0.051 A 
ATOM     15  C   UNL     1     165.175 159.015 152.234  1.00  0.00     0.157 A 
ATOM     16  C   UNL     1     165.666 156.718 152.854  1.00  0.00     0.062 A 
ATOM     17  C   UNL     1     165.546 158.071 153.205  1.00  0.00     0.158 A 
BRANCH  15  18
ATOM     18  O   UNL     1     165.045 160.366 152.554  1.00  0.00    -0.504 OA
ATOM     19  H   UNL     1     165.847 160.955 152.737  1.00  0.00     0.293 HD
ENDBRANCH  15  18
BRANCH  17  20
ATOM     20  O   UNL     1     165.798 158.479 154.514  1.00  0.00    -0.504 OA
ATOM     21  H   UNL     1     166.474 158.002 155.100  1.00  0.00     0.293 HD
ENDBRANCH  17  20
ENDBRANCH   1  12
BRANCH   6  22
ATOM     22  O   UNL     1     165.294 149.802 150.095  1.00  0.00    -0.507 OA
ATOM     23  H   UNL     1     165.122 149.141 149.354  1.00  0.00     0.293 HD
ENDBRANCH   6  22
BRANCH   8  24
ATOM     24  O   UNL     1     169.794 151.136 149.153  1.00  0.00    -0.508 OA
ATOM     25  H   UNL     1     170.621 151.594 149.516  1.00  0.00     0.293 HD
ENDBRANCH   8  24
TORSDOF 5
ENDMDL
MODEL 2
REMARK VINA RESULT:    -6.972      2.762      4.959
REMARK INTER + INTRA:          -8.459
REMARK INTER:                  -8.174
REMARK INTRA:                  -0.285
REMARK UNBOUND:                -0.264
REMARK SMILES O=c1cc(-c2ccc(O)c(O)c2)oc2cc(O)cc(O)c12
REMARK SMILES IDX 4 1 3 2 2 3 1 4 21 5 19 6 18 7 16 8 15 9 14 10 13 11 5 12
REMARK SMILES IDX 6 13 7 14 8 15 12 16 10 17 9 18 11 20 20 22 17 24
REMARK H PARENT 9 19 11 21 20 23 17 25
REMARK Flexibility Score: inf
ROOT
ATOM      1  C   UNL     1     167.217 151.915 149.757  1.00  0.00     0.138 A 
ATOM      2  C   UNL     1     168.023 152.653 148.878  1.00  0.00     0.100 A 
ATOM      3  C   UNL     1     169.179 152.076 148.352  1.00  0.00     0.197 A 
ATOM      4  O   UNL     1     169.914 152.783 147.616  1.00  0.00    -0.289 OA
ATOM      5  C   UNL     1     169.510 150.740 148.682  1.00  0.00     0.107 A 
ATOM      6  C   UNL     1     170.642 150.034 148.173  1.00  0.00     0.134 A 
ATOM      7  C   UNL     1     170.934 148.754 148.662  1.00  0.00     0.093 A 
ATOM      8  C   UNL     1     170.104 148.132 149.594  1.00  0.00     0.123 A 
ATOM      9  C   UNL     1     168.966 148.791 150.058  1.00  0.00     0.094 A 
ATOM     10  C   UNL     1     168.666 150.083 149.616  1.00  0.00     0.146 A 
ATOM     11  O   UNL     1     167.580 150.682 150.094  1.00  0.00    -0.456 OA
ENDROOT
BRANCH   1  12
ATOM     12  C   UNL     1     165.977 152.480 150.345  1.00  0.00     0.021 A 
ATOM     13  C   UNL     1     164.889 151.632 150.614  1.00  0.00     0.016 A 
ATOM     14  C   UNL     1     163.708 152.140 151.160  1.00  0.00     0.051 A 
ATOM     15  C   UNL     1     163.589 153.504 151.440  1.00  0.00     0.157 A 
ATOM     16  C   UNL     1     165.846 153.857 150.616  1.00  0.00     0.062 A 
ATOM     17  C   UNL     1     164.660 154.368 151.164  1.00  0.00     0.158 A 
BRANCH  15  18
ATOM     18  O   UNL     1     162.398 153.982 151.987  1.00  0.00    -0.504 OA
ATOM     19  H   UNL     1     161.917 153.498 152.735  1.00  0.00     0.293 HD
ENDBRANCH  15  18
BRANCH  17  20
ATOM     20  O   UNL     1     164.543 155.732 151.430  1.00  0.00    -0.504 OA
ATOM     21  H   UNL     1     165.357 156.330 151.510  1.00  0.00     0.293 HD
ENDBRANCH  17  20
ENDBRANCH   1  12
BRANCH   6  22
ATOM     22  O   UNL     1     171.489 150.530 147.176  1.00  0.00    -0.507 OA
ATOM     23  H   UNL     1     171.298 150.492 146.187  1.00  0.00     0.293 HD
ENDBRANCH   6  22
BRANCH   8  24
ATOM     24  O   UNL     1     170.418 146.852 150.046  1.00  0.00    -0.508 OA
ATOM     25  H   UNL     1     169.899 146.039 149.737  1.00  0.00     0.293 HD
ENDBRANCH   8  24
TORSDOF 5
ENDMDL
MODEL 3
REMARK VINA RESULT:    -6.971      2.062      7.237
REMARK INTER + INTRA:          -8.458
REMARK INTER:                  -8.181
REMARK INTRA:                  -0.277
REMARK UNBOUND:                -0.264
REMARK SMILES O=c1cc(-c2ccc(O)c(O)c2)oc2cc(O)cc(O)c12
REMARK SMILES IDX 4 1 3 2 2 3 1 4 21 5 19 6 18 7 16 8 15 9 14 10 13 11 5 12
REMARK SMILES IDX 6 13 7 14 8 15 12 16 10 17 9 18 11 20 20 22 17 24
REMARK H PARENT 9 19 11 21 20 23 17 25
REMARK Flexibility Score: inf
ROOT
ATOM      1  C   UNL     1     166.568 151.391 149.544  1.00  0.00     0.138 A 
ATOM      2  C   UNL     1     165.365 150.835 150.004  1.00  0.00     0.100 A 
ATOM      3  C   UNL     1     164.437 151.644 150.661  1.00  0.00     0.197 A 
ATOM      4  O   UNL     1     163.396 151.104 151.116  1.00  0.00    -0.289 OA
ATOM      5  C   UNL     1     164.702 153.024 150.829  1.00  0.00     0.107 A 
ATOM      6  C   UNL     1     163.811 153.953 151.447  1.00  0.00     0.134 A 
ATOM      7  C   UNL     1     164.230 155.272 151.662  1.00  0.00     0.093 A 
ATOM      8  C   UNL     1     165.481 155.711 151.230  1.00  0.00     0.123 A 
ATOM      9  C   UNL     1     166.339 154.825 150.577  1.00  0.00     0.094 A 
ATOM     10  C   UNL     1     165.964 153.493 150.377  1.00  0.00     0.146 A 
ATOM     11  O   UNL     1     166.816 152.679 149.764  1.00  0.00    -0.456 OA
ENDROOT
BRANCH   1  12
ATOM     12  C   UNL     1     167.589 150.578 148.838  1.00  0.00     0.021 A 
ATOM     13  C   UNL     1     167.249 149.927 147.640  1.00  0.00     0.016 A 
ATOM     14  C   UNL     1     168.189 149.150 146.961  1.00  0.00     0.051 A 
ATOM     15  C   UNL     1     169.482 149.000 147.469  1.00  0.00     0.157 A 
ATOM     16  C   UNL     1     168.890 150.412 149.354  1.00  0.00     0.062 A 
ATOM     17  C   UNL     1     169.835 149.630 148.673  1.00  0.00     0.158 A 
BRANCH  15  18
ATOM     18  O   UNL     1     170.401 148.218 146.768  1.00  0.00    -0.504 OA
ATOM     19  H   UNL     1     170.120 147.398 146.245  1.00  0.00     0.293 HD
ENDBRANCH  15  18
BRANCH  17  20
ATOM     20  O   UNL     1     171.119 149.476 149.192  1.00  0.00    -0.504 OA
ATOM     21  H   UNL     1     171.280 149.344 150.184  1.00  0.00     0.293 HD
ENDBRANCH  17  20
ENDBRANCH   1  12
BRANCH   6  22
ATOM     22  O   UNL     1     162.506 153.640 151.840  1.00  0.00    -0.507 OA
ATOM     23  H   UNL     1     162.232 153.384 152.776  1.00  0.00     0.293 HD
ENDBRANCH   6  22
BRANCH   8  24
ATOM     24  O   UNL     1     165.858 157.034 151.448  1.00  0.00    -0.508 OA
ATOM     25  H   UNL     1     165.761 157.470 152.357  1.00  0.00     0.293 HD
ENDBRANCH   8  24
TORSDOF 5
ENDMDL
MODEL 4
REMARK VINA RESULT:    -6.817      1.328      3.016
REMARK INTER + INTRA:          -8.277
REMARK INTER:                  -8.010
REMARK INTRA:                  -0.267
REMARK UNBOUND:                -0.264
REMARK SMILES O=c1cc(-c2ccc(O)c(O)c2)oc2cc(O)cc(O)c12
REMARK SMILES IDX 4 1 3 2 2 3 1 4 21 5 19 6 18 7 16 8 15 9 14 10 13 11 5 12
REMARK SMILES IDX 6 13 7 14 8 15 12 16 10 17 9 18 11 20 20 22 17 24
REMARK H PARENT 9 19 11 21 20 23 17 25
REMARK Flexibility Score: inf
ROOT
ATOM      1  C   UNL     1     166.026 154.487 150.922  1.00  0.00     0.138 A 
ATOM      2  C   UNL     1     167.368 154.358 150.539  1.00  0.00     0.100 A 
ATOM      3  C   UNL     1     167.840 153.127 150.082  1.00  0.00     0.197 A 
ATOM      4  O   UNL     1     169.063 153.026 149.803  1.00  0.00    -0.289 OA
ATOM      5  C   UNL     1     166.954 152.029 149.978  1.00  0.00     0.107 A 
ATOM      6  C   UNL     1     167.314 150.737 149.486  1.00  0.00     0.134 A 
ATOM      7  C   UNL     1     166.380 149.694 149.539  1.00  0.00     0.093 A 
ATOM      8  C   UNL     1     165.085 149.909 150.009  1.00  0.00     0.123 A 
ATOM      9  C   UNL     1     164.706 151.180 150.441  1.00  0.00     0.094 A 
ATOM     10  C   UNL     1     165.624 152.234 150.433  1.00  0.00     0.146 A 
ATOM     11  O   UNL     1     165.228 153.426 150.867  1.00  0.00    -0.456 OA
ENDROOT
BRANCH   1  12
ATOM     12  C   UNL     1     165.472 155.773 151.415  1.00  0.00     0.021 A 
ATOM     13  C   UNL     1     164.945 155.846 152.716  1.00  0.00     0.016 A 
ATOM     14  C   UNL     1     164.411 157.042 153.201  1.00  0.00     0.051 A 
ATOM     15  C   UNL     1     164.384 158.183 152.394  1.00  0.00     0.157 A 
ATOM     16  C   UNL     1     165.430 156.922 150.601  1.00  0.00     0.062 A 
ATOM     17  C   UNL     1     164.892 158.123 151.087  1.00  0.00     0.158 A 
BRANCH  15  18
ATOM     18  O   UNL     1     163.845 159.363 152.906  1.00  0.00    -0.504 OA
ATOM     19  H   UNL     1     164.090 160.272 152.534  1.00  0.00     0.293 HD
ENDBRANCH  15  18
BRANCH  17  20
ATOM     20  O   UNL     1     164.857 159.254 150.272  1.00  0.00    -0.504 OA
ATOM     21  H   UNL     1     165.704 159.669 149.901  1.00  0.00     0.293 HD
ENDBRANCH  17  20
ENDBRANCH   1  12
BRANCH   6  22
ATOM     22  O   UNL     1     168.555 150.436 148.917  1.00  0.00    -0.507 OA
ATOM     23  H   UNL     1     168.686 150.030 148.004  1.00  0.00     0.293 HD
ENDBRANCH   6  22
BRANCH   8  24
ATOM     24  O   UNL     1     164.179 148.851 150.033  1.00  0.00    -0.508 OA
ATOM     25  H   UNL     1     163.395 148.839 150.675  1.00  0.00     0.293 HD
ENDBRANCH   8  24
TORSDOF 5
ENDMDL
MODEL 5
REMARK VINA RESULT:    -6.810      1.628      7.181
REMARK INTER + INTRA:          -8.269
REMARK INTER:                  -7.985
REMARK INTRA:                  -0.284
REMARK UNBOUND:                -0.264
REMARK SMILES O=c1cc(-c2ccc(O)c(O)c2)oc2cc(O)cc(O)c12
REMARK SMILES IDX 4 1 3 2 2 3 1 4 21 5 19 6 18 7 16 8 15 9 14 10 13 11 5 12
REMARK SMILES IDX 6 13 7 14 8 15 12 16 10 17 9 18 11 20 20 22 17 24
REMARK H PARENT 9 19 11 21 20 23 17 25
REMARK Flexibility Score: inf
ROOT
ATOM      1  C   UNL     1     165.279 155.626 151.323  1.00  0.00     0.138 A 
ATOM      2  C   UNL     1     164.770 155.898 152.601  1.00  0.00     0.100 A 
ATOM      3  C   UNL     1     164.348 157.190 152.915  1.00  0.00     0.197 A 
ATOM      4  O   UNL     1     163.954 157.418 154.088  1.00  0.00    -0.289 OA
ATOM      5  C   UNL     1     164.407 158.208 151.933  1.00  0.00     0.107 A 
ATOM      6  C   UNL     1     163.967 159.552 152.128  1.00  0.00     0.134 A 
ATOM      7  C   UNL     1     164.182 160.501 151.120  1.00  0.00     0.093 A 
ATOM      8  C   UNL     1     164.766 160.143 149.905  1.00  0.00     0.123 A 
ATOM      9  C   UNL     1     165.152 158.821 149.684  1.00  0.00     0.094 A 
ATOM     10  C   UNL     1     164.982 157.857 150.682  1.00  0.00     0.146 A 
ATOM     11  O   UNL     1     165.375 156.612 150.437  1.00  0.00    -0.456 OA
ENDROOT
BRANCH   1  12
ATOM     12  C   UNL     1     165.742 154.270 150.935  1.00  0.00     0.021 A 
ATOM     13  C   UNL     1     164.884 153.170 151.111  1.00  0.00     0.016 A 
ATOM     14  C   UNL     1     165.298 151.883 150.762  1.00  0.00     0.051 A 
ATOM     15  C   UNL     1     166.576 151.669 150.239  1.00  0.00     0.157 A 
ATOM     16  C   UNL     1     167.034 154.047 150.421  1.00  0.00     0.062 A 
ATOM     17  C   UNL     1     167.451 152.754 150.070  1.00  0.00     0.158 A 
BRANCH  15  18
ATOM     18  O   UNL     1     166.961 150.372 149.897  1.00  0.00    -0.504 OA
ATOM     19  H   UNL     1     167.307 149.715 150.585  1.00  0.00     0.293 HD
ENDBRANCH  15  18
BRANCH  17  20
ATOM     20  O   UNL     1     168.731 152.546 149.560  1.00  0.00    -0.504 OA
ATOM     21  H   UNL     1     168.884 152.291 148.592  1.00  0.00     0.293 HD
ENDBRANCH  17  20
ENDBRANCH   1  12
BRANCH   6  22
ATOM     22  O   UNL     1     163.295 159.996 153.270  1.00  0.00    -0.507 OA
ATOM     23  H   UNL     1     162.304 159.900 153.430  1.00  0.00     0.293 HD
ENDBRANCH   6  22
BRANCH   8  24
ATOM     24  O   UNL     1     164.952 161.111 148.921  1.00  0.00    -0.508 OA
ATOM     25  H   UNL     1     165.796 161.144 148.362  1.00  0.00     0.293 HD
ENDBRANCH   8  24
TORSDOF 5
ENDMDL
MODEL 6
REMARK VINA RESULT:    -6.793      3.150      8.712
REMARK INTER + INTRA:          -8.248
REMARK INTER:                  -7.955
REMARK INTRA:                  -0.294
REMARK UNBOUND:                -0.264
REMARK SMILES O=c1cc(-c2ccc(O)c(O)c2)oc2cc(O)cc(O)c12
REMARK SMILES IDX 4 1 3 2 2 3 1 4 21 5 19 6 18 7 16 8 15 9 14 10 13 11 5 12
REMARK SMILES IDX 6 13 7 14 8 15 12 16 10 17 9 18 11 20 20 22 17 24
REMARK H PARENT 9 19 11 21 20 23 17 25
REMARK Flexibility Score: inf
ROOT
ATOM      1  C   UNL     1     167.859 149.706 150.084  1.00  0.00     0.138 A 
ATOM      2  C   UNL     1     168.630 150.689 149.446  1.00  0.00     0.100 A 
ATOM      3  C   UNL     1     168.169 152.004 149.398  1.00  0.00     0.197 A 
ATOM      4  O   UNL     1     168.853 152.851 148.767  1.00  0.00    -0.289 OA
ATOM      5  C   UNL     1     166.944 152.343 150.021  1.00  0.00     0.107 A 
ATOM      6  C   UNL     1     166.395 153.661 150.071  1.00  0.00     0.134 A 
ATOM      7  C   UNL     1     165.118 153.855 150.614  1.00  0.00     0.093 A 
ATOM      8  C   UNL     1     164.398 152.794 151.161  1.00  0.00     0.123 A 
ATOM      9  C   UNL     1     164.947 151.512 151.165  1.00  0.00     0.094 A 
ATOM     10  C   UNL     1     166.205 151.278 150.601  1.00  0.00     0.146 A 
ATOM     11  O   UNL     1     166.686 150.040 150.612  1.00  0.00    -0.456 OA
ENDROOT
BRANCH   1  12
ATOM     12  C   UNL     1     168.302 148.291 150.164  1.00  0.00     0.021 A 
ATOM     13  C   UNL     1     167.695 147.428 151.092  1.00  0.00     0.016 A 
ATOM     14  C   UNL     1     168.098 146.095 151.193  1.00  0.00     0.051 A 
ATOM     15  C   UNL     1     169.120 145.602 150.376  1.00  0.00     0.157 A 
ATOM     16  C   UNL     1     169.341 147.794 149.353  1.00  0.00     0.062 A 
ATOM     17  C   UNL     1     169.747 146.454 149.454  1.00  0.00     0.158 A 
BRANCH  15  18
ATOM     18  O   UNL     1     169.500 144.266 150.499  1.00  0.00    -0.504 OA
ATOM     19  H   UNL     1     170.444 143.995 150.745  1.00  0.00     0.293 HD
ENDBRANCH  15  18
BRANCH  17  20
ATOM     20  O   UNL     1     170.775 145.972 148.645  1.00  0.00    -0.504 OA
ATOM     21  H   UNL     1     170.593 145.591 147.724  1.00  0.00     0.293 HD
ENDBRANCH  17  20
ENDBRANCH   1  12
BRANCH   6  22
ATOM     22  O   UNL     1     167.068 154.804 149.630  1.00  0.00    -0.507 OA
ATOM     23  H   UNL     1     167.994 155.076 149.921  1.00  0.00     0.293 HD
ENDBRANCH   6  22
BRANCH   8  24
ATOM     24  O   UNL     1     163.137 153.028 151.705  1.00  0.00    -0.508 OA
ATOM     25  H   UNL     1     162.483 152.273 151.871  1.00  0.00     0.293 HD
ENDBRANCH   8  24
TORSDOF 5
ENDMDL
MODEL 7
REMARK VINA RESULT:    -6.735      3.214      5.917
REMARK INTER + INTRA:          -8.181
REMARK INTER:                  -7.889
REMARK INTRA:                  -0.292
REMARK UNBOUND:                -0.264
REMARK SMILES O=c1cc(-c2ccc(O)c(O)c2)oc2cc(O)cc(O)c12
REMARK SMILES IDX 4 1 3 2 2 3 1 4 21 5 19 6 18 7 16 8 15 9 14 10 13 11 5 12
REMARK SMILES IDX 6 13 7 14 8 15 12 16 10 17 9 18 11 20 20 22 17 24
REMARK H PARENT 9 19 11 21 20 23 17 25
REMARK Flexibility Score: inf
ROOT
ATOM      1  C   UNL     1     167.352 150.140 150.136  1.00  0.00     0.138 A 
ATOM      2  C   UNL     1     168.372 150.178 149.174  1.00  0.00     0.100 A 
ATOM      3  C   UNL     1     169.165 149.051 148.962  1.00  0.00     0.197 A 
ATOM      4  O   UNL     1     170.110 149.135 148.137  1.00  0.00    -0.289 OA
ATOM      5  C   UNL     1     168.914 147.867 149.696  1.00  0.00     0.107 A 
ATOM      6  C   UNL     1     169.632 146.643 149.535  1.00  0.00     0.134 A 
ATOM      7  C   UNL     1     169.371 145.572 150.400  1.00  0.00     0.093 A 
ATOM      8  C   UNL     1     168.381 145.659 151.378  1.00  0.00     0.123 A 
ATOM      9  C   UNL     1     167.637 146.831 151.509  1.00  0.00     0.094 A 
ATOM     10  C   UNL     1     167.895 147.930 150.684  1.00  0.00     0.146 A 
ATOM     11  O   UNL     1     167.173 149.033 150.851  1.00  0.00    -0.456 OA
ENDROOT
BRANCH   1  12
ATOM     12  C   UNL     1     166.479 151.310 150.402  1.00  0.00     0.021 A 
ATOM     13  C   UNL     1     165.235 151.118 151.026  1.00  0.00     0.016 A 
ATOM     14  C   UNL     1     164.391 152.202 151.280  1.00  0.00     0.051 A 
ATOM     15  C   UNL     1     164.770 153.494 150.909  1.00  0.00     0.157 A 
ATOM     16  C   UNL     1     166.850 152.613 150.017  1.00  0.00     0.062 A 
ATOM     17  C   UNL     1     166.003 153.703 150.271  1.00  0.00     0.158 A 
BRANCH  15  18
ATOM     18  O   UNL     1     163.908 154.557 151.177  1.00  0.00    -0.504 OA
ATOM     19  H   UNL     1     163.336 154.589 152.011  1.00  0.00     0.293 HD
ENDBRANCH  15  18
BRANCH  17  20
ATOM     20  O   UNL     1     166.382 154.988 149.887  1.00  0.00    -0.504 OA
ATOM     21  H   UNL     1     166.842 155.622 150.530  1.00  0.00     0.293 HD
ENDBRANCH  17  20
ENDBRANCH   1  12
BRANCH   6  22
ATOM     22  O   UNL     1     170.582 146.421 148.534  1.00  0.00    -0.507 OA
ATOM     23  H   UNL     1     170.374 146.090 147.605  1.00  0.00     0.293 HD
ENDBRANCH   6  22
BRANCH   8  24
ATOM     24  O   UNL     1     168.140 144.568 152.210  1.00  0.00    -0.508 OA
ATOM     25  H   UNL     1     168.706 144.393 153.032  1.00  0.00     0.293 HD
ENDBRANCH   8  24
TORSDOF 5
ENDMDL
MODEL 8
REMARK VINA RESULT:    -6.680      5.374      8.033
REMARK INTER + INTRA:          -8.116
REMARK INTER:                  -7.802
REMARK INTRA:                  -0.313
REMARK UNBOUND:                -0.264
REMARK SMILES O=c1cc(-c2ccc(O)c(O)c2)oc2cc(O)cc(O)c12
REMARK SMILES IDX 4 1 3 2 2 3 1 4 21 5 19 6 18 7 16 8 15 9 14 10 13 11 5 12
REMARK SMILES IDX 6 13 7 14 8 15 12 16 10 17 9 18 11 20 20 22 17 24
REMARK H PARENT 9 19 11 21 20 23 17 25
REMARK Flexibility Score: inf
ROOT
ATOM      1  C   UNL     1     169.365 148.343 149.653  1.00  0.00     0.138 A 
ATOM      2  C   UNL     1     170.097 147.296 149.075  1.00  0.00     0.100 A 
ATOM      3  C   UNL     1     169.993 146.008 149.600  1.00  0.00     0.197 A 
ATOM      4  O   UNL     1     170.708 145.102 149.099  1.00  0.00    -0.289 OA
ATOM      5  C   UNL     1     169.125 145.761 150.691  1.00  0.00     0.107 A 
ATOM      6  C   UNL     1     168.907 144.481 151.283  1.00  0.00     0.134 A 
ATOM      7  C   UNL     1     168.114 144.379 152.433  1.00  0.00     0.093 A 
ATOM      8  C   UNL     1     167.485 145.498 152.977  1.00  0.00     0.123 A 
ATOM      9  C   UNL     1     167.648 146.746 152.375  1.00  0.00     0.094 A 
ATOM     10  C   UNL     1     168.460 146.887 151.246  1.00  0.00     0.146 A 
ATOM     11  O   UNL     1     168.600 148.095 150.711  1.00  0.00    -0.456 OA
ENDROOT
BRANCH   1  12
ATOM     12  C   UNL     1     169.439 149.731 149.134  1.00  0.00     0.021 A 
ATOM     13  C   UNL     1     169.931 149.960 147.838  1.00  0.00     0.016 A 
ATOM     14  C   UNL     1     170.017 151.258 147.328  1.00  0.00     0.051 A 
ATOM     15  C   UNL     1     169.622 152.350 148.106  1.00  0.00     0.157 A 
ATOM     16  C   UNL     1     169.055 150.836 149.919  1.00  0.00     0.062 A 
ATOM     17  C   UNL     1     169.143 152.141 149.409  1.00  0.00     0.158 A 
BRANCH  15  18
ATOM     18  O   UNL     1     169.719 153.634 147.570  1.00  0.00    -0.504 OA
ATOM     19  H   UNL     1     170.292 153.838 146.761  1.00  0.00     0.293 HD
ENDBRANCH  15  18
BRANCH  17  20
ATOM     20  O   UNL     1     168.759 153.226 150.194  1.00  0.00    -0.504 OA
ATOM     21  H   UNL     1     168.876 154.181 149.876  1.00  0.00     0.293 HD
ENDBRANCH  17  20
ENDBRANCH   1  12
BRANCH   6  22
ATOM     22  O   UNL     1     169.420 143.285 150.770  1.00  0.00    -0.507 OA
ATOM     23  H   UNL     1     170.135 142.729 151.211  1.00  0.00     0.293 HD
ENDBRANCH   6  22
BRANCH   8  24
ATOM     24  O   UNL     1     166.691 145.356 154.113  1.00  0.00    -0.508 OA
ATOM     25  H   UNL     1     166.388 144.445 154.438  1.00  0.00     0.293 HD
ENDBRANCH   8  24
TORSDOF 5
ENDMDL
MODEL 9
REMARK VINA RESULT:    -6.644      2.024      2.921
REMARK INTER + INTRA:          -8.074
REMARK INTER:                  -7.782
REMARK INTRA:                  -0.292
REMARK UNBOUND:                -0.264
REMARK SMILES O=c1cc(-c2ccc(O)c(O)c2)oc2cc(O)cc(O)c12
REMARK SMILES IDX 4 1 3 2 2 3 1 4 21 5 19 6 18 7 16 8 15 9 14 10 13 11 5 12
REMARK SMILES IDX 6 13 7 14 8 15 12 16 10 17 9 18 11 20 20 22 17 24
REMARK H PARENT 9 19 11 21 20 23 17 25
REMARK Flexibility Score: inf
ROOT
ATOM      1  C   UNL     1     165.628 152.907 149.806  1.00  0.00     0.138 A 
ATOM      2  C   UNL     1     164.683 152.060 149.210  1.00  0.00     0.100 A 
ATOM      3  C   UNL     1     165.107 151.053 148.343  1.00  0.00     0.197 A 
ATOM      4  O   UNL     1     164.232 150.349 147.777  1.00  0.00    -0.289 OA
ATOM      5  C   UNL     1     166.489 150.874 148.096  1.00  0.00     0.107 A 
ATOM      6  C   UNL     1     167.040 149.855 147.262  1.00  0.00     0.134 A 
ATOM      7  C   UNL     1     168.416 149.848 146.999  1.00  0.00     0.093 A 
ATOM      8  C   UNL     1     169.267 150.783 147.586  1.00  0.00     0.123 A 
ATOM      9  C   UNL     1     168.746 151.751 148.446  1.00  0.00     0.094 A 
ATOM     10  C   UNL     1     167.373 151.806 148.701  1.00  0.00     0.146 A 
ATOM     11  O   UNL     1     166.916 152.753 149.514  1.00  0.00    -0.456 OA
ENDROOT
BRANCH   1  12
ATOM     12  C   UNL     1     165.232 153.994 150.736  1.00  0.00     0.021 A 
ATOM     13  C   UNL     1     164.294 153.730 151.748  1.00  0.00     0.016 A 
ATOM     14  C   UNL     1     163.899 154.737 152.632  1.00  0.00     0.051 A 
ATOM     15  C   UNL     1     164.426 156.026 152.516  1.00  0.00     0.157 A 
ATOM     16  C   UNL     1     165.751 155.298 150.615  1.00  0.00     0.062 A 
ATOM     17  C   UNL     1     165.353 156.311 151.502  1.00  0.00     0.158 A 
BRANCH  15  18
ATOM     18  O   UNL     1     164.014 157.011 153.414  1.00  0.00    -0.504 OA
ATOM     19  H   UNL     1     164.528 157.215 154.262  1.00  0.00     0.293 HD
ENDBRANCH  15  18
BRANCH  17  20
ATOM     20  O   UNL     1     165.874 157.597 151.373  1.00  0.00    -0.504 OA
ATOM     21  H   UNL     1     165.280 158.396 151.185  1.00  0.00     0.293 HD
ENDBRANCH  17  20
ENDBRANCH   1  12
BRANCH   6  22
ATOM     22  O   UNL     1     166.291 148.820 146.694  1.00  0.00    -0.507 OA
ATOM     23  H   UNL     1     166.677 148.044 146.179  1.00  0.00     0.293 HD
ENDBRANCH   6  22
BRANCH   8  24
ATOM     24  O   UNL     1     170.633 150.737 147.314  1.00  0.00    -0.508 OA
ATOM     25  H   UNL     1     170.993 150.904 146.382  1.00  0.00     0.293 HD
ENDBRANCH   8  24
TORSDOF 5
ENDMDL
