MODEL 1
REMARK VINA RESULT:    -3.631      0.000      0.000
REMARK INTER + INTRA:          -4.789
REMARK INTER:                  -4.692
REMARK INTRA:                  -0.096
REMARK UNBOUND:                -0.096
REMARK SMILES CCCCCCC(=O)[O-]
REMARK SMILES IDX 5 1 6 2 7 3 8 4 9 5 4 6 3 7 2 8 1 9
REMARK H PARENT
REMARK Flexibility Score: inf
ROOT
ATOM      1  C   UNL     1      44.765  12.408 -33.626  1.00  0.00     0.006 C 
ENDROOT
BRANCH   1   2
ATOM      2  C   UNL     1      43.324  12.029 -33.994  1.00  0.00     0.053 C 
BRANCH   2   3
ATOM      3  C   UNL     1      43.101  12.061 -35.475  1.00  0.00     0.041 C 
ATOM      4  O   UNL     1      44.042  11.778 -36.262  1.00  0.00    -0.550 OA
ATOM      5  O   UNL     1      41.847  12.370 -35.985  1.00  0.00    -0.550 OA
ENDBRANCH   2   3
ENDBRANCH   1   2
BRANCH   1   6
ATOM      6  C   UNL     1      44.985  12.448 -32.104  1.00  0.00     0.000 C 
BRANCH   6   7
ATOM      7  C   UNL     1      46.454  12.228 -31.713  1.00  0.00    -0.000 C 
BRANCH   7   8
ATOM      8  C   UNL     1      46.652  10.978 -30.844  1.00  0.00    -0.003 C 
ATOM      9  C   UNL     1      46.311  11.263 -29.385  1.00  0.00     0.004 C 
ENDBRANCH   7   8
ENDBRANCH   6   7
ENDBRANCH   1   6
TORSDOF 5
ENDMDL
MODEL 2
REMARK VINA RESULT:    -3.401     19.658     20.617
REMARK INTER + INTRA:          -4.491
REMARK INTER:                  -4.289
REMARK INTRA:                  -0.202
REMARK UNBOUND:                -0.096
REMARK SMILES CCCCCCC(=O)[O-]
REMARK SMILES IDX 5 1 6 2 7 3 8 4 9 5 4 6 3 7 2 8 1 9
REMARK H PARENT
REMARK Flexibility Score: inf
ROOT
ATOM      1  C   UNL     1      56.475  28.920 -36.172  1.00  0.00     0.006 C 
ENDROOT
BRANCH   1   2
ATOM      2  C   UNL     1      56.777  28.736 -34.678  1.00  0.00     0.053 C 
BRANCH   2   3
ATOM      3  C   UNL     1      56.088  27.531 -34.116  1.00  0.00     0.041 C 
ATOM      4  O   UNL     1      55.575  26.679 -34.888  1.00  0.00    -0.550 OA
ATOM      5  O   UNL     1      56.043  27.331 -32.743  1.00  0.00    -0.550 OA
ENDBRANCH   2   3
ENDBRANCH   1   2
BRANCH   1   6
ATOM      6  C   UNL     1      55.615  30.166 -36.442  1.00  0.00     0.000 C 
BRANCH   6   7
ATOM      7  C   UNL     1      54.734  30.017 -37.692  1.00  0.00    -0.000 C 
BRANCH   7   8
ATOM      8  C   UNL     1      55.204  28.882 -38.613  1.00  0.00    -0.003 C 
ATOM      9  C   UNL     1      54.091  27.862 -38.839  1.00  0.00     0.004 C 
ENDBRANCH   7   8
ENDBRANCH   6   7
ENDBRANCH   1   6
TORSDOF 5
ENDMDL
MODEL 3
REMARK VINA RESULT:    -3.383      1.928      2.913
REMARK INTER + INTRA:          -4.469
REMARK INTER:                  -4.368
REMARK INTRA:                  -0.101
REMARK UNBOUND:                -0.096
REMARK SMILES CCCCCCC(=O)[O-]
REMARK SMILES IDX 5 1 6 2 7 3 8 4 9 5 4 6 3 7 2 8 1 9
REMARK H PARENT
REMARK Flexibility Score: inf
ROOT
ATOM      1  C   UNL     1      42.487  11.952 -34.916  1.00  0.00     0.006 C 
ENDROOT
BRANCH   1   2
ATOM      2  C   UNL     1      42.057  12.666 -36.205  1.00  0.00     0.053 C 
BRANCH   2   3
ATOM      3  C   UNL     1      41.079  13.767 -35.930  1.00  0.00     0.041 C 
ATOM      4  O   UNL     1      39.844  13.564 -36.065  1.00  0.00    -0.550 OA
ATOM      5  O   UNL     1      41.529  15.005 -35.491  1.00  0.00    -0.550 OA
ENDBRANCH   2   3
ENDBRANCH   1   2
BRANCH   1   6
ATOM      6  C   UNL     1      43.993  12.106 -34.642  1.00  0.00     0.000 C 
BRANCH   6   7
ATOM      7  C   UNL     1      44.295  12.451 -33.175  1.00  0.00    -0.000 C 
BRANCH   7   8
ATOM      8  C   UNL     1      45.800  12.576 -32.896  1.00  0.00    -0.003 C 
ATOM      9  C   UNL     1      46.130  12.156 -31.467  1.00  0.00     0.004 C 
ENDBRANCH   7   8
ENDBRANCH   6   7
ENDBRANCH   1   6
TORSDOF 5
ENDMDL
MODEL 4
REMARK VINA RESULT:    -3.229      3.230      5.611
REMARK INTER + INTRA:          -4.269
REMARK INTER:                  -4.187
REMARK INTRA:                  -0.082
REMARK UNBOUND:                -0.096
REMARK SMILES CCCCCCC(=O)[O-]
REMARK SMILES IDX 5 1 6 2 7 3 8 4 9 5 4 6 3 7 2 8 1 9
REMARK H PARENT
REMARK Flexibility Score: inf
ROOT
ATOM      1  C   UNL     1      44.777  12.728 -32.912  1.00  0.00     0.006 C 
ENDROOT
BRANCH   1   2
ATOM      2  C   UNL     1      46.190  12.380 -32.423  1.00  0.00     0.053 C 
BRANCH   2   3
ATOM      3  C   UNL     1      46.199  12.006 -30.972  1.00  0.00     0.041 C 
ATOM      4  O   UNL     1      45.429  12.589 -30.164  1.00  0.00    -0.550 OA
ATOM      5  O   UNL     1      47.031  10.991 -30.520  1.00  0.00    -0.550 OA
ENDBRANCH   2   3
ENDBRANCH   1   2
BRANCH   1   6
ATOM      6  C   UNL     1      44.492  12.161 -34.313  1.00  0.00     0.000 C 
BRANCH   6   7
ATOM      7  C   UNL     1      42.992  11.958 -34.575  1.00  0.00    -0.000 C 
BRANCH   7   8
ATOM      8  C   UNL     1      42.600  12.267 -36.028  1.00  0.00    -0.003 C 
ATOM      9  C   UNL     1      41.317  13.091 -36.087  1.00  0.00     0.004 C 
ENDBRANCH   7   8
ENDBRANCH   6   7
ENDBRANCH   1   6
TORSDOF 5
ENDMDL
MODEL 5
REMARK VINA RESULT:    -3.108     19.426     20.382
REMARK INTER + INTRA:          -4.113
REMARK INTER:                  -3.856
REMARK INTRA:                  -0.257
REMARK UNBOUND:                -0.096
REMARK SMILES CCCCCCC(=O)[O-]
REMARK SMILES IDX 5 1 6 2 7 3 8 4 9 5 4 6 3 7 2 8 1 9
REMARK H PARENT
REMARK Flexibility Score: inf
ROOT
ATOM      1  C   UNL     1      56.466  27.474 -32.382  1.00  0.00     0.006 C 
ENDROOT
BRANCH   1   2
ATOM      2  C   UNL     1      57.075  27.092 -33.738  1.00  0.00     0.053 C 
BRANCH   2   3
ATOM      3  C   UNL     1      56.073  27.196 -34.846  1.00  0.00     0.041 C 
ATOM      4  O   UNL     1      55.308  26.229 -35.100  1.00  0.00    -0.550 OA
ATOM      5  O   UNL     1      55.960  28.373 -35.575  1.00  0.00    -0.550 OA
ENDBRANCH   2   3
ENDBRANCH   1   2
BRANCH   1   6
ATOM      6  C   UNL     1      56.912  28.871 -31.917  1.00  0.00     0.000 C 
BRANCH   6   7
ATOM      7  C   UNL     1      55.850  29.575 -31.058  1.00  0.00    -0.000 C 
BRANCH   7   8
ATOM      8  C   UNL     1      55.265  30.818 -31.745  1.00  0.00    -0.003 C 
ATOM      9  C   UNL     1      55.899  31.037 -33.116  1.00  0.00     0.004 C 
ENDBRANCH   7   8
ENDBRANCH   6   7
ENDBRANCH   1   6
TORSDOF 5
ENDMDL
MODEL 6
REMARK VINA RESULT:    -2.967     19.665     20.485
REMARK INTER + INTRA:          -3.930
REMARK INTER:                  -3.715
REMARK INTRA:                  -0.215
REMARK UNBOUND:                -0.096
REMARK SMILES CCCCCCC(=O)[O-]
REMARK SMILES IDX 5 1 6 2 7 3 8 4 9 5 4 6 3 7 2 8 1 9
REMARK H PARENT
REMARK Flexibility Score: inf
ROOT
ATOM      1  C   UNL     1      57.016  27.659 -34.033  1.00  0.00     0.006 C 
ENDROOT
BRANCH   1   2
ATOM      2  C   UNL     1      55.994  27.623 -35.178  1.00  0.00     0.053 C 
BRANCH   2   3
ATOM      3  C   UNL     1      56.020  28.884 -35.985  1.00  0.00     0.041 C 
ATOM      4  O   UNL     1      56.608  29.906 -35.543  1.00  0.00    -0.550 OA
ATOM      5  O   UNL     1      55.425  28.921 -37.239  1.00  0.00    -0.550 OA
ENDBRANCH   2   3
ENDBRANCH   1   2
BRANCH   1   6
ATOM      6  C   UNL     1      56.363  27.403 -32.663  1.00  0.00     0.000 C 
BRANCH   6   7
ATOM      7  C   UNL     1      57.017  28.216 -31.535  1.00  0.00    -0.000 C 
BRANCH   7   8
ATOM      8  C   UNL     1      56.010  29.102 -30.788  1.00  0.00    -0.003 C 
ATOM      9  C   UNL     1      55.625  30.320 -31.622  1.00  0.00     0.004 C 
ENDBRANCH   7   8
ENDBRANCH   6   7
ENDBRANCH   1   6
TORSDOF 5
ENDMDL
MODEL 7
REMARK VINA RESULT:    -2.900     19.895     20.762
REMARK INTER + INTRA:          -3.845
REMARK INTER:                  -3.500
REMARK INTRA:                  -0.345
REMARK UNBOUND:                -0.096
REMARK SMILES CCCCCCC(=O)[O-]
REMARK SMILES IDX 5 1 6 2 7 3 8 4 9 5 4 6 3 7 2 8 1 9
REMARK H PARENT
REMARK Flexibility Score: inf
ROOT
ATOM      1  C   UNL     1      56.124  29.187 -35.578  1.00  0.00     0.006 C 
ENDROOT
BRANCH   1   2
ATOM      2  C   UNL     1      56.978  28.037 -35.025  1.00  0.00     0.053 C 
BRANCH   2   3
ATOM      3  C   UNL     1      56.141  27.012 -34.322  1.00  0.00     0.041 C 
ATOM      4  O   UNL     1      55.909  27.123 -33.090  1.00  0.00    -0.550 OA
ATOM      5  O   UNL     1      55.589  25.956 -35.035  1.00  0.00    -0.550 OA
ENDBRANCH   2   3
ENDBRANCH   1   2
BRANCH   1   6
ATOM      6  C   UNL     1      56.673  30.565 -35.172  1.00  0.00     0.000 C 
BRANCH   6   7
ATOM      7  C   UNL     1      56.903  30.687 -33.657  1.00  0.00    -0.000 C 
BRANCH   7   8
ATOM      8  C   UNL     1      55.623  31.055 -32.894  1.00  0.00    -0.003 C 
ATOM      9  C   UNL     1      55.506  30.255 -31.600  1.00  0.00     0.004 C 
ENDBRANCH   7   8
ENDBRANCH   6   7
ENDBRANCH   1   6
TORSDOF 5
ENDMDL
MODEL 8
REMARK VINA RESULT:    -2.824      3.807      6.603
REMARK INTER + INTRA:          -3.746
REMARK INTER:                  -3.590
REMARK INTRA:                  -0.156
REMARK UNBOUND:                -0.096
REMARK SMILES CCCCCCC(=O)[O-]
REMARK SMILES IDX 5 1 6 2 7 3 8 4 9 5 4 6 3 7 2 8 1 9
REMARK H PARENT
REMARK Flexibility Score: inf
ROOT
ATOM      1  C   UNL     1      41.515  13.516 -36.138  1.00  0.00     0.006 C 
ENDROOT
BRANCH   1   2
ATOM      2  C   UNL     1      41.879  12.103 -35.661  1.00  0.00     0.053 C 
BRANCH   2   3
ATOM      3  C   UNL     1      43.355  11.951 -35.455  1.00  0.00     0.041 C 
ATOM      4  O   UNL     1      44.109  11.708 -36.433  1.00  0.00    -0.550 OA
ATOM      5  O   UNL     1      43.901  12.112 -34.188  1.00  0.00    -0.550 OA
ENDBRANCH   2   3
ENDBRANCH   1   2
BRANCH   1   6
ATOM      6  C   UNL     1      40.026  13.639 -36.505  1.00  0.00     0.000 C 
BRANCH   6   7
ATOM      7  C   UNL     1      39.201  14.328 -35.407  1.00  0.00    -0.000 C 
BRANCH   7   8
ATOM      8  C   UNL     1      37.727  13.899 -35.420  1.00  0.00    -0.003 C 
ATOM      9  C   UNL     1      37.388  13.138 -36.699  1.00  0.00     0.004 C 
ENDBRANCH   7   8
ENDBRANCH   6   7
ENDBRANCH   1   6
TORSDOF 5
ENDMDL
