MODEL 1
REMARK VINA RESULT:    -2.425      0.000      0.000
REMARK INTER + INTRA:          -5.123
REMARK INTER:                  -4.410
REMARK INTRA:                  -0.713
REMARK UNBOUND:                -0.713
REMARK SMILES CCCCCCCCCCCCCCCC(=O)[O-]
REMARK SMILES IDX 9 1 10 2 11 3 12 4 13 5 14 6 15 7 16 8 17 9 18 10 8 11 7 12
REMARK SMILES IDX 6 13 5 14 4 15 3 16 2 17 1 18
REMARK H PARENT
REMARK Flexibility Score: inf
ROOT
ATOM      1  C   UNL     1       8.753  -4.520  -9.075  1.00  0.00     0.000 C 
ENDROOT
BRANCH   1   2
ATOM      2  C   UNL     1      10.147  -4.651  -9.711  1.00  0.00     0.000 C 
BRANCH   2   3
ATOM      3  C   UNL     1      11.223  -5.079  -8.701  1.00  0.00     0.000 C 
BRANCH   3   4
ATOM      4  C   UNL     1      11.372  -6.605  -8.671  1.00  0.00     0.000 C 
BRANCH   4   5
ATOM      5  C   UNL     1      10.836  -7.187  -7.355  1.00  0.00     0.000 C 
BRANCH   5   6
ATOM      6  C   UNL     1      11.358  -6.446  -6.111  1.00  0.00     0.006 C 
BRANCH   6   7
ATOM      7  C   UNL     1      10.298  -5.578  -5.410  1.00  0.00     0.053 C 
BRANCH   7   8
ATOM      8  C   UNL     1      10.862  -4.777  -4.277  1.00  0.00     0.041 C 
ATOM      9  O   UNL     1      11.473  -3.699  -4.502  1.00  0.00    -0.550 OA
ATOM     10  O   UNL     1      10.743  -5.237  -2.971  1.00  0.00    -0.550 OA
ENDBRANCH   7   8
ENDBRANCH   6   7
ENDBRANCH   5   6
ENDBRANCH   4   5
ENDBRANCH   3   4
ENDBRANCH   2   3
ENDBRANCH   1   2
BRANCH   1  11
ATOM     11  C   UNL     1       7.679  -4.098 -10.091  1.00  0.00     0.000 C 
BRANCH  11  12
ATOM     12  C   UNL     1       6.278  -4.609  -9.713  1.00  0.00    -0.000 C 
BRANCH  12  13
ATOM     13  C   UNL     1       5.571  -3.704  -8.688  1.00  0.00    -0.000 C 
BRANCH  13  14
ATOM     14  C   UNL     1       4.175  -3.261  -9.152  1.00  0.00    -0.000 C 
BRANCH  14  15
ATOM     15  C   UNL     1       3.529  -4.268 -10.121  1.00  0.00    -0.000 C 
BRANCH  15  16
ATOM     16  C   UNL     1       2.343  -5.024  -9.494  1.00  0.00    -0.000 C 
BRANCH  16  17
ATOM     17  C   UNL     1       2.045  -6.400 -10.120  1.00  0.00    -0.003 C 
ATOM     18  C   UNL     1       1.389  -7.373  -9.141  1.00  0.00     0.004 C 
ENDBRANCH  16  17
ENDBRANCH  15  16
ENDBRANCH  14  15
ENDBRANCH  13  14
ENDBRANCH  12  13
ENDBRANCH  11  12
ENDBRANCH   1  11
TORSDOF 14
ENDMDL
MODEL 2
REMARK VINA RESULT:    -2.366      1.282      1.894
REMARK INTER + INTRA:          -5.016
REMARK INTER:                  -4.714
REMARK INTRA:                  -0.301
REMARK UNBOUND:                -0.713
REMARK SMILES CCCCCCCCCCCCCCCC(=O)[O-]
REMARK SMILES IDX 9 1 10 2 11 3 12 4 13 5 14 6 15 7 16 8 17 9 18 10 8 11 7 12
REMARK SMILES IDX 6 13 5 14 4 15 3 16 2 17 1 18
REMARK H PARENT
REMARK Flexibility Score: inf
ROOT
ATOM      1  C   UNL     1       8.317  -6.644  -8.845  1.00  0.00     0.000 C 
ENDROOT
BRANCH   1   2
ATOM      2  C   UNL     1       9.449  -7.548  -8.327  1.00  0.00     0.000 C 
BRANCH   2   3
ATOM      3  C   UNL     1      10.837  -6.912  -8.489  1.00  0.00     0.000 C 
BRANCH   3   4
ATOM      4  C   UNL     1      11.891  -7.682  -7.682  1.00  0.00     0.000 C 
BRANCH   4   5
ATOM      5  C   UNL     1      11.844  -7.291  -6.198  1.00  0.00     0.000 C 
BRANCH   5   6
ATOM      6  C   UNL     1      12.042  -5.783  -5.964  1.00  0.00     0.006 C 
BRANCH   6   7
ATOM      7  C   UNL     1      10.846  -5.094  -5.283  1.00  0.00     0.053 C 
BRANCH   7   8
ATOM      8  C   UNL     1      11.096  -4.798  -3.836  1.00  0.00     0.041 C 
ATOM      9  O   UNL     1      11.759  -3.782  -3.499  1.00  0.00    -0.550 OA
ATOM     10  O   UNL     1      10.621  -5.663  -2.857  1.00  0.00    -0.550 OA
ENDBRANCH   7   8
ENDBRANCH   6   7
ENDBRANCH   5   6
ENDBRANCH   4   5
ENDBRANCH   3   4
ENDBRANCH   2   3
ENDBRANCH   1   2
BRANCH   1  11
ATOM     11  C   UNL     1       8.056  -5.440  -7.925  1.00  0.00     0.000 C 
BRANCH  11  12
ATOM     12  C   UNL     1       6.882  -4.572  -8.410  1.00  0.00    -0.000 C 
BRANCH  12  13
ATOM     13  C   UNL     1       7.067  -4.076  -9.855  1.00  0.00    -0.000 C 
BRANCH  13  14
ATOM     14  C   UNL     1       6.436  -2.695 -10.092  1.00  0.00    -0.000 C 
BRANCH  14  15
ATOM     15  C   UNL     1       4.898  -2.747 -10.125  1.00  0.00    -0.000 C 
BRANCH  15  16
ATOM     16  C   UNL     1       4.333  -4.066  -9.564  1.00  0.00    -0.000 C 
BRANCH  16  17
ATOM     17  C   UNL     1       2.839  -4.307  -9.852  1.00  0.00    -0.003 C 
ATOM     18  C   UNL     1       2.513  -5.775 -10.124  1.00  0.00     0.004 C 
ENDBRANCH  16  17
ENDBRANCH  15  16
ENDBRANCH  14  15
ENDBRANCH  13  14
ENDBRANCH  12  13
ENDBRANCH  11  12
ENDBRANCH   1  11
TORSDOF 14
ENDMDL
MODEL 3
REMARK VINA RESULT:    -1.904      4.061      8.791
REMARK INTER + INTRA:          -4.176
REMARK INTER:                  -3.587
REMARK INTRA:                  -0.589
REMARK UNBOUND:                -0.713
REMARK SMILES CCCCCCCCCCCCCCCC(=O)[O-]
REMARK SMILES IDX 9 1 10 2 11 3 12 4 13 5 14 6 15 7 16 8 17 9 18 10 8 11 7 12
REMARK SMILES IDX 6 13 5 14 4 15 3 16 2 17 1 18
REMARK H PARENT
REMARK Flexibility Score: inf
ROOT
ATOM      1  C   UNL     1       7.454  -4.997  -8.185  1.00  0.00     0.000 C 
ENDROOT
BRANCH   1   2
ATOM      2  C   UNL     1       7.214  -3.556  -8.664  1.00  0.00     0.000 C 
BRANCH   2   3
ATOM      3  C   UNL     1       6.106  -3.459  -9.723  1.00  0.00     0.000 C 
BRANCH   3   4
ATOM      4  C   UNL     1       4.720  -3.611  -9.084  1.00  0.00     0.000 C 
BRANCH   4   5
ATOM      5  C   UNL     1       3.710  -4.189 -10.086  1.00  0.00     0.000 C 
BRANCH   5   6
ATOM      6  C   UNL     1       2.519  -4.890  -9.406  1.00  0.00     0.006 C 
BRANCH   6   7
ATOM      7  C   UNL     1       2.055  -6.170 -10.124  1.00  0.00     0.053 C 
BRANCH   7   8
ATOM      8  C   UNL     1       1.322  -7.110  -9.216  1.00  0.00     0.041 C 
ATOM      9  O   UNL     1       1.532  -7.089  -7.975  1.00  0.00    -0.550 OA
ATOM     10  O   UNL     1       0.429  -8.033  -9.745  1.00  0.00    -0.550 OA
ENDBRANCH   7   8
ENDBRANCH   6   7
ENDBRANCH   5   6
ENDBRANCH   4   5
ENDBRANCH   3   4
ENDBRANCH   2   3
ENDBRANCH   1   2
BRANCH   1  11
ATOM     11  C   UNL     1       8.900  -5.230  -7.718  1.00  0.00     0.000 C 
BRANCH  11  12
ATOM     12  C   UNL     1       8.973  -5.861  -6.317  1.00  0.00    -0.000 C 
BRANCH  12  13
ATOM     13  C   UNL     1       9.970  -7.031  -6.243  1.00  0.00    -0.000 C 
BRANCH  13  14
ATOM     14  C   UNL     1      11.420  -6.590  -6.495  1.00  0.00    -0.000 C 
BRANCH  14  15
ATOM     15  C   UNL     1      12.123  -6.113  -5.212  1.00  0.00    -0.000 C 
BRANCH  15  16
ATOM     16  C   UNL     1      11.717  -4.684  -4.803  1.00  0.00    -0.000 C 
BRANCH  16  17
ATOM     17  C   UNL     1      11.394  -4.502  -3.309  1.00  0.00    -0.003 C 
ATOM     18  C   UNL     1      11.858  -5.677  -2.449  1.00  0.00     0.004 C 
ENDBRANCH  16  17
ENDBRANCH  15  16
ENDBRANCH  14  15
ENDBRANCH  13  14
ENDBRANCH  12  13
ENDBRANCH  11  12
ENDBRANCH   1  11
TORSDOF 14
ENDMDL
MODEL 4
REMARK VINA RESULT:    -1.800     13.362     15.818
REMARK INTER + INTRA:          -3.987
REMARK INTER:                  -2.847
REMARK INTRA:                  -1.140
REMARK UNBOUND:                -0.713
REMARK SMILES CCCCCCCCCCCCCCCC(=O)[O-]
REMARK SMILES IDX 9 1 10 2 11 3 12 4 13 5 14 6 15 7 16 8 17 9 18 10 8 11 7 12
REMARK SMILES IDX 6 13 5 14 4 15 3 16 2 17 1 18
REMARK H PARENT
REMARK Flexibility Score: inf
ROOT
ATOM      1  C   UNL     1      -7.098  -2.462  -6.240  1.00  0.00     0.000 C 
ENDROOT
BRANCH   1   2
ATOM      2  C   UNL     1      -7.571  -1.345  -7.185  1.00  0.00     0.000 C 
BRANCH   2   3
ATOM      3  C   UNL     1      -8.006  -1.875  -8.559  1.00  0.00     0.000 C 
BRANCH   3   4
ATOM      4  C   UNL     1      -6.859  -1.781  -9.573  1.00  0.00     0.000 C 
BRANCH   4   5
ATOM      5  C   UNL     1      -5.918  -2.988  -9.456  1.00  0.00     0.000 C 
BRANCH   5   6
ATOM      6  C   UNL     1      -6.645  -4.337  -9.601  1.00  0.00     0.006 C 
BRANCH   6   7
ATOM      7  C   UNL     1      -6.158  -5.418  -8.619  1.00  0.00     0.053 C 
BRANCH   7   8
ATOM      8  C   UNL     1      -6.288  -6.804  -9.173  1.00  0.00     0.041 C 
ATOM      9  O   UNL     1      -5.492  -7.711  -8.812  1.00  0.00    -0.550 OA
ATOM     10  O   UNL     1      -7.269  -7.088 -10.114  1.00  0.00    -0.550 OA
ENDBRANCH   7   8
ENDBRANCH   6   7
ENDBRANCH   5   6
ENDBRANCH   4   5
ENDBRANCH   3   4
ENDBRANCH   2   3
ENDBRANCH   1   2
BRANCH   1  11
ATOM     11  C   UNL     1      -8.117  -3.608  -6.123  1.00  0.00     0.000 C 
BRANCH  11  12
ATOM     12  C   UNL     1      -8.119  -4.254  -4.728  1.00  0.00    -0.000 C 
BRANCH  12  13
ATOM     13  C   UNL     1      -7.293  -5.551  -4.672  1.00  0.00    -0.000 C 
BRANCH  13  14
ATOM     14  C   UNL     1      -8.125  -6.799  -5.007  1.00  0.00    -0.000 C 
BRANCH  14  15
ATOM     15  C   UNL     1      -7.291  -7.896  -5.693  1.00  0.00    -0.000 C 
BRANCH  15  16
ATOM     16  C   UNL     1      -5.894  -8.065  -5.067  1.00  0.00    -0.000 C 
BRANCH  16  17
ATOM     17  C   UNL     1      -4.757  -7.333  -5.805  1.00  0.00    -0.003 C 
ATOM     18  C   UNL     1      -4.060  -6.285  -4.938  1.00  0.00     0.004 C 
ENDBRANCH  16  17
ENDBRANCH  15  16
ENDBRANCH  14  15
ENDBRANCH  13  14
ENDBRANCH  12  13
ENDBRANCH  11  12
ENDBRANCH   1  11
TORSDOF 14
ENDMDL
MODEL 5
REMARK VINA RESULT:    -1.727      3.670      8.157
REMARK INTER + INTRA:          -3.854
REMARK INTER:                  -2.755
REMARK INTRA:                  -1.099
REMARK UNBOUND:                -0.713
REMARK SMILES CCCCCCCCCCCCCCCC(=O)[O-]
REMARK SMILES IDX 9 1 10 2 11 3 12 4 13 5 14 6 15 7 16 8 17 9 18 10 8 11 7 12
REMARK SMILES IDX 6 13 5 14 4 15 3 16 2 17 1 18
REMARK H PARENT
REMARK Flexibility Score: inf
ROOT
ATOM      1  C   UNL     1       9.058  -5.518  -6.179  1.00  0.00     0.000 C 
ENDROOT
BRANCH   1   2
ATOM      2  C   UNL     1       7.917  -5.706  -7.193  1.00  0.00     0.000 C 
BRANCH   2   3
ATOM      3  C   UNL     1       8.367  -5.467  -8.643  1.00  0.00     0.000 C 
BRANCH   3   4
ATOM      4  C   UNL     1       8.442  -3.968  -8.954  1.00  0.00     0.000 C 
BRANCH   4   5
ATOM      5  C   UNL     1       7.519  -3.600 -10.125  1.00  0.00     0.000 C 
BRANCH   5   6
ATOM      6  C   UNL     1       6.099  -4.175  -9.978  1.00  0.00     0.006 C 
BRANCH   6   7
ATOM      7  C   UNL     1       5.345  -3.667  -8.736  1.00  0.00     0.053 C 
BRANCH   7   8
ATOM      8  C   UNL     1       3.935  -3.260  -9.041  1.00  0.00     0.041 C 
ATOM      9  O   UNL     1       3.462  -2.195  -8.563  1.00  0.00    -0.550 OA
ATOM     10  O   UNL     1       3.131  -4.074  -9.829  1.00  0.00    -0.550 OA
ENDBRANCH   7   8
ENDBRANCH   6   7
ENDBRANCH   5   6
ENDBRANCH   4   5
ENDBRANCH   3   4
ENDBRANCH   2   3
ENDBRANCH   1   2
BRANCH   1  11
ATOM     11  C   UNL     1      10.443  -5.775  -6.794  1.00  0.00     0.000 C 
BRANCH  11  12
ATOM     12  C   UNL     1      10.892  -7.238  -6.647  1.00  0.00    -0.000 C 
BRANCH  12  13
ATOM     13  C   UNL     1      10.648  -7.795  -5.232  1.00  0.00    -0.000 C 
BRANCH  13  14
ATOM     14  C   UNL     1      11.950  -8.007  -4.446  1.00  0.00    -0.000 C 
BRANCH  14  15
ATOM     15  C   UNL     1      11.790  -7.701  -2.946  1.00  0.00    -0.000 C 
BRANCH  15  16
ATOM     16  C   UNL     1      11.437  -6.227  -2.671  1.00  0.00    -0.000 C 
BRANCH  16  17
ATOM     17  C   UNL     1      12.125  -5.209  -3.600  1.00  0.00    -0.003 C 
ATOM     18  C   UNL     1      11.456  -3.835  -3.582  1.00  0.00     0.004 C 
ENDBRANCH  16  17
ENDBRANCH  15  16
ENDBRANCH  14  15
ENDBRANCH  13  14
ENDBRANCH  12  13
ENDBRANCH  11  12
ENDBRANCH   1  11
TORSDOF 14
ENDMDL
MODEL 6
REMARK VINA RESULT:    -1.707      3.462      7.571
REMARK INTER + INTRA:          -3.817
REMARK INTER:                  -2.417
REMARK INTRA:                  -1.400
REMARK UNBOUND:                -0.713
REMARK SMILES CCCCCCCCCCCCCCCC(=O)[O-]
REMARK SMILES IDX 9 1 10 2 11 3 12 4 13 5 14 6 15 7 16 8 17 9 18 10 8 11 7 12
REMARK SMILES IDX 6 13 5 14 4 15 3 16 2 17 1 18
REMARK H PARENT
REMARK Flexibility Score: inf
ROOT
ATOM      1  C   UNL     1       9.619  -5.059  -6.176  1.00  0.00     0.000 C 
ENDROOT
BRANCH   1   2
ATOM      2  C   UNL     1       8.420  -5.975  -6.471  1.00  0.00     0.000 C 
BRANCH   2   3
ATOM      3  C   UNL     1       7.848  -5.768  -7.882  1.00  0.00     0.000 C 
BRANCH   3   4
ATOM      4  C   UNL     1       8.252  -4.398  -8.442  1.00  0.00     0.000 C 
BRANCH   4   5
ATOM      5  C   UNL     1       7.719  -4.207  -9.870  1.00  0.00     0.000 C 
BRANCH   5   6
ATOM      6  C   UNL     1       6.372  -3.462  -9.916  1.00  0.00     0.006 C 
BRANCH   6   7
ATOM      7  C   UNL     1       5.156  -4.382 -10.125  1.00  0.00     0.053 C 
BRANCH   7   8
ATOM      8  C   UNL     1       3.907  -3.842  -9.499  1.00  0.00     0.041 C 
ATOM      9  O   UNL     1       2.850  -4.525  -9.496  1.00  0.00    -0.550 OA
ATOM     10  O   UNL     1       3.902  -2.567  -8.945  1.00  0.00    -0.550 OA
ENDBRANCH   7   8
ENDBRANCH   6   7
ENDBRANCH   5   6
ENDBRANCH   4   5
ENDBRANCH   3   4
ENDBRANCH   2   3
ENDBRANCH   1   2
BRANCH   1  11
ATOM     11  C   UNL     1      10.591  -5.671  -5.154  1.00  0.00     0.000 C 
BRANCH  11  12
ATOM     12  C   UNL     1      10.459  -7.201  -5.057  1.00  0.00    -0.000 C 
BRANCH  12  13
ATOM     13  C   UNL     1      11.254  -7.936  -6.150  1.00  0.00    -0.000 C 
BRANCH  13  14
ATOM     14  C   UNL     1      11.737  -6.996  -7.266  1.00  0.00    -0.000 C 
BRANCH  14  15
ATOM     15  C   UNL     1      11.196  -7.398  -8.650  1.00  0.00    -0.000 C 
BRANCH  15  16
ATOM     16  C   UNL     1      11.529  -6.367  -9.745  1.00  0.00    -0.000 C 
BRANCH  16  17
ATOM     17  C   UNL     1      12.059  -5.017  -9.228  1.00  0.00    -0.003 C 
ATOM     18  C   UNL     1      11.613  -3.832 -10.084  1.00  0.00     0.004 C 
ENDBRANCH  16  17
ENDBRANCH  15  16
ENDBRANCH  14  15
ENDBRANCH  13  14
ENDBRANCH  12  13
ENDBRANCH  11  12
ENDBRANCH   1  11
TORSDOF 14
ENDMDL
MODEL 7
REMARK VINA RESULT:    -1.705     13.894     15.514
REMARK INTER + INTRA:          -3.813
REMARK INTER:                  -2.674
REMARK INTRA:                  -1.139
REMARK UNBOUND:                -0.713
REMARK SMILES CCCCCCCCCCCCCCCC(=O)[O-]
REMARK SMILES IDX 9 1 10 2 11 3 12 4 13 5 14 6 15 7 16 8 17 9 18 10 8 11 7 12
REMARK SMILES IDX 6 13 5 14 4 15 3 16 2 17 1 18
REMARK H PARENT
REMARK Flexibility Score: inf
ROOT
ATOM      1  C   UNL     1      -5.641  -4.565  -4.823  1.00  0.00     0.000 C 
ENDROOT
BRANCH   1   2
ATOM      2  C   UNL     1      -4.601  -5.566  -4.292  1.00  0.00     0.000 C 
BRANCH   2   3
ATOM      3  C   UNL     1      -5.089  -7.021  -4.362  1.00  0.00     0.000 C 
BRANCH   3   4
ATOM      4  C   UNL     1      -5.493  -7.397  -5.793  1.00  0.00     0.000 C 
BRANCH   4   5
ATOM      5  C   UNL     1      -7.021  -7.436  -5.943  1.00  0.00     0.000 C 
BRANCH   5   6
ATOM      6  C   UNL     1      -7.480  -7.957  -7.316  1.00  0.00     0.006 C 
BRANCH   6   7
ATOM      7  C   UNL     1      -6.403  -7.861  -8.412  1.00  0.00     0.053 C 
BRANCH   7   8
ATOM      8  C   UNL     1      -6.516  -6.608  -9.226  1.00  0.00     0.041 C 
ATOM      9  O   UNL     1      -5.647  -6.331 -10.094  1.00  0.00    -0.550 OA
ATOM     10  O   UNL     1      -7.567  -5.726  -9.003  1.00  0.00    -0.550 OA
ENDBRANCH   7   8
ENDBRANCH   6   7
ENDBRANCH   5   6
ENDBRANCH   4   5
ENDBRANCH   3   4
ENDBRANCH   2   3
ENDBRANCH   1   2
BRANCH   1  11
ATOM     11  C   UNL     1      -6.737  -4.250  -3.791  1.00  0.00     0.000 C 
BRANCH  11  12
ATOM     12  C   UNL     1      -8.125  -4.093  -4.436  1.00  0.00    -0.000 C 
BRANCH  12  13
ATOM     13  C   UNL     1      -8.051  -3.612  -5.896  1.00  0.00    -0.000 C 
BRANCH  13  14
ATOM     14  C   UNL     1      -7.523  -2.174  -6.020  1.00  0.00    -0.000 C 
BRANCH  14  15
ATOM     15  C   UNL     1      -8.019  -1.472  -7.297  1.00  0.00    -0.000 C 
BRANCH  15  16
ATOM     16  C   UNL     1      -8.118  -2.425  -8.503  1.00  0.00    -0.000 C 
BRANCH  16  17
ATOM     17  C   UNL     1      -7.245  -2.039  -9.711  1.00  0.00    -0.003 C 
ATOM     18  C   UNL     1      -5.799  -2.518  -9.582  1.00  0.00     0.004 C 
ENDBRANCH  16  17
ENDBRANCH  15  16
ENDBRANCH  14  15
ENDBRANCH  13  14
ENDBRANCH  12  13
ENDBRANCH  11  12
ENDBRANCH   1  11
TORSDOF 14
ENDMDL
