MODEL 1
REMARK VINA RESULT:    -4.226      0.000      0.000
REMARK INTER + INTRA:          -6.991
REMARK INTER:                  -5.832
REMARK INTRA:                  -1.158
REMARK UNBOUND:                -1.158
REMARK SMILES CC[C@@H](CC[C@@H](C)[C@H]1CC[C@@H]2[C@H]3CC=C4C[C@H](O)CC[C@]4(C)[C@H]3CC[C@]21C)C(C)C
REMARK SMILES IDX 5 1 4 2 3 3 2 4 1 5 28 6 29 7 30 8 6 9 7 10 8 11 9 12 26 13
REMARK SMILES IDX 10 14 11 15 25 16 27 17 12 18 24 19 23 20 13 21 21 22 14 23
REMARK SMILES IDX 15 24 20 25 22 26 16 27 19 28 17 29 18 30
REMARK H PARENT 18 31
REMARK Flexibility Score: inf
ROOT
ATOM      1  C   UNL     1    -104.605  25.632  17.844  1.00  0.00     0.004 C 
ENDROOT
BRANCH   1   2
ATOM      2  C   UNL     1    -103.090  25.896  18.006  1.00  0.00     0.004 C 
BRANCH   2   3
ATOM      3  C   UNL     1    -102.302  24.603  18.385  1.00  0.00    -0.009 C 
BRANCH   3   4
ATOM      4  C   UNL     1    -103.238  23.363  18.306  1.00  0.00     0.000 C 
ATOM      5  C   UNL     1    -102.634  22.162  17.575  1.00  0.00     0.004 C 
ENDBRANCH   3   4
BRANCH   3   6
ATOM      6  C   UNL     1    -101.552  24.713  19.760  1.00  0.00    -0.014 C 
ATOM      7  C   UNL     1    -100.026  24.621  19.598  1.00  0.00     0.007 C 
ATOM      8  C   UNL     1    -102.001  23.618  20.749  1.00  0.00     0.007 C 
ENDBRANCH   3   6
ENDBRANCH   2   3
ENDBRANCH   1   2
BRANCH   1   9
ATOM      9  C   UNL     1    -105.513  26.416  18.848  1.00  0.00    -0.011 C 
ATOM     10  C   UNL     1    -104.612  27.074  19.928  1.00  0.00     0.008 C 
BRANCH   9  11
ATOM     11  C   UNL     1    -106.474  27.461  18.163  1.00  0.00    -0.002 C 
ATOM     12  C   UNL     1    -106.643  27.217  16.633  1.00  0.00     0.005 C 
ATOM     13  C   UNL     1    -107.961  27.593  18.709  1.00  0.00    -0.026 C 
ATOM     14  C   UNL     1    -108.133  27.250  16.322  1.00  0.00     0.005 C 
ATOM     15  C   UNL     1    -108.764  26.842  17.633  1.00  0.00    -0.001 C 
ATOM     16  C   UNL     1    -108.330  26.904  20.058  1.00  0.00     0.007 C 
ATOM     17  C   UNL     1    -108.327  29.122  18.795  1.00  0.00     0.012 C 
ATOM     18  C   UNL     1    -110.307  27.001  17.712  1.00  0.00     0.000 C 
ATOM     19  C   UNL     1    -109.853  26.591  20.230  1.00  0.00     0.005 C 
ATOM     20  C   UNL     1    -110.815  27.228  19.172  1.00  0.00     0.003 C 
ATOM     21  C   UNL     1    -110.981  25.768  17.107  1.00  0.00     0.031 C 
ATOM     22  C   UNL     1    -112.383  26.920  19.385  1.00  0.00    -0.008 C 
ATOM     23  C   UNL     1    -112.459  25.970  17.058  1.00  0.00    -0.027 C 
ATOM     24  C   UNL     1    -113.113  26.555  18.078  1.00  0.00    -0.065 C 
ATOM     25  C   UNL     1    -113.046  28.214  19.971  1.00  0.00     0.014 C 
ATOM     26  C   UNL     1    -112.621  25.741  20.368  1.00  0.00     0.016 C 
ATOM     27  C   UNL     1    -114.630  26.616  18.014  1.00  0.00     0.063 C 
ATOM     28  C   UNL     1    -114.583  28.191  20.009  1.00  0.00     0.033 C 
ATOM     29  C   UNL     1    -115.188  27.913  18.623  1.00  0.00     0.118 C 
BRANCH  29  30
ATOM     30  O   UNL     1    -115.019  29.015  17.759  1.00  0.00    -0.393 OA
ATOM     31  H   UNL     1    -114.162  29.462  17.976  1.00  0.00     0.210 HD
ENDBRANCH  29  30
ENDBRANCH   9  11
ENDBRANCH   1   9
TORSDOF 7
ENDMDL
MODEL 2
REMARK VINA RESULT:    -4.200      3.321      8.794
REMARK INTER + INTRA:          -6.954
REMARK INTER:                  -5.660
REMARK INTRA:                  -1.294
REMARK UNBOUND:                -1.158
REMARK SMILES CC[C@@H](CC[C@@H](C)[C@H]1CC[C@@H]2[C@H]3CC=C4C[C@H](O)CC[C@]4(C)[C@H]3CC[C@]21C)C(C)C
REMARK SMILES IDX 5 1 4 2 3 3 2 4 1 5 28 6 29 7 30 8 6 9 7 10 8 11 9 12 26 13
REMARK SMILES IDX 10 14 11 15 25 16 27 17 12 18 24 19 23 20 13 21 21 22 14 23
REMARK SMILES IDX 15 24 20 25 22 26 16 27 19 28 17 29 18 30
REMARK H PARENT 18 31
REMARK Flexibility Score: inf
ROOT
ATOM      1  C   UNL     1    -110.751  27.930  18.945  1.00  0.00     0.004 C 
ENDROOT
BRANCH   1   2
ATOM      2  C   UNL     1    -111.292  27.022  20.073  1.00  0.00     0.004 C 
BRANCH   2   3
ATOM      3  C   UNL     1    -110.294  26.901  21.266  1.00  0.00    -0.009 C 
BRANCH   3   4
ATOM      4  C   UNL     1    -110.982  26.197  22.470  1.00  0.00     0.000 C 
ATOM      5  C   UNL     1    -110.029  25.808  23.603  1.00  0.00     0.004 C 
ENDBRANCH   3   4
BRANCH   3   6
ATOM      6  C   UNL     1    -109.627  28.267  21.660  1.00  0.00    -0.014 C 
ATOM      7  C   UNL     1    -108.165  28.095  22.100  1.00  0.00     0.007 C 
ATOM      8  C   UNL     1    -110.395  28.976  22.795  1.00  0.00     0.007 C 
ENDBRANCH   3   6
ENDBRANCH   2   3
ENDBRANCH   1   2
BRANCH   1   9
ATOM      9  C   UNL     1    -109.845  27.200  17.900  1.00  0.00    -0.011 C 
ATOM     10  C   UNL     1    -110.708  26.824  16.665  1.00  0.00     0.008 C 
BRANCH   9  11
ATOM     11  C   UNL     1    -108.553  28.008  17.496  1.00  0.00    -0.002 C 
ATOM     12  C   UNL     1    -108.180  29.112  18.530  1.00  0.00     0.005 C 
ATOM     13  C   UNL     1    -107.200  27.204  17.268  1.00  0.00    -0.026 C 
ATOM     14  C   UNL     1    -106.695  28.972  18.840  1.00  0.00     0.005 C 
ATOM     15  C   UNL     1    -106.425  27.511  18.563  1.00  0.00    -0.001 C 
ATOM     16  C   UNL     1    -107.254  25.649  17.176  1.00  0.00     0.007 C 
ATOM     17  C   UNL     1    -106.493  27.771  15.980  1.00  0.00     0.012 C 
ATOM     18  C   UNL     1    -104.929  27.094  18.566  1.00  0.00     0.000 C 
ATOM     19  C   UNL     1    -105.909  24.932  17.526  1.00  0.00     0.005 C 
ATOM     20  C   UNL     1    -104.648  25.851  17.662  1.00  0.00     0.003 C 
ATOM     21  C   UNL     1    -104.479  26.812  20.001  1.00  0.00     0.031 C 
ATOM     22  C   UNL     1    -103.265  25.090  17.990  1.00  0.00    -0.008 C 
ATOM     23  C   UNL     1    -103.012  26.540  20.029  1.00  0.00    -0.027 C 
ATOM     24  C   UNL     1    -102.427  25.796  19.073  1.00  0.00    -0.065 C 
ATOM     25  C   UNL     1    -102.422  25.046  16.669  1.00  0.00     0.014 C 
ATOM     26  C   UNL     1    -103.500  23.637  18.489  1.00  0.00     0.016 C 
ATOM     27  C   UNL     1    -100.954  25.457  19.231  1.00  0.00     0.063 C 
ATOM     28  C   UNL     1    -100.969  24.576  16.847  1.00  0.00     0.033 C 
ATOM     29  C   UNL     1    -100.214  25.424  17.884  1.00  0.00     0.118 C 
BRANCH  29  30
ATOM     30  O   UNL     1     -99.954  26.721  17.395  1.00  0.00    -0.393 OA
ATOM     31  H   UNL     1     -99.502  27.245  18.105  1.00  0.00     0.210 HD
ENDBRANCH  29  30
ENDBRANCH   9  11
ENDBRANCH   1   9
TORSDOF 7
ENDMDL
MODEL 3
REMARK VINA RESULT:    -4.199      3.159      9.234
REMARK INTER + INTRA:          -6.952
REMARK INTER:                  -5.655
REMARK INTRA:                  -1.298
REMARK UNBOUND:                -1.158
REMARK SMILES CC[C@@H](CC[C@@H](C)[C@H]1CC[C@@H]2[C@H]3CC=C4C[C@H](O)CC[C@]4(C)[C@H]3CC[C@]21C)C(C)C
REMARK SMILES IDX 5 1 4 2 3 3 2 4 1 5 28 6 29 7 30 8 6 9 7 10 8 11 9 12 26 13
REMARK SMILES IDX 10 14 11 15 25 16 27 17 12 18 24 19 23 20 13 21 21 22 14 23
REMARK SMILES IDX 15 24 20 25 22 26 16 27 19 28 17 29 18 30
REMARK H PARENT 18 31
REMARK Flexibility Score: inf
ROOT
ATOM      1  C   UNL     1    -109.850  27.160  19.591  1.00  0.00     0.004 C 
ENDROOT
BRANCH   1   2
ATOM      2  C   UNL     1    -111.250  27.617  20.063  1.00  0.00     0.004 C 
BRANCH   2   3
ATOM      3  C   UNL     1    -111.900  26.603  21.056  1.00  0.00    -0.009 C 
BRANCH   3   4
ATOM      4  C   UNL     1    -110.859  26.158  22.123  1.00  0.00     0.000 C 
ATOM      5  C   UNL     1    -110.619  27.181  23.236  1.00  0.00     0.004 C 
ENDBRANCH   3   4
BRANCH   3   6
ATOM      6  C   UNL     1    -112.594  25.390  20.340  1.00  0.00    -0.014 C 
ATOM      7  C   UNL     1    -113.736  25.838  19.414  1.00  0.00     0.007 C 
ATOM      8  C   UNL     1    -113.161  24.373  21.352  1.00  0.00     0.007 C 
ENDBRANCH   3   6
ENDBRANCH   2   3
ENDBRANCH   1   2
BRANCH   1   9
ATOM      9  C   UNL     1    -109.677  27.096  18.038  1.00  0.00    -0.011 C 
ATOM     10  C   UNL     1    -110.962  27.656  17.368  1.00  0.00     0.008 C 
BRANCH   9  11
ATOM     11  C   UNL     1    -108.375  27.808  17.507  1.00  0.00    -0.002 C 
ATOM     12  C   UNL     1    -107.882  28.949  18.448  1.00  0.00     0.005 C 
ATOM     13  C   UNL     1    -107.081  26.922  17.248  1.00  0.00    -0.026 C 
ATOM     14  C   UNL     1    -106.390  28.748  18.675  1.00  0.00     0.005 C 
ATOM     15  C   UNL     1    -106.211  27.261  18.472  1.00  0.00    -0.001 C 
ATOM     16  C   UNL     1    -107.219  25.369  17.255  1.00  0.00     0.007 C 
ATOM     17  C   UNL     1    -106.430  27.375  15.887  1.00  0.00     0.012 C 
ATOM     18  C   UNL     1    -104.741  26.765  18.411  1.00  0.00     0.000 C 
ATOM     19  C   UNL     1    -105.891  24.602  17.566  1.00  0.00     0.005 C 
ATOM     20  C   UNL     1    -104.580  25.459  17.569  1.00  0.00     0.003 C 
ATOM     21  C   UNL     1    -104.215  26.543  19.830  1.00  0.00     0.031 C 
ATOM     22  C   UNL     1    -103.219  24.645  17.859  1.00  0.00    -0.008 C 
ATOM     23  C   UNL     1    -102.765  26.195  19.786  1.00  0.00    -0.027 C 
ATOM     24  C   UNL     1    -102.279  25.366  18.844  1.00  0.00    -0.065 C 
ATOM     25  C   UNL     1    -102.465  24.479  16.495  1.00  0.00     0.014 C 
ATOM     26  C   UNL     1    -103.494  23.238  18.459  1.00  0.00     0.016 C 
ATOM     27  C   UNL     1    -100.818  24.959  18.934  1.00  0.00     0.063 C 
ATOM     28  C   UNL     1    -101.028  23.943  16.613  1.00  0.00     0.033 C 
ATOM     29  C   UNL     1    -100.168  24.808  17.549  1.00  0.00     0.118 C 
BRANCH  29  30
ATOM     30  O   UNL     1     -99.875  26.059  16.967  1.00  0.00    -0.393 OA
ATOM     31  H   UNL     1     -99.002  25.998  16.501  1.00  0.00     0.210 HD
ENDBRANCH  29  30
ENDBRANCH   9  11
ENDBRANCH   1   9
TORSDOF 7
ENDMDL
MODEL 4
REMARK VINA RESULT:    -3.602      3.213      9.417
REMARK INTER + INTRA:          -6.128
REMARK INTER:                  -5.272
REMARK INTRA:                  -0.856
REMARK UNBOUND:                -1.158
REMARK SMILES CC[C@@H](CC[C@@H](C)[C@H]1CC[C@@H]2[C@H]3CC=C4C[C@H](O)CC[C@]4(C)[C@H]3CC[C@]21C)C(C)C
REMARK SMILES IDX 5 1 4 2 3 3 2 4 1 5 28 6 29 7 30 8 6 9 7 10 8 11 9 12 26 13
REMARK SMILES IDX 10 14 11 15 25 16 27 17 12 18 24 19 23 20 13 21 21 22 14 23
REMARK SMILES IDX 15 24 20 25 22 26 16 27 19 28 17 29 18 30
REMARK H PARENT 18 31
REMARK Flexibility Score: inf
ROOT
ATOM      1  C   UNL     1    -111.028  28.289  18.396  1.00  0.00     0.004 C 
ENDROOT
BRANCH   1   2
ATOM      2  C   UNL     1    -111.829  27.118  17.782  1.00  0.00     0.004 C 
BRANCH   2   3
ATOM      3  C   UNL     1    -113.186  26.880  18.516  1.00  0.00    -0.009 C 
BRANCH   3   4
ATOM      4  C   UNL     1    -113.316  27.850  19.725  1.00  0.00     0.000 C 
ATOM      5  C   UNL     1    -114.732  28.385  19.956  1.00  0.00     0.004 C 
ENDBRANCH   3   4
BRANCH   3   6
ATOM      6  C   UNL     1    -113.425  25.379  18.911  1.00  0.00    -0.014 C 
ATOM      7  C   UNL     1    -113.027  25.091  20.367  1.00  0.00     0.007 C 
ATOM      8  C   UNL     1    -112.646  24.412  17.995  1.00  0.00     0.007 C 
ENDBRANCH   3   6
ENDBRANCH   2   3
ENDBRANCH   1   2
BRANCH   1   9
ATOM      9  C   UNL     1    -109.615  27.896  18.940  1.00  0.00    -0.011 C 
ATOM     10  C   UNL     1    -109.795  27.013  20.206  1.00  0.00     0.008 C 
BRANCH   9  11
ATOM     11  C   UNL     1    -108.682  27.212  17.870  1.00  0.00    -0.002 C 
ATOM     12  C   UNL     1    -108.507  28.072  16.582  1.00  0.00     0.005 C 
ATOM     13  C   UNL     1    -107.199  26.828  18.294  1.00  0.00    -0.026 C 
ATOM     14  C   UNL     1    -107.018  28.136  16.269  1.00  0.00     0.005 C 
ATOM     15  C   UNL     1    -106.376  27.942  17.623  1.00  0.00    -0.001 C 
ATOM     16  C   UNL     1    -106.812  26.877  19.803  1.00  0.00     0.007 C 
ATOM     17  C   UNL     1    -106.873  25.395  17.727  1.00  0.00     0.012 C 
ATOM     18  C   UNL     1    -104.838  27.727  17.611  1.00  0.00     0.000 C 
ATOM     19  C   UNL     1    -105.281  27.053  20.074  1.00  0.00     0.005 C 
ATOM     20  C   UNL     1    -104.336  26.897  18.835  1.00  0.00     0.003 C 
ATOM     21  C   UNL     1    -104.132  29.084  17.572  1.00  0.00     0.031 C 
ATOM     22  C   UNL     1    -102.760  27.049  19.141  1.00  0.00    -0.008 C 
ATOM     23  C   UNL     1    -102.660  28.886  17.426  1.00  0.00    -0.027 C 
ATOM     24  C   UNL     1    -102.021  27.912  18.099  1.00  0.00    -0.065 C 
ATOM     25  C   UNL     1    -102.131  25.613  19.122  1.00  0.00     0.014 C 
ATOM     26  C   UNL     1    -102.492  27.701  20.525  1.00  0.00     0.016 C 
ATOM     27  C   UNL     1    -100.507  27.847  17.999  1.00  0.00     0.063 C 
ATOM     28  C   UNL     1    -100.594  25.582  19.150  1.00  0.00     0.033 C 
ATOM     29  C   UNL     1     -99.982  26.401  18.001  1.00  0.00     0.118 C 
BRANCH  29  30
ATOM     30  O   UNL     1    -100.181  25.768  16.757  1.00  0.00    -0.393 OA
ATOM     31  H   UNL     1    -100.095  26.445  16.037  1.00  0.00     0.210 HD
ENDBRANCH  29  30
ENDBRANCH   9  11
ENDBRANCH   1   9
TORSDOF 7
ENDMDL
MODEL 5
REMARK VINA RESULT:    -3.527      3.276      9.044
REMARK INTER + INTRA:          -6.025
REMARK INTER:                  -4.945
REMARK INTRA:                  -1.080
REMARK UNBOUND:                -1.158
REMARK SMILES CC[C@@H](CC[C@@H](C)[C@H]1CC[C@@H]2[C@H]3CC=C4C[C@H](O)CC[C@]4(C)[C@H]3CC[C@]21C)C(C)C
REMARK SMILES IDX 5 1 4 2 3 3 2 4 1 5 28 6 29 7 30 8 6 9 7 10 8 11 9 12 26 13
REMARK SMILES IDX 10 14 11 15 25 16 27 17 12 18 24 19 23 20 13 21 21 22 14 23
REMARK SMILES IDX 15 24 20 25 22 26 16 27 19 28 17 29 18 30
REMARK H PARENT 18 31
REMARK Flexibility Score: inf
ROOT
ATOM      1  C   UNL     1    -111.025  27.269  20.285  1.00  0.00     0.004 C 
ENDROOT
BRANCH   1   2
ATOM      2  C   UNL     1    -111.970  26.094  20.632  1.00  0.00     0.004 C 
BRANCH   2   3
ATOM      3  C   UNL     1    -111.804  25.618  22.110  1.00  0.00    -0.009 C 
BRANCH   3   4
ATOM      4  C   UNL     1    -110.384  25.982  22.632  1.00  0.00     0.000 C 
ATOM      5  C   UNL     1    -110.378  26.927  23.837  1.00  0.00     0.004 C 
ENDBRANCH   3   4
BRANCH   3   6
ATOM      6  C   UNL     1    -112.160  24.104  22.319  1.00  0.00    -0.014 C 
ATOM      7  C   UNL     1    -113.590  23.774  21.861  1.00  0.00     0.007 C 
ATOM      8  C   UNL     1    -112.013  23.676  23.794  1.00  0.00     0.007 C 
ENDBRANCH   3   6
ENDBRANCH   2   3
ENDBRANCH   1   2
BRANCH   1   9
ATOM      9  C   UNL     1    -110.194  27.069  18.976  1.00  0.00    -0.011 C 
ATOM     10  C   UNL     1    -111.172  26.951  17.775  1.00  0.00     0.008 C 
BRANCH   9  11
ATOM     11  C   UNL     1    -109.096  28.175  18.738  1.00  0.00    -0.002 C 
ATOM     12  C   UNL     1    -108.838  29.054  19.999  1.00  0.00     0.005 C 
ATOM     13  C   UNL     1    -107.647  27.714  18.274  1.00  0.00    -0.026 C 
ATOM     14  C   UNL     1    -107.332  29.125  20.213  1.00  0.00     0.005 C 
ATOM     15  C   UNL     1    -106.838  27.846  19.577  1.00  0.00    -0.001 C 
ATOM     16  C   UNL     1    -107.440  26.243  17.805  1.00  0.00     0.007 C 
ATOM     17  C   UNL     1    -107.152  28.690  17.141  1.00  0.00     0.012 C 
ATOM     18  C   UNL     1    -105.297  27.726  19.426  1.00  0.00     0.000 C 
ATOM     19  C   UNL     1    -105.968  25.726  17.920  1.00  0.00     0.005 C 
ATOM     20  C   UNL     1    -104.878  26.806  18.235  1.00  0.00     0.003 C 
ATOM     21  C   UNL     1    -104.694  27.203  20.731  1.00  0.00     0.031 C 
ATOM     22  C   UNL     1    -103.363  26.259  18.318  1.00  0.00    -0.008 C 
ATOM     23  C   UNL     1    -103.204  27.210  20.641  1.00  0.00    -0.027 C 
ATOM     24  C   UNL     1    -102.576  26.834  19.512  1.00  0.00    -0.065 C 
ATOM     25  C   UNL     1    -102.631  26.685  16.999  1.00  0.00     0.014 C 
ATOM     26  C   UNL     1    -103.304  24.712  18.452  1.00  0.00     0.016 C 
ATOM     27  C   UNL     1    -101.059  26.747  19.531  1.00  0.00     0.063 C 
ATOM     28  C   UNL     1    -101.110  26.465  17.006  1.00  0.00     0.033 C 
ATOM     29  C   UNL     1    -100.433  27.171  18.193  1.00  0.00     0.118 C 
BRANCH  29  30
ATOM     30  O   UNL     1    -100.439  28.571  18.029  1.00  0.00    -0.393 OA
ATOM     31  H   UNL     1    -100.477  28.780  17.061  1.00  0.00     0.210 HD
ENDBRANCH  29  30
ENDBRANCH   9  11
ENDBRANCH   1   9
TORSDOF 7
ENDMDL
MODEL 6
REMARK VINA RESULT:    -3.490     16.101     19.217
REMARK INTER + INTRA:          -5.974
REMARK INTER:                  -3.877
REMARK INTRA:                  -2.097
REMARK UNBOUND:                -1.158
REMARK SMILES CC[C@@H](CC[C@@H](C)[C@H]1CC[C@@H]2[C@H]3CC=C4C[C@H](O)CC[C@]4(C)[C@H]3CC[C@]21C)C(C)C
REMARK SMILES IDX 5 1 4 2 3 3 2 4 1 5 28 6 29 7 30 8 6 9 7 10 8 11 9 12 26 13
REMARK SMILES IDX 10 14 11 15 25 16 27 17 12 18 24 19 23 20 13 21 21 22 14 23
REMARK SMILES IDX 15 24 20 25 22 26 16 27 19 28 17 29 18 30
REMARK H PARENT 18 31
REMARK Flexibility Score: inf
ROOT
ATOM      1  C   UNL     1    -119.449  12.139  24.951  1.00  0.00     0.004 C 
ENDROOT
BRANCH   1   2
ATOM      2  C   UNL     1    -120.118  10.959  24.208  1.00  0.00     0.004 C 
BRANCH   2   3
ATOM      3  C   UNL     1    -119.602   9.574  24.711  1.00  0.00    -0.009 C 
BRANCH   3   4
ATOM      4  C   UNL     1    -119.025   9.709  26.150  1.00  0.00     0.000 C 
ATOM      5  C   UNL     1    -119.891   9.072  27.239  1.00  0.00     0.004 C 
ENDBRANCH   3   4
BRANCH   3   6
ATOM      6  C   UNL     1    -118.602   8.884  23.717  1.00  0.00    -0.014 C 
ATOM      7  C   UNL     1    -117.136   9.210  24.047  1.00  0.00     0.007 C 
ATOM      8  C   UNL     1    -118.871   9.292  22.254  1.00  0.00     0.007 C 
ENDBRANCH   3   6
ENDBRANCH   2   3
ENDBRANCH   1   2
BRANCH   1   9
ATOM      9  C   UNL     1    -119.640  13.531  24.266  1.00  0.00    -0.011 C 
ATOM     10  C   UNL     1    -120.054  14.568  25.346  1.00  0.00     0.008 C 
BRANCH   9  11
ATOM     11  C   UNL     1    -118.393  14.012  23.430  1.00  0.00    -0.002 C 
ATOM     12  C   UNL     1    -117.037  13.683  24.123  1.00  0.00     0.005 C 
ATOM     13  C   UNL     1    -118.222  13.468  21.946  1.00  0.00    -0.026 C 
ATOM     14  C   UNL     1    -116.133  13.031  23.085  1.00  0.00     0.005 C 
ATOM     15  C   UNL     1    -117.117  12.410  22.120  1.00  0.00    -0.001 C 
ATOM     16  C   UNL     1    -119.413  12.717  21.278  1.00  0.00     0.007 C 
ATOM     17  C   UNL     1    -117.786  14.667  21.022  1.00  0.00     0.012 C 
ATOM     18  C   UNL     1    -116.505  11.855  20.805  1.00  0.00     0.000 C 
ATOM     19  C   UNL     1    -119.002  11.751  20.118  1.00  0.00     0.005 C 
ATOM     20  C   UNL     1    -117.522  11.859  19.619  1.00  0.00     0.003 C 
ATOM     21  C   UNL     1    -115.982  10.437  21.042  1.00  0.00     0.031 C 
ATOM     22  C   UNL     1    -117.127  10.880  18.401  1.00  0.00    -0.008 C 
ATOM     23  C   UNL     1    -115.274   9.946  19.823  1.00  0.00    -0.027 C 
ATOM     24  C   UNL     1    -115.760  10.194  18.593  1.00  0.00    -0.065 C 
ATOM     25  C   UNL     1    -117.061  11.745  17.096  1.00  0.00     0.014 C 
ATOM     26  C   UNL     1    -118.167   9.743  18.202  1.00  0.00     0.016 C 
ATOM     27  C   UNL     1    -115.056   9.560  17.405  1.00  0.00     0.063 C 
ATOM     28  C   UNL     1    -116.459  11.029  15.876  1.00  0.00     0.033 C 
ATOM     29  C   UNL     1    -115.054  10.476  16.170  1.00  0.00     0.118 C 
BRANCH  29  30
ATOM     30  O   UNL     1    -114.108  11.516  16.288  1.00  0.00    -0.393 OA
ATOM     31  H   UNL     1    -114.365  12.252  15.676  1.00  0.00     0.210 HD
ENDBRANCH  29  30
ENDBRANCH   9  11
ENDBRANCH   1   9
TORSDOF 7
ENDMDL
MODEL 7
REMARK VINA RESULT:    -3.425      2.961      9.268
REMARK INTER + INTRA:          -5.884
REMARK INTER:                  -4.613
REMARK INTRA:                  -1.271
REMARK UNBOUND:                -1.158
REMARK SMILES CC[C@@H](CC[C@@H](C)[C@H]1CC[C@@H]2[C@H]3CC=C4C[C@H](O)CC[C@]4(C)[C@H]3CC[C@]21C)C(C)C
REMARK SMILES IDX 5 1 4 2 3 3 2 4 1 5 28 6 29 7 30 8 6 9 7 10 8 11 9 12 26 13
REMARK SMILES IDX 10 14 11 15 25 16 27 17 12 18 24 19 23 20 13 21 21 22 14 23
REMARK SMILES IDX 15 24 20 25 22 26 16 27 19 28 17 29 18 30
REMARK H PARENT 18 31
REMARK Flexibility Score: inf
ROOT
ATOM      1  C   UNL     1    -111.028  26.504  18.617  1.00  0.00     0.004 C 
ENDROOT
BRANCH   1   2
ATOM      2  C   UNL     1    -112.411  25.812  18.624  1.00  0.00     0.004 C 
BRANCH   2   3
ATOM      3  C   UNL     1    -113.253  26.185  19.884  1.00  0.00    -0.009 C 
BRANCH   3   4
ATOM      4  C   UNL     1    -113.904  24.908  20.489  1.00  0.00     0.000 C 
ATOM      5  C   UNL     1    -113.010  24.151  21.475  1.00  0.00     0.004 C 
ENDBRANCH   3   4
BRANCH   3   6
ATOM      6  C   UNL     1    -114.293  27.331  19.620  1.00  0.00    -0.014 C 
ATOM      7  C   UNL     1    -114.883  27.266  18.202  1.00  0.00     0.007 C 
ATOM      8  C   UNL     1    -113.673  28.729  19.823  1.00  0.00     0.007 C 
ENDBRANCH   3   6
ENDBRANCH   2   3
ENDBRANCH   1   2
BRANCH   1   9
ATOM      9  C   UNL     1    -110.501  26.890  17.196  1.00  0.00    -0.011 C 
ATOM     10  C   UNL     1    -111.710  27.288  16.305  1.00  0.00     0.008 C 
BRANCH   9  11
ATOM     11  C   UNL     1    -109.383  28.001  17.207  1.00  0.00    -0.002 C 
ATOM     12  C   UNL     1    -109.414  28.880  18.493  1.00  0.00     0.005 C 
ATOM     13  C   UNL     1    -107.865  27.547  17.074  1.00  0.00    -0.026 C 
ATOM     14  C   UNL     1    -107.992  28.957  19.035  1.00  0.00     0.005 C 
ATOM     15  C   UNL     1    -107.364  27.681  18.523  1.00  0.00    -0.001 C 
ATOM     16  C   UNL     1    -107.553  26.076  16.662  1.00  0.00     0.007 C 
ATOM     17  C   UNL     1    -107.136  28.526  16.078  1.00  0.00     0.012 C 
ATOM     18  C   UNL     1    -105.827  27.568  18.716  1.00  0.00     0.000 C 
ATOM     19  C   UNL     1    -106.140  25.566  17.100  1.00  0.00     0.005 C 
ATOM     20  C   UNL     1    -105.152  26.650  17.648  1.00  0.00     0.003 C 
ATOM     21  C   UNL     1    -105.525  27.046  20.122  1.00  0.00     0.031 C 
ATOM     22  C   UNL     1    -103.690  26.111  18.062  1.00  0.00    -0.008 C 
ATOM     23  C   UNL     1    -104.052  27.060  20.363  1.00  0.00    -0.027 C 
ATOM     24  C   UNL     1    -103.188  26.687  19.401  1.00  0.00    -0.065 C 
ATOM     25  C   UNL     1    -102.687  26.541  16.937  1.00  0.00     0.014 C 
ATOM     26  C   UNL     1    -103.655  24.564  18.206  1.00  0.00     0.016 C 
ATOM     27  C   UNL     1    -101.713  26.607  19.755  1.00  0.00     0.063 C 
ATOM     28  C   UNL     1    -101.203  26.328  17.280  1.00  0.00     0.033 C 
ATOM     29  C   UNL     1    -100.808  27.035  18.588  1.00  0.00     0.118 C 
BRANCH  29  30
ATOM     30  O   UNL     1    -100.785  28.436  18.427  1.00  0.00    -0.393 OA
ATOM     31  H   UNL     1    -101.448  28.688  17.734  1.00  0.00     0.210 HD
ENDBRANCH  29  30
ENDBRANCH   9  11
ENDBRANCH   1   9
TORSDOF 7
ENDMDL
MODEL 8
REMARK VINA RESULT:    -3.373      2.987      8.820
REMARK INTER + INTRA:          -5.812
REMARK INTER:                  -4.726
REMARK INTRA:                  -1.086
REMARK UNBOUND:                -1.158
REMARK SMILES CC[C@@H](CC[C@@H](C)[C@H]1CC[C@@H]2[C@H]3CC=C4C[C@H](O)CC[C@]4(C)[C@H]3CC[C@]21C)C(C)C
REMARK SMILES IDX 5 1 4 2 3 3 2 4 1 5 28 6 29 7 30 8 6 9 7 10 8 11 9 12 26 13
REMARK SMILES IDX 10 14 11 15 25 16 27 17 12 18 24 19 23 20 13 21 21 22 14 23
REMARK SMILES IDX 15 24 20 25 22 26 16 27 19 28 17 29 18 30
REMARK H PARENT 18 31
REMARK Flexibility Score: inf
ROOT
ATOM      1  C   UNL     1    -111.286  26.307  20.697  1.00  0.00     0.004 C 
ENDROOT
BRANCH   1   2
ATOM      2  C   UNL     1    -112.718  26.672  20.242  1.00  0.00     0.004 C 
BRANCH   2   3
ATOM      3  C   UNL     1    -112.724  27.762  19.124  1.00  0.00    -0.009 C 
BRANCH   3   4
ATOM      4  C   UNL     1    -114.150  28.366  18.974  1.00  0.00     0.000 C 
ATOM      5  C   UNL     1    -115.255  27.552  19.654  1.00  0.00     0.004 C 
ENDBRANCH   3   4
BRANCH   3   6
ATOM      6  C   UNL     1    -112.129  27.260  17.761  1.00  0.00    -0.014 C 
ATOM      7  C   UNL     1    -111.683  28.421  16.859  1.00  0.00     0.007 C 
ATOM      8  C   UNL     1    -113.138  26.396  16.977  1.00  0.00     0.007 C 
ENDBRANCH   3   6
ENDBRANCH   2   3
ENDBRANCH   1   2
BRANCH   1   9
ATOM      9  C   UNL     1    -110.695  27.245  21.800  1.00  0.00    -0.011 C 
ATOM     10  C   UNL     1    -109.989  26.372  22.873  1.00  0.00     0.008 C 
BRANCH   9  11
ATOM     11  C   UNL     1    -109.751  28.377  21.243  1.00  0.00    -0.002 C 
ATOM     12  C   UNL     1    -108.904  29.063  22.357  1.00  0.00     0.005 C 
ATOM     13  C   UNL     1    -108.691  27.993  20.121  1.00  0.00    -0.026 C 
ATOM     14  C   UNL     1    -107.459  29.106  21.879  1.00  0.00     0.005 C 
ATOM     15  C   UNL     1    -107.381  27.935  20.926  1.00  0.00    -0.001 C 
ATOM     16  C   UNL     1    -108.808  26.606  19.419  1.00  0.00     0.007 C 
ATOM     17  C   UNL     1    -108.692  29.125  19.026  1.00  0.00     0.012 C 
ATOM     18  C   UNL     1    -106.079  27.843  20.084  1.00  0.00     0.000 C 
ATOM     19  C   UNL     1    -107.474  26.082  18.792  1.00  0.00     0.005 C 
ATOM     20  C   UNL     1    -106.292  27.108  18.723  1.00  0.00     0.003 C 
ATOM     21  C   UNL     1    -104.992  27.137  20.898  1.00  0.00     0.031 C 
ATOM     22  C   UNL     1    -104.937  26.560  18.043  1.00  0.00    -0.008 C 
ATOM     23  C   UNL     1    -103.701  27.161  20.150  1.00  0.00    -0.027 C 
ATOM     24  C   UNL     1    -103.666  26.956  18.821  1.00  0.00    -0.065 C 
ATOM     25  C   UNL     1    -104.843  27.176  16.605  1.00  0.00     0.014 C 
ATOM     26  C   UNL     1    -104.922  25.010  17.932  1.00  0.00     0.016 C 
ATOM     27  C   UNL     1    -102.308  26.872  18.145  1.00  0.00     0.063 C 
ATOM     28  C   UNL     1    -103.494  26.962  15.899  1.00  0.00     0.033 C 
ATOM     29  C   UNL     1    -102.316  27.488  16.737  1.00  0.00     0.118 C 
BRANCH  29  30
ATOM     30  O   UNL     1    -102.307  28.898  16.780  1.00  0.00    -0.393 OA
ATOM     31  H   UNL     1    -102.058  29.187  17.695  1.00  0.00     0.210 HD
ENDBRANCH  29  30
ENDBRANCH   9  11
ENDBRANCH   1   9
TORSDOF 7
ENDMDL
