MODEL 1
REMARK VINA RESULT:    -3.081      0.000      0.000
REMARK INTER + INTRA:          -3.351
REMARK INTER:                  -3.351
REMARK INTRA:                   0.000
REMARK UNBOUND:                 0.000
REMARK SMILES [NH3+]CC(=O)[O-]
REMARK SMILES IDX 2 1 1 2 3 6 4 7 5 8
REMARK H PARENT 1 3 1 4 1 5
REMARK Flexibility Score: inf
ROOT
ATOM      1  C   UNL     1     -24.955   8.968   4.255  1.00  0.00     0.312 C 
ENDROOT
BRANCH   1   2
ATOM      2  N   UNL     1     -23.572   8.987   4.729  1.00  0.00    -0.353 N 
ATOM      3  H   UNL     1     -23.430   9.786   5.389  1.00  0.00     0.344 HD
ATOM      4  H   UNL     1     -23.345   8.086   5.208  1.00  0.00     0.344 HD
ATOM      5  H   UNL     1     -22.932   9.107   3.911  1.00  0.00     0.344 HD
ENDBRANCH   1   2
BRANCH   1   6
ATOM      6  C   UNL     1     -25.015   8.561   2.816  1.00  0.00     0.096 C 
ATOM      7  O   UNL     1     -25.715   9.217   2.001  1.00  0.00    -0.544 OA
ATOM      8  O   UNL     1     -24.259   7.487   2.366  1.00  0.00    -0.544 OA
ENDBRANCH   1   6
TORSDOF 2
ENDMDL
MODEL 2
REMARK VINA RESULT:    -2.950     11.902     12.321
REMARK INTER + INTRA:          -3.208
REMARK INTER:                  -3.208
REMARK INTRA:                   0.000
REMARK UNBOUND:                 0.000
REMARK SMILES [NH3+]CC(=O)[O-]
REMARK SMILES IDX 2 1 1 2 3 6 4 7 5 8
REMARK H PARENT 1 3 1 4 1 5
REMARK Flexibility Score: inf
ROOT
ATOM      1  C   UNL     1     -13.386   3.196   3.808  1.00  0.00     0.312 C 
ENDROOT
BRANCH   1   2
ATOM      2  N   UNL     1     -14.350   3.766   2.868  1.00  0.00    -0.353 N 
ATOM      3  H   UNL     1     -15.115   4.254   3.390  1.00  0.00     0.344 HD
ATOM      4  H   UNL     1     -13.871   4.440   2.228  1.00  0.00     0.344 HD
ATOM      5  H   UNL     1     -14.768   2.996   2.298  1.00  0.00     0.344 HD
ENDBRANCH   1   2
BRANCH   1   6
ATOM      6  C   UNL     1     -13.755   3.542   5.217  1.00  0.00     0.096 C 
ATOM      7  O   UNL     1     -14.802   4.200   5.453  1.00  0.00    -0.544 OA
ATOM      8  O   UNL     1     -12.969   3.096   6.271  1.00  0.00    -0.544 OA
ENDBRANCH   1   6
TORSDOF 2
ENDMDL
MODEL 3
REMARK VINA RESULT:    -2.917     14.917     15.199
REMARK INTER + INTRA:          -3.173
REMARK INTER:                  -3.173
REMARK INTRA:                   0.000
REMARK UNBOUND:                 0.000
REMARK SMILES [NH3+]CC(=O)[O-]
REMARK SMILES IDX 2 1 1 2 3 6 4 7 5 8
REMARK H PARENT 1 3 1 4 1 5
REMARK Flexibility Score: inf
ROOT
ATOM      1  C   UNL     1     -18.966   0.664  -6.985  1.00  0.00     0.312 C 
ENDROOT
BRANCH   1   2
ATOM      2  N   UNL     1     -19.556   1.941  -7.384  1.00  0.00    -0.353 N 
ATOM      3  H   UNL     1     -19.092   2.726  -6.871  1.00  0.00     0.344 HD
ATOM      4  H   UNL     1     -19.450   2.079  -8.414  1.00  0.00     0.344 HD
ATOM      5  H   UNL     1     -20.574   1.936  -7.145  1.00  0.00     0.344 HD
ENDBRANCH   1   2
BRANCH   1   6
ATOM      6  C   UNL     1     -17.904   0.248  -7.955  1.00  0.00     0.096 C 
ATOM      7  O   UNL     1     -18.110   0.335  -9.194  1.00  0.00    -0.544 OA
ATOM      8  O   UNL     1     -16.671  -0.189  -7.490  1.00  0.00    -0.544 OA
ENDBRANCH   1   6
TORSDOF 2
ENDMDL
MODEL 4
REMARK VINA RESULT:    -2.893      8.899      9.170
REMARK INTER + INTRA:          -3.146
REMARK INTER:                  -3.146
REMARK INTRA:                   0.000
REMARK UNBOUND:                 0.000
REMARK SMILES [NH3+]CC(=O)[O-]
REMARK SMILES IDX 2 1 1 2 3 6 4 7 5 8
REMARK H PARENT 1 3 1 4 1 5
REMARK Flexibility Score: inf
ROOT
ATOM      1  C   UNL     1     -27.799  -0.086   6.259  1.00  0.00     0.312 C 
ENDROOT
BRANCH   1   2
ATOM      2  N   UNL     1     -29.123   0.289   5.764  1.00  0.00    -0.353 N 
ATOM      3  H   UNL     1     -29.600  -0.545   5.349  1.00  0.00     0.344 HD
ATOM      4  H   UNL     1     -29.701   0.676   6.544  1.00  0.00     0.344 HD
ATOM      5  H   UNL     1     -29.017   1.020   5.024  1.00  0.00     0.344 HD
ENDBRANCH   1   2
BRANCH   1   6
ATOM      6  C   UNL     1     -27.039   1.125   6.703  1.00  0.00     0.096 C 
ATOM      7  O   UNL     1     -27.076   1.489   7.907  1.00  0.00    -0.544 OA
ATOM      8  O   UNL     1     -26.252   1.822   5.796  1.00  0.00    -0.544 OA
ENDBRANCH   1   6
TORSDOF 2
ENDMDL
MODEL 5
REMARK VINA RESULT:    -2.876      2.223      2.698
REMARK INTER + INTRA:          -3.128
REMARK INTER:                  -3.128
REMARK INTRA:                   0.000
REMARK UNBOUND:                 0.000
REMARK SMILES [NH3+]CC(=O)[O-]
REMARK SMILES IDX 2 1 1 2 3 6 4 7 5 8
REMARK H PARENT 1 3 1 4 1 5
REMARK Flexibility Score: inf
ROOT
ATOM      1  C   UNL     1     -25.025   8.450   2.468  1.00  0.00     0.312 C 
ENDROOT
BRANCH   1   2
ATOM      2  N   UNL     1     -24.323   7.231   2.069  1.00  0.00    -0.353 N 
ATOM      3  H   UNL     1     -23.364   7.466   1.722  1.00  0.00     0.344 HD
ATOM      4  H   UNL     1     -24.255   6.574   2.880  1.00  0.00     0.344 HD
ATOM      5  H   UNL     1     -24.856   6.765   1.299  1.00  0.00     0.344 HD
ENDBRANCH   1   2
BRANCH   1   6
ATOM      6  C   UNL     1     -24.692   8.812   3.882  1.00  0.00     0.096 C 
ATOM      7  O   UNL     1     -23.493   8.827   4.266  1.00  0.00    -0.544 OA
ATOM      8  O   UNL     1     -25.702   9.179   4.761  1.00  0.00    -0.544 OA
ENDBRANCH   1   6
TORSDOF 2
ENDMDL
MODEL 6
REMARK VINA RESULT:    -2.860     13.253     13.478
REMARK INTER + INTRA:          -3.111
REMARK INTER:                  -3.111
REMARK INTRA:                   0.000
REMARK UNBOUND:                 0.000
REMARK SMILES [NH3+]CC(=O)[O-]
REMARK SMILES IDX 2 1 1 2 3 6 4 7 5 8
REMARK H PARENT 1 3 1 4 1 5
REMARK Flexibility Score: inf
ROOT
ATOM      1  C   UNL     1     -14.177  13.325  -3.818  1.00  0.00     0.312 C 
ENDROOT
BRANCH   1   2
ATOM      2  N   UNL     1     -13.096  13.383  -2.836  1.00  0.00    -0.353 N 
ATOM      3  H   UNL     1     -12.412  14.131  -3.098  1.00  0.00     0.344 HD
ATOM      4  H   UNL     1     -13.486  13.577  -1.885  1.00  0.00     0.344 HD
ATOM      5  H   UNL     1     -12.600  12.463  -2.818  1.00  0.00     0.344 HD
ENDBRANCH   1   2
BRANCH   1   6
ATOM      6  C   UNL     1     -14.272  11.957  -4.419  1.00  0.00     0.096 C 
ATOM      7  O   UNL     1     -14.176  11.805  -5.665  1.00  0.00    -0.544 OA
ATOM      8  O   UNL     1     -14.415  10.846  -3.598  1.00  0.00    -0.544 OA
ENDBRANCH   1   6
TORSDOF 2
ENDMDL
MODEL 7
REMARK VINA RESULT:    -2.837     15.664     16.141
REMARK INTER + INTRA:          -3.086
REMARK INTER:                  -3.086
REMARK INTRA:                   0.000
REMARK UNBOUND:                 0.000
REMARK SMILES [NH3+]CC(=O)[O-]
REMARK SMILES IDX 2 1 1 2 3 6 4 7 5 8
REMARK H PARENT 1 3 1 4 1 5
REMARK Flexibility Score: inf
ROOT
ATOM      1  C   UNL     1     -17.493  -0.547  -7.206  1.00  0.00     0.312 C 
ENDROOT
BRANCH   1   2
ATOM      2  N   UNL     1     -18.605   0.156  -6.570  1.00  0.00    -0.353 N 
ATOM      3  H   UNL     1     -19.310  -0.533  -6.218  1.00  0.00     0.344 HD
ATOM      4  H   UNL     1     -18.254   0.740  -5.777  1.00  0.00     0.344 HD
ATOM      5  H   UNL     1     -19.064   0.779  -7.273  1.00  0.00     0.344 HD
ENDBRANCH   1   2
BRANCH   1   6
ATOM      6  C   UNL     1     -17.492  -0.305  -8.684  1.00  0.00     0.096 C 
ATOM      7  O   UNL     1     -18.044   0.723  -9.157  1.00  0.00    -0.544 OA
ATOM      8  O   UNL     1     -16.840  -1.190  -9.532  1.00  0.00    -0.544 OA
ENDBRANCH   1   6
TORSDOF 2
ENDMDL
MODEL 8
REMARK VINA RESULT:    -2.830     13.222     13.405
REMARK INTER + INTRA:          -3.078
REMARK INTER:                  -3.078
REMARK INTRA:                   0.000
REMARK UNBOUND:                 0.000
REMARK SMILES [NH3+]CC(=O)[O-]
REMARK SMILES IDX 2 1 1 2 3 6 4 7 5 8
REMARK H PARENT 1 3 1 4 1 5
REMARK Flexibility Score: inf
ROOT
ATOM      1  C   UNL     1     -14.366  11.255  -4.504  1.00  0.00     0.312 C 
ENDROOT
BRANCH   1   2
ATOM      2  N   UNL     1     -14.302  10.408  -3.314  1.00  0.00    -0.353 N 
ATOM      3  H   UNL     1     -13.756  10.888  -2.561  1.00  0.00     0.344 HD
ATOM      4  H   UNL     1     -15.267  10.197  -2.972  1.00  0.00     0.344 HD
ATOM      5  H   UNL     1     -13.825   9.510  -3.558  1.00  0.00     0.344 HD
ENDBRANCH   1   2
BRANCH   1   6
ATOM      6  C   UNL     1     -14.114  12.687  -4.147  1.00  0.00     0.096 C 
ATOM      7  O   UNL     1     -14.342  13.598  -4.986  1.00  0.00    -0.544 OA
ATOM      8  O   UNL     1     -13.675  13.018  -2.872  1.00  0.00    -0.544 OA
ENDBRANCH   1   6
TORSDOF 2
ENDMDL
MODEL 9
REMARK VINA RESULT:    -2.824     13.248     13.487
REMARK INTER + INTRA:          -3.072
REMARK INTER:                  -3.072
REMARK INTRA:                   0.000
REMARK UNBOUND:                 0.000
REMARK SMILES [NH3+]CC(=O)[O-]
REMARK SMILES IDX 2 1 1 2 3 6 4 7 5 8
REMARK H PARENT 1 3 1 4 1 5
REMARK Flexibility Score: inf
ROOT
ATOM      1  C   UNL     1     -14.357  11.440  -4.359  1.00  0.00     0.312 C 
ENDROOT
BRANCH   1   2
ATOM      2  N   UNL     1     -14.125  10.538  -3.232  1.00  0.00    -0.353 N 
ATOM      3  H   UNL     1     -15.032  10.309  -2.763  1.00  0.00     0.344 HD
ATOM      4  H   UNL     1     -13.666   9.660  -3.564  1.00  0.00     0.344 HD
ATOM      5  H   UNL     1     -13.497  11.009  -2.541  1.00  0.00     0.344 HD
ENDBRANCH   1   2
BRANCH   1   6
ATOM      6  C   UNL     1     -14.080  12.858  -3.967  1.00  0.00     0.096 C 
ATOM      7  O   UNL     1     -13.622  13.120  -2.824  1.00  0.00    -0.544 OA
ATOM      8  O   UNL     1     -14.280  13.883  -4.882  1.00  0.00    -0.544 OA
ENDBRANCH   1   6
TORSDOF 2
ENDMDL
