MODEL 1
REMARK VINA RESULT:    -4.627      0.000      0.000
REMARK INTER + INTRA:         -14.022
REMARK INTER:                 -10.579
REMARK INTRA:                  -3.444
REMARK UNBOUND:                -3.444
REMARK SMILES CCCCCCCCCCCCCCCCCCCCCCCC(=O)[O-]
REMARK SMILES IDX 13 1 14 2 15 3 16 4 17 5 18 6 19 7 20 8 21 9 22 10 23 11
REMARK SMILES IDX 24 12 25 13 26 14 12 15 11 16 10 17 9 18 8 19 7 20 6 21 5 22
REMARK SMILES IDX 4 23 3 24 2 25 1 26
REMARK H PARENT
REMARK Flexibility Score: inf
ROOT
ATOM      1  C   UNL     1      18.900  32.687  65.094  1.00  0.00     0.000 C 
ENDROOT
BRANCH   1   2
ATOM      2  C   UNL     1      18.795  33.692  66.257  1.00  0.00     0.000 C 
BRANCH   2   3
ATOM      3  C   UNL     1      17.382  34.253  66.504  1.00  0.00     0.000 C 
BRANCH   3   4
ATOM      4  C   UNL     1      17.199  35.682  65.971  1.00  0.00     0.000 C 
BRANCH   4   5
ATOM      5  C   UNL     1      15.714  36.063  65.915  1.00  0.00     0.000 C 
BRANCH   5   6
ATOM      6  C   UNL     1      15.207  36.505  67.295  1.00  0.00     0.000 C 
BRANCH   6   7
ATOM      7  C   UNL     1      13.852  35.876  67.664  1.00  0.00     0.000 C 
BRANCH   7   8
ATOM      8  C   UNL     1      13.784  34.357  67.398  1.00  0.00     0.000 C 
BRANCH   8   9
ATOM      9  C   UNL     1      12.858  33.636  68.394  1.00  0.00     0.000 C 
BRANCH   9  10
ATOM     10  C   UNL     1      11.807  32.757  67.700  1.00  0.00     0.006 C 
BRANCH  10  11
ATOM     11  C   UNL     1      11.702  31.358  68.320  1.00  0.00     0.053 C 
BRANCH  11  12
ATOM     12  C   UNL     1      10.477  30.659  67.822  1.00  0.00     0.041 C 
ATOM     13  O   UNL     1       9.921  29.774  68.526  1.00  0.00    -0.550 OA
ATOM     14  O   UNL     1       9.976  30.949  66.559  1.00  0.00    -0.550 OA
ENDBRANCH  11  12
ENDBRANCH  10  11
ENDBRANCH   9  10
ENDBRANCH   8   9
ENDBRANCH   7   8
ENDBRANCH   6   7
ENDBRANCH   5   6
ENDBRANCH   4   5
ENDBRANCH   3   4
ENDBRANCH   2   3
ENDBRANCH   1   2
BRANCH   1  15
ATOM     15  C   UNL     1      18.424  31.275  65.480  1.00  0.00     0.000 C 
BRANCH  15  16
ATOM     16  C   UNL     1      19.473  30.496  66.287  1.00  0.00     0.000 C 
BRANCH  16  17
ATOM     17  C   UNL     1      19.018  30.215  67.731  1.00  0.00     0.000 C 
BRANCH  17  18
ATOM     18  C   UNL     1      19.636  31.201  68.743  1.00  0.00    -0.000 C 
BRANCH  18  19
ATOM     19  C   UNL     1      19.649  30.681  70.191  1.00  0.00    -0.000 C 
BRANCH  19  20
ATOM     20  C   UNL     1      18.392  29.868  70.547  1.00  0.00    -0.000 C 
BRANCH  20  21
ATOM     21  C   UNL     1      17.265  30.746  71.114  1.00  0.00    -0.000 C 
BRANCH  21  22
ATOM     22  C   UNL     1      15.877  30.114  70.920  1.00  0.00    -0.000 C 
BRANCH  22  23
ATOM     23  C   UNL     1      15.005  30.974  69.997  1.00  0.00    -0.000 C 
BRANCH  23  24
ATOM     24  C   UNL     1      15.852  31.656  68.916  1.00  0.00    -0.000 C 
BRANCH  24  25
ATOM     25  C   UNL     1      15.458  31.170  67.518  1.00  0.00    -0.003 C 
ATOM     26  C   UNL     1      14.917  29.743  67.561  1.00  0.00     0.004 C 
ENDBRANCH  24  25
ENDBRANCH  23  24
ENDBRANCH  22  23
ENDBRANCH  21  22
ENDBRANCH  20  21
ENDBRANCH  19  20
ENDBRANCH  18  19
ENDBRANCH  17  18
ENDBRANCH  16  17
ENDBRANCH  15  16
ENDBRANCH   1  15
TORSDOF 22
ENDMDL
MODEL 2
REMARK VINA RESULT:    -4.626      4.022      7.242
REMARK INTER + INTRA:         -14.020
REMARK INTER:                 -10.880
REMARK INTRA:                  -3.140
REMARK UNBOUND:                -3.444
REMARK SMILES CCCCCCCCCCCCCCCCCCCCCCCC(=O)[O-]
REMARK SMILES IDX 13 1 14 2 15 3 16 4 17 5 18 6 19 7 20 8 21 9 22 10 23 11
REMARK SMILES IDX 24 12 25 13 26 14 12 15 11 16 10 17 9 18 8 19 7 20 6 21 5 22
REMARK SMILES IDX 4 23 3 24 2 25 1 26
REMARK H PARENT
REMARK Flexibility Score: inf
ROOT
ATOM      1  C   UNL     1      19.985  30.593  69.911  1.00  0.00     0.000 C 
ENDROOT
BRANCH   1   2
ATOM      2  C   UNL     1      19.666  31.183  68.524  1.00  0.00     0.000 C 
BRANCH   2   3
ATOM      3  C   UNL     1      19.340  30.143  67.435  1.00  0.00     0.000 C 
BRANCH   3   4
ATOM      4  C   UNL     1      18.213  30.591  66.492  1.00  0.00     0.000 C 
BRANCH   4   5
ATOM      5  C   UNL     1      18.747  30.846  65.077  1.00  0.00     0.000 C 
BRANCH   5   6
ATOM      6  C   UNL     1      18.889  32.349  64.804  1.00  0.00     0.000 C 
BRANCH   6   7
ATOM      7  C   UNL     1      18.099  33.216  65.800  1.00  0.00     0.000 C 
BRANCH   7   8
ATOM      8  C   UNL     1      18.976  34.231  66.564  1.00  0.00     0.000 C 
BRANCH   8   9
ATOM      9  C   UNL     1      20.477  34.005  66.309  1.00  0.00     0.000 C 
BRANCH   9  10
ATOM     10  C   UNL     1      21.368  34.967  67.110  1.00  0.00     0.006 C 
BRANCH  10  11
ATOM     11  C   UNL     1      22.027  36.036  66.230  1.00  0.00     0.053 C 
BRANCH  11  12
ATOM     12  C   UNL     1      21.509  37.394  66.586  1.00  0.00     0.041 C 
ATOM     13  O   UNL     1      20.427  37.810  66.093  1.00  0.00    -0.550 OA
ATOM     14  O   UNL     1      22.246  38.221  67.424  1.00  0.00    -0.550 OA
ENDBRANCH  11  12
ENDBRANCH  10  11
ENDBRANCH   9  10
ENDBRANCH   8   9
ENDBRANCH   7   8
ENDBRANCH   6   7
ENDBRANCH   5   6
ENDBRANCH   4   5
ENDBRANCH   3   4
ENDBRANCH   2   3
ENDBRANCH   1   2
BRANCH   1  15
ATOM     15  C   UNL     1      18.799  29.825  70.520  1.00  0.00     0.000 C 
BRANCH  15  16
ATOM     16  C   UNL     1      17.736  30.757  71.121  1.00  0.00     0.000 C 
BRANCH  16  17
ATOM     17  C   UNL     1      16.463  30.002  71.549  1.00  0.00     0.000 C 
BRANCH  17  18
ATOM     18  C   UNL     1      15.217  30.465  70.767  1.00  0.00    -0.000 C 
BRANCH  18  19
ATOM     19  C   UNL     1      15.482  30.729  69.275  1.00  0.00    -0.000 C 
BRANCH  19  20
ATOM     20  C   UNL     1      15.123  32.162  68.847  1.00  0.00    -0.000 C 
BRANCH  20  21
ATOM     21  C   UNL     1      15.031  32.315  67.320  1.00  0.00    -0.000 C 
BRANCH  21  22
ATOM     22  C   UNL     1      13.975  33.349  66.897  1.00  0.00    -0.000 C 
BRANCH  22  23
ATOM     23  C   UNL     1      13.744  34.383  68.005  1.00  0.00    -0.000 C 
BRANCH  23  24
ATOM     24  C   UNL     1      13.990  35.806  67.492  1.00  0.00    -0.000 C 
BRANCH  24  25
ATOM     25  C   UNL     1      15.486  36.071  67.298  1.00  0.00    -0.003 C 
ATOM     26  C   UNL     1      15.843  36.169  65.817  1.00  0.00     0.004 C 
ENDBRANCH  24  25
ENDBRANCH  23  24
ENDBRANCH  22  23
ENDBRANCH  21  22
ENDBRANCH  20  21
ENDBRANCH  19  20
ENDBRANCH  18  19
ENDBRANCH  17  18
ENDBRANCH  16  17
ENDBRANCH  15  16
ENDBRANCH   1  15
TORSDOF 22
ENDMDL
MODEL 3
REMARK VINA RESULT:    -4.588      2.869      6.963
REMARK INTER + INTRA:         -13.932
REMARK INTER:                 -10.038
REMARK INTRA:                  -3.894
REMARK UNBOUND:                -3.444
REMARK SMILES CCCCCCCCCCCCCCCCCCCCCCCC(=O)[O-]
REMARK SMILES IDX 13 1 14 2 15 3 16 4 17 5 18 6 19 7 20 8 21 9 22 10 23 11
REMARK SMILES IDX 24 12 25 13 26 14 12 15 11 16 10 17 9 18 8 19 7 20 6 21 5 22
REMARK SMILES IDX 4 23 3 24 2 25 1 26
REMARK H PARENT
REMARK Flexibility Score: inf
ROOT
ATOM      1  C   UNL     1      15.904  31.766  68.524  1.00  0.00     0.000 C 
ENDROOT
BRANCH   1   2
ATOM      2  C   UNL     1      15.180  31.245  69.780  1.00  0.00     0.000 C 
BRANCH   2   3
ATOM      3  C   UNL     1      15.398  29.751  70.083  1.00  0.00     0.000 C 
BRANCH   3   4
ATOM      4  C   UNL     1      16.523  29.500  71.099  1.00  0.00     0.000 C 
BRANCH   4   5
ATOM      5  C   UNL     1      17.199  30.814  71.508  1.00  0.00     0.000 C 
BRANCH   5   6
ATOM      6  C   UNL     1      18.641  30.877  70.986  1.00  0.00     0.000 C 
BRANCH   6   7
ATOM      7  C   UNL     1      19.055  29.612  70.216  1.00  0.00     0.000 C 
BRANCH   7   8
ATOM      8  C   UNL     1      19.589  29.901  68.796  1.00  0.00     0.000 C 
BRANCH   8   9
ATOM      9  C   UNL     1      19.658  31.410  68.501  1.00  0.00     0.000 C 
BRANCH   9  10
ATOM     10  C   UNL     1      19.394  31.740  67.024  1.00  0.00     0.006 C 
BRANCH  10  11
ATOM     11  C   UNL     1      19.075  33.223  66.795  1.00  0.00     0.053 C 
BRANCH  11  12
ATOM     12  C   UNL     1      18.867  33.491  65.338  1.00  0.00     0.041 C 
ATOM     13  O   UNL     1      18.691  34.670  64.929  1.00  0.00    -0.550 OA
ATOM     14  O   UNL     1      18.819  32.436  64.437  1.00  0.00    -0.550 OA
ENDBRANCH  11  12
ENDBRANCH  10  11
ENDBRANCH   9  10
ENDBRANCH   8   9
ENDBRANCH   7   8
ENDBRANCH   6   7
ENDBRANCH   5   6
ENDBRANCH   4   5
ENDBRANCH   3   4
ENDBRANCH   2   3
ENDBRANCH   1   2
BRANCH   1  15
ATOM     15  C   UNL     1      16.094  30.680  67.450  1.00  0.00     0.000 C 
BRANCH  15  16
ATOM     16  C   UNL     1      15.799  31.192  66.032  1.00  0.00     0.000 C 
BRANCH  16  17
ATOM     17  C   UNL     1      14.543  30.544  65.419  1.00  0.00     0.000 C 
BRANCH  17  18
ATOM     18  C   UNL     1      13.241  31.210  65.909  1.00  0.00    -0.000 C 
BRANCH  18  19
ATOM     19  C   UNL     1      12.596  30.502  67.113  1.00  0.00    -0.000 C 
BRANCH  19  20
ATOM     20  C   UNL     1      11.913  31.478  68.086  1.00  0.00    -0.000 C 
BRANCH  20  21
ATOM     21  C   UNL     1      11.948  32.931  67.584  1.00  0.00    -0.000 C 
BRANCH  21  22
ATOM     22  C   UNL     1      12.975  33.787  68.341  1.00  0.00    -0.000 C 
BRANCH  22  23
ATOM     23  C   UNL     1      13.882  34.548  67.365  1.00  0.00    -0.000 C 
BRANCH  23  24
ATOM     24  C   UNL     1      13.926  36.042  67.704  1.00  0.00    -0.000 C 
BRANCH  24  25
ATOM     25  C   UNL     1      14.490  36.857  66.535  1.00  0.00    -0.003 C 
ATOM     26  C   UNL     1      15.582  36.084  65.800  1.00  0.00     0.004 C 
ENDBRANCH  24  25
ENDBRANCH  23  24
ENDBRANCH  22  23
ENDBRANCH  21  22
ENDBRANCH  20  21
ENDBRANCH  19  20
ENDBRANCH  18  19
ENDBRANCH  17  18
ENDBRANCH  16  17
ENDBRANCH  15  16
ENDBRANCH   1  15
TORSDOF 22
ENDMDL
MODEL 4
REMARK VINA RESULT:    -4.585      3.864      6.304
REMARK INTER + INTRA:         -13.926
REMARK INTER:                 -10.839
REMARK INTRA:                  -3.087
REMARK UNBOUND:                -3.444
REMARK SMILES CCCCCCCCCCCCCCCCCCCCCCCC(=O)[O-]
REMARK SMILES IDX 13 1 14 2 15 3 16 4 17 5 18 6 19 7 20 8 21 9 22 10 23 11
REMARK SMILES IDX 24 12 25 13 26 14 12 15 11 16 10 17 9 18 8 19 7 20 6 21 5 22
REMARK SMILES IDX 4 23 3 24 2 25 1 26
REMARK H PARENT
REMARK Flexibility Score: inf
ROOT
ATOM      1  C   UNL     1      13.291  31.610  67.700  1.00  0.00     0.000 C 
ENDROOT
BRANCH   1   2
ATOM      2  C   UNL     1      13.596  33.011  68.265  1.00  0.00     0.000 C 
BRANCH   2   3
ATOM      3  C   UNL     1      14.223  33.994  67.259  1.00  0.00     0.000 C 
BRANCH   3   4
ATOM      4  C   UNL     1      13.996  35.467  67.634  1.00  0.00     0.000 C 
BRANCH   4   5
ATOM      5  C   UNL     1      15.258  36.300  67.380  1.00  0.00     0.000 C 
BRANCH   5   6
ATOM      6  C   UNL     1      15.739  36.144  65.932  1.00  0.00     0.000 C 
BRANCH   6   7
ATOM      7  C   UNL     1      17.268  36.019  65.818  1.00  0.00     0.000 C 
BRANCH   7   8
ATOM      8  C   UNL     1      17.810  34.644  66.266  1.00  0.00     0.000 C 
BRANCH   8   9
ATOM      9  C   UNL     1      19.155  34.308  65.596  1.00  0.00     0.000 C 
BRANCH   9  10
ATOM     10  C   UNL     1      20.324  34.273  66.592  1.00  0.00     0.006 C 
BRANCH  10  11
ATOM     11  C   UNL     1      21.549  35.049  66.094  1.00  0.00     0.053 C 
BRANCH  11  12
ATOM     12  C   UNL     1      21.441  36.493  66.474  1.00  0.00     0.041 C 
ATOM     13  O   UNL     1      22.036  36.926  67.497  1.00  0.00    -0.550 OA
ATOM     14  O   UNL     1      20.642  37.349  65.727  1.00  0.00    -0.550 OA
ENDBRANCH  11  12
ENDBRANCH  10  11
ENDBRANCH   9  10
ENDBRANCH   8   9
ENDBRANCH   7   8
ENDBRANCH   6   7
ENDBRANCH   5   6
ENDBRANCH   4   5
ENDBRANCH   3   4
ENDBRANCH   2   3
ENDBRANCH   1   2
BRANCH   1  15
ATOM     15  C   UNL     1      13.720  31.452  66.230  1.00  0.00     0.000 C 
BRANCH  15  16
ATOM     16  C   UNL     1      14.834  30.410  66.047  1.00  0.00     0.000 C 
BRANCH  16  17
ATOM     17  C   UNL     1      15.846  30.418  67.209  1.00  0.00     0.000 C 
BRANCH  17  18
ATOM     18  C   UNL     1      17.086  31.281  66.900  1.00  0.00    -0.000 C 
BRANCH  18  19
ATOM     19  C   UNL     1      18.421  30.592  67.232  1.00  0.00    -0.000 C 
BRANCH  19  20
ATOM     20  C   UNL     1      19.230  31.339  68.305  1.00  0.00    -0.000 C 
BRANCH  20  21
ATOM     21  C   UNL     1      20.122  30.398  69.132  1.00  0.00    -0.000 C 
BRANCH  21  22
ATOM     22  C   UNL     1      19.566  30.156  70.544  1.00  0.00    -0.000 C 
BRANCH  22  23
ATOM     23  C   UNL     1      18.385  31.089  70.838  1.00  0.00    -0.000 C 
BRANCH  23  24
ATOM     24  C   UNL     1      17.180  30.304  71.367  1.00  0.00    -0.000 C 
BRANCH  24  25
ATOM     25  C   UNL     1      15.864  30.918  70.878  1.00  0.00    -0.003 C 
ATOM     26  C   UNL     1      14.817  29.841  70.608  1.00  0.00     0.004 C 
ENDBRANCH  24  25
ENDBRANCH  23  24
ENDBRANCH  22  23
ENDBRANCH  21  22
ENDBRANCH  20  21
ENDBRANCH  19  20
ENDBRANCH  18  19
ENDBRANCH  17  18
ENDBRANCH  16  17
ENDBRANCH  15  16
ENDBRANCH   1  15
TORSDOF 22
ENDMDL
MODEL 5
REMARK VINA RESULT:    -4.525      4.204      6.723
REMARK INTER + INTRA:         -13.788
REMARK INTER:                 -10.656
REMARK INTRA:                  -3.132
REMARK UNBOUND:                -3.444
REMARK SMILES CCCCCCCCCCCCCCCCCCCCCCCC(=O)[O-]
REMARK SMILES IDX 13 1 14 2 15 3 16 4 17 5 18 6 19 7 20 8 21 9 22 10 23 11
REMARK SMILES IDX 24 12 25 13 26 14 12 15 11 16 10 17 9 18 8 19 7 20 6 21 5 22
REMARK SMILES IDX 4 23 3 24 2 25 1 26
REMARK H PARENT
REMARK Flexibility Score: inf
ROOT
ATOM      1  C   UNL     1      15.177  32.459  68.365  1.00  0.00     0.000 C 
ENDROOT
BRANCH   1   2
ATOM      2  C   UNL     1      14.122  33.208  67.529  1.00  0.00     0.000 C 
BRANCH   2   3
ATOM      3  C   UNL     1      13.626  34.531  68.143  1.00  0.00     0.000 C 
BRANCH   3   4
ATOM      4  C   UNL     1      14.120  35.771  67.382  1.00  0.00     0.000 C 
BRANCH   4   5
ATOM      5  C   UNL     1      15.036  35.374  66.217  1.00  0.00     0.000 C 
BRANCH   5   6
ATOM      6  C   UNL     1      16.500  35.713  66.528  1.00  0.00     0.000 C 
BRANCH   6   7
ATOM      7  C   UNL     1      17.432  34.494  66.428  1.00  0.00     0.000 C 
BRANCH   7   8
ATOM      8  C   UNL     1      18.722  34.767  65.625  1.00  0.00     0.000 C 
BRANCH   8   9
ATOM      9  C   UNL     1      19.982  34.316  66.385  1.00  0.00     0.000 C 
BRANCH   9  10
ATOM     10  C   UNL     1      21.184  35.244  66.150  1.00  0.00     0.006 C 
BRANCH  10  11
ATOM     11  C   UNL     1      20.767  36.659  65.729  1.00  0.00     0.053 C 
BRANCH  11  12
ATOM     12  C   UNL     1      21.437  37.678  66.595  1.00  0.00     0.041 C 
ATOM     13  O   UNL     1      20.801  38.690  66.992  1.00  0.00    -0.550 OA
ATOM     14  O   UNL     1      22.779  37.537  66.923  1.00  0.00    -0.550 OA
ENDBRANCH  11  12
ENDBRANCH  10  11
ENDBRANCH   9  10
ENDBRANCH   8   9
ENDBRANCH   7   8
ENDBRANCH   6   7
ENDBRANCH   5   6
ENDBRANCH   4   5
ENDBRANCH   3   4
ENDBRANCH   2   3
ENDBRANCH   1   2
BRANCH   1  15
ATOM     15  C   UNL     1      15.011  30.931  68.307  1.00  0.00     0.000 C 
BRANCH  15  16
ATOM     16  C   UNL     1      14.653  30.322  69.671  1.00  0.00     0.000 C 
BRANCH  16  17
ATOM     17  C   UNL     1      15.615  30.768  70.788  1.00  0.00     0.000 C 
BRANCH  17  18
ATOM     18  C   UNL     1      16.962  30.020  70.734  1.00  0.00    -0.000 C 
BRANCH  18  19
ATOM     19  C   UNL     1      18.184  30.947  70.619  1.00  0.00    -0.000 C 
BRANCH  19  20
ATOM     20  C   UNL     1      19.133  30.549  69.476  1.00  0.00    -0.000 C 
BRANCH  20  21
ATOM     21  C   UNL     1      18.557  30.882  68.090  1.00  0.00    -0.000 C 
BRANCH  21  22
ATOM     22  C   UNL     1      19.498  30.463  66.949  1.00  0.00    -0.000 C 
BRANCH  22  23
ATOM     23  C   UNL     1      18.911  30.844  65.585  1.00  0.00    -0.000 C 
BRANCH  23  24
ATOM     24  C   UNL     1      17.382  30.930  65.646  1.00  0.00    -0.000 C 
BRANCH  24  25
ATOM     25  C   UNL     1      16.752  30.513  64.313  1.00  0.00    -0.003 C 
ATOM     26  C   UNL     1      15.245  30.311  64.454  1.00  0.00     0.004 C 
ENDBRANCH  24  25
ENDBRANCH  23  24
ENDBRANCH  22  23
ENDBRANCH  21  22
ENDBRANCH  20  21
ENDBRANCH  19  20
ENDBRANCH  18  19
ENDBRANCH  17  18
ENDBRANCH  16  17
ENDBRANCH  15  16
ENDBRANCH   1  15
TORSDOF 22
ENDMDL
MODEL 6
REMARK VINA RESULT:    -4.482      3.090      7.441
REMARK INTER + INTRA:         -13.691
REMARK INTER:                  -9.800
REMARK INTRA:                  -3.891
REMARK UNBOUND:                -3.444
REMARK SMILES CCCCCCCCCCCCCCCCCCCCCCCC(=O)[O-]
REMARK SMILES IDX 13 1 14 2 15 3 16 4 17 5 18 6 19 7 20 8 21 9 22 10 23 11
REMARK SMILES IDX 24 12 25 13 26 14 12 15 11 16 10 17 9 18 8 19 7 20 6 21 5 22
REMARK SMILES IDX 4 23 3 24 2 25 1 26
REMARK H PARENT
REMARK Flexibility Score: inf
ROOT
ATOM      1  C   UNL     1      15.813  32.362  68.238  1.00  0.00     0.000 C 
ENDROOT
BRANCH   1   2
ATOM      2  C   UNL     1      15.606  30.904  67.786  1.00  0.00     0.000 C 
BRANCH   2   3
ATOM      3  C   UNL     1      14.736  30.050  68.728  1.00  0.00     0.000 C 
BRANCH   3   4
ATOM      4  C   UNL     1      14.784  30.524  70.188  1.00  0.00     0.000 C 
BRANCH   4   5
ATOM      5  C   UNL     1      15.150  29.370  71.130  1.00  0.00     0.000 C 
BRANCH   5   6
ATOM      6  C   UNL     1      16.587  29.518  71.649  1.00  0.00     0.000 C 
BRANCH   6   7
ATOM      7  C   UNL     1      17.176  30.915  71.390  1.00  0.00     0.000 C 
BRANCH   7   8
ATOM      8  C   UNL     1      18.580  30.882  70.748  1.00  0.00     0.000 C 
BRANCH   8   9
ATOM      9  C   UNL     1      18.652  29.899  69.566  1.00  0.00     0.000 C 
BRANCH   9  10
ATOM     10  C   UNL     1      19.593  30.378  68.449  1.00  0.00     0.006 C 
BRANCH  10  11
ATOM     11  C   UNL     1      19.326  31.830  68.032  1.00  0.00     0.053 C 
BRANCH  11  12
ATOM     12  C   UNL     1      19.235  31.934  66.542  1.00  0.00     0.041 C 
ATOM     13  O   UNL     1      18.608  31.063  65.882  1.00  0.00    -0.550 OA
ATOM     14  O   UNL     1      19.885  32.966  65.877  1.00  0.00    -0.550 OA
ENDBRANCH  11  12
ENDBRANCH  10  11
ENDBRANCH   9  10
ENDBRANCH   8   9
ENDBRANCH   7   8
ENDBRANCH   6   7
ENDBRANCH   5   6
ENDBRANCH   4   5
ENDBRANCH   3   4
ENDBRANCH   2   3
ENDBRANCH   1   2
BRANCH   1  15
ATOM     15  C   UNL     1      15.788  33.360  67.067  1.00  0.00     0.000 C 
BRANCH  15  16
ATOM     16  C   UNL     1      14.374  33.872  66.755  1.00  0.00     0.000 C 
BRANCH  16  17
ATOM     17  C   UNL     1      13.457  33.862  67.992  1.00  0.00     0.000 C 
BRANCH  17  18
ATOM     18  C   UNL     1      12.206  32.983  67.788  1.00  0.00    -0.000 C 
BRANCH  18  19
ATOM     19  C   UNL     1      12.329  31.989  66.620  1.00  0.00    -0.000 C 
BRANCH  19  20
ATOM     20  C   UNL     1      11.381  30.786  66.754  1.00  0.00    -0.000 C 
BRANCH  20  21
ATOM     21  C   UNL     1      10.696  30.727  68.129  1.00  0.00    -0.000 C 
BRANCH  21  22
ATOM     22  C   UNL     1       9.167  30.612  68.017  1.00  0.00    -0.000 C 
BRANCH  22  23
ATOM     23  C   UNL     1       8.722  30.604  66.550  1.00  0.00    -0.000 C 
BRANCH  23  24
ATOM     24  C   UNL     1       7.827  31.808  66.237  1.00  0.00    -0.000 C 
BRANCH  24  25
ATOM     25  C   UNL     1       8.651  33.095  66.132  1.00  0.00    -0.003 C 
ATOM     26  C   UNL     1       7.808  34.321  66.474  1.00  0.00     0.004 C 
ENDBRANCH  24  25
ENDBRANCH  23  24
ENDBRANCH  22  23
ENDBRANCH  21  22
ENDBRANCH  20  21
ENDBRANCH  19  20
ENDBRANCH  18  19
ENDBRANCH  17  18
ENDBRANCH  16  17
ENDBRANCH  15  16
ENDBRANCH   1  15
TORSDOF 22
ENDMDL
MODEL 7
REMARK VINA RESULT:    -4.477      1.141      4.927
REMARK INTER + INTRA:         -13.678
REMARK INTER:                 -10.212
REMARK INTRA:                  -3.466
REMARK UNBOUND:                -3.444
REMARK SMILES CCCCCCCCCCCCCCCCCCCCCCCC(=O)[O-]
REMARK SMILES IDX 13 1 14 2 15 3 16 4 17 5 18 6 19 7 20 8 21 9 22 10 23 11
REMARK SMILES IDX 24 12 25 13 26 14 12 15 11 16 10 17 9 18 8 19 7 20 6 21 5 22
REMARK SMILES IDX 4 23 3 24 2 25 1 26
REMARK H PARENT
REMARK Flexibility Score: inf
ROOT
ATOM      1  C   UNL     1      18.487  31.179  70.349  1.00  0.00     0.000 C 
ENDROOT
BRANCH   1   2
ATOM      2  C   UNL     1      17.253  30.666  71.115  1.00  0.00     0.000 C 
BRANCH   2   3
ATOM      3  C   UNL     1      15.899  30.980  70.450  1.00  0.00     0.000 C 
BRANCH   3   4
ATOM      4  C   UNL     1      14.916  29.802  70.500  1.00  0.00     0.000 C 
BRANCH   4   5
ATOM      5  C   UNL     1      14.354  29.493  69.106  1.00  0.00     0.000 C 
BRANCH   5   6
ATOM      6  C   UNL     1      15.381  29.821  68.014  1.00  0.00     0.000 C 
BRANCH   6   7
ATOM      7  C   UNL     1      14.802  30.696  66.890  1.00  0.00     0.000 C 
BRANCH   7   8
ATOM      8  C   UNL     1      15.048  32.206  67.094  1.00  0.00     0.000 C 
BRANCH   8   9
ATOM      9  C   UNL     1      13.768  33.035  66.883  1.00  0.00     0.000 C 
BRANCH   9  10
ATOM     10  C   UNL     1      13.093  33.435  68.204  1.00  0.00     0.006 C 
BRANCH  10  11
ATOM     11  C   UNL     1      12.081  32.392  68.692  1.00  0.00     0.053 C 
BRANCH  11  12
ATOM     12  C   UNL     1      11.209  31.943  67.562  1.00  0.00     0.041 C 
ATOM     13  O   UNL     1      10.432  32.758  66.998  1.00  0.00    -0.550 OA
ATOM     14  O   UNL     1      11.219  30.612  67.163  1.00  0.00    -0.550 OA
ENDBRANCH  11  12
ENDBRANCH  10  11
ENDBRANCH   9  10
ENDBRANCH   8   9
ENDBRANCH   7   8
ENDBRANCH   6   7
ENDBRANCH   5   6
ENDBRANCH   4   5
ENDBRANCH   3   4
ENDBRANCH   2   3
ENDBRANCH   1   2
BRANCH   1  15
ATOM     15  C   UNL     1      19.769  30.399  70.691  1.00  0.00     0.000 C 
BRANCH  15  16
ATOM     16  C   UNL     1      20.452  29.808  69.448  1.00  0.00     0.000 C 
BRANCH  16  17
ATOM     17  C   UNL     1      19.441  29.325  68.392  1.00  0.00     0.000 C 
BRANCH  17  18
ATOM     18  C   UNL     1      19.673  29.981  67.015  1.00  0.00    -0.000 C 
BRANCH  18  19
ATOM     19  C   UNL     1      18.603  31.018  66.632  1.00  0.00    -0.000 C 
BRANCH  19  20
ATOM     20  C   UNL     1      19.124  32.464  66.681  1.00  0.00    -0.000 C 
BRANCH  20  21
ATOM     21  C   UNL     1      17.992  33.501  66.602  1.00  0.00    -0.000 C 
BRANCH  21  22
ATOM     22  C   UNL     1      18.221  34.533  65.486  1.00  0.00    -0.000 C 
BRANCH  22  23
ATOM     23  C   UNL     1      17.740  35.924  65.917  1.00  0.00    -0.000 C 
BRANCH  23  24
ATOM     24  C   UNL     1      16.210  36.009  65.898  1.00  0.00    -0.000 C 
BRANCH  24  25
ATOM     25  C   UNL     1      15.657  36.307  67.296  1.00  0.00    -0.003 C 
ATOM     26  C   UNL     1      14.195  36.741  67.232  1.00  0.00     0.004 C 
ENDBRANCH  24  25
ENDBRANCH  23  24
ENDBRANCH  22  23
ENDBRANCH  21  22
ENDBRANCH  20  21
ENDBRANCH  19  20
ENDBRANCH  18  19
ENDBRANCH  17  18
ENDBRANCH  16  17
ENDBRANCH  15  16
ENDBRANCH   1  15
TORSDOF 22
ENDMDL
MODEL 8
REMARK VINA RESULT:    -4.467      3.111      5.232
REMARK INTER + INTRA:         -13.657
REMARK INTER:                 -10.580
REMARK INTRA:                  -3.077
REMARK UNBOUND:                -3.444
REMARK SMILES CCCCCCCCCCCCCCCCCCCCCCCC(=O)[O-]
REMARK SMILES IDX 13 1 14 2 15 3 16 4 17 5 18 6 19 7 20 8 21 9 22 10 23 11
REMARK SMILES IDX 24 12 25 13 26 14 12 15 11 16 10 17 9 18 8 19 7 20 6 21 5 22
REMARK SMILES IDX 4 23 3 24 2 25 1 26
REMARK H PARENT
REMARK Flexibility Score: inf
ROOT
ATOM      1  C   UNL     1      15.459  35.880  66.196  1.00  0.00     0.000 C 
ENDROOT
BRANCH   1   2
ATOM      2  C   UNL     1      15.105  35.347  67.598  1.00  0.00     0.000 C 
BRANCH   2   3
ATOM      3  C   UNL     1      13.632  34.936  67.783  1.00  0.00     0.000 C 
BRANCH   3   4
ATOM      4  C   UNL     1      13.466  33.484  68.255  1.00  0.00     0.000 C 
BRANCH   4   5
ATOM      5  C   UNL     1      12.240  32.830  67.605  1.00  0.00     0.000 C 
BRANCH   5   6
ATOM      6  C   UNL     1      12.609  31.486  66.961  1.00  0.00     0.000 C 
BRANCH   6   7
ATOM      7  C   UNL     1      13.329  31.647  65.611  1.00  0.00     0.000 C 
BRANCH   7   8
ATOM      8  C   UNL     1      14.846  31.368  65.684  1.00  0.00     0.000 C 
BRANCH   8   9
ATOM      9  C   UNL     1      15.215  30.014  65.051  1.00  0.00     0.000 C 
BRANCH   9  10
ATOM     10  C   UNL     1      15.992  30.164  63.734  1.00  0.00     0.006 C 
BRANCH  10  11
ATOM     11  C   UNL     1      15.196  29.674  62.518  1.00  0.00     0.053 C 
BRANCH  11  12
ATOM     12  C   UNL     1      16.037  29.747  61.283  1.00  0.00     0.041 C 
ATOM     13  O   UNL     1      16.632  30.816  60.982  1.00  0.00    -0.550 OA
ATOM     14  O   UNL     1      16.124  28.650  60.436  1.00  0.00    -0.550 OA
ENDBRANCH  11  12
ENDBRANCH  10  11
ENDBRANCH   9  10
ENDBRANCH   8   9
ENDBRANCH   7   8
ENDBRANCH   6   7
ENDBRANCH   5   6
ENDBRANCH   4   5
ENDBRANCH   3   4
ENDBRANCH   2   3
ENDBRANCH   1   2
BRANCH   1  15
ATOM     15  C   UNL     1      16.949  35.708  65.851  1.00  0.00     0.000 C 
BRANCH  15  16
ATOM     16  C   UNL     1      17.581  34.492  66.544  1.00  0.00     0.000 C 
BRANCH  16  17
ATOM     17  C   UNL     1      18.679  33.830  65.690  1.00  0.00     0.000 C 
BRANCH  17  18
ATOM     18  C   UNL     1      18.366  32.353  65.376  1.00  0.00    -0.000 C 
BRANCH  18  19
ATOM     19  C   UNL     1      19.234  31.354  66.160  1.00  0.00    -0.000 C 
BRANCH  19  20
ATOM     20  C   UNL     1      18.418  30.486  67.133  1.00  0.00    -0.000 C 
BRANCH  20  21
ATOM     21  C   UNL     1      17.968  31.264  68.380  1.00  0.00    -0.000 C 
BRANCH  21  22
ATOM     22  C   UNL     1      16.439  31.287  68.536  1.00  0.00    -0.000 C 
BRANCH  22  23
ATOM     23  C   UNL     1      16.038  31.295  70.016  1.00  0.00    -0.000 C 
BRANCH  23  24
ATOM     24  C   UNL     1      14.961  30.242  70.301  1.00  0.00    -0.000 C 
BRANCH  24  25
ATOM     25  C   UNL     1      15.588  28.931  70.787  1.00  0.00    -0.003 C 
ATOM     26  C   UNL     1      14.824  28.361  71.980  1.00  0.00     0.004 C 
ENDBRANCH  24  25
ENDBRANCH  23  24
ENDBRANCH  22  23
ENDBRANCH  21  22
ENDBRANCH  20  21
ENDBRANCH  19  20
ENDBRANCH  18  19
ENDBRANCH  17  18
ENDBRANCH  16  17
ENDBRANCH  15  16
ENDBRANCH   1  15
TORSDOF 22
ENDMDL
MODEL 9
REMARK VINA RESULT:    -4.439      3.618      7.088
REMARK INTER + INTRA:         -13.592
REMARK INTER:                 -10.268
REMARK INTRA:                  -3.323
REMARK UNBOUND:                -3.444
REMARK SMILES CCCCCCCCCCCCCCCCCCCCCCCC(=O)[O-]
REMARK SMILES IDX 13 1 14 2 15 3 16 4 17 5 18 6 19 7 20 8 21 9 22 10 23 11
REMARK SMILES IDX 24 12 25 13 26 14 12 15 11 16 10 17 9 18 8 19 7 20 6 21 5 22
REMARK SMILES IDX 4 23 3 24 2 25 1 26
REMARK H PARENT
REMARK Flexibility Score: inf
ROOT
ATOM      1  C   UNL     1      14.621  36.273  67.269  1.00  0.00     0.000 C 
ENDROOT
BRANCH   1   2
ATOM      2  C   UNL     1      13.726  35.178  67.881  1.00  0.00     0.000 C 
BRANCH   2   3
ATOM      3  C   UNL     1      14.273  33.745  67.753  1.00  0.00     0.000 C 
BRANCH   3   4
ATOM      4  C   UNL     1      13.233  32.748  67.219  1.00  0.00     0.000 C 
BRANCH   4   5
ATOM      5  C   UNL     1      13.683  32.145  65.882  1.00  0.00     0.000 C 
BRANCH   5   6
ATOM      6  C   UNL     1      14.069  30.669  66.046  1.00  0.00     0.000 C 
BRANCH   6   7
ATOM      7  C   UNL     1      15.476  30.354  65.512  1.00  0.00     0.000 C 
BRANCH   7   8
ATOM      8  C   UNL     1      16.531  31.415  65.893  1.00  0.00     0.000 C 
BRANCH   8   9
ATOM      9  C   UNL     1      17.968  30.897  65.697  1.00  0.00     0.000 C 
BRANCH   9  10
ATOM     10  C   UNL     1      18.635  30.478  67.016  1.00  0.00     0.006 C 
BRANCH  10  11
ATOM     11  C   UNL     1      17.952  31.089  68.246  1.00  0.00     0.053 C 
BRANCH  11  12
ATOM     12  C   UNL     1      18.874  31.056  69.424  1.00  0.00     0.041 C 
ATOM     13  O   UNL     1      18.431  31.272  70.583  1.00  0.00    -0.550 OA
ATOM     14  O   UNL     1      20.233  30.837  69.236  1.00  0.00    -0.550 OA
ENDBRANCH  11  12
ENDBRANCH  10  11
ENDBRANCH   9  10
ENDBRANCH   8   9
ENDBRANCH   7   8
ENDBRANCH   6   7
ENDBRANCH   5   6
ENDBRANCH   4   5
ENDBRANCH   3   4
ENDBRANCH   2   3
ENDBRANCH   1   2
BRANCH   1  15
ATOM     15  C   UNL     1      15.381  35.793  66.020  1.00  0.00     0.000 C 
BRANCH  15  16
ATOM     16  C   UNL     1      16.894  36.049  66.113  1.00  0.00     0.000 C 
BRANCH  16  17
ATOM     17  C   UNL     1      17.704  34.747  66.257  1.00  0.00     0.000 C 
BRANCH  17  18
ATOM     18  C   UNL     1      18.945  34.725  65.341  1.00  0.00    -0.000 C 
BRANCH  18  19
ATOM     19  C   UNL     1      20.090  33.842  65.867  1.00  0.00    -0.000 C 
BRANCH  19  20
ATOM     20  C   UNL     1      20.311  33.985  67.382  1.00  0.00    -0.000 C 
BRANCH  20  21
ATOM     21  C   UNL     1      21.535  34.852  67.719  1.00  0.00    -0.000 C 
BRANCH  21  22
ATOM     22  C   UNL     1      22.330  35.256  66.467  1.00  0.00    -0.000 C 
BRANCH  22  23
ATOM     23  C   UNL     1      22.725  36.736  66.521  1.00  0.00    -0.000 C 
BRANCH  23  24
ATOM     24  C   UNL     1      21.587  37.591  67.090  1.00  0.00    -0.000 C 
BRANCH  24  25
ATOM     25  C   UNL     1      20.575  37.958  66.000  1.00  0.00    -0.003 C 
ATOM     26  C   UNL     1      20.766  39.397  65.530  1.00  0.00     0.004 C 
ENDBRANCH  24  25
ENDBRANCH  23  24
ENDBRANCH  22  23
ENDBRANCH  21  22
ENDBRANCH  20  21
ENDBRANCH  19  20
ENDBRANCH  18  19
ENDBRANCH  17  18
ENDBRANCH  16  17
ENDBRANCH  15  16
ENDBRANCH   1  15
TORSDOF 22
ENDMDL
