MODEL 1
REMARK VINA RESULT:    -4.667      0.000      0.000
REMARK INTER + INTRA:          -5.166
REMARK INTER:                  -5.621
REMARK INTRA:                   0.456
REMARK UNBOUND:                 0.456
REMARK SMILES O=c1c(O)c(-c2ccc(O)c(O)c2)oc2cc(O)cc(O)c12
REMARK SMILES IDX 5 1 3 2 2 3 1 4 22 5 20 6 19 7 17 8 16 9 15 10 14 11 6 12
REMARK SMILES IDX 7 13 8 14 9 15 13 16 11 17 10 18 12 20 4 22 21 24 18 26
REMARK H PARENT 10 19 12 21 4 23 21 25 18 27
REMARK Flexibility Score: inf
ROOT
ATOM      1  C   UNL     1      10.894 -15.689  10.699  1.00  0.00     0.180 A 
ATOM      2  C   UNL     1      10.278 -15.006   9.637  1.00  0.00     0.208 A 
ATOM      3  C   UNL     1      10.053 -15.684   8.429  1.00  0.00     0.238 A 
ATOM      4  O   UNL     1       9.452 -15.084   7.500  1.00  0.00    -0.285 OA
ATOM      5  C   UNL     1      10.462 -17.033   8.292  1.00  0.00     0.111 A 
ATOM      6  C   UNL     1      10.321 -17.806   7.100  1.00  0.00     0.134 A 
ATOM      7  C   UNL     1      10.640 -19.169   7.120  1.00  0.00     0.093 A 
ATOM      8  C   UNL     1      11.159 -19.772   8.269  1.00  0.00     0.123 A 
ATOM      9  C   UNL     1      11.355 -19.011   9.419  1.00  0.00     0.094 A 
ATOM     10  C   UNL     1      11.012 -17.657   9.441  1.00  0.00     0.146 A 
ATOM     11  O   UNL     1      11.206 -16.973  10.562  1.00  0.00    -0.452 OA
ENDROOT
BRANCH   1  12
ATOM     12  C   UNL     1      11.187 -15.034  11.994  1.00  0.00     0.025 A 
ATOM     13  C   UNL     1      11.714 -15.793  13.049  1.00  0.00     0.016 A 
ATOM     14  C   UNL     1      12.017 -15.191  14.273  1.00  0.00     0.051 A 
ATOM     15  C   UNL     1      11.812 -13.820  14.456  1.00  0.00     0.157 A 
ATOM     16  C   UNL     1      11.001 -13.651  12.173  1.00  0.00     0.062 A 
ATOM     17  C   UNL     1      11.306 -13.044  13.401  1.00  0.00     0.158 A 
BRANCH  15  18
ATOM     18  O   UNL     1      12.122 -13.248  15.689  1.00  0.00    -0.504 OA
ATOM     19  H   UNL     1      11.940 -12.271  15.890  1.00  0.00     0.293 HD
ENDBRANCH  15  18
BRANCH  17  20
ATOM     20  O   UNL     1      11.113 -11.674  13.572  1.00  0.00    -0.504 OA
ATOM     21  H   UNL     1      11.049 -11.044  12.781  1.00  0.00     0.293 HD
ENDBRANCH  17  20
ENDBRANCH   1  12
BRANCH   2  22
ATOM     22  O   UNL     1       9.862 -13.681   9.801  1.00  0.00    -0.502 OA
ATOM     23  H   UNL     1       8.892 -13.429   9.950  1.00  0.00     0.293 HD
ENDBRANCH   2  22
BRANCH   6  24
ATOM     24  O   UNL     1       9.900 -17.281   5.875  1.00  0.00    -0.507 OA
ATOM     25  H   UNL     1      10.507 -16.851   5.194  1.00  0.00     0.293 HD
ENDBRANCH   6  24
BRANCH   8  26
ATOM     26  O   UNL     1      11.489 -21.125   8.275  1.00  0.00    -0.508 OA
ATOM     27  H   UNL     1      10.790 -21.842   8.113  1.00  0.00     0.293 HD
ENDBRANCH   8  26
TORSDOF 6
ENDMDL
MODEL 2
REMARK VINA RESULT:    -4.617     20.115     22.308
REMARK INTER + INTRA:          -5.106
REMARK INTER:                  -4.990
REMARK INTRA:                  -0.116
REMARK UNBOUND:                 0.456
REMARK SMILES O=c1c(O)c(-c2ccc(O)c(O)c2)oc2cc(O)cc(O)c12
REMARK SMILES IDX 5 1 3 2 2 3 1 4 22 5 20 6 19 7 17 8 16 9 15 10 14 11 6 12
REMARK SMILES IDX 7 13 8 14 9 15 13 16 11 17 10 18 12 20 4 22 21 24 18 26
REMARK H PARENT 10 19 12 21 4 23 21 25 18 27
REMARK Flexibility Score: inf
ROOT
ATOM      1  C   UNL     1      -6.248  -8.592  20.942  1.00  0.00     0.180 A 
ATOM      2  C   UNL     1      -5.349  -9.590  20.530  1.00  0.00     0.208 A 
ATOM      3  C   UNL     1      -5.121 -10.691  21.370  1.00  0.00     0.238 A 
ATOM      4  O   UNL     1      -4.356 -11.609  20.972  1.00  0.00    -0.285 OA
ATOM      5  C   UNL     1      -5.782 -10.773  22.620  1.00  0.00     0.111 A 
ATOM      6  C   UNL     1      -5.596 -11.823  23.569  1.00  0.00     0.134 A 
ATOM      7  C   UNL     1      -6.401 -11.869  24.713  1.00  0.00     0.093 A 
ATOM      8  C   UNL     1      -7.340 -10.868  24.976  1.00  0.00     0.123 A 
ATOM      9  C   UNL     1      -7.486  -9.808  24.085  1.00  0.00     0.094 A 
ATOM     10  C   UNL     1      -6.723  -9.753  22.916  1.00  0.00     0.146 A 
ATOM     11  O   UNL     1      -6.903  -8.730  22.089  1.00  0.00    -0.452 OA
ENDROOT
BRANCH   1  12
ATOM     12  C   UNL     1      -6.521  -7.390  20.122  1.00  0.00     0.025 A 
ATOM     13  C   UNL     1      -7.843  -7.083  19.764  1.00  0.00     0.016 A 
ATOM     14  C   UNL     1      -8.125  -5.942  19.009  1.00  0.00     0.051 A 
ATOM     15  C   UNL     1      -7.095  -5.084  18.612  1.00  0.00     0.157 A 
ATOM     16  C   UNL     1      -5.488  -6.515  19.740  1.00  0.00     0.062 A 
ATOM     17  C   UNL     1      -5.770  -5.368  18.982  1.00  0.00     0.158 A 
BRANCH  15  18
ATOM     18  O   UNL     1      -7.407  -3.954  17.857  1.00  0.00    -0.504 OA
ATOM     19  H   UNL     1      -7.474  -3.985  16.846  1.00  0.00     0.293 HD
ENDBRANCH  15  18
BRANCH  17  20
ATOM     20  O   UNL     1      -4.740  -4.509  18.603  1.00  0.00    -0.504 OA
ATOM     21  H   UNL     1      -4.693  -3.554  18.939  1.00  0.00     0.293 HD
ENDBRANCH  17  20
ENDBRANCH   1  12
BRANCH   2  22
ATOM     22  O   UNL     1      -4.723  -9.501  19.283  1.00  0.00    -0.502 OA
ATOM     23  H   UNL     1      -5.049 -10.013  18.472  1.00  0.00     0.293 HD
ENDBRANCH   2  22
BRANCH   6  24
ATOM     24  O   UNL     1      -4.625 -12.820  23.447  1.00  0.00    -0.507 OA
ATOM     25  H   UNL     1      -3.991 -12.915  22.668  1.00  0.00     0.293 HD
ENDBRANCH   6  24
BRANCH   8  26
ATOM     26  O   UNL     1      -8.125 -10.914  26.125  1.00  0.00    -0.508 OA
ATOM     27  H   UNL     1      -7.712 -10.997  27.047  1.00  0.00     0.293 HD
ENDBRANCH   8  26
TORSDOF 6
ENDMDL
MODEL 3
REMARK VINA RESULT:    -4.591     20.395     22.235
REMARK INTER + INTRA:          -5.075
REMARK INTER:                  -4.800
REMARK INTRA:                  -0.275
REMARK UNBOUND:                 0.456
REMARK SMILES O=c1c(O)c(-c2ccc(O)c(O)c2)oc2cc(O)cc(O)c12
REMARK SMILES IDX 5 1 3 2 2 3 1 4 22 5 20 6 19 7 17 8 16 9 15 10 14 11 6 12
REMARK SMILES IDX 7 13 8 14 9 15 13 16 11 17 10 18 12 20 4 22 21 24 18 26
REMARK H PARENT 10 19 12 21 4 23 21 25 18 27
REMARK Flexibility Score: inf
ROOT
ATOM      1  C   UNL     1      -5.719 -11.818  23.919  1.00  0.00     0.180 A 
ATOM      2  C   UNL     1      -6.652 -11.066  24.653  1.00  0.00     0.208 A 
ATOM      3  C   UNL     1      -7.224  -9.927  24.063  1.00  0.00     0.238 A 
ATOM      4  O   UNL     1      -8.100  -9.289  24.705  1.00  0.00    -0.285 OA
ATOM      5  C   UNL     1      -6.844  -9.545  22.754  1.00  0.00     0.111 A 
ATOM      6  C   UNL     1      -7.329  -8.387  22.074  1.00  0.00     0.134 A 
ATOM      7  C   UNL     1      -6.986  -8.179  20.734  1.00  0.00     0.093 A 
ATOM      8  C   UNL     1      -6.121  -9.052  20.067  1.00  0.00     0.123 A 
ATOM      9  C   UNL     1      -5.595 -10.152  20.741  1.00  0.00     0.094 A 
ATOM     10  C   UNL     1      -5.949 -10.406  22.068  1.00  0.00     0.146 A 
ATOM     11  O   UNL     1      -5.433 -11.472  22.669  1.00  0.00    -0.452 OA
ENDROOT
BRANCH   1  12
ATOM     12  C   UNL     1      -5.055 -13.016  24.481  1.00  0.00     0.025 A 
ATOM     13  C   UNL     1      -5.749 -14.234  24.524  1.00  0.00     0.016 A 
ATOM     14  C   UNL     1      -5.134 -15.382  25.031  1.00  0.00     0.051 A 
ATOM     15  C   UNL     1      -3.813 -15.333  25.489  1.00  0.00     0.157 A 
ATOM     16  C   UNL     1      -3.720 -12.973  24.922  1.00  0.00     0.062 A 
ATOM     17  C   UNL     1      -3.101 -14.124  25.430  1.00  0.00     0.158 A 
BRANCH  15  18
ATOM     18  O   UNL     1      -3.228 -16.494  25.991  1.00  0.00    -0.504 OA
ATOM     19  H   UNL     1      -2.322 -16.486  26.445  1.00  0.00     0.293 HD
ENDBRANCH  15  18
BRANCH  17  20
ATOM     20  O   UNL     1      -1.779 -14.072  25.872  1.00  0.00    -0.504 OA
ATOM     21  H   UNL     1      -1.018 -14.447  25.317  1.00  0.00     0.293 HD
ENDBRANCH  17  20
ENDBRANCH   1  12
BRANCH   2  22
ATOM     22  O   UNL     1      -7.030 -11.473  25.936  1.00  0.00    -0.502 OA
ATOM     23  H   UNL     1      -7.334 -10.819  26.647  1.00  0.00     0.293 HD
ENDBRANCH   2  22
BRANCH   6  24
ATOM     24  O   UNL     1      -8.124  -7.406  22.675  1.00  0.00    -0.507 OA
ATOM     25  H   UNL     1      -9.122  -7.473  22.802  1.00  0.00     0.293 HD
ENDBRANCH   6  24
BRANCH   8  26
ATOM     26  O   UNL     1      -5.772  -8.829  18.738  1.00  0.00    -0.508 OA
ATOM     27  H   UNL     1      -5.811  -7.903  18.327  1.00  0.00     0.293 HD
ENDBRANCH   8  26
TORSDOF 6
ENDMDL
MODEL 4
REMARK VINA RESULT:    -4.224     20.645     22.842
REMARK INTER + INTRA:          -4.633
REMARK INTER:                  -4.334
REMARK INTRA:                  -0.299
REMARK UNBOUND:                 0.456
REMARK SMILES O=c1c(O)c(-c2ccc(O)c(O)c2)oc2cc(O)cc(O)c12
REMARK SMILES IDX 5 1 3 2 2 3 1 4 22 5 20 6 19 7 17 8 16 9 15 10 14 11 6 12
REMARK SMILES IDX 7 13 8 14 9 15 13 16 11 17 10 18 12 20 4 22 21 24 18 26
REMARK H PARENT 10 19 12 21 4 23 21 25 18 27
REMARK Flexibility Score: inf
ROOT
ATOM      1  C   UNL     1      -5.693 -11.822  23.973  1.00  0.00     0.180 A 
ATOM      2  C   UNL     1      -5.840 -11.606  22.593  1.00  0.00     0.208 A 
ATOM      3  C   UNL     1      -6.491 -10.443  22.151  1.00  0.00     0.238 A 
ATOM      4  O   UNL     1      -6.572 -10.229  20.913  1.00  0.00    -0.285 OA
ATOM      5  C   UNL     1      -7.000  -9.518  23.094  1.00  0.00     0.111 A 
ATOM      6  C   UNL     1      -7.711  -8.327  22.760  1.00  0.00     0.134 A 
ATOM      7  C   UNL     1      -8.053  -7.420  23.770  1.00  0.00     0.093 A 
ATOM      8  C   UNL     1      -7.767  -7.693  25.111  1.00  0.00     0.123 A 
ATOM      9  C   UNL     1      -7.126  -8.881  25.452  1.00  0.00     0.094 A 
ATOM     10  C   UNL     1      -6.740  -9.789  24.463  1.00  0.00     0.146 A 
ATOM     11  O   UNL     1      -6.122 -10.904  24.832  1.00  0.00    -0.452 OA
ENDROOT
BRANCH   1  12
ATOM     12  C   UNL     1      -5.041 -13.036  24.516  1.00  0.00     0.025 A 
ATOM     13  C   UNL     1      -5.767 -14.234  24.591  1.00  0.00     0.016 A 
ATOM     14  C   UNL     1      -5.165 -15.396  25.081  1.00  0.00     0.051 A 
ATOM     15  C   UNL     1      -3.828 -15.383  25.489  1.00  0.00     0.157 A 
ATOM     16  C   UNL     1      -3.690 -13.028  24.907  1.00  0.00     0.062 A 
ATOM     17  C   UNL     1      -3.084 -14.194  25.398  1.00  0.00     0.158 A 
BRANCH  15  18
ATOM     18  O   UNL     1      -3.256 -16.557  25.975  1.00  0.00    -0.504 OA
ATOM     19  H   UNL     1      -2.872 -17.264  25.358  1.00  0.00     0.293 HD
ENDBRANCH  15  18
BRANCH  17  20
ATOM     20  O   UNL     1      -1.747 -14.177  25.789  1.00  0.00    -0.504 OA
ATOM     21  H   UNL     1      -1.399 -14.784  26.522  1.00  0.00     0.293 HD
ENDBRANCH  17  20
ENDBRANCH   1  12
BRANCH   2  22
ATOM     22  O   UNL     1      -5.312 -12.521  21.678  1.00  0.00    -0.502 OA
ATOM     23  H   UNL     1      -5.883 -13.217  21.212  1.00  0.00     0.293 HD
ENDBRANCH   2  22
BRANCH   6  24
ATOM     24  O   UNL     1      -8.125  -8.004  21.464  1.00  0.00    -0.507 OA
ATOM     25  H   UNL     1      -9.087  -7.933  21.169  1.00  0.00     0.293 HD
ENDBRANCH   6  24
BRANCH   8  26
ATOM     26  O   UNL     1      -8.125  -6.792  26.111  1.00  0.00    -0.508 OA
ATOM     27  H   UNL     1      -7.720  -6.843  27.039  1.00  0.00     0.293 HD
ENDBRANCH   8  26
TORSDOF 6
ENDMDL
MODEL 5
REMARK VINA RESULT:    -4.119     19.625     21.716
REMARK INTER + INTRA:          -4.506
REMARK INTER:                  -4.462
REMARK INTRA:                  -0.044
REMARK UNBOUND:                 0.456
REMARK SMILES O=c1c(O)c(-c2ccc(O)c(O)c2)oc2cc(O)cc(O)c12
REMARK SMILES IDX 5 1 3 2 2 3 1 4 22 5 20 6 19 7 17 8 16 9 15 10 14 11 6 12
REMARK SMILES IDX 7 13 8 14 9 15 13 16 11 17 10 18 12 20 4 22 21 24 18 26
REMARK H PARENT 10 19 12 21 4 23 21 25 18 27
REMARK Flexibility Score: inf
ROOT
ATOM      1  C   UNL     1      -6.115 -12.165  23.045  1.00  0.00     0.180 A 
ATOM      2  C   UNL     1      -7.070 -11.144  23.192  1.00  0.00     0.208 A 
ATOM      3  C   UNL     1      -6.967  -9.995  22.391  1.00  0.00     0.238 A 
ATOM      4  O   UNL     1      -7.856  -9.108  22.488  1.00  0.00    -0.285 OA
ATOM      5  C   UNL     1      -5.903  -9.874  21.465  1.00  0.00     0.111 A 
ATOM      6  C   UNL     1      -5.678  -8.737  20.631  1.00  0.00     0.134 A 
ATOM      7  C   UNL     1      -4.672  -8.782  19.660  1.00  0.00     0.093 A 
ATOM      8  C   UNL     1      -3.838  -9.896  19.536  1.00  0.00     0.123 A 
ATOM      9  C   UNL     1      -4.012 -10.987  20.385  1.00  0.00     0.094 A 
ATOM     10  C   UNL     1      -5.031 -10.987  21.340  1.00  0.00     0.146 A 
ATOM     11  O   UNL     1      -5.168 -12.051  22.121  1.00  0.00    -0.452 OA
ENDROOT
BRANCH   1  12
ATOM     12  C   UNL     1      -6.142 -13.394  23.871  1.00  0.00     0.025 A 
ATOM     13  C   UNL     1      -7.286 -14.206  23.862  1.00  0.00     0.016 A 
ATOM     14  C   UNL     1      -7.325 -15.381  24.617  1.00  0.00     0.051 A 
ATOM     15  C   UNL     1      -6.219 -15.769  25.380  1.00  0.00     0.157 A 
ATOM     16  C   UNL     1      -5.023 -13.796  24.621  1.00  0.00     0.062 A 
ATOM     17  C   UNL     1      -5.060 -14.976  25.379  1.00  0.00     0.158 A 
BRANCH  15  18
ATOM     18  O   UNL     1      -6.288 -16.945  26.125  1.00  0.00    -0.504 OA
ATOM     19  H   UNL     1      -6.080 -17.851  25.720  1.00  0.00     0.293 HD
ENDBRANCH  15  18
BRANCH  17  20
ATOM     20  O   UNL     1      -3.948 -15.364  26.125  1.00  0.00    -0.504 OA
ATOM     21  H   UNL     1      -3.004 -15.182  25.805  1.00  0.00     0.293 HD
ENDBRANCH  17  20
ENDBRANCH   1  12
BRANCH   2  22
ATOM     22  O   UNL     1      -8.125 -11.292  24.097  1.00  0.00    -0.502 OA
ATOM     23  H   UNL     1      -9.043 -11.614  23.814  1.00  0.00     0.293 HD
ENDBRANCH   2  22
BRANCH   6  24
ATOM     24  O   UNL     1      -6.394  -7.541  20.735  1.00  0.00    -0.507 OA
ATOM     25  H   UNL     1      -7.348  -7.467  21.056  1.00  0.00     0.293 HD
ENDBRANCH   6  24
BRANCH   8  26
ATOM     26  O   UNL     1      -2.829  -9.926  18.577  1.00  0.00    -0.508 OA
ATOM     27  H   UNL     1      -1.851  -9.980  18.838  1.00  0.00     0.293 HD
ENDBRANCH   8  26
TORSDOF 6
ENDMDL
MODEL 6
REMARK VINA RESULT:    -3.866      1.681      7.400
REMARK INTER + INTRA:          -4.202
REMARK INTER:                  -4.306
REMARK INTRA:                   0.104
REMARK UNBOUND:                 0.456
REMARK SMILES O=c1c(O)c(-c2ccc(O)c(O)c2)oc2cc(O)cc(O)c12
REMARK SMILES IDX 5 1 3 2 2 3 1 4 22 5 20 6 19 7 17 8 16 9 15 10 14 11 6 12
REMARK SMILES IDX 7 13 8 14 9 15 13 16 11 17 10 18 12 20 4 22 21 24 18 26
REMARK H PARENT 10 19 12 21 4 23 21 25 18 27
REMARK Flexibility Score: inf
ROOT
ATOM      1  C   UNL     1      11.495 -16.320  11.196  1.00  0.00     0.180 A 
ATOM      2  C   UNL     1      11.762 -17.126  12.315  1.00  0.00     0.208 A 
ATOM      3  C   UNL     1      11.819 -16.532  13.586  1.00  0.00     0.238 A 
ATOM      4  O   UNL     1      12.005 -17.268  14.591  1.00  0.00    -0.285 OA
ATOM      5  C   UNL     1      11.623 -15.136  13.721  1.00  0.00     0.111 A 
ATOM      6  C   UNL     1      11.698 -14.422  14.954  1.00  0.00     0.134 A 
ATOM      7  C   UNL     1      11.357 -13.065  14.988  1.00  0.00     0.093 A 
ATOM      8  C   UNL     1      11.008 -12.379  13.821  1.00  0.00     0.123 A 
ATOM      9  C   UNL     1      10.990 -13.055  12.603  1.00  0.00     0.094 A 
ATOM     10  C   UNL     1      11.290 -14.418  12.543  1.00  0.00     0.146 A 
ATOM     11  O   UNL     1      11.250 -15.025  11.363  1.00  0.00    -0.452 OA
ENDROOT
BRANCH   1  12
ATOM     12  C   UNL     1      11.444 -16.869   9.822  1.00  0.00     0.025 A 
ATOM     13  C   UNL     1      12.123 -16.207   8.788  1.00  0.00     0.016 A 
ATOM     14  C   UNL     1      12.106 -16.719   7.489  1.00  0.00     0.051 A 
ATOM     15  C   UNL     1      11.424 -17.907   7.205  1.00  0.00     0.157 A 
ATOM     16  C   UNL     1      10.776 -18.074   9.541  1.00  0.00     0.062 A 
ATOM     17  C   UNL     1      10.759 -18.591   8.236  1.00  0.00     0.158 A 
BRANCH  15  18
ATOM     18  O   UNL     1      11.423 -18.392   5.898  1.00  0.00    -0.504 OA
ATOM     19  H   UNL     1      10.647 -18.925   5.523  1.00  0.00     0.293 HD
ENDBRANCH  15  18
BRANCH  17  20
ATOM     20  O   UNL     1      10.090 -19.783   7.964  1.00  0.00    -0.504 OA
ATOM     21  H   UNL     1      10.252 -20.620   8.511  1.00  0.00     0.293 HD
ENDBRANCH  17  20
ENDBRANCH   1  12
BRANCH   2  22
ATOM     22  O   UNL     1      11.931 -18.506  12.164  1.00  0.00    -0.502 OA
ATOM     23  H   UNL     1      12.472 -19.063  12.814  1.00  0.00     0.293 HD
ENDBRANCH   2  22
BRANCH   6  24
ATOM     24  O   UNL     1      12.123 -14.989  16.159  1.00  0.00    -0.507 OA
ATOM     25  H   UNL     1      12.629 -15.858  16.239  1.00  0.00     0.293 HD
ENDBRANCH   6  24
BRANCH   8  26
ATOM     26  O   UNL     1      10.686 -11.026  13.861  1.00  0.00    -0.508 OA
ATOM     27  H   UNL     1      10.844 -10.419  13.064  1.00  0.00     0.293 HD
ENDBRANCH   8  26
TORSDOF 6
ENDMDL
MODEL 7
REMARK VINA RESULT:    -3.729     18.093     19.657
REMARK INTER + INTRA:          -4.037
REMARK INTER:                  -3.987
REMARK INTRA:                  -0.049
REMARK UNBOUND:                 0.456
REMARK SMILES O=c1c(O)c(-c2ccc(O)c(O)c2)oc2cc(O)cc(O)c12
REMARK SMILES IDX 5 1 3 2 2 3 1 4 22 5 20 6 19 7 17 8 16 9 15 10 14 11 6 12
REMARK SMILES IDX 7 13 8 14 9 15 13 16 11 17 10 18 12 20 4 22 21 24 18 26
REMARK H PARENT 10 19 12 21 4 23 21 25 18 27
REMARK Flexibility Score: inf
ROOT
ATOM      1  C   UNL     1      -4.311  -3.454   9.461  1.00  0.00     0.180 A 
ATOM      2  C   UNL     1      -4.034  -2.169   8.967  1.00  0.00     0.208 A 
ATOM      3  C   UNL     1      -3.092  -2.023   7.936  1.00  0.00     0.238 A 
ATOM      4  O   UNL     1      -2.888  -0.875   7.461  1.00  0.00    -0.285 OA
ATOM      5  C   UNL     1      -2.426  -3.162   7.424  1.00  0.00     0.111 A 
ATOM      6  C   UNL     1      -1.423  -3.128   6.408  1.00  0.00     0.134 A 
ATOM      7  C   UNL     1      -0.928  -4.328   5.886  1.00  0.00     0.093 A 
ATOM      8  C   UNL     1      -1.349  -5.562   6.389  1.00  0.00     0.123 A 
ATOM      9  C   UNL     1      -2.283  -5.604   7.422  1.00  0.00     0.094 A 
ATOM     10  C   UNL     1      -2.824  -4.424   7.938  1.00  0.00     0.146 A 
ATOM     11  O   UNL     1      -3.719  -4.511   8.914  1.00  0.00    -0.452 OA
ENDROOT
BRANCH   1  12
ATOM     12  C   UNL     1      -5.273  -3.686  10.562  1.00  0.00     0.025 A 
ATOM     13  C   UNL     1      -6.602  -3.258  10.420  1.00  0.00     0.016 A 
ATOM     14  C   UNL     1      -7.531  -3.484  11.438  1.00  0.00     0.051 A 
ATOM     15  C   UNL     1      -7.152  -4.154  12.606  1.00  0.00     0.157 A 
ATOM     16  C   UNL     1      -4.898  -4.377  11.728  1.00  0.00     0.062 A 
ATOM     17  C   UNL     1      -5.830  -4.607  12.751  1.00  0.00     0.158 A 
BRANCH  15  18
ATOM     18  O   UNL     1      -8.101  -4.363  13.606  1.00  0.00    -0.504 OA
ATOM     19  H   UNL     1      -9.014  -3.924  13.581  1.00  0.00     0.293 HD
ENDBRANCH  15  18
BRANCH  17  20
ATOM     20  O   UNL     1      -5.449  -5.287  13.906  1.00  0.00    -0.504 OA
ATOM     21  H   UNL     1      -4.720  -5.991  13.892  1.00  0.00     0.293 HD
ENDBRANCH  17  20
ENDBRANCH   1  12
BRANCH   2  22
ATOM     22  O   UNL     1      -4.719  -1.059   9.471  1.00  0.00    -0.502 OA
ATOM     23  H   UNL     1      -5.724  -1.051   9.598  1.00  0.00     0.293 HD
ENDBRANCH   2  22
BRANCH   6  24
ATOM     24  O   UNL     1      -0.867  -1.949   5.902  1.00  0.00    -0.507 OA
ATOM     25  H   UNL     1      -1.044  -1.580   4.979  1.00  0.00     0.293 HD
ENDBRANCH   6  24
BRANCH   8  26
ATOM     26  O   UNL     1      -0.839  -6.751   5.875  1.00  0.00    -0.508 OA
ATOM     27  H   UNL     1      -1.446  -7.468   5.494  1.00  0.00     0.293 HD
ENDBRANCH   8  26
TORSDOF 6
ENDMDL
