MODEL 1
REMARK VINA RESULT:    -4.509      0.000      0.000
REMARK INTER + INTRA:          -6.029
REMARK INTER:                  -5.432
REMARK INTRA:                  -0.597
REMARK UNBOUND:                -0.597
REMARK SMILES O=c1ccn([C@H]2O[C@@H](CO)[C@@H](O)[C@@H]2O)c(=O)[nH]1
REMARK SMILES IDX 6 1 13 2 11 3 8 4 7 5 5 6 3 7 4 8 2 9 17 10 1 11 15 12 16 14
REMARK SMILES IDX 14 15 12 17 9 19 10 20
REMARK H PARENT 17 13 14 16 12 18 10 21
REMARK Flexibility Score: inf
ROOT
ATOM      1  C   UNL     1     162.990 173.504 174.799  1.00  0.00     0.255 C 
ATOM      2  C   UNL     1     162.948 173.805 176.302  1.00  0.00     0.196 C 
ATOM      3  C   UNL     1     163.909 172.783 176.900  1.00  0.00     0.179 C 
ATOM      4  C   UNL     1     164.318 171.927 175.692  1.00  0.00     0.178 C 
ATOM      5  O   UNL     1     164.111 172.692 174.530  1.00  0.00    -0.347 OA
ENDROOT
BRANCH   1   6
ATOM      6  N   UNL     1     163.040 174.749 174.004  1.00  0.00    -0.271 N 
ATOM      7  C   UNL     1     164.020 176.908 173.640  1.00  0.00     0.090 A 
ATOM      8  C   UNL     1     163.921 175.728 174.371  1.00  0.00     0.099 A 
ATOM      9  C   UNL     1     163.214 177.066 172.518  1.00  0.00     0.253 A 
ATOM     10  N   UNL     1     162.357 176.076 172.158  1.00  0.00    -0.274 N 
ATOM     11  O   UNL     1     163.281 178.125 171.837  1.00  0.00    -0.269 OA
ATOM     12  C   UNL     1     162.268 174.925 172.879  1.00  0.00     0.330 A 
ATOM     13  H   UNL     1     161.759 176.199 171.307  1.00  0.00     0.175 HD
ATOM     14  O   UNL     1     161.472 174.023 172.497  1.00  0.00    -0.248 OA
ENDBRANCH   1   6
BRANCH   2  15
ATOM     15  O   UNL     1     161.646 173.622 176.795  1.00  0.00    -0.386 OA
ATOM     16  H   UNL     1     161.162 173.082 176.119  1.00  0.00     0.211 HD
ENDBRANCH   2  15
BRANCH   3  17
ATOM     17  O   UNL     1     165.002 173.408 177.533  1.00  0.00    -0.387 OA
ATOM     18  H   UNL     1     165.827 173.177 177.031  1.00  0.00     0.211 HD
ENDBRANCH   3  17
BRANCH   4  19
ATOM     19  C   UNL     1     165.753 171.382 175.737  1.00  0.00     0.191 C 
BRANCH  19  20
ATOM     20  O   UNL     1     166.649 172.287 175.151  1.00  0.00    -0.394 OA
ATOM     21  H   UNL     1     167.463 171.765 174.931  1.00  0.00     0.210 HD
ENDBRANCH  19  20
ENDBRANCH   4  19
TORSDOF 5
ENDMDL
MODEL 2
REMARK VINA RESULT:    -4.509      9.675     11.342
REMARK INTER + INTRA:          -6.028
REMARK INTER:                  -5.425
REMARK INTRA:                  -0.603
REMARK UNBOUND:                -0.597
REMARK SMILES O=c1ccn([C@H]2O[C@@H](CO)[C@@H](O)[C@@H]2O)c(=O)[nH]1
REMARK SMILES IDX 6 1 13 2 11 3 8 4 7 5 5 6 3 7 4 8 2 9 17 10 1 11 15 12 16 14
REMARK SMILES IDX 14 15 12 17 9 19 10 20
REMARK H PARENT 17 13 14 16 12 18 10 21
REMARK Flexibility Score: inf
ROOT
ATOM      1  C   UNL     1     173.496 173.034 174.792  1.00  0.00     0.255 C 
ATOM      2  C   UNL     1     173.792 173.057 176.296  1.00  0.00     0.196 C 
ATOM      3  C   UNL     1     172.757 172.101 176.880  1.00  0.00     0.179 C 
ATOM      4  C   UNL     1     171.902 171.713 175.665  1.00  0.00     0.178 C 
ATOM      5  O   UNL     1     172.674 171.924 174.507  1.00  0.00    -0.347 OA
ENDROOT
BRANCH   1   6
ATOM      6  N   UNL     1     174.743 172.980 174.000  1.00  0.00    -0.271 N 
ATOM      7  C   UNL     1     176.896 171.985 173.637  1.00  0.00     0.090 A 
ATOM      8  C   UNL     1     175.714 172.088 174.365  1.00  0.00     0.099 A 
ATOM      9  C   UNL     1     177.064 172.798 172.522  1.00  0.00     0.253 A 
ATOM     10  N   UNL     1     176.082 173.665 172.163  1.00  0.00    -0.274 N 
ATOM     11  O   UNL     1     178.125 172.727 171.844  1.00  0.00    -0.269 OA
ATOM     12  C   UNL     1     174.929 173.758 172.881  1.00  0.00     0.330 A 
ATOM     13  H   UNL     1     176.212 174.267 171.317  1.00  0.00     0.175 HD
ATOM     14  O   UNL     1     174.034 174.563 172.501  1.00  0.00    -0.248 OA
ENDBRANCH   1   6
BRANCH   2  15
ATOM     15  O   UNL     1     173.620 174.355 176.802  1.00  0.00    -0.386 OA
ATOM     16  H   UNL     1     172.720 174.380 177.217  1.00  0.00     0.211 HD
ENDBRANCH   2  15
BRANCH   3  17
ATOM     17  O   UNL     1     173.369 170.994 177.504  1.00  0.00    -0.387 OA
ATOM     18  H   UNL     1     172.724 170.605 178.150  1.00  0.00     0.211 HD
ENDBRANCH   3  17
BRANCH   4  19
ATOM     19  C   UNL     1     171.343 170.283 175.693  1.00  0.00     0.191 C 
BRANCH  19  20
ATOM     20  O   UNL     1     172.254 169.379 175.129  1.00  0.00    -0.394 OA
ATOM     21  H   UNL     1     172.250 168.581 175.718  1.00  0.00     0.210 HD
ENDBRANCH  19  20
ENDBRANCH   4  19
TORSDOF 5
ENDMDL
MODEL 3
REMARK VINA RESULT:    -4.476     18.727     20.683
REMARK INTER + INTRA:          -5.988
REMARK INTER:                  -5.385
REMARK INTRA:                  -0.603
REMARK UNBOUND:                -0.597
REMARK SMILES O=c1ccn([C@H]2O[C@@H](CO)[C@@H](O)[C@@H]2O)c(=O)[nH]1
REMARK SMILES IDX 6 1 13 2 11 3 8 4 7 5 5 6 3 7 4 8 2 9 17 10 1 11 15 12 16 14
REMARK SMILES IDX 14 15 12 17 9 19 10 20
REMARK H PARENT 17 13 14 16 12 18 10 21
REMARK Flexibility Score: inf
ROOT
ATOM      1  C   UNL     1     173.492 162.972 161.227  1.00  0.00     0.255 C 
ATOM      2  C   UNL     1     173.788 162.930 159.723  1.00  0.00     0.196 C 
ATOM      3  C   UNL     1     172.770 163.898 159.129  1.00  0.00     0.179 C 
ATOM      4  C   UNL     1     171.921 164.311 160.340  1.00  0.00     0.178 C 
ATOM      5  O   UNL     1     172.688 164.098 161.500  1.00  0.00    -0.347 OA
ENDROOT
BRANCH   1   6
ATOM      6  N   UNL     1     174.739 163.013 162.018  1.00  0.00    -0.271 N 
ATOM      7  C   UNL     1     176.901 163.988 162.385  1.00  0.00     0.090 A 
ATOM      8  C   UNL     1     175.718 163.898 161.656  1.00  0.00     0.099 A 
ATOM      9  C   UNL     1     177.062 163.171 163.497  1.00  0.00     0.253 A 
ATOM     10  N   UNL     1     176.073 162.311 163.853  1.00  0.00    -0.274 N 
ATOM     11  O   UNL     1     178.123 163.231 164.176  1.00  0.00    -0.269 OA
ATOM     12  C   UNL     1     174.919 162.230 163.135  1.00  0.00     0.330 A 
ATOM     13  H   UNL     1     176.198 161.705 164.697  1.00  0.00     0.175 HD
ATOM     14  O   UNL     1     174.018 161.431 163.512  1.00  0.00    -0.248 OA
ENDBRANCH   1   6
BRANCH   2  15
ATOM     15  O   UNL     1     173.596 161.630 159.229  1.00  0.00    -0.386 OA
ATOM     16  H   UNL     1     172.705 161.335 159.550  1.00  0.00     0.211 HD
ENDBRANCH   2  15
BRANCH   3  17
ATOM     17  O   UNL     1     173.400 164.988 158.495  1.00  0.00    -0.387 OA
ATOM     18  H   UNL     1     172.923 165.818 158.756  1.00  0.00     0.211 HD
ENDBRANCH   3  17
BRANCH   4  19
ATOM     19  C   UNL     1     171.385 165.749 160.299  1.00  0.00     0.191 C 
BRANCH  19  20
ATOM     20  O   UNL     1     172.311 166.643 160.852  1.00  0.00    -0.394 OA
ATOM     21  H   UNL     1     172.433 166.365 161.796  1.00  0.00     0.210 HD
ENDBRANCH  19  20
ENDBRANCH   4  19
TORSDOF 5
ENDMDL
MODEL 4
REMARK VINA RESULT:    -4.473     17.362     18.867
REMARK INTER + INTRA:          -5.985
REMARK INTER:                  -5.398
REMARK INTRA:                  -0.587
REMARK UNBOUND:                -0.597
REMARK SMILES O=c1ccn([C@H]2O[C@@H](CO)[C@@H](O)[C@@H]2O)c(=O)[nH]1
REMARK SMILES IDX 6 1 13 2 11 3 8 4 7 5 5 6 3 7 4 8 2 9 17 10 1 11 15 12 16 14
REMARK SMILES IDX 14 15 12 17 9 19 10 20
REMARK H PARENT 17 13 14 16 12 18 10 21
REMARK Flexibility Score: inf
ROOT
ATOM      1  C   UNL     1     162.988 162.503 161.216  1.00  0.00     0.255 C 
ATOM      2  C   UNL     1     162.926 162.206 159.714  1.00  0.00     0.196 C 
ATOM      3  C   UNL     1     163.885 163.223 159.106  1.00  0.00     0.179 C 
ATOM      4  C   UNL     1     164.315 164.074 160.311  1.00  0.00     0.178 C 
ATOM      5  O   UNL     1     164.117 163.307 161.474  1.00  0.00    -0.347 OA
ENDROOT
BRANCH   1   6
ATOM      6  N   UNL     1     163.040 161.257 162.009  1.00  0.00    -0.271 N 
ATOM      7  C   UNL     1     164.021 159.096 162.365  1.00  0.00     0.090 A 
ATOM      8  C   UNL     1     163.921 160.278 161.636  1.00  0.00     0.099 A 
ATOM      9  C   UNL     1     163.219 158.935 163.488  1.00  0.00     0.253 A 
ATOM     10  N   UNL     1     162.363 159.924 163.854  1.00  0.00    -0.274 N 
ATOM     11  O   UNL     1     163.288 157.875 164.166  1.00  0.00    -0.269 OA
ATOM     12  C   UNL     1     162.272 161.078 163.135  1.00  0.00     0.330 A 
ATOM     13  H   UNL     1     161.767 159.800 164.705  1.00  0.00     0.175 HD
ATOM     14  O   UNL     1     161.477 161.979 163.522  1.00  0.00    -0.248 OA
ENDBRANCH   1   6
BRANCH   2  15
ATOM     15  O   UNL     1     161.619 162.398 159.238  1.00  0.00    -0.386 OA
ATOM     16  H   UNL     1     161.704 162.772 158.323  1.00  0.00     0.211 HD
ENDBRANCH   2  15
BRANCH   3  17
ATOM     17  O   UNL     1     164.967 162.593 158.458  1.00  0.00    -0.387 OA
ATOM     18  H   UNL     1     164.633 161.761 158.032  1.00  0.00     0.211 HD
ENDBRANCH   3  17
BRANCH   4  19
ATOM     19  C   UNL     1     165.752 164.610 160.249  1.00  0.00     0.191 C 
BRANCH  19  20
ATOM     20  O   UNL     1     166.645 163.716 160.856  1.00  0.00    -0.394 OA
ATOM     21  H   UNL     1     167.508 163.821 160.378  1.00  0.00     0.210 HD
ENDBRANCH  19  20
ENDBRANCH   4  19
TORSDOF 5
ENDMDL
MODEL 5
REMARK VINA RESULT:    -4.455     14.844     16.376
REMARK INTER + INTRA:          -5.963
REMARK INTER:                  -5.356
REMARK INTRA:                  -0.607
REMARK UNBOUND:                -0.597
REMARK SMILES O=c1ccn([C@H]2O[C@@H](CO)[C@@H](O)[C@@H]2O)c(=O)[nH]1
REMARK SMILES IDX 6 1 13 2 11 3 8 4 7 5 5 6 3 7 4 8 2 9 17 10 1 11 15 12 16 14
REMARK SMILES IDX 14 15 12 17 9 19 10 20
REMARK H PARENT 17 13 14 16 12 18 10 21
REMARK Flexibility Score: inf
ROOT
ATOM      1  C   UNL     1     173.026 173.494 161.225  1.00  0.00     0.255 C 
ATOM      2  C   UNL     1     173.057 173.786 159.720  1.00  0.00     0.196 C 
ATOM      3  C   UNL     1     172.114 172.742 159.132  1.00  0.00     0.179 C 
ATOM      4  C   UNL     1     171.726 171.885 160.346  1.00  0.00     0.178 C 
ATOM      5  O   UNL     1     171.922 172.662 161.503  1.00  0.00    -0.347 OA
ENDROOT
BRANCH   1   6
ATOM      6  N   UNL     1     172.955 174.741 162.013  1.00  0.00    -0.271 N 
ATOM      7  C   UNL     1     171.927 176.879 162.375  1.00  0.00     0.090 A 
ATOM      8  C   UNL     1     172.046 175.697 161.650  1.00  0.00     0.099 A 
ATOM      9  C   UNL     1     172.742 177.064 163.486  1.00  0.00     0.253 A 
ATOM     10  N   UNL     1     173.627 176.097 163.843  1.00  0.00    -0.274 N 
ATOM     11  O   UNL     1     172.657 178.125 164.161  1.00  0.00    -0.269 OA
ATOM     12  C   UNL     1     173.736 174.943 163.128  1.00  0.00     0.330 A 
ATOM     13  H   UNL     1     174.231 176.240 164.685  1.00  0.00     0.175 HD
ATOM     14  O   UNL     1     174.558 174.064 163.506  1.00  0.00    -0.248 OA
ENDBRANCH   1   6
BRANCH   2  15
ATOM     15  O   UNL     1     174.360 173.625 159.223  1.00  0.00    -0.386 OA
ATOM     16  H   UNL     1     174.491 174.333 158.540  1.00  0.00     0.211 HD
ENDBRANCH   2  15
BRANCH   3  17
ATOM     17  O   UNL     1     171.006 173.342 158.499  1.00  0.00    -0.387 OA
ATOM     18  H   UNL     1     170.684 172.729 157.788  1.00  0.00     0.211 HD
ENDBRANCH   3  17
BRANCH   4  19
ATOM     19  C   UNL     1     170.301 171.313 160.310  1.00  0.00     0.191 C 
BRANCH  19  20
ATOM     20  O   UNL     1     169.382 172.226 160.846  1.00  0.00    -0.394 OA
ATOM     21  H   UNL     1     169.097 172.804 160.092  1.00  0.00     0.210 HD
ENDBRANCH  19  20
ENDBRANCH   4  19
TORSDOF 5
ENDMDL
MODEL 6
REMARK VINA RESULT:    -4.441     11.833     14.009
REMARK INTER + INTRA:          -5.947
REMARK INTER:                  -5.331
REMARK INTRA:                  -0.616
REMARK UNBOUND:                -0.597
REMARK SMILES O=c1ccn([C@H]2O[C@@H](CO)[C@@H](O)[C@@H]2O)c(=O)[nH]1
REMARK SMILES IDX 6 1 13 2 11 3 8 4 7 5 5 6 3 7 4 8 2 9 17 10 1 11 15 12 16 14
REMARK SMILES IDX 14 15 12 17 9 19 10 20
REMARK H PARENT 17 13 14 16 12 18 10 21
REMARK Flexibility Score: inf
ROOT
ATOM      1  C   UNL     1     162.514 173.044 161.232  1.00  0.00     0.255 C 
ATOM      2  C   UNL     1     162.227 173.062 159.726  1.00  0.00     0.196 C 
ATOM      3  C   UNL     1     163.284 172.126 159.148  1.00  0.00     0.179 C 
ATOM      4  C   UNL     1     164.140 171.756 160.369  1.00  0.00     0.178 C 
ATOM      5  O   UNL     1     163.357 171.952 161.521  1.00  0.00    -0.347 OA
ENDROOT
BRANCH   1   6
ATOM      6  N   UNL     1     161.264 172.965 162.016  1.00  0.00    -0.271 N 
ATOM      7  C   UNL     1     159.133 171.920 162.372  1.00  0.00     0.090 A 
ATOM      8  C   UNL     1     160.317 172.047 161.651  1.00  0.00     0.099 A 
ATOM      9  C   UNL     1     158.938 172.735 163.480  1.00  0.00     0.253 A 
ATOM     10  N   UNL     1     159.896 173.629 163.840  1.00  0.00    -0.274 N 
ATOM     11  O   UNL     1     157.875 172.643 164.152  1.00  0.00    -0.269 OA
ATOM     12  C   UNL     1     161.051 173.745 163.128  1.00  0.00     0.330 A 
ATOM     13  H   UNL     1     159.746 174.233 164.681  1.00  0.00     0.175 HD
ATOM     14  O   UNL     1     161.923 174.575 163.509  1.00  0.00    -0.248 OA
ENDBRANCH   1   6
BRANCH   2  15
ATOM     15  O   UNL     1     162.375 174.363 159.221  1.00  0.00    -0.386 OA
ATOM     16  H   UNL     1     163.325 174.613 159.358  1.00  0.00     0.211 HD
ENDBRANCH   2  15
BRANCH   3  17
ATOM     17  O   UNL     1     162.699 171.008 158.521  1.00  0.00    -0.387 OA
ATOM     18  H   UNL     1     161.823 170.832 158.952  1.00  0.00     0.211 HD
ENDBRANCH   3  17
BRANCH   4  19
ATOM     19  C   UNL     1     164.728 170.338 160.345  1.00  0.00     0.191 C 
BRANCH  19  20
ATOM     20  O   UNL     1     163.799 169.403 160.820  1.00  0.00    -0.394 OA
ATOM     21  H   UNL     1     164.095 168.521 160.477  1.00  0.00     0.210 HD
ENDBRANCH  19  20
ENDBRANCH   4  19
TORSDOF 5
ENDMDL
MODEL 7
REMARK VINA RESULT:    -4.413     12.822     16.040
REMARK INTER + INTRA:          -5.913
REMARK INTER:                  -5.300
REMARK INTRA:                  -0.612
REMARK UNBOUND:                -0.597
REMARK SMILES O=c1ccn([C@H]2O[C@@H](CO)[C@@H](O)[C@@H]2O)c(=O)[nH]1
REMARK SMILES IDX 6 1 13 2 11 3 8 4 7 5 5 6 3 7 4 8 2 9 17 10 1 11 15 12 16 14
REMARK SMILES IDX 14 15 12 17 9 19 10 20
REMARK H PARENT 17 13 14 16 12 18 10 21
REMARK Flexibility Score: inf
ROOT
ATOM      1  C   UNL     1     173.029 162.512 174.714  1.00  0.00     0.255 C 
ATOM      2  C   UNL     1     173.052 162.223 176.219  1.00  0.00     0.196 C 
ATOM      3  C   UNL     1     172.111 163.272 176.801  1.00  0.00     0.179 C 
ATOM      4  C   UNL     1     171.731 164.127 175.583  1.00  0.00     0.178 C 
ATOM      5  O   UNL     1     171.929 163.348 174.428  1.00  0.00    -0.347 OA
ENDROOT
BRANCH   1   6
ATOM      6  N   UNL     1     172.956 161.263 173.928  1.00  0.00    -0.271 N 
ATOM      7  C   UNL     1     171.924 159.126 173.569  1.00  0.00     0.090 A 
ATOM      8  C   UNL     1     172.045 160.310 174.292  1.00  0.00     0.099 A 
ATOM      9  C   UNL     1     172.740 158.938 172.459  1.00  0.00     0.253 A 
ATOM     10  N   UNL     1     173.628 159.902 172.101  1.00  0.00    -0.274 N 
ATOM     11  O   UNL     1     172.654 157.876 171.786  1.00  0.00    -0.269 OA
ATOM     12  C   UNL     1     173.738 161.057 172.815  1.00  0.00     0.330 A 
ATOM     13  H   UNL     1     174.233 159.756 171.260  1.00  0.00     0.175 HD
ATOM     14  O   UNL     1     174.562 161.934 172.435  1.00  0.00    -0.248 OA
ENDBRANCH   1   6
BRANCH   2  15
ATOM     15  O   UNL     1     174.354 162.380 176.721  1.00  0.00    -0.386 OA
ATOM     16  H   UNL     1     174.422 161.794 177.518  1.00  0.00     0.211 HD
ENDBRANCH   2  15
BRANCH   3  17
ATOM     17  O   UNL     1     170.998 162.678 177.430  1.00  0.00    -0.387 OA
ATOM     18  H   UNL     1     170.530 162.110 176.764  1.00  0.00     0.211 HD
ENDBRANCH   3  17
BRANCH   4  19
ATOM     19  C   UNL     1     170.309 164.705 175.612  1.00  0.00     0.191 C 
BRANCH  19  20
ATOM     20  O   UNL     1     169.384 163.782 175.105  1.00  0.00    -0.394 OA
ATOM     21  H   UNL     1     168.527 164.273 175.011  1.00  0.00     0.210 HD
ENDBRANCH  19  20
ENDBRANCH   4  19
TORSDOF 5
ENDMDL
MODEL 8
REMARK VINA RESULT:    -4.342      9.707     11.359
REMARK INTER + INTRA:          -5.826
REMARK INTER:                  -5.209
REMARK INTRA:                  -0.618
REMARK UNBOUND:                -0.597
REMARK SMILES O=c1ccn([C@H]2O[C@@H](CO)[C@@H](O)[C@@H]2O)c(=O)[nH]1
REMARK SMILES IDX 6 1 13 2 11 3 8 4 7 5 5 6 3 7 4 8 2 9 17 10 1 11 15 12 16 14
REMARK SMILES IDX 14 15 12 17 9 19 10 20
REMARK H PARENT 17 13 14 16 12 18 10 21
REMARK Flexibility Score: inf
ROOT
ATOM      1  C   UNL     1     162.564 162.959 174.619  1.00  0.00     0.255 C 
ATOM      2  C   UNL     1     162.302 162.937 176.129  1.00  0.00     0.196 C 
ATOM      3  C   UNL     1     163.356 163.885 176.691  1.00  0.00     0.179 C 
ATOM      4  C   UNL     1     164.187 164.267 175.458  1.00  0.00     0.178 C 
ATOM      5  O   UNL     1     163.389 164.063 174.317  1.00  0.00    -0.347 OA
ENDROOT
BRANCH   1   6
ATOM      6  N   UNL     1     161.301 163.024 173.855  1.00  0.00    -0.271 N 
ATOM      7  C   UNL     1     159.153 164.043 173.533  1.00  0.00     0.090 A 
ATOM      8  C   UNL     1     160.349 163.930 174.235  1.00  0.00     0.099 A 
ATOM      9  C   UNL     1     158.950 163.225 172.427  1.00  0.00     0.253 A 
ATOM     10  N   UNL     1     159.913 162.344 172.052  1.00  0.00    -0.274 N 
ATOM     11  O   UNL     1     157.876 163.305 171.772  1.00  0.00    -0.269 OA
ATOM     12  C   UNL     1     161.081 162.241 172.745  1.00  0.00     0.330 A 
ATOM     13  H   UNL     1     159.757 161.738 171.214  1.00  0.00     0.175 HD
ATOM     14  O   UNL     1     161.957 161.422 172.351  1.00  0.00    -0.248 OA
ENDBRANCH   1   6
BRANCH   2  15
ATOM     15  O   UNL     1     162.474 161.637 176.630  1.00  0.00    -0.386 OA
ATOM     16  H   UNL     1     163.383 161.347 176.357  1.00  0.00     0.211 HD
ENDBRANCH   2  15
BRANCH   3  17
ATOM     17  O   UNL     1     162.766 164.995 177.329  1.00  0.00    -0.387 OA
ATOM     18  H   UNL     1     161.879 164.720 177.677  1.00  0.00     0.211 HD
ENDBRANCH   3  17
BRANCH   4  19
ATOM     19  C   UNL     1     164.758 165.692 175.475  1.00  0.00     0.191 C 
BRANCH  19  20
ATOM     20  O   UNL     1     163.805 166.617 175.027  1.00  0.00    -0.394 OA
ATOM     21  H   UNL     1     163.005 166.488 175.599  1.00  0.00     0.210 HD
ENDBRANCH  19  20
ENDBRANCH   4  19
TORSDOF 5
ENDMDL
MODEL 9
REMARK VINA RESULT:    -4.030      6.772      9.598
REMARK INTER + INTRA:          -5.451
REMARK INTER:                  -4.824
REMARK INTRA:                  -0.627
REMARK UNBOUND:                -0.597
REMARK SMILES O=c1ccn([C@H]2O[C@@H](CO)[C@@H](O)[C@@H]2O)c(=O)[nH]1
REMARK SMILES IDX 6 1 13 2 11 3 8 4 7 5 5 6 3 7 4 8 2 9 17 10 1 11 15 12 16 14
REMARK SMILES IDX 14 15 12 17 9 19 10 20
REMARK H PARENT 17 13 14 16 12 18 10 21
REMARK Flexibility Score: inf
ROOT
ATOM      1  C   UNL     1     172.149 171.122 176.039  1.00  0.00     0.255 C 
ATOM      2  C   UNL     1     173.022 171.925 177.010  1.00  0.00     0.196 C 
ATOM      3  C   UNL     1     173.867 172.802 176.091  1.00  0.00     0.179 C 
ATOM      4  C   UNL     1     173.471 172.331 174.684  1.00  0.00     0.178 C 
ATOM      5  O   UNL     1     172.200 171.732 174.769  1.00  0.00    -0.347 OA
ENDROOT
BRANCH   1   6
ATOM      6  N   UNL     1     170.755 171.031 176.522  1.00  0.00    -0.271 N 
ATOM      7  C   UNL     1     168.461 171.698 176.293  1.00  0.00     0.090 A 
ATOM      8  C   UNL     1     169.791 171.768 175.889  1.00  0.00     0.099 A 
ATOM      9  C   UNL     1     168.128 170.852 177.345  1.00  0.00     0.253 A 
ATOM     10  N   UNL     1     169.094 170.114 177.950  1.00  0.00    -0.274 N 
ATOM     11  O   UNL     1     166.932 170.769 177.733  1.00  0.00    -0.269 OA
ATOM     12  C   UNL     1     170.393 170.188 177.547  1.00  0.00     0.330 A 
ATOM     13  H   UNL     1     168.835 169.473 178.736  1.00  0.00     0.175 HD
ATOM     14  O   UNL     1     171.256 169.470 178.125  1.00  0.00    -0.248 OA
ENDBRANCH   1   6
BRANCH   2  15
ATOM     15  O   UNL     1     173.831 171.058 177.762  1.00  0.00    -0.386 OA
ATOM     16  H   UNL     1     174.049 170.292 177.172  1.00  0.00     0.211 HD
ENDBRANCH   2  15
BRANCH   3  17
ATOM     17  O   UNL     1     173.617 174.172 176.309  1.00  0.00    -0.387 OA
ATOM     18  H   UNL     1     173.758 174.654 175.453  1.00  0.00     0.211 HD
ENDBRANCH   3  17
BRANCH   4  19
ATOM     19  C   UNL     1     173.487 173.423 173.604  1.00  0.00     0.191 C 
BRANCH  19  20
ATOM     20  O   UNL     1     174.689 174.143 173.640  1.00  0.00    -0.394 OA
ATOM     21  H   UNL     1     174.476 175.014 174.064  1.00  0.00     0.210 HD
ENDBRANCH  19  20
ENDBRANCH   4  19
TORSDOF 5
ENDMDL
