MODEL 1
REMARK VINA RESULT:    -3.344      0.000      0.000
REMARK INTER + INTRA:          -3.741
REMARK INTER:                  -3.735
REMARK INTRA:                  -0.006
REMARK UNBOUND:                -0.006
REMARK SMILES CCCC(=O)[O-]
REMARK SMILES IDX 3 1 4 2 5 3 6 4 2 5 1 6
REMARK H PARENT
REMARK Flexibility Score: inf
ROOT
ATOM      1  C   UNL     1       3.081 -36.411  17.126  1.00  0.00     0.052 C 
ENDROOT
BRANCH   1   2
ATOM      2  C   UNL     1       2.993 -37.204  18.394  1.00  0.00     0.041 C 
ATOM      3  O   UNL     1       1.915 -37.771  18.713  1.00  0.00    -0.550 OA
ATOM      4  O   UNL     1       4.112 -37.345  19.204  1.00  0.00    -0.550 OA
ENDBRANCH   1   2
BRANCH   1   5
ATOM      5  C   UNL     1       3.051 -37.317  15.887  1.00  0.00     0.003 C 
ATOM      6  C   UNL     1       3.057 -36.519  14.584  1.00  0.00     0.004 C 
ENDBRANCH   1   5
TORSDOF 2
ENDMDL
MODEL 2
REMARK VINA RESULT:    -3.332      5.362      5.910
REMARK INTER + INTRA:          -3.727
REMARK INTER:                  -3.656
REMARK INTRA:                  -0.071
REMARK UNBOUND:                -0.006
REMARK SMILES CCCC(=O)[O-]
REMARK SMILES IDX 3 1 4 2 5 3 6 4 2 5 1 6
REMARK H PARENT
REMARK Flexibility Score: inf
ROOT
ATOM      1  C   UNL     1       5.913 -34.825  22.203  1.00  0.00     0.052 C 
ENDROOT
BRANCH   1   2
ATOM      2  C   UNL     1       5.203 -36.144  22.176  1.00  0.00     0.041 C 
ATOM      3  O   UNL     1       4.679 -36.604  23.226  1.00  0.00    -0.550 OA
ATOM      4  O   UNL     1       5.091 -36.849  20.986  1.00  0.00    -0.550 OA
ENDBRANCH   1   2
BRANCH   1   5
ATOM      5  C   UNL     1       4.958 -33.674  22.548  1.00  0.00     0.003 C 
ATOM      6  C   UNL     1       3.799 -33.565  21.557  1.00  0.00     0.004 C 
ENDBRANCH   1   5
TORSDOF 2
ENDMDL
MODEL 3
REMARK VINA RESULT:    -3.312      4.598      6.034
REMARK INTER + INTRA:          -3.705
REMARK INTER:                  -3.667
REMARK INTRA:                  -0.038
REMARK UNBOUND:                -0.006
REMARK SMILES CCCC(=O)[O-]
REMARK SMILES IDX 3 1 4 2 5 3 6 4 2 5 1 6
REMARK H PARENT
REMARK Flexibility Score: inf
ROOT
ATOM      1  C   UNL     1       4.271 -33.827  21.211  1.00  0.00     0.052 C 
ENDROOT
BRANCH   1   2
ATOM      2  C   UNL     1       4.969 -34.558  20.105  1.00  0.00     0.041 C 
ATOM      3  O   UNL     1       5.447 -35.706  20.307  1.00  0.00    -0.550 OA
ATOM      4  O   UNL     1       5.062 -33.986  18.844  1.00  0.00    -0.550 OA
ENDBRANCH   1   2
BRANCH   1   5
ATOM      5  C   UNL     1       4.702 -34.341  22.591  1.00  0.00     0.003 C 
ATOM      6  C   UNL     1       5.754 -33.443  23.243  1.00  0.00     0.004 C 
ENDBRANCH   1   5
TORSDOF 2
ENDMDL
MODEL 4
REMARK VINA RESULT:    -3.267      6.197      7.309
REMARK INTER + INTRA:          -3.655
REMARK INTER:                  -3.624
REMARK INTRA:                  -0.031
REMARK UNBOUND:                -0.006
REMARK SMILES CCCC(=O)[O-]
REMARK SMILES IDX 3 1 4 2 5 3 6 4 2 5 1 6
REMARK H PARENT
REMARK Flexibility Score: inf
ROOT
ATOM      1  C   UNL     1       4.971 -35.463  22.581  1.00  0.00     0.052 C 
ENDROOT
BRANCH   1   2
ATOM      2  C   UNL     1       4.725 -33.989  22.471  1.00  0.00     0.041 C 
ATOM      3  O   UNL     1       5.477 -33.175  23.070  1.00  0.00    -0.550 OA
ATOM      4  O   UNL     1       3.687 -33.515  21.681  1.00  0.00    -0.550 OA
ENDBRANCH   1   2
BRANCH   1   5
ATOM      5  C   UNL     1       5.869 -35.801  23.778  1.00  0.00     0.003 C 
ATOM      6  C   UNL     1       5.121 -36.568  24.868  1.00  0.00     0.004 C 
ENDBRANCH   1   5
TORSDOF 2
ENDMDL
MODEL 5
REMARK VINA RESULT:    -3.264      4.613      5.484
REMARK INTER + INTRA:          -3.651
REMARK INTER:                  -3.618
REMARK INTRA:                  -0.034
REMARK UNBOUND:                -0.006
REMARK SMILES CCCC(=O)[O-]
REMARK SMILES IDX 3 1 4 2 5 3 6 4 2 5 1 6
REMARK H PARENT
REMARK Flexibility Score: inf
ROOT
ATOM      1  C   UNL     1       5.698 -34.736  21.231  1.00  0.00     0.052 C 
ENDROOT
BRANCH   1   2
ATOM      2  C   UNL     1       4.871 -33.873  22.134  1.00  0.00     0.041 C 
ATOM      3  O   UNL     1       5.354 -33.439  23.213  1.00  0.00    -0.550 OA
ATOM      4  O   UNL     1       3.579 -33.521  21.768  1.00  0.00    -0.550 OA
ENDBRANCH   1   2
BRANCH   1   5
ATOM      5  C   UNL     1       4.941 -35.103  19.948  1.00  0.00     0.003 C 
ATOM      6  C   UNL     1       5.311 -34.195  18.775  1.00  0.00     0.004 C 
ENDBRANCH   1   5
TORSDOF 2
ENDMDL
MODEL 6
REMARK VINA RESULT:    -3.263      6.998      7.575
REMARK INTER + INTRA:          -3.651
REMARK INTER:                  -3.630
REMARK INTRA:                  -0.021
REMARK UNBOUND:                -0.006
REMARK SMILES CCCC(=O)[O-]
REMARK SMILES IDX 3 1 4 2 5 3 6 4 2 5 1 6
REMARK H PARENT
REMARK Flexibility Score: inf
ROOT
ATOM      1  C   UNL     1       5.892 -35.754  24.689  1.00  0.00     0.052 C 
ENDROOT
BRANCH   1   2
ATOM      2  C   UNL     1       4.924 -36.896  24.648  1.00  0.00     0.041 C 
ATOM      3  O   UNL     1       4.705 -37.503  23.566  1.00  0.00    -0.550 OA
ATOM      4  O   UNL     1       4.289 -37.312  25.810  1.00  0.00    -0.550 OA
ENDBRANCH   1   2
BRANCH   1   5
ATOM      5  C   UNL     1       6.072 -35.112  23.307  1.00  0.00     0.003 C 
ATOM      6  C   UNL     1       5.729 -33.622  23.310  1.00  0.00     0.004 C 
ENDBRANCH   1   5
TORSDOF 2
ENDMDL
MODEL 7
REMARK VINA RESULT:    -3.214      5.729      6.456
REMARK INTER + INTRA:          -3.596
REMARK INTER:                  -3.524
REMARK INTRA:                  -0.071
REMARK UNBOUND:                -0.006
REMARK SMILES CCCC(=O)[O-]
REMARK SMILES IDX 3 1 4 2 5 3 6 4 2 5 1 6
REMARK H PARENT
REMARK Flexibility Score: inf
ROOT
ATOM      1  C   UNL     1       5.689 -35.103  21.656  1.00  0.00     0.052 C 
ENDROOT
BRANCH   1   2
ATOM      2  C   UNL     1       4.980 -33.926  22.252  1.00  0.00     0.041 C 
ATOM      3  O   UNL     1       3.818 -33.626  21.871  1.00  0.00    -0.550 OA
ATOM      4  O   UNL     1       5.590 -33.181  23.253  1.00  0.00    -0.550 OA
ENDBRANCH   1   2
BRANCH   1   5
ATOM      5  C   UNL     1       4.980 -36.422  21.991  1.00  0.00     0.003 C 
ATOM      6  C   UNL     1       4.931 -36.689  23.495  1.00  0.00     0.004 C 
ENDBRANCH   1   5
TORSDOF 2
ENDMDL
MODEL 8
REMARK VINA RESULT:    -3.195      5.873      6.691
REMARK INTER + INTRA:          -3.574
REMARK INTER:                  -3.509
REMARK INTRA:                  -0.065
REMARK UNBOUND:                -0.006
REMARK SMILES CCCC(=O)[O-]
REMARK SMILES IDX 3 1 4 2 5 3 6 4 2 5 1 6
REMARK H PARENT
REMARK Flexibility Score: inf
ROOT
ATOM      1  C   UNL     1       5.349 -33.916  23.146  1.00  0.00     0.052 C 
ENDROOT
BRANCH   1   2
ATOM      2  C   UNL     1       4.680 -33.940  21.806  1.00  0.00     0.041 C 
ATOM      3  O   UNL     1       3.480 -33.575  21.690  1.00  0.00    -0.550 OA
ATOM      4  O   UNL     1       5.392 -34.334  20.681  1.00  0.00    -0.550 OA
ENDBRANCH   1   2
BRANCH   1   5
ATOM      5  C   UNL     1       6.023 -35.256  23.468  1.00  0.00     0.003 C 
ATOM      6  C   UNL     1       5.027 -36.414  23.504  1.00  0.00     0.004 C 
ENDBRANCH   1   5
TORSDOF 2
ENDMDL
MODEL 9
REMARK VINA RESULT:    -3.083      2.720      3.553
REMARK INTER + INTRA:          -3.450
REMARK INTER:                  -3.435
REMARK INTRA:                  -0.015
REMARK UNBOUND:                -0.006
REMARK SMILES CCCC(=O)[O-]
REMARK SMILES IDX 3 1 4 2 5 3 6 4 2 5 1 6
REMARK H PARENT
REMARK Flexibility Score: inf
ROOT
ATOM      1  C   UNL     1       3.147 -36.219  16.396  1.00  0.00     0.052 C 
ENDROOT
BRANCH   1   2
ATOM      2  C   UNL     1       2.987 -36.827  15.036  1.00  0.00     0.041 C 
ATOM      3  O   UNL     1       2.119 -36.380  14.240  1.00  0.00    -0.550 OA
ATOM      4  O   UNL     1       3.818 -37.865  14.636  1.00  0.00    -0.550 OA
ENDBRANCH   1   2
BRANCH   1   5
ATOM      5  C   UNL     1       2.591 -37.134  17.495  1.00  0.00     0.003 C 
ATOM      6  C   UNL     1       3.517 -37.213  18.709  1.00  0.00     0.004 C 
ENDBRANCH   1   5
TORSDOF 2
ENDMDL
