MODEL 1
REMARK VINA RESULT:    -5.564      0.000      0.000
REMARK INTER + INTRA:         -10.355
REMARK INTER:                  -8.491
REMARK INTRA:                  -1.864
REMARK UNBOUND:                -1.864
REMARK SMILES OC[C@H]1O[C@@H](O[C@]2(CO)O[C@H](CO)[C@H](O)[C@@H]2O)[C@H](O)[C@@H](O)[C@H]1O
REMARK SMILES IDX 6 1 5 2 3 3 22 4 4 5 20 6 18 7 2 8 1 9 23 11 21 13 19 15
REMARK SMILES IDX 7 17 16 18 10 19 14 20 11 21 8 22 9 23 17 25 15 27 12 29
REMARK SMILES IDX 13 30
REMARK H PARENT 1 10 23 12 21 14 19 16 9 24 17 26 15 28 13 31
REMARK Flexibility Score: inf
ROOT
ATOM      1  O   UNL     1      94.018  85.422  79.440  1.00  0.00    -0.313 OA
ENDROOT
BRANCH   1   2
ATOM      2  C   UNL     1      93.818  84.012  79.525  1.00  0.00     0.285 C 
ATOM      3  C   UNL     1      91.510  84.047  78.867  1.00  0.00     0.178 C 
ATOM      4  C   UNL     1      91.039  83.717  80.306  1.00  0.00     0.177 C 
ATOM      5  O   UNL     1      92.832  83.593  78.587  1.00  0.00    -0.341 OA
ATOM      6  C   UNL     1      92.074  84.122  81.363  1.00  0.00     0.179 C 
ATOM      7  C   UNL     1      93.458  83.587  80.963  1.00  0.00     0.202 C 
BRANCH   3   8
ATOM      8  C   UNL     1      91.277  85.511  78.430  1.00  0.00     0.191 C 
BRANCH   8   9
ATOM      9  O   UNL     1      92.205  85.884  77.449  1.00  0.00    -0.394 OA
ATOM     10  H   UNL     1      92.488  85.049  76.992  1.00  0.00     0.210 HD
ENDBRANCH   8   9
ENDBRANCH   3   8
BRANCH   4  11
ATOM     11  O   UNL     1      89.799  84.322  80.569  1.00  0.00    -0.387 OA
ATOM     12  H   UNL     1      89.948  84.975  81.303  1.00  0.00     0.211 HD
ENDBRANCH   4  11
BRANCH   6  13
ATOM     13  O   UNL     1      92.104  85.519  81.510  1.00  0.00    -0.387 OA
ATOM     14  H   UNL     1      91.516  85.740  82.280  1.00  0.00     0.211 HD
ENDBRANCH   6  13
BRANCH   7  15
ATOM     15  O   UNL     1      93.472  82.182  81.040  1.00  0.00    -0.385 OA
ATOM     16  H   UNL     1      93.968  81.854  80.245  1.00  0.00     0.211 HD
ENDBRANCH   7  15
ENDBRANCH   1   2
BRANCH   1  17
ATOM     17  C   UNL     1      95.375  85.863  79.336  1.00  0.00     0.224 C 
ATOM     18  C   UNL     1      95.846  86.645  80.603  1.00  0.00     0.208 C 
ATOM     19  O   UNL     1      96.160  84.685  79.240  1.00  0.00    -0.337 OA
ATOM     20  C   UNL     1      96.809  85.691  81.287  1.00  0.00     0.180 C 
ATOM     21  C   UNL     1      97.242  84.795  80.135  1.00  0.00     0.179 C 
BRANCH  17  22
ATOM     22  C   UNL     1      95.631  86.663  78.025  1.00  0.00     0.225 C 
BRANCH  22  23
ATOM     23  O   UNL     1      95.054  86.008  76.928  1.00  0.00    -0.391 OA
ATOM     24  H   UNL     1      94.277  85.504  77.283  1.00  0.00     0.210 HD
ENDBRANCH  22  23
ENDBRANCH  17  22
BRANCH  18  25
ATOM     25  O   UNL     1      94.792  87.000  81.461  1.00  0.00    -0.385 OA
ATOM     26  H   UNL     1      94.080  86.319  81.333  1.00  0.00     0.211 HD
ENDBRANCH  18  25
BRANCH  20  27
ATOM     27  O   UNL     1      96.193  84.970  82.330  1.00  0.00    -0.387 OA
ATOM     28  H   UNL     1      96.823  84.264  82.630  1.00  0.00     0.211 HD
ENDBRANCH  20  27
BRANCH  21  29
ATOM     29  C   UNL     1      97.744  83.406  80.557  1.00  0.00     0.191 C 
BRANCH  29  30
ATOM     30  O   UNL     1      96.670  82.537  80.793  1.00  0.00    -0.394 OA
ATOM     31  H   UNL     1      96.947  81.955  81.548  1.00  0.00     0.210 HD
ENDBRANCH  29  30
ENDBRANCH  21  29
ENDBRANCH   1  17
TORSDOF 13
ENDMDL
MODEL 2
REMARK VINA RESULT:    -5.001      2.270      6.044
REMARK INTER + INTRA:          -9.497
REMARK INTER:                  -7.930
REMARK INTRA:                  -1.567
REMARK UNBOUND:                -1.864
REMARK SMILES OC[C@H]1O[C@@H](O[C@]2(CO)O[C@H](CO)[C@H](O)[C@@H]2O)[C@H](O)[C@@H](O)[C@H]1O
REMARK SMILES IDX 6 1 5 2 3 3 22 4 4 5 20 6 18 7 2 8 1 9 23 11 21 13 19 15
REMARK SMILES IDX 7 17 16 18 10 19 14 20 11 21 8 22 9 23 17 25 15 27 12 29
REMARK SMILES IDX 13 30
REMARK H PARENT 1 10 23 12 21 14 19 16 9 24 17 26 15 28 13 31
REMARK Flexibility Score: inf
ROOT
ATOM      1  O   UNL     1      96.821  85.037  82.039  1.00  0.00    -0.313 OA
ENDROOT
BRANCH   1   2
ATOM      2  C   UNL     1      98.091  85.665  81.872  1.00  0.00     0.285 C 
ATOM      3  C   UNL     1      99.348  83.631  81.660  1.00  0.00     0.178 C 
ATOM      4  C   UNL     1      99.980  83.811  83.063  1.00  0.00     0.177 C 
ATOM      5  O   UNL     1      98.940  84.859  81.062  1.00  0.00    -0.341 OA
ATOM      6  C   UNL     1      99.121  84.695  83.977  1.00  0.00     0.179 C 
ATOM      7  C   UNL     1      98.737  85.985  83.236  1.00  0.00     0.202 C 
BRANCH   3   8
ATOM      8  C   UNL     1      98.260  82.536  81.576  1.00  0.00     0.191 C 
BRANCH   8   9
ATOM      9  O   UNL     1      97.586  82.608  80.350  1.00  0.00    -0.394 OA
ATOM     10  H   UNL     1      98.217  83.016  79.701  1.00  0.00     0.210 HD
ENDBRANCH   8   9
ENDBRANCH   3   8
BRANCH   4  11
ATOM     11  O   UNL     1     100.215  82.562  83.661  1.00  0.00    -0.387 OA
ATOM     12  H   UNL     1     100.468  81.937  82.932  1.00  0.00     0.211 HD
ENDBRANCH   4  11
BRANCH   6  13
ATOM     13  O   UNL     1      97.974  83.999  84.395  1.00  0.00    -0.387 OA
ATOM     14  H   UNL     1      98.206  83.033  84.392  1.00  0.00     0.211 HD
ENDBRANCH   6  13
BRANCH   7  15
ATOM     15  O   UNL     1      99.879  86.778  83.025  1.00  0.00    -0.385 OA
ATOM     16  H   UNL     1     100.668  86.205  83.213  1.00  0.00     0.211 HD
ENDBRANCH   7  15
ENDBRANCH   1   2
BRANCH   1  17
ATOM     17  C   UNL     1      95.691  85.752  81.529  1.00  0.00     0.224 C 
ATOM     18  C   UNL     1      95.490  85.535  79.996  1.00  0.00     0.208 C 
ATOM     19  O   UNL     1      94.559  85.211  82.193  1.00  0.00    -0.337 OA
ATOM     20  C   UNL     1      94.255  84.657  79.907  1.00  0.00     0.180 C 
ATOM     21  C   UNL     1      93.564  84.945  81.233  1.00  0.00     0.179 C 
BRANCH  17  22
ATOM     22  C   UNL     1      95.735  87.262  81.906  1.00  0.00     0.225 C 
BRANCH  22  23
ATOM     23  O   UNL     1      95.439  88.057  80.789  1.00  0.00    -0.391 OA
ATOM     24  H   UNL     1      96.273  88.104  80.254  1.00  0.00     0.210 HD
ENDBRANCH  22  23
ENDBRANCH  17  22
BRANCH  18  25
ATOM     25  O   UNL     1      96.591  84.922  79.373  1.00  0.00    -0.385 OA
ATOM     26  H   UNL     1      96.277  84.610  78.483  1.00  0.00     0.211 HD
ENDBRANCH  18  25
BRANCH  20  27
ATOM     27  O   UNL     1      94.581  83.294  79.754  1.00  0.00    -0.387 OA
ATOM     28  H   UNL     1      93.800  82.835  79.347  1.00  0.00     0.211 HD
ENDBRANCH  20  27
BRANCH  21  29
ATOM     29  C   UNL     1      92.621  83.833  81.718  1.00  0.00     0.191 C 
BRANCH  29  30
ATOM     30  O   UNL     1      91.781  83.404  80.682  1.00  0.00    -0.394 OA
ATOM     31  H   UNL     1      91.875  84.074  79.955  1.00  0.00     0.210 HD
ENDBRANCH  29  30
ENDBRANCH  21  29
ENDBRANCH   1  17
TORSDOF 13
ENDMDL
MODEL 3
REMARK VINA RESULT:    -4.960      1.456      5.481
REMARK INTER + INTRA:          -9.433
REMARK INTER:                  -8.087
REMARK INTRA:                  -1.346
REMARK UNBOUND:                -1.864
REMARK SMILES OC[C@H]1O[C@@H](O[C@]2(CO)O[C@H](CO)[C@H](O)[C@@H]2O)[C@H](O)[C@@H](O)[C@H]1O
REMARK SMILES IDX 6 1 5 2 3 3 22 4 4 5 20 6 18 7 2 8 1 9 23 11 21 13 19 15
REMARK SMILES IDX 7 17 16 18 10 19 14 20 11 21 8 22 9 23 17 25 15 27 12 29
REMARK SMILES IDX 13 30
REMARK H PARENT 1 10 23 12 21 14 19 16 9 24 17 26 15 28 13 31
REMARK Flexibility Score: inf
ROOT
ATOM      1  O   UNL     1      94.641  84.807  80.940  1.00  0.00    -0.313 OA
ENDROOT
BRANCH   1   2
ATOM      2  C   UNL     1      95.996  84.365  80.886  1.00  0.00     0.285 C 
ATOM      3  C   UNL     1      96.824  85.901  82.535  1.00  0.00     0.178 C 
ATOM      4  C   UNL     1      97.558  86.742  81.461  1.00  0.00     0.177 C 
ATOM      5  O   UNL     1      96.627  84.542  82.150  1.00  0.00    -0.341 OA
ATOM      6  C   UNL     1      96.939  86.573  80.068  1.00  0.00     0.179 C 
ATOM      7  C   UNL     1      96.768  85.078  79.757  1.00  0.00     0.202 C 
BRANCH   3   8
ATOM      8  C   UNL     1      95.543  86.552  83.104  1.00  0.00     0.191 C 
BRANCH   8   9
ATOM      9  O   UNL     1      94.852  85.646  83.918  1.00  0.00    -0.394 OA
ATOM     10  H   UNL     1      95.538  85.111  84.396  1.00  0.00     0.210 HD
ENDBRANCH   8   9
ENDBRANCH   3   8
BRANCH   4  11
ATOM     11  O   UNL     1      97.583  88.098  81.830  1.00  0.00    -0.387 OA
ATOM     12  H   UNL     1      96.787  88.523  81.417  1.00  0.00     0.211 HD
ENDBRANCH   4  11
BRANCH   6  13
ATOM     13  O   UNL     1      95.706  87.241  79.994  1.00  0.00    -0.387 OA
ATOM     14  H   UNL     1      95.435  87.449  80.927  1.00  0.00     0.211 HD
ENDBRANCH   6  13
BRANCH   7  15
ATOM     15  O   UNL     1      98.027  84.469  79.611  1.00  0.00    -0.385 OA
ATOM     16  H   UNL     1      98.693  85.076  80.029  1.00  0.00     0.211 HD
ENDBRANCH   7  15
ENDBRANCH   1   2
BRANCH   1  17
ATOM     17  C   UNL     1      93.654  83.878  80.480  1.00  0.00     0.224 C 
ATOM     18  C   UNL     1      92.404  83.825  81.415  1.00  0.00     0.208 C 
ATOM     19  O   UNL     1      93.227  84.360  79.216  1.00  0.00    -0.337 OA
ATOM     20  C   UNL     1      91.313  84.506  80.608  1.00  0.00     0.180 C 
ATOM     21  C   UNL     1      91.820  84.339  79.182  1.00  0.00     0.179 C 
BRANCH  17  22
ATOM     22  C   UNL     1      94.255  82.464  80.226  1.00  0.00     0.225 C 
BRANCH  22  23
ATOM     23  O   UNL     1      93.488  81.481  80.868  1.00  0.00    -0.391 OA
ATOM     24  H   UNL     1      93.543  80.671  80.298  1.00  0.00     0.210 HD
ENDBRANCH  22  23
ENDBRANCH  17  22
BRANCH  18  25
ATOM     25  O   UNL     1      92.602  84.474  82.645  1.00  0.00    -0.385 OA
ATOM     26  H   UNL     1      93.315  85.151  82.499  1.00  0.00     0.211 HD
ENDBRANCH  18  25
BRANCH  20  27
ATOM     27  O   UNL     1      91.152  85.860  80.968  1.00  0.00    -0.387 OA
ATOM     28  H   UNL     1      90.538  85.900  81.746  1.00  0.00     0.211 HD
ENDBRANCH  20  27
BRANCH  21  29
ATOM     29  C   UNL     1      91.282  85.377  78.185  1.00  0.00     0.191 C 
BRANCH  29  30
ATOM     30  O   UNL     1      92.327  85.941  77.441  1.00  0.00    -0.394 OA
ATOM     31  H   UNL     1      93.020  85.235  77.360  1.00  0.00     0.210 HD
ENDBRANCH  29  30
ENDBRANCH  21  29
ENDBRANCH   1  17
TORSDOF 13
ENDMDL
MODEL 4
REMARK VINA RESULT:    -4.771      4.547      7.998
REMARK INTER + INTRA:          -9.146
REMARK INTER:                  -7.697
REMARK INTRA:                  -1.449
REMARK UNBOUND:                -1.864
REMARK SMILES OC[C@H]1O[C@@H](O[C@]2(CO)O[C@H](CO)[C@H](O)[C@@H]2O)[C@H](O)[C@@H](O)[C@H]1O
REMARK SMILES IDX 6 1 5 2 3 3 22 4 4 5 20 6 18 7 2 8 1 9 23 11 21 13 19 15
REMARK SMILES IDX 7 17 16 18 10 19 14 20 11 21 8 22 9 23 17 25 15 27 12 29
REMARK SMILES IDX 13 30
REMARK H PARENT 1 10 23 12 21 14 19 16 9 24 17 26 15 28 13 31
REMARK Flexibility Score: inf
ROOT
ATOM      1  O   UNL     1      99.146  84.878  84.182  1.00  0.00    -0.313 OA
ENDROOT
BRANCH   1   2
ATOM      2  C   UNL     1      99.107  86.133  84.859  1.00  0.00     0.285 C 
ATOM      3  C   UNL     1     100.112  85.350  86.893  1.00  0.00     0.178 C 
ATOM      4  C   UNL     1      98.766  85.439  87.656  1.00  0.00     0.177 C 
ATOM      5  O   UNL     1     100.189  86.235  85.778  1.00  0.00    -0.341 OA
ATOM      6  C   UNL     1      97.558  85.361  86.713  1.00  0.00     0.179 C 
ATOM      7  C   UNL     1      97.745  86.349  85.551  1.00  0.00     0.202 C 
BRANCH   3   8
ATOM      8  C   UNL     1     100.565  83.913  86.548  1.00  0.00     0.191 C 
BRANCH   8   9
ATOM      9  O   UNL     1     101.630  83.941  85.637  1.00  0.00    -0.394 OA
ATOM     10  H   UNL     1     102.455  84.096  86.167  1.00  0.00     0.210 HD
ENDBRANCH   8   9
ENDBRANCH   3   8
BRANCH   4  11
ATOM     11  O   UNL     1      98.691  84.440  88.640  1.00  0.00    -0.387 OA
ATOM     12  H   UNL     1      98.965  84.859  89.498  1.00  0.00     0.211 HD
ENDBRANCH   4  11
BRANCH   6  13
ATOM     13  O   UNL     1      97.395  84.051  86.232  1.00  0.00    -0.387 OA
ATOM     14  H   UNL     1      96.519  83.727  86.571  1.00  0.00     0.211 HD
ENDBRANCH   6  13
BRANCH   7  15
ATOM     15  O   UNL     1      97.680  87.670  86.027  1.00  0.00    -0.385 OA
ATOM     16  H   UNL     1      98.241  87.712  86.845  1.00  0.00     0.211 HD
ENDBRANCH   7  15
ENDBRANCH   1   2
BRANCH   1  17
ATOM     17  C   UNL     1      99.635  84.900  82.837  1.00  0.00     0.224 C 
ATOM     18  C   UNL     1     100.179  83.510  82.378  1.00  0.00     0.208 C 
ATOM     19  O   UNL     1      98.517  85.216  82.023  1.00  0.00    -0.337 OA
ATOM     20  C   UNL     1      99.139  83.018  81.386  1.00  0.00     0.180 C 
ATOM     21  C   UNL     1      98.486  84.318  80.939  1.00  0.00     0.179 C 
BRANCH  17  22
ATOM     22  C   UNL     1     100.673  86.038  82.610  1.00  0.00     0.225 C 
BRANCH  22  23
ATOM     23  O   UNL     1     101.903  85.707  83.197  1.00  0.00    -0.391 OA
ATOM     24  H   UNL     1     101.735  84.909  83.761  1.00  0.00     0.210 HD
ENDBRANCH  22  23
ENDBRANCH  17  22
BRANCH  18  25
ATOM     25  O   UNL     1     100.338  82.599  83.435  1.00  0.00    -0.385 OA
ATOM     26  H   UNL     1     100.034  83.063  84.259  1.00  0.00     0.211 HD
ENDBRANCH  18  25
BRANCH  20  27
ATOM     27  O   UNL     1      98.219  82.128  81.977  1.00  0.00    -0.387 OA
ATOM     28  H   UNL     1      98.104  81.354  81.366  1.00  0.00     0.211 HD
ENDBRANCH  20  27
BRANCH  21  29
ATOM     29  C   UNL     1      97.056  84.164  80.398  1.00  0.00     0.191 C 
BRANCH  29  30
ATOM     30  O   UNL     1      96.841  85.018  79.308  1.00  0.00    -0.394 OA
ATOM     31  H   UNL     1      97.474  85.775  79.421  1.00  0.00     0.210 HD
ENDBRANCH  29  30
ENDBRANCH  21  29
ENDBRANCH   1  17
TORSDOF 13
ENDMDL
MODEL 5
REMARK VINA RESULT:    -4.760      3.259      6.882
REMARK INTER + INTRA:          -9.128
REMARK INTER:                  -8.019
REMARK INTRA:                  -1.109
REMARK UNBOUND:                -1.864
REMARK SMILES OC[C@H]1O[C@@H](O[C@]2(CO)O[C@H](CO)[C@H](O)[C@@H]2O)[C@H](O)[C@@H](O)[C@H]1O
REMARK SMILES IDX 6 1 5 2 3 3 22 4 4 5 20 6 18 7 2 8 1 9 23 11 21 13 19 15
REMARK SMILES IDX 7 17 16 18 10 19 14 20 11 21 8 22 9 23 17 25 15 27 12 29
REMARK SMILES IDX 13 30
REMARK H PARENT 1 10 23 12 21 14 19 16 9 24 17 26 15 28 13 31
REMARK Flexibility Score: inf
ROOT
ATOM      1  O   UNL     1      98.352  85.087  82.157  1.00  0.00    -0.313 OA
ENDROOT
BRANCH   1   2
ATOM      2  C   UNL     1      99.239  85.951  82.865  1.00  0.00     0.285 C 
ATOM      3  C   UNL     1     100.862  84.262  83.390  1.00  0.00     0.178 C 
ATOM      4  C   UNL     1     100.448  84.252  84.884  1.00  0.00     0.177 C 
ATOM      5  O   UNL     1     100.582  85.497  82.735  1.00  0.00    -0.341 OA
ATOM      6  C   UNL     1      99.015  84.757  85.092  1.00  0.00     0.179 C 
ATOM      7  C   UNL     1      98.821  86.085  84.344  1.00  0.00     0.202 C 
BRANCH   3   8
ATOM      8  C   UNL     1     100.389  83.035  82.579  1.00  0.00     0.191 C 
BRANCH   8   9
ATOM      9  O   UNL     1     101.352  82.675  81.628  1.00  0.00    -0.394 OA
ATOM     10  H   UNL     1     101.185  83.237  80.826  1.00  0.00     0.210 HD
ENDBRANCH   8   9
ENDBRANCH   3   8
BRANCH   4  11
ATOM     11  O   UNL     1     100.604  82.967  85.429  1.00  0.00    -0.387 OA
ATOM     12  H   UNL     1     100.372  82.320  84.713  1.00  0.00     0.211 HD
ENDBRANCH   4  11
BRANCH   6  13
ATOM     13  O   UNL     1      98.088  83.797  84.651  1.00  0.00    -0.387 OA
ATOM     14  H   UNL     1      97.782  83.302  85.456  1.00  0.00     0.211 HD
ENDBRANCH   6  13
BRANCH   7  15
ATOM     15  O   UNL     1      99.594  87.094  84.946  1.00  0.00    -0.385 OA
ATOM     16  H   UNL     1      99.018  87.532  85.626  1.00  0.00     0.211 HD
ENDBRANCH   7  15
ENDBRANCH   1   2
BRANCH   1  17
ATOM     17  C   UNL     1      97.502  85.710  81.188  1.00  0.00     0.224 C 
ATOM     18  C   UNL     1      97.357  84.859  79.887  1.00  0.00     0.208 C 
ATOM     19  O   UNL     1      96.222  85.795  81.794  1.00  0.00    -0.337 OA
ATOM     20  C   UNL     1      95.936  84.329  79.952  1.00  0.00     0.180 C 
ATOM     21  C   UNL     1      95.261  85.337  80.871  1.00  0.00     0.179 C 
BRANCH  17  22
ATOM     22  C   UNL     1      97.936  87.174  80.885  1.00  0.00     0.225 C 
BRANCH  22  23
ATOM     23  O   UNL     1      97.980  87.398  79.501  1.00  0.00    -0.391 OA
ATOM     24  H   UNL     1      97.638  88.318  79.358  1.00  0.00     0.210 HD
ENDBRANCH  22  23
ENDBRANCH  17  22
BRANCH  18  25
ATOM     25  O   UNL     1      98.285  83.808  79.805  1.00  0.00    -0.385 OA
ATOM     26  H   UNL     1      97.911  83.147  79.164  1.00  0.00     0.211 HD
ENDBRANCH  18  25
BRANCH  20  27
ATOM     27  O   UNL     1      95.881  83.014  80.459  1.00  0.00    -0.387 OA
ATOM     28  H   UNL     1      94.979  82.872  80.847  1.00  0.00     0.211 HD
ENDBRANCH  20  27
BRANCH  21  29
ATOM     29  C   UNL     1      94.015  84.808  81.598  1.00  0.00     0.191 C 
BRANCH  29  30
ATOM     30  O   UNL     1      93.200  84.077  80.724  1.00  0.00    -0.394 OA
ATOM     31  H   UNL     1      92.974  83.234  81.197  1.00  0.00     0.210 HD
ENDBRANCH  29  30
ENDBRANCH  21  29
ENDBRANCH   1  17
TORSDOF 13
ENDMDL
MODEL 6
REMARK VINA RESULT:    -4.661      4.821      7.653
REMARK INTER + INTRA:          -8.977
REMARK INTER:                  -7.432
REMARK INTRA:                  -1.545
REMARK UNBOUND:                -1.864
REMARK SMILES OC[C@H]1O[C@@H](O[C@]2(CO)O[C@H](CO)[C@H](O)[C@@H]2O)[C@H](O)[C@@H](O)[C@H]1O
REMARK SMILES IDX 6 1 5 2 3 3 22 4 4 5 20 6 18 7 2 8 1 9 23 11 21 13 19 15
REMARK SMILES IDX 7 17 16 18 10 19 14 20 11 21 8 22 9 23 17 25 15 27 12 29
REMARK SMILES IDX 13 30
REMARK H PARENT 1 10 23 12 21 14 19 16 9 24 17 26 15 28 13 31
REMARK Flexibility Score: inf
ROOT
ATOM      1  O   UNL     1      99.268  84.309  84.196  1.00  0.00    -0.313 OA
ENDROOT
BRANCH   1   2
ATOM      2  C   UNL     1     100.270  84.242  83.184  1.00  0.00     0.285 C 
ATOM      3  C   UNL     1      98.953  85.268  81.460  1.00  0.00     0.178 C 
ATOM      4  C   UNL     1      98.787  83.922  80.710  1.00  0.00     0.177 C 
ATOM      5  O   UNL     1     100.125  85.324  82.269  1.00  0.00    -0.341 OA
ATOM      6  C   UNL     1      98.960  82.715  81.641  1.00  0.00     0.179 C 
ATOM      7  C   UNL     1     100.246  82.877  82.465  1.00  0.00     0.202 C 
BRANCH   3   8
ATOM      8  C   UNL     1      97.689  85.753  82.205  1.00  0.00     0.191 C 
BRANCH   8   9
ATOM      9  O   UNL     1      98.007  86.802  83.079  1.00  0.00    -0.394 OA
ATOM     10  H   UNL     1      97.603  87.624  82.696  1.00  0.00     0.210 HD
ENDBRANCH   8   9
ENDBRANCH   3   8
BRANCH   4  11
ATOM     11  O   UNL     1      97.543  83.871  80.059  1.00  0.00    -0.387 OA
ATOM     12  H   UNL     1      97.341  82.912  79.900  1.00  0.00     0.211 HD
ENDBRANCH   4  11
BRANCH   6  13
ATOM     13  O   UNL     1      97.842  82.580  82.482  1.00  0.00    -0.387 OA
ATOM     14  H   UNL     1      97.944  81.715  82.960  1.00  0.00     0.211 HD
ENDBRANCH   6  13
BRANCH   7  15
ATOM     15  O   UNL     1     101.371  82.784  81.627  1.00  0.00    -0.385 OA
ATOM     16  H   UNL     1     101.971  82.098  82.022  1.00  0.00     0.211 HD
ENDBRANCH   7  15
ENDBRANCH   1   2
BRANCH   1  17
ATOM     17  C   UNL     1      99.735  84.422  85.543  1.00  0.00     0.224 C 
ATOM     18  C   UNL     1     100.051  85.899  85.942  1.00  0.00     0.208 C 
ATOM     19  O   UNL     1      98.669  83.972  86.363  1.00  0.00    -0.337 OA
ATOM     20  C   UNL     1      98.934  86.266  86.903  1.00  0.00     0.180 C 
ATOM     21  C   UNL     1      98.484  84.902  87.406  1.00  0.00     0.179 C 
BRANCH  17  22
ATOM     22  C   UNL     1     100.934  83.470  85.829  1.00  0.00     0.225 C 
BRANCH  22  23
ATOM     23  O   UNL     1     101.780  84.022  86.802  1.00  0.00    -0.391 OA
ATOM     24  H   UNL     1     101.756  85.004  86.666  1.00  0.00     0.210 HD
ENDBRANCH  22  23
ENDBRANCH  17  22
BRANCH  18  25
ATOM     25  O   UNL     1     100.082  86.776  84.846  1.00  0.00    -0.385 OA
ATOM     26  H   UNL     1     100.166  87.694  85.217  1.00  0.00     0.211 HD
ENDBRANCH  18  25
BRANCH  20  27
ATOM     27  O   UNL     1      97.896  86.976  86.266  1.00  0.00    -0.387 OA
ATOM     28  H   UNL     1      97.214  86.320  85.967  1.00  0.00     0.211 HD
ENDBRANCH  20  27
BRANCH  21  29
ATOM     29  C   UNL     1      97.041  84.855  87.929  1.00  0.00     0.191 C 
BRANCH  29  30
ATOM     30  O   UNL     1      96.142  84.580  86.890  1.00  0.00    -0.394 OA
ATOM     31  H   UNL     1      96.696  84.422  86.081  1.00  0.00     0.210 HD
ENDBRANCH  29  30
ENDBRANCH  21  29
ENDBRANCH   1  17
TORSDOF 13
ENDMDL
MODEL 7
REMARK VINA RESULT:    -4.609      6.920     10.012
REMARK INTER + INTRA:          -8.898
REMARK INTER:                  -7.621
REMARK INTRA:                  -1.277
REMARK UNBOUND:                -1.864
REMARK SMILES OC[C@H]1O[C@@H](O[C@]2(CO)O[C@H](CO)[C@H](O)[C@@H]2O)[C@H](O)[C@@H](O)[C@H]1O
REMARK SMILES IDX 6 1 5 2 3 3 22 4 4 5 20 6 18 7 2 8 1 9 23 11 21 13 19 15
REMARK SMILES IDX 7 17 16 18 10 19 14 20 11 21 8 22 9 23 17 25 15 27 12 29
REMARK SMILES IDX 13 30
REMARK H PARENT 1 10 23 12 21 14 19 16 9 24 17 26 15 28 13 31
REMARK Flexibility Score: inf
ROOT
ATOM      1  O   UNL     1     100.159  91.047  79.129  1.00  0.00    -0.313 OA
ENDROOT
BRANCH   1   2
ATOM      2  C   UNL     1     101.340  91.436  78.429  1.00  0.00     0.285 C 
ATOM      3  C   UNL     1     102.811  89.910  79.557  1.00  0.00     0.178 C 
ATOM      4  C   UNL     1     103.481  91.059  80.352  1.00  0.00     0.177 C 
ATOM      5  O   UNL     1     102.239  90.337  78.323  1.00  0.00    -0.341 OA
ATOM      6  C   UNL     1     102.568  92.286  80.479  1.00  0.00     0.179 C 
ATOM      7  C   UNL     1     102.005  92.656  79.098  1.00  0.00     0.202 C 
BRANCH   3   8
ATOM      8  C   UNL     1     101.853  89.023  80.384  1.00  0.00     0.191 C 
BRANCH   8   9
ATOM      9  O   UNL     1     102.522  87.883  80.851  1.00  0.00    -0.394 OA
ATOM     10  H   UNL     1     101.824  87.261  81.185  1.00  0.00     0.210 HD
ENDBRANCH   8   9
ENDBRANCH   3   8
BRANCH   4  11
ATOM     11  O   UNL     1     103.885  90.610  81.620  1.00  0.00    -0.387 OA
ATOM     12  H   UNL     1     103.609  91.305  82.274  1.00  0.00     0.211 HD
ENDBRANCH   4  11
BRANCH   6  13
ATOM     13  O   UNL     1     101.528  92.032  81.389  1.00  0.00    -0.387 OA
ATOM     14  H   UNL     1     101.890  92.213  82.297  1.00  0.00     0.211 HD
ENDBRANCH   6  13
BRANCH   7  15
ATOM     15  O   UNL     1     103.038  93.125  78.266  1.00  0.00    -0.385 OA
ATOM     16  H   UNL     1     103.716  92.401  78.210  1.00  0.00     0.211 HD
ENDBRANCH   7  15
ENDBRANCH   1   2
BRANCH   1  17
ATOM     17  C   UNL     1      98.946  91.048  78.370  1.00  0.00     0.224 C 
ATOM     18  C   UNL     1      98.467  89.606  78.008  1.00  0.00     0.208 C 
ATOM     19  O   UNL     1      97.963  91.630  79.213  1.00  0.00    -0.337 OA
ATOM     20  C   UNL     1      97.248  89.392  78.887  1.00  0.00     0.180 C 
ATOM     21  C   UNL     1      96.810  90.821  79.178  1.00  0.00     0.179 C 
BRANCH  17  22
ATOM     22  C   UNL     1      99.040  91.966  77.116  1.00  0.00     0.225 C 
BRANCH  22  23
ATOM     23  O   UNL     1      98.546  91.303  75.983  1.00  0.00    -0.391 OA
ATOM     24  H   UNL     1      98.454  90.349  76.237  1.00  0.00     0.210 HD
ENDBRANCH  22  23
ENDBRANCH  17  22
BRANCH  18  25
ATOM     25  O   UNL     1      99.440  88.622  78.248  1.00  0.00    -0.385 OA
ATOM     26  H   UNL     1      99.292  87.906  77.575  1.00  0.00     0.211 HD
ENDBRANCH  18  25
BRANCH  20  27
ATOM     27  O   UNL     1      97.555  88.672  80.059  1.00  0.00    -0.387 OA
ATOM     28  H   UNL     1      98.514  88.419  80.021  1.00  0.00     0.211 HD
ENDBRANCH  20  27
BRANCH  21  29
ATOM     29  C   UNL     1      95.987  90.990  80.464  1.00  0.00     0.191 C 
BRANCH  29  30
ATOM     30  O   UNL     1      96.823  91.055  81.587  1.00  0.00    -0.394 OA
ATOM     31  H   UNL     1      97.731  91.260  81.242  1.00  0.00     0.210 HD
ENDBRANCH  29  30
ENDBRANCH  21  29
ENDBRANCH   1  17
TORSDOF 13
ENDMDL
MODEL 8
REMARK VINA RESULT:    -4.563      1.644      3.248
REMARK INTER + INTRA:          -8.827
REMARK INTER:                  -7.345
REMARK INTRA:                  -1.482
REMARK UNBOUND:                -1.864
REMARK SMILES OC[C@H]1O[C@@H](O[C@]2(CO)O[C@H](CO)[C@H](O)[C@@H]2O)[C@H](O)[C@@H](O)[C@H]1O
REMARK SMILES IDX 6 1 5 2 3 3 22 4 4 5 20 6 18 7 2 8 1 9 23 11 21 13 19 15
REMARK SMILES IDX 7 17 16 18 10 19 14 20 11 21 8 22 9 23 17 25 15 27 12 29
REMARK SMILES IDX 13 30
REMARK H PARENT 1 10 23 12 21 14 19 16 9 24 17 26 15 28 13 31
REMARK Flexibility Score: inf
ROOT
ATOM      1  O   UNL     1      93.653  85.287  81.459  1.00  0.00    -0.313 OA
ENDROOT
BRANCH   1   2
ATOM      2  C   UNL     1      93.008  84.160  82.048  1.00  0.00     0.285 C 
ATOM      3  C   UNL     1      91.543  83.717  80.199  1.00  0.00     0.178 C 
ATOM      4  C   UNL     1      90.309  84.230  80.983  1.00  0.00     0.177 C 
ATOM      5  O   UNL     1      92.591  83.243  81.041  1.00  0.00    -0.341 OA
ATOM      6  C   UNL     1      90.697  85.204  82.103  1.00  0.00     0.179 C 
ATOM      7  C   UNL     1      91.831  84.599  82.944  1.00  0.00     0.202 C 
BRANCH   3   8
ATOM      8  C   UNL     1      92.050  84.671  79.094  1.00  0.00     0.191 C 
BRANCH   8   9
ATOM      9  O   UNL     1      93.322  84.281  78.655  1.00  0.00    -0.394 OA
ATOM     10  H   UNL     1      93.397  83.307  78.829  1.00  0.00     0.210 HD
ENDBRANCH   8   9
ENDBRANCH   3   8
BRANCH   4  11
ATOM     11  O   UNL     1      89.382  84.823  80.110  1.00  0.00    -0.387 OA
ATOM     12  H   UNL     1      88.499  84.794  80.564  1.00  0.00     0.211 HD
ENDBRANCH   4  11
BRANCH   6  13
ATOM     13  O   UNL     1      91.083  86.443  81.563  1.00  0.00    -0.387 OA
ATOM     14  H   UNL     1      91.958  86.302  81.115  1.00  0.00     0.211 HD
ENDBRANCH   6  13
BRANCH   7  15
ATOM     15  O   UNL     1      91.360  83.483  83.657  1.00  0.00    -0.385 OA
ATOM     16  H   UNL     1      92.103  83.176  84.240  1.00  0.00     0.211 HD
ENDBRANCH   7  15
ENDBRANCH   1   2
BRANCH   1  17
ATOM     17  C   UNL     1      95.025  85.487  81.814  1.00  0.00     0.224 C 
ATOM     18  C   UNL     1      95.985  84.517  81.054  1.00  0.00     0.208 C 
ATOM     19  O   UNL     1      95.341  86.810  81.410  1.00  0.00    -0.337 OA
ATOM     20  C   UNL     1      96.704  85.414  80.063  1.00  0.00     0.180 C 
ATOM     21  C   UNL     1      96.564  86.784  80.712  1.00  0.00     0.179 C 
BRANCH  17  22
ATOM     22  C   UNL     1      95.244  85.439  83.355  1.00  0.00     0.225 C 
BRANCH  22  23
ATOM     23  O   UNL     1      96.522  84.948  83.656  1.00  0.00    -0.391 OA
ATOM     24  H   UNL     1      96.410  84.338  84.430  1.00  0.00     0.210 HD
ENDBRANCH  22  23
ENDBRANCH  17  22
BRANCH  18  25
ATOM     25  O   UNL     1      95.314  83.474  80.396  1.00  0.00    -0.385 OA
ATOM     26  H   UNL     1      95.445  82.658  80.948  1.00  0.00     0.211 HD
ENDBRANCH  18  25
BRANCH  20  27
ATOM     27  O   UNL     1      96.123  85.363  78.779  1.00  0.00    -0.387 OA
ATOM     28  H   UNL     1      95.159  85.153  78.887  1.00  0.00     0.211 HD
ENDBRANCH  20  27
BRANCH  21  29
ATOM     29  C   UNL     1      96.661  87.968  79.737  1.00  0.00     0.191 C 
BRANCH  29  30
ATOM     30  O   UNL     1      97.790  87.846  78.916  1.00  0.00    -0.394 OA
ATOM     31  H   UNL     1      97.625  87.059  78.335  1.00  0.00     0.210 HD
ENDBRANCH  29  30
ENDBRANCH  21  29
ENDBRANCH   1  17
TORSDOF 13
ENDMDL
MODEL 9
REMARK VINA RESULT:    -4.530      3.498      5.749
REMARK INTER + INTRA:          -8.777
REMARK INTER:                  -7.653
REMARK INTRA:                  -1.124
REMARK UNBOUND:                -1.864
REMARK SMILES OC[C@H]1O[C@@H](O[C@]2(CO)O[C@H](CO)[C@H](O)[C@@H]2O)[C@H](O)[C@@H](O)[C@H]1O
REMARK SMILES IDX 6 1 5 2 3 3 22 4 4 5 20 6 18 7 2 8 1 9 23 11 21 13 19 15
REMARK SMILES IDX 7 17 16 18 10 19 14 20 11 21 8 22 9 23 17 25 15 27 12 29
REMARK SMILES IDX 13 30
REMARK H PARENT 1 10 23 12 21 14 19 16 9 24 17 26 15 28 13 31
REMARK Flexibility Score: inf
ROOT
ATOM      1  O   UNL     1      98.042  85.741  82.783  1.00  0.00    -0.313 OA
ENDROOT
BRANCH   1   2
ATOM      2  C   UNL     1      98.495  85.419  81.469  1.00  0.00     0.285 C 
ATOM      3  C   UNL     1      96.976  86.878  80.317  1.00  0.00     0.178 C 
ATOM      4  C   UNL     1      96.135  85.684  79.801  1.00  0.00     0.177 C 
ATOM      5  O   UNL     1      98.331  86.535  80.600  1.00  0.00    -0.341 OA
ATOM      6  C   UNL     1      96.292  84.439  80.684  1.00  0.00     0.179 C 
ATOM      7  C   UNL     1      97.783  84.162  80.928  1.00  0.00     0.202 C 
BRANCH   3   8
ATOM      8  C   UNL     1      96.317  87.690  81.454  1.00  0.00     0.191 C 
BRANCH   8   9
ATOM      9  O   UNL     1      95.415  88.626  80.929  1.00  0.00    -0.394 OA
ATOM     10  H   UNL     1      94.563  88.143  80.771  1.00  0.00     0.210 HD
ENDBRANCH   8   9
ENDBRANCH   3   8
BRANCH   4  11
ATOM     11  O   UNL     1      94.782  86.045  79.690  1.00  0.00    -0.387 OA
ATOM     12  H   UNL     1      94.522  86.455  80.557  1.00  0.00     0.211 HD
ENDBRANCH   4  11
BRANCH   6  13
ATOM     13  O   UNL     1      95.611  84.613  81.901  1.00  0.00    -0.387 OA
ATOM     14  H   UNL     1      95.975  83.938  82.533  1.00  0.00     0.211 HD
ENDBRANCH   6  13
BRANCH   7  15
ATOM     15  O   UNL     1      98.402  83.769  79.728  1.00  0.00    -0.385 OA
ATOM     16  H   UNL     1      99.345  83.547  79.948  1.00  0.00     0.211 HD
ENDBRANCH   7  15
ENDBRANCH   1   2
BRANCH   1  17
ATOM     17  C   UNL     1      99.056  85.917  83.776  1.00  0.00     0.224 C 
ATOM     18  C   UNL     1      99.183  84.682  84.723  1.00  0.00     0.208 C 
ATOM     19  O   UNL     1     100.278  86.042  83.065  1.00  0.00    -0.337 OA
ATOM     20  C   UNL     1     100.497  84.039  84.315  1.00  0.00     0.180 C 
ATOM     21  C   UNL     1     101.234  85.204  83.670  1.00  0.00     0.179 C 
BRANCH  17  22
ATOM     22  C   UNL     1      98.876  87.245  84.568  1.00  0.00     0.225 C 
BRANCH  22  23
ATOM     23  O   UNL     1      99.040  88.350  83.719  1.00  0.00    -0.391 OA
ATOM     24  H   UNL     1      98.198  88.428  83.200  1.00  0.00     0.210 HD
ENDBRANCH  22  23
ENDBRANCH  17  22
BRANCH  18  25
ATOM     25  O   UNL     1      98.118  83.775  84.600  1.00  0.00    -0.385 OA
ATOM     26  H   UNL     1      98.438  83.037  84.015  1.00  0.00     0.211 HD
ENDBRANCH  18  25
BRANCH  20  27
ATOM     27  O   UNL     1     100.308  82.961  83.427  1.00  0.00    -0.387 OA
ATOM     28  H   UNL     1     101.017  83.006  82.733  1.00  0.00     0.211 HD
ENDBRANCH  20  27
BRANCH  21  29
ATOM     29  C   UNL     1     102.318  84.796  82.660  1.00  0.00     0.191 C 
BRANCH  29  30
ATOM     30  O   UNL     1     103.579  85.244  83.074  1.00  0.00    -0.394 OA
ATOM     31  H   UNL     1     104.242  84.648  82.635  1.00  0.00     0.210 HD
ENDBRANCH  29  30
ENDBRANCH  21  29
ENDBRANCH   1  17
TORSDOF 13
ENDMDL
