MODEL 1
REMARK VINA RESULT:    -6.736      0.000      0.000
REMARK INTER + INTRA:          -6.933
REMARK INTER:                  -6.933
REMARK INTRA:                   0.000
REMARK UNBOUND:                 0.000
REMARK SMILES C[C@H]1CC[C@]2(OC1)O[C@H]1C[C@H]3[C@H]4CC=C5C[C@@H](O)CC[C@]5(C)[C@@H]4CC[C@@]3(C)[C@H]1[C@H]2C
REMARK SMILES IDX 1 1 2 2 3 3 4 4 5 5 29 6 28 7 9 8 8 9 10 10 11 11 26 12
REMARK SMILES IDX 25 13 24 14 23 15 12 16 13 17 14 18 15 19 21 20 20 21 19 22
REMARK SMILES IDX 17 23 16 24 22 25 27 26 30 27 6 28 7 29 18 30
REMARK H PARENT 18 31
REMARK Flexibility Score: inf
ROOT
ATOM      1  C   UNL     1     -13.585  26.229  24.630  1.00  0.00     0.010 C 
ATOM      2  C   UNL     1     -14.649  26.804  25.571  1.00  0.00     0.012 C 
ATOM      3  C   UNL     1     -16.050  26.650  24.970  1.00  0.00     0.011 C 
ATOM      4  C   UNL     1     -17.108  27.104  25.977  1.00  0.00     0.066 C 
ATOM      5  C   UNL     1     -16.903  26.409  27.347  1.00  0.00     0.171 C 
ATOM      6  C   UNL     1     -17.919  26.950  28.377  1.00  0.00     0.052 C 
ATOM      7  C   UNL     1     -18.457  25.705  29.065  1.00  0.00     0.033 C 
ATOM      8  C   UNL     1     -18.269  24.665  27.982  1.00  0.00     0.126 C 
ATOM      9  O   UNL     1     -17.136  25.011  27.209  1.00  0.00    -0.346 OA
ATOM     10  C   UNL     1     -18.072  23.321  28.688  1.00  0.00     0.037 C 
ATOM     11  C   UNL     1     -18.273  23.601  30.187  1.00  0.00     0.002 C 
ATOM     12  C   UNL     1     -17.839  25.076  30.360  1.00  0.00    -0.024 C 
ATOM     13  C   UNL     1     -16.282  25.146  30.440  1.00  0.00     0.008 C 
ATOM     14  C   UNL     1     -15.693  24.217  31.505  1.00  0.00     0.005 C 
ATOM     15  C   UNL     1     -16.061  22.738  31.244  1.00  0.00     0.003 C 
ATOM     16  C   UNL     1     -17.595  22.586  31.159  1.00  0.00     0.000 C 
ATOM     17  C   UNL     1     -17.935  21.141  30.764  1.00  0.00     0.031 C 
ATOM     18  C   UNL     1     -17.335  20.165  31.724  1.00  0.00    -0.027 C 
ATOM     19  C   UNL     1     -16.166  20.385  32.360  1.00  0.00    -0.065 C 
ATOM     20  C   UNL     1     -15.406  21.724  32.279  1.00  0.00    -0.008 C 
ATOM     21  C   UNL     1     -15.379  22.313  33.728  1.00  0.00     0.014 C 
ATOM     22  C   UNL     1     -14.930  21.312  34.812  1.00  0.00     0.033 C 
ATOM     23  C   UNL     1     -15.760  20.021  34.785  1.00  0.00     0.118 C 
ATOM     24  C   UNL     1     -15.710  19.376  33.393  1.00  0.00     0.063 C 
ATOM     25  C   UNL     1     -13.956  21.444  31.805  1.00  0.00     0.016 C 
ATOM     26  C   UNL     1     -18.482  25.703  31.620  1.00  0.00     0.012 C 
ATOM     27  C   UNL     1     -17.468  28.125  29.259  1.00  0.00     0.014 C 
ATOM     28  O   UNL     1     -15.580  26.646  27.817  1.00  0.00    -0.349 OA
ATOM     29  C   UNL     1     -14.601  26.110  26.942  1.00  0.00     0.167 C 
ENDROOT
BRANCH  23  30
ATOM     30  O   UNL     1     -15.253  19.129  35.743  1.00  0.00    -0.393 OA
ATOM     31  H   UNL     1     -15.917  19.093  36.480  1.00  0.00     0.210 HD
ENDBRANCH  23  30
TORSDOF 1
ENDMDL
MODEL 2
REMARK VINA RESULT:    -6.572      2.928      9.477
REMARK INTER + INTRA:          -6.764
REMARK INTER:                  -6.764
REMARK INTRA:                   0.000
REMARK UNBOUND:                 0.000
REMARK SMILES C[C@H]1CC[C@]2(OC1)O[C@H]1C[C@H]3[C@H]4CC=C5C[C@@H](O)CC[C@]5(C)[C@@H]4CC[C@@]3(C)[C@H]1[C@H]2C
REMARK SMILES IDX 1 1 2 2 3 3 4 4 5 5 29 6 28 7 9 8 8 9 10 10 11 11 26 12
REMARK SMILES IDX 25 13 24 14 23 15 12 16 13 17 14 18 15 19 21 20 20 21 19 22
REMARK SMILES IDX 17 23 16 24 22 25 27 26 30 27 6 28 7 29 18 30
REMARK H PARENT 18 31
REMARK Flexibility Score: inf
ROOT
ATOM      1  C   UNL     1     -16.687  12.681  32.710  1.00  0.00     0.010 C 
ATOM      2  C   UNL     1     -16.361  13.726  33.781  1.00  0.00     0.012 C 
ATOM      3  C   UNL     1     -14.867  13.708  34.124  1.00  0.00     0.011 C 
ATOM      4  C   UNL     1     -14.535  14.845  35.092  1.00  0.00     0.066 C 
ATOM      5  C   UNL     1     -15.069  16.199  34.560  1.00  0.00     0.171 C 
ATOM      6  C   UNL     1     -14.810  17.317  35.593  1.00  0.00     0.052 C 
ATOM      7  C   UNL     1     -14.250  18.467  34.770  1.00  0.00     0.033 C 
ATOM      8  C   UNL     1     -13.626  17.724  33.610  1.00  0.00     0.126 C 
ATOM      9  O   UNL     1     -14.372  16.548  33.367  1.00  0.00    -0.346 OA
ATOM     10  C   UNL     1     -13.668  18.668  32.405  1.00  0.00     0.037 C 
ATOM     11  C   UNL     1     -14.218  20.003  32.936  1.00  0.00     0.002 C 
ATOM     12  C   UNL     1     -15.123  19.595  34.122  1.00  0.00    -0.024 C 
ATOM     13  C   UNL     1     -16.503  19.116  33.572  1.00  0.00     0.008 C 
ATOM     14  C   UNL     1     -17.162  20.132  32.634  1.00  0.00     0.005 C 
ATOM     15  C   UNL     1     -16.273  20.439  31.406  1.00  0.00     0.003 C 
ATOM     16  C   UNL     1     -14.885  20.929  31.872  1.00  0.00     0.000 C 
ATOM     17  C   UNL     1     -13.974  21.095  30.646  1.00  0.00     0.031 C 
ATOM     18  C   UNL     1     -14.582  22.026  29.647  1.00  0.00    -0.027 C 
ATOM     19  C   UNL     1     -15.913  22.136  29.461  1.00  0.00    -0.065 C 
ATOM     20  C   UNL     1     -16.947  21.429  30.360  1.00  0.00    -0.008 C 
ATOM     21  C   UNL     1     -17.766  22.554  31.074  1.00  0.00     0.014 C 
ATOM     22  C   UNL     1     -18.290  23.655  30.128  1.00  0.00     0.033 C 
ATOM     23  C   UNL     1     -17.167  24.275  29.287  1.00  0.00     0.118 C 
ATOM     24  C   UNL     1     -16.419  23.191  28.500  1.00  0.00     0.063 C 
ATOM     25  C   UNL     1     -17.892  20.587  29.463  1.00  0.00     0.016 C 
ATOM     26  C   UNL     1     -15.305  20.769  35.114  1.00  0.00     0.012 C 
ATOM     27  C   UNL     1     -15.935  17.625  36.593  1.00  0.00     0.014 C 
ATOM     28  O   UNL     1     -16.467  16.103  34.306  1.00  0.00    -0.349 OA
ATOM     29  C   UNL     1     -16.761  15.134  33.313  1.00  0.00     0.167 C 
ENDROOT
BRANCH  23  30
ATOM     30  O   UNL     1     -17.721  25.213  28.401  1.00  0.00    -0.393 OA
ATOM     31  H   UNL     1     -18.699  25.044  28.381  1.00  0.00     0.210 HD
ENDBRANCH  23  30
TORSDOF 1
ENDMDL
MODEL 3
REMARK VINA RESULT:    -6.371      3.984      9.846
REMARK INTER + INTRA:          -6.557
REMARK INTER:                  -6.557
REMARK INTRA:                   0.000
REMARK UNBOUND:                 0.000
REMARK SMILES C[C@H]1CC[C@]2(OC1)O[C@H]1C[C@H]3[C@H]4CC=C5C[C@@H](O)CC[C@]5(C)[C@@H]4CC[C@@]3(C)[C@H]1[C@H]2C
REMARK SMILES IDX 1 1 2 2 3 3 4 4 5 5 29 6 28 7 9 8 8 9 10 10 11 11 26 12
REMARK SMILES IDX 25 13 24 14 23 15 12 16 13 17 14 18 15 19 21 20 20 21 19 22
REMARK SMILES IDX 17 23 16 24 22 25 27 26 30 27 6 28 7 29 18 30
REMARK H PARENT 18 31
REMARK Flexibility Score: inf
ROOT
ATOM      1  C   UNL     1     -17.843  12.032  32.128  1.00  0.00     0.010 C 
ATOM      2  C   UNL     1     -16.691  12.755  32.832  1.00  0.00     0.012 C 
ATOM      3  C   UNL     1     -15.341  12.333  32.243  1.00  0.00     0.011 C 
ATOM      4  C   UNL     1     -14.214  13.162  32.861  1.00  0.00     0.066 C 
ATOM      5  C   UNL     1     -14.525  14.678  32.766  1.00  0.00     0.171 C 
ATOM      6  C   UNL     1     -13.424  15.494  33.478  1.00  0.00     0.052 C 
ATOM      7  C   UNL     1     -13.101  16.618  32.507  1.00  0.00     0.033 C 
ATOM      8  C   UNL     1     -13.470  15.982  31.185  1.00  0.00     0.126 C 
ATOM      9  O   UNL     1     -14.534  15.074  31.397  1.00  0.00    -0.346 OA
ATOM     10  C   UNL     1     -13.888  17.118  30.248  1.00  0.00     0.037 C 
ATOM     11  C   UNL     1     -13.632  18.420  31.027  1.00  0.00     0.002 C 
ATOM     12  C   UNL     1     -13.807  18.016  32.510  1.00  0.00    -0.024 C 
ATOM     13  C   UNL     1     -15.330  17.977  32.853  1.00  0.00     0.008 C 
ATOM     14  C   UNL     1     -16.061  19.273  32.492  1.00  0.00     0.005 C 
ATOM     15  C   UNL     1     -15.951  19.593  30.983  1.00  0.00     0.003 C 
ATOM     16  C   UNL     1     -14.466  19.656  30.566  1.00  0.00     0.000 C 
ATOM     17  C   UNL     1     -14.379  19.836  29.043  1.00  0.00     0.031 C 
ATOM     18  C   UNL     1     -15.129  21.051  28.601  1.00  0.00    -0.027 C 
ATOM     19  C   UNL     1     -16.240  21.495  29.225  1.00  0.00    -0.065 C 
ATOM     20  C   UNL     1     -16.761  20.888  30.542  1.00  0.00    -0.008 C 
ATOM     21  C   UNL     1     -16.678  22.017  31.622  1.00  0.00     0.014 C 
ATOM     22  C   UNL     1     -17.283  23.365  31.178  1.00  0.00     0.033 C 
ATOM     23  C   UNL     1     -16.685  23.858  29.854  1.00  0.00     0.118 C 
ATOM     24  C   UNL     1     -16.853  22.799  28.757  1.00  0.00     0.063 C 
ATOM     25  C   UNL     1     -18.241  20.468  30.343  1.00  0.00     0.016 C 
ATOM     26  C   UNL     1     -13.058  18.994  33.446  1.00  0.00     0.012 C 
ATOM     27  C   UNL     1     -13.663  15.858  34.952  1.00  0.00     0.014 C 
ATOM     28  O   UNL     1     -15.785  14.952  33.368  1.00  0.00    -0.349 OA
ATOM     29  C   UNL     1     -16.846  14.280  32.711  1.00  0.00     0.167 C 
ENDROOT
BRANCH  23  30
ATOM     30  O   UNL     1     -17.329  25.046  29.474  1.00  0.00    -0.393 OA
ATOM     31  H   UNL     1     -18.187  24.783  29.048  1.00  0.00     0.210 HD
ENDBRANCH  23  30
TORSDOF 1
ENDMDL
MODEL 4
REMARK VINA RESULT:    -6.328      6.552     11.855
REMARK INTER + INTRA:          -6.513
REMARK INTER:                  -6.513
REMARK INTRA:                   0.000
REMARK UNBOUND:                 0.000
REMARK SMILES C[C@H]1CC[C@]2(OC1)O[C@H]1C[C@H]3[C@H]4CC=C5C[C@@H](O)CC[C@]5(C)[C@@H]4CC[C@@]3(C)[C@H]1[C@H]2C
REMARK SMILES IDX 1 1 2 2 3 3 4 4 5 5 29 6 28 7 9 8 8 9 10 10 11 11 26 12
REMARK SMILES IDX 25 13 24 14 23 15 12 16 13 17 14 18 15 19 21 20 20 21 19 22
REMARK SMILES IDX 17 23 16 24 22 25 27 26 30 27 6 28 7 29 18 30
REMARK H PARENT 18 31
REMARK Flexibility Score: inf
ROOT
ATOM      1  C   UNL     1     -19.374  10.896  30.820  1.00  0.00     0.010 C 
ATOM      2  C   UNL     1     -18.336  10.744  31.936  1.00  0.00     0.012 C 
ATOM      3  C   UNL     1     -17.041  10.128  31.396  1.00  0.00     0.011 C 
ATOM      4  C   UNL     1     -15.971  10.108  32.490  1.00  0.00     0.066 C 
ATOM      5  C   UNL     1     -15.812  11.509  33.135  1.00  0.00     0.171 C 
ATOM      6  C   UNL     1     -14.799  11.448  34.299  1.00  0.00     0.052 C 
ATOM      7  C   UNL     1     -13.904  12.657  34.082  1.00  0.00     0.033 C 
ATOM      8  C   UNL     1     -14.016  12.843  32.585  1.00  0.00     0.126 C 
ATOM      9  O   UNL     1     -15.299  12.420  32.168  1.00  0.00    -0.346 OA
ATOM     10  C   UNL     1     -13.804  14.334  32.307  1.00  0.00     0.037 C 
ATOM     11  C   UNL     1     -13.450  14.968  33.663  1.00  0.00     0.002 C 
ATOM     12  C   UNL     1     -14.168  14.073  34.700  1.00  0.00    -0.024 C 
ATOM     13  C   UNL     1     -15.672  14.482  34.774  1.00  0.00     0.008 C 
ATOM     14  C   UNL     1     -15.877  15.977  35.027  1.00  0.00     0.005 C 
ATOM     15  C   UNL     1     -15.234  16.840  33.917  1.00  0.00     0.003 C 
ATOM     16  C   UNL     1     -13.735  16.497  33.787  1.00  0.00     0.000 C 
ATOM     17  C   UNL     1     -13.147  17.261  32.591  1.00  0.00     0.031 C 
ATOM     18  C   UNL     1     -13.367  18.732  32.731  1.00  0.00    -0.027 C 
ATOM     19  C   UNL     1     -14.448  19.258  33.343  1.00  0.00    -0.065 C 
ATOM     20  C   UNL     1     -15.488  18.400  34.091  1.00  0.00    -0.008 C 
ATOM     21  C   UNL     1     -15.429  18.831  35.594  1.00  0.00     0.014 C 
ATOM     22  C   UNL     1     -15.479  20.357  35.819  1.00  0.00     0.033 C 
ATOM     23  C   UNL     1     -14.399  21.095  35.018  1.00  0.00     0.118 C 
ATOM     24  C   UNL     1     -14.511  20.760  33.525  1.00  0.00     0.063 C 
ATOM     25  C   UNL     1     -16.894  18.712  33.516  1.00  0.00     0.016 C 
ATOM     26  C   UNL     1     -13.499  14.184  36.091  1.00  0.00     0.012 C 
ATOM     27  C   UNL     1     -15.362  11.209  35.709  1.00  0.00     0.014 C 
ATOM     28  O   UNL     1     -17.070  11.963  33.623  1.00  0.00    -0.349 OA
ATOM     29  C   UNL     1     -18.025  12.102  32.585  1.00  0.00     0.167 C 
ENDROOT
BRANCH  23  30
ATOM     30  O   UNL     1     -14.548  22.477  35.211  1.00  0.00    -0.393 OA
ATOM     31  H   UNL     1     -15.523  22.654  35.271  1.00  0.00     0.210 HD
ENDBRANCH  23  30
TORSDOF 1
ENDMDL
MODEL 5
REMARK VINA RESULT:    -6.327      5.487      9.275
REMARK INTER + INTRA:          -6.512
REMARK INTER:                  -6.512
REMARK INTRA:                   0.000
REMARK UNBOUND:                 0.000
REMARK SMILES C[C@H]1CC[C@]2(OC1)O[C@H]1C[C@H]3[C@H]4CC=C5C[C@@H](O)CC[C@]5(C)[C@@H]4CC[C@@]3(C)[C@H]1[C@H]2C
REMARK SMILES IDX 1 1 2 2 3 3 4 4 5 5 29 6 28 7 9 8 8 9 10 10 11 11 26 12
REMARK SMILES IDX 25 13 24 14 23 15 12 16 13 17 14 18 15 19 21 20 20 21 19 22
REMARK SMILES IDX 17 23 16 24 22 25 27 26 30 27 6 28 7 29 18 30
REMARK H PARENT 18 31
REMARK Flexibility Score: inf
ROOT
ATOM      1  C   UNL     1     -17.879  21.556  29.970  1.00  0.00     0.010 C 
ATOM      2  C   UNL     1     -16.444  21.020  29.994  1.00  0.00     0.012 C 
ATOM      3  C   UNL     1     -15.657  21.617  31.166  1.00  0.00     0.011 C 
ATOM      4  C   UNL     1     -14.274  20.971  31.254  1.00  0.00     0.066 C 
ATOM      5  C   UNL     1     -14.383  19.425  31.260  1.00  0.00     0.171 C 
ATOM      6  C   UNL     1     -12.976  18.790  31.253  1.00  0.00     0.052 C 
ATOM      7  C   UNL     1     -13.049  17.701  32.312  1.00  0.00     0.033 C 
ATOM      8  C   UNL     1     -14.125  18.248  33.224  1.00  0.00     0.126 C 
ATOM      9  O   UNL     1     -15.040  19.000  32.451  1.00  0.00    -0.346 OA
ATOM     10  C   UNL     1     -14.808  17.043  33.877  1.00  0.00     0.037 C 
ATOM     11  C   UNL     1     -14.018  15.809  33.409  1.00  0.00     0.002 C 
ATOM     12  C   UNL     1     -13.460  16.217  32.025  1.00  0.00    -0.024 C 
ATOM     13  C   UNL     1     -14.580  16.047  30.951  1.00  0.00     0.008 C 
ATOM     14  C   UNL     1     -15.212  14.652  30.958  1.00  0.00     0.005 C 
ATOM     15  C   UNL     1     -15.850  14.317  32.326  1.00  0.00     0.003 C 
ATOM     16  C   UNL     1     -14.796  14.457  33.445  1.00  0.00     0.000 C 
ATOM     17  C   UNL     1     -15.479  14.256  34.806  1.00  0.00     0.031 C 
ATOM     18  C   UNL     1     -16.179  12.938  34.868  1.00  0.00    -0.027 C 
ATOM     19  C   UNL     1     -16.742  12.354  33.789  1.00  0.00    -0.065 C 
ATOM     20  C   UNL     1     -16.590  12.910  32.360  1.00  0.00    -0.008 C 
ATOM     21  C   UNL     1     -15.814  11.830  31.537  1.00  0.00     0.014 C 
ATOM     22  C   UNL     1     -16.375  10.399  31.681  1.00  0.00     0.033 C 
ATOM     23  C   UNL     1     -16.481   9.966  33.149  1.00  0.00     0.118 C 
ATOM     24  C   UNL     1     -17.327  10.966  33.948  1.00  0.00     0.063 C 
ATOM     25  C   UNL     1     -18.003  13.111  31.753  1.00  0.00     0.016 C 
ATOM     26  C   UNL     1     -12.214  15.377  31.656  1.00  0.00     0.012 C 
ATOM     27  C   UNL     1     -12.374  18.429  29.886  1.00  0.00     0.014 C 
ATOM     28  O   UNL     1     -15.107  18.987  30.114  1.00  0.00    -0.349 OA
ATOM     29  C   UNL     1     -16.433  19.487  30.100  1.00  0.00     0.167 C 
ENDROOT
BRANCH  23  30
ATOM     30  O   UNL     1     -17.063   8.691  33.211  1.00  0.00    -0.393 OA
ATOM     31  H   UNL     1     -17.292   8.526  34.162  1.00  0.00     0.210 HD
ENDBRANCH  23  30
TORSDOF 1
ENDMDL
MODEL 6
REMARK VINA RESULT:    -6.235      2.164      8.771
REMARK INTER + INTRA:          -6.417
REMARK INTER:                  -6.417
REMARK INTRA:                   0.000
REMARK UNBOUND:                 0.000
REMARK SMILES C[C@H]1CC[C@]2(OC1)O[C@H]1C[C@H]3[C@H]4CC=C5C[C@@H](O)CC[C@]5(C)[C@@H]4CC[C@@]3(C)[C@H]1[C@H]2C
REMARK SMILES IDX 1 1 2 2 3 3 4 4 5 5 29 6 28 7 9 8 8 9 10 10 11 11 26 12
REMARK SMILES IDX 25 13 24 14 23 15 12 16 13 17 14 18 15 19 21 20 20 21 19 22
REMARK SMILES IDX 17 23 16 24 22 25 27 26 30 27 6 28 7 29 18 30
REMARK H PARENT 18 31
REMARK Flexibility Score: inf
ROOT
ATOM      1  C   UNL     1     -16.379  19.772  39.259  1.00  0.00     0.010 C 
ATOM      2  C   UNL     1     -15.599  19.243  38.052  1.00  0.00     0.012 C 
ATOM      3  C   UNL     1     -16.282  18.005  37.461  1.00  0.00     0.011 C 
ATOM      4  C   UNL     1     -15.568  17.572  36.179  1.00  0.00     0.066 C 
ATOM      5  C   UNL     1     -15.411  18.764  35.201  1.00  0.00     0.171 C 
ATOM      6  C   UNL     1     -14.605  18.330  33.957  1.00  0.00     0.052 C 
ATOM      7  C   UNL     1     -15.391  18.895  32.784  1.00  0.00     0.033 C 
ATOM      8  C   UNL     1     -16.788  18.947  33.363  1.00  0.00     0.126 C 
ATOM      9  O   UNL     1     -16.697  19.182  34.754  1.00  0.00    -0.346 OA
ATOM     10  C   UNL     1     -17.520  20.088  32.652  1.00  0.00     0.037 C 
ATOM     11  C   UNL     1     -16.549  20.603  31.575  1.00  0.00     0.002 C 
ATOM     12  C   UNL     1     -15.146  20.309  32.157  1.00  0.00    -0.024 C 
ATOM     13  C   UNL     1     -14.775  21.423  33.185  1.00  0.00     0.008 C 
ATOM     14  C   UNL     1     -14.904  22.837  32.612  1.00  0.00     0.005 C 
ATOM     15  C   UNL     1     -16.345  23.133  32.134  1.00  0.00     0.003 C 
ATOM     16  C   UNL     1     -16.784  22.072  31.103  1.00  0.00     0.000 C 
ATOM     17  C   UNL     1     -18.260  22.301  30.745  1.00  0.00     0.031 C 
ATOM     18  C   UNL     1     -18.482  23.689  30.237  1.00  0.00    -0.027 C 
ATOM     19  C   UNL     1     -17.767  24.750  30.665  1.00  0.00    -0.065 C 
ATOM     20  C   UNL     1     -16.550  24.618  31.603  1.00  0.00    -0.008 C 
ATOM     21  C   UNL     1     -15.306  25.122  30.800  1.00  0.00     0.014 C 
ATOM     22  C   UNL     1     -15.512  26.481  30.099  1.00  0.00     0.033 C 
ATOM     23  C   UNL     1     -16.755  26.484  29.199  1.00  0.00     0.118 C 
ATOM     24  C   UNL     1     -18.003  26.090  30.000  1.00  0.00     0.063 C 
ATOM     25  C   UNL     1     -16.776  25.528  32.839  1.00  0.00     0.016 C 
ATOM     26  C   UNL     1     -14.085  20.222  31.035  1.00  0.00     0.012 C 
ATOM     27  C   UNL     1     -13.086  18.563  33.988  1.00  0.00     0.014 C 
ATOM     28  O   UNL     1     -14.740  19.838  35.851  1.00  0.00    -0.349 OA
ATOM     29  C   UNL     1     -15.469  20.323  36.966  1.00  0.00     0.167 C 
ENDROOT
BRANCH  23  30
ATOM     30  O   UNL     1     -16.923  27.766  28.653  1.00  0.00    -0.393 OA
ATOM     31  H   UNL     1     -16.026  28.190  28.638  1.00  0.00     0.210 HD
ENDBRANCH  23  30
TORSDOF 1
ENDMDL
MODEL 7
REMARK VINA RESULT:    -6.142      1.888      8.056
REMARK INTER + INTRA:          -6.321
REMARK INTER:                  -6.321
REMARK INTRA:                   0.000
REMARK UNBOUND:                 0.000
REMARK SMILES C[C@H]1CC[C@]2(OC1)O[C@H]1C[C@H]3[C@H]4CC=C5C[C@@H](O)CC[C@]5(C)[C@@H]4CC[C@@]3(C)[C@H]1[C@H]2C
REMARK SMILES IDX 1 1 2 2 3 3 4 4 5 5 29 6 28 7 9 8 8 9 10 10 11 11 26 12
REMARK SMILES IDX 25 13 24 14 23 15 12 16 13 17 14 18 15 19 21 20 20 21 19 22
REMARK SMILES IDX 17 23 16 24 22 25 27 26 30 27 6 28 7 29 18 30
REMARK H PARENT 18 31
REMARK Flexibility Score: inf
ROOT
ATOM      1  C   UNL     1     -13.855  21.757  36.475  1.00  0.00     0.010 C 
ATOM      2  C   UNL     1     -14.203  20.770  35.356  1.00  0.00     0.012 C 
ATOM      3  C   UNL     1     -15.633  20.243  35.519  1.00  0.00     0.011 C 
ATOM      4  C   UNL     1     -16.010  19.367  34.323  1.00  0.00     0.066 C 
ATOM      5  C   UNL     1     -15.731  20.102  32.987  1.00  0.00     0.171 C 
ATOM      6  C   UNL     1     -16.027  19.169  31.793  1.00  0.00     0.052 C 
ATOM      7  C   UNL     1     -16.828  20.032  30.830  1.00  0.00     0.033 C 
ATOM      8  C   UNL     1     -17.468  21.019  31.781  1.00  0.00     0.126 C 
ATOM      9  O   UNL     1     -16.597  21.228  32.876  1.00  0.00    -0.346 OA
ATOM     10  C   UNL     1     -17.690  22.313  30.993  1.00  0.00     0.037 C 
ATOM     11  C   UNL     1     -17.274  22.000  29.546  1.00  0.00     0.002 C 
ATOM     12  C   UNL     1     -16.196  20.900  29.689  1.00  0.00    -0.024 C 
ATOM     13  C   UNL     1     -14.832  21.566  30.056  1.00  0.00     0.008 C 
ATOM     14  C   UNL     1     -14.429  22.681  29.088  1.00  0.00     0.005 C 
ATOM     15  C   UNL     1     -15.482  23.813  29.045  1.00  0.00     0.003 C 
ATOM     16  C   UNL     1     -16.864  23.232  28.680  1.00  0.00     0.000 C 
ATOM     17  C   UNL     1     -17.918  24.344  28.779  1.00  0.00     0.031 C 
ATOM     18  C   UNL     1     -17.560  25.504  27.908  1.00  0.00    -0.027 C 
ATOM     19  C   UNL     1     -16.285  25.867  27.656  1.00  0.00    -0.065 C 
ATOM     20  C   UNL     1     -15.071  25.034  28.114  1.00  0.00    -0.008 C 
ATOM     21  C   UNL     1     -14.341  24.552  26.817  1.00  0.00     0.014 C 
ATOM     22  C   UNL     1     -14.082  25.668  25.783  1.00  0.00     0.033 C 
ATOM     23  C   UNL     1     -15.366  26.422  25.414  1.00  0.00     0.118 C 
ATOM     24  C   UNL     1     -16.039  26.990  26.671  1.00  0.00     0.063 C 
ATOM     25  C   UNL     1     -14.123  25.949  28.934  1.00  0.00     0.016 C 
ATOM     26  C   UNL     1     -16.070  20.069  28.390  1.00  0.00     0.012 C 
ATOM     27  C   UNL     1     -14.852  18.356  31.227  1.00  0.00     0.014 C 
ATOM     28  O   UNL     1     -14.370  20.518  32.939  1.00  0.00    -0.349 OA
ATOM     29  C   UNL     1     -14.057  21.431  33.976  1.00  0.00     0.167 C 
ENDROOT
BRANCH  23  30
ATOM     30  O   UNL     1     -15.049  27.465  24.530  1.00  0.00    -0.393 OA
ATOM     31  H   UNL     1     -15.498  27.257  23.669  1.00  0.00     0.210 HD
ENDBRANCH  23  30
TORSDOF 1
ENDMDL
MODEL 8
REMARK VINA RESULT:    -6.028      2.172      8.527
REMARK INTER + INTRA:          -6.204
REMARK INTER:                  -6.204
REMARK INTRA:                   0.000
REMARK UNBOUND:                 0.000
REMARK SMILES C[C@H]1CC[C@]2(OC1)O[C@H]1C[C@H]3[C@H]4CC=C5C[C@@H](O)CC[C@]5(C)[C@@H]4CC[C@@]3(C)[C@H]1[C@H]2C
REMARK SMILES IDX 1 1 2 2 3 3 4 4 5 5 29 6 28 7 9 8 8 9 10 10 11 11 26 12
REMARK SMILES IDX 25 13 24 14 23 15 12 16 13 17 14 18 15 19 21 20 20 21 19 22
REMARK SMILES IDX 17 23 16 24 22 25 27 26 30 27 6 28 7 29 18 30
REMARK H PARENT 18 31
REMARK Flexibility Score: inf
ROOT
ATOM      1  C   UNL     1     -14.124  21.973  38.158  1.00  0.00     0.010 C 
ATOM      2  C   UNL     1     -14.087  20.767  37.215  1.00  0.00     0.012 C 
ATOM      3  C   UNL     1     -15.335  19.896  37.394  1.00  0.00     0.011 C 
ATOM      4  C   UNL     1     -15.348  18.775  36.353  1.00  0.00     0.066 C 
ATOM      5  C   UNL     1     -15.144  19.341  34.925  1.00  0.00     0.171 C 
ATOM      6  C   UNL     1     -15.064  18.188  33.901  1.00  0.00     0.052 C 
ATOM      7  C   UNL     1     -15.965  18.634  32.761  1.00  0.00     0.033 C 
ATOM      8  C   UNL     1     -16.934  19.541  33.488  1.00  0.00     0.126 C 
ATOM      9  O   UNL     1     -16.261  20.151  34.572  1.00  0.00    -0.346 OA
ATOM     10  C   UNL     1     -17.412  20.584  32.473  1.00  0.00     0.037 C 
ATOM     11  C   UNL     1     -16.788  20.176  31.127  1.00  0.00     0.002 C 
ATOM     12  C   UNL     1     -15.477  19.455  31.519  1.00  0.00    -0.024 C 
ATOM     13  C   UNL     1     -14.381  20.521  31.832  1.00  0.00     0.008 C 
ATOM     14  C   UNL     1     -14.193  21.539  30.704  1.00  0.00     0.005 C 
ATOM     15  C   UNL     1     -15.499  22.314  30.408  1.00  0.00     0.003 C 
ATOM     16  C   UNL     1     -16.635  21.323  30.080  1.00  0.00     0.000 C 
ATOM     17  C   UNL     1     -17.951  22.100  29.926  1.00  0.00     0.031 C 
ATOM     18  C   UNL     1     -17.828  23.164  28.883  1.00  0.00    -0.027 C 
ATOM     19  C   UNL     1     -16.676  23.822  28.638  1.00  0.00    -0.065 C 
ATOM     20  C   UNL     1     -15.336  23.441  29.298  1.00  0.00    -0.008 C 
ATOM     21  C   UNL     1     -14.381  22.984  28.146  1.00  0.00     0.014 C 
ATOM     22  C   UNL     1     -14.326  23.952  26.946  1.00  0.00     0.033 C 
ATOM     23  C   UNL     1     -15.722  24.254  26.384  1.00  0.00     0.118 C 
ATOM     24  C   UNL     1     -16.640  24.802  27.484  1.00  0.00     0.063 C 
ATOM     25  C   UNL     1     -14.749  24.699  29.992  1.00  0.00     0.016 C 
ATOM     26  C   UNL     1     -15.009  18.500  30.395  1.00  0.00     0.012 C 
ATOM     27  C   UNL     1     -13.666  17.655  33.550  1.00  0.00     0.014 C 
ATOM     28  O   UNL     1     -13.943  20.105  34.875  1.00  0.00    -0.349 OA
ATOM     29  C   UNL     1     -13.986  21.220  35.749  1.00  0.00     0.167 C 
ENDROOT
BRANCH  23  30
ATOM     30  O   UNL     1     -15.605  25.193  25.347  1.00  0.00    -0.393 OA
ATOM     31  H   UNL     1     -15.277  26.034  25.758  1.00  0.00     0.210 HD
ENDBRANCH  23  30
TORSDOF 1
ENDMDL
MODEL 9
REMARK VINA RESULT:    -5.839      2.267      7.987
REMARK INTER + INTRA:          -6.010
REMARK INTER:                  -6.010
REMARK INTRA:                   0.000
REMARK UNBOUND:                 0.000
REMARK SMILES C[C@H]1CC[C@]2(OC1)O[C@H]1C[C@H]3[C@H]4CC=C5C[C@@H](O)CC[C@]5(C)[C@@H]4CC[C@@]3(C)[C@H]1[C@H]2C
REMARK SMILES IDX 1 1 2 2 3 3 4 4 5 5 29 6 28 7 9 8 8 9 10 10 11 11 26 12
REMARK SMILES IDX 25 13 24 14 23 15 12 16 13 17 14 18 15 19 21 20 20 21 19 22
REMARK SMILES IDX 17 23 16 24 22 25 27 26 30 27 6 28 7 29 18 30
REMARK H PARENT 18 31
REMARK Flexibility Score: inf
ROOT
ATOM      1  C   UNL     1     -13.364  16.357  30.524  1.00  0.00     0.010 C 
ATOM      2  C   UNL     1     -14.537  17.155  31.101  1.00  0.00     0.012 C 
ATOM      3  C   UNL     1     -14.222  17.640  32.521  1.00  0.00     0.011 C 
ATOM      4  C   UNL     1     -15.345  18.546  33.029  1.00  0.00     0.066 C 
ATOM      5  C   UNL     1     -15.657  19.669  32.007  1.00  0.00     0.171 C 
ATOM      6  C   UNL     1     -16.854  20.514  32.493  1.00  0.00     0.052 C 
ATOM      7  C   UNL     1     -16.411  21.953  32.278  1.00  0.00     0.033 C 
ATOM      8  C   UNL     1     -14.907  21.816  32.377  1.00  0.00     0.126 C 
ATOM      9  O   UNL     1     -14.533  20.538  31.901  1.00  0.00    -0.346 OA
ATOM     10  C   UNL     1     -14.304  22.929  31.515  1.00  0.00     0.037 C 
ATOM     11  C   UNL     1     -15.494  23.772  31.024  1.00  0.00     0.002 C 
ATOM     12  C   UNL     1     -16.671  22.770  30.967  1.00  0.00    -0.024 C 
ATOM     13  C   UNL     1     -16.571  21.938  29.649  1.00  0.00     0.008 C 
ATOM     14  C   UNL     1     -16.461  22.809  28.395  1.00  0.00     0.005 C 
ATOM     15  C   UNL     1     -15.216  23.726  28.441  1.00  0.00     0.003 C 
ATOM     16  C   UNL     1     -15.246  24.590  29.719  1.00  0.00     0.000 C 
ATOM     17  C   UNL     1     -13.939  25.390  29.815  1.00  0.00     0.031 C 
ATOM     18  C   UNL     1     -13.724  26.221  28.592  1.00  0.00    -0.027 C 
ATOM     19  C   UNL     1     -14.141  25.843  27.365  1.00  0.00    -0.065 C 
ATOM     20  C   UNL     1     -15.012  24.594  27.124  1.00  0.00    -0.008 C 
ATOM     21  C   UNL     1     -16.376  25.101  26.549  1.00  0.00     0.014 C 
ATOM     22  C   UNL     1     -16.240  26.102  25.383  1.00  0.00     0.033 C 
ATOM     23  C   UNL     1     -15.347  27.295  25.748  1.00  0.00     0.118 C 
ATOM     24  C   UNL     1     -13.968  26.814  26.217  1.00  0.00     0.063 C 
ATOM     25  C   UNL     1     -14.308  23.693  26.075  1.00  0.00     0.016 C 
ATOM     26  C   UNL     1     -18.031  23.502  31.051  1.00  0.00     0.012 C 
ATOM     27  C   UNL     1     -18.250  20.107  31.995  1.00  0.00     0.014 C 
ATOM     28  O   UNL     1     -15.961  19.098  30.739  1.00  0.00    -0.349 OA
ATOM     29  C   UNL     1     -14.870  18.363  30.211  1.00  0.00     0.167 C 
ENDROOT
BRANCH  23  30
ATOM     30  O   UNL     1     -15.208  28.125  24.625  1.00  0.00    -0.393 OA
ATOM     31  H   UNL     1     -15.699  27.686  23.882  1.00  0.00     0.210 HD
ENDBRANCH  23  30
TORSDOF 1
ENDMDL
