MODEL 1
REMARK VINA RESULT:    68.587      0.000      0.000
REMARK INTER + INTRA:          74.381
REMARK INTER:                  74.602
REMARK INTRA:                  -0.221
REMARK UNBOUND:                -0.221
REMARK SMILES C[C@H]1[C@H](C)CC[C@@]2(C(=O)[O-])CC[C@]3(C)C(=CC[C@H]4[C@]5(C)CC[C@@H](O)C(C)(C)[C@@H]5CC[C@]43C)[C@@H]12
REMARK SMILES IDX 7 1 6 2 11 3 33 4 5 5 12 6 15 7 2 8 3 9 13 10 16 11 1 12
REMARK SMILES IDX 4 13 14 14 31 15 17 16 18 17 30 18 32 19 19 20 29 21 28 22
REMARK SMILES IDX 21 23 20 24 25 25 22 26 23 27 26 28 27 29 8 30 9 31 10 32
REMARK SMILES IDX 24 33
REMARK H PARENT 24 34
REMARK Flexibility Score: inf
ROOT
ATOM      1  C   UNL     1      34.737 -41.611  19.502  1.00  0.00     0.017 C 
ATOM      2  C   UNL     1      33.999 -42.526  20.515  1.00  0.00     0.014 C 
ATOM      3  C   UNL     1      33.621 -40.743  18.803  1.00  0.00     0.014 C 
ATOM      4  C   UNL     1      35.912 -40.732  20.198  1.00  0.00     0.030 C 
ATOM      5  C   UNL     1      34.919 -43.125  21.557  1.00  0.00     0.004 C 
ATOM      6  C   UNL     1      33.683 -39.260  19.117  1.00  0.00     0.013 C 
ATOM      7  C   UNL     1      36.108 -39.302  19.640  1.00  0.00    -0.063 C 
ATOM      8  C   UNL     1      36.140 -40.880  21.780  1.00  0.00    -0.003 C 
ATOM      9  C   UNL     1      35.334 -42.005  22.506  1.00  0.00    -0.011 C 
ATOM     10  C   UNL     1      35.059 -38.626  18.784  1.00  0.00    -0.006 C 
ATOM     11  C   UNL     1      37.317 -38.696  19.785  1.00  0.00    -0.027 C 
ATOM     12  C   UNL     1      35.982 -39.568  22.577  1.00  0.00     0.008 C 
ATOM     13  C   UNL     1      36.097 -42.597  23.702  1.00  0.00     0.008 C 
ATOM     14  C   UNL     1      35.465 -38.945  17.312  1.00  0.00     0.017 C 
ATOM     15  C   UNL     1      35.047 -37.057  19.086  1.00  0.00    -0.020 C 
ATOM     16  C   UNL     1      37.666 -37.307  19.285  1.00  0.00     0.032 C 
ATOM     17  C   UNL     1      36.472 -36.413  18.783  1.00  0.00     0.006 C 
ATOM     18  C   UNL     1      33.918 -36.319  18.312  1.00  0.00     0.008 C 
ATOM     19  C   UNL     1      34.737 -36.794  20.602  1.00  0.00     0.012 C 
ATOM     20  C   UNL     1      36.727 -35.567  17.425  1.00  0.00    -0.025 C 
ATOM     21  C   UNL     1      34.277 -34.874  17.977  1.00  0.00     0.005 C 
ATOM     22  C   UNL     1      35.386 -34.865  16.894  1.00  0.00     0.003 C 
ATOM     23  C   UNL     1      37.824 -34.505  17.792  1.00  0.00     0.010 C 
ATOM     24  C   UNL     1      37.304 -36.437  16.255  1.00  0.00     0.012 C 
ATOM     25  C   UNL     1      35.541 -33.493  16.086  1.00  0.00    -0.006 C 
ATOM     26  C   UNL     1      37.992 -33.366  16.802  1.00  0.00     0.033 C 
ATOM     27  C   UNL     1      36.680 -32.598  16.662  1.00  0.00     0.120 C 
ATOM     28  C   UNL     1      35.801 -33.789  14.575  1.00  0.00     0.014 C 
ATOM     29  C   UNL     1      34.233 -32.649  16.112  1.00  0.00     0.014 C 
ENDROOT
BRANCH   1  30
ATOM     30  C   UNL     1      35.326 -42.576  18.453  1.00  0.00     0.048 C 
ATOM     31  O   UNL     1      34.570 -43.125  17.592  1.00  0.00    -0.550 OA
ATOM     32  O   UNL     1      36.638 -43.025  18.543  1.00  0.00    -0.550 OA
ENDBRANCH   1  30
BRANCH  27  33
ATOM     33  O   UNL     1      36.889 -31.476  15.837  1.00  0.00    -0.393 OA
ATOM     34  H   UNL     1      37.815 -31.156  16.010  1.00  0.00     0.210 HD
ENDBRANCH  27  33
TORSDOF 2
ENDMDL
