MODEL 1
REMARK VINA RESULT:    -5.334      0.000      0.000
REMARK INTER + INTRA:          -6.582
REMARK INTER:                  -6.270
REMARK INTRA:                  -0.312
REMARK UNBOUND:                -0.312
REMARK SMILES COc1ccc(C=CC(=O)[O-])cc1
REMARK SMILES IDX 6 1 5 2 12 3 4 4 13 5 3 6 7 7 8 8 9 9 10 10 11 11 2 12 1 13
REMARK H PARENT
REMARK Flexibility Score: inf
ROOT
ATOM      1  C   UNL     1      12.207 -16.423  31.860  1.00  0.00    -0.025 A 
ATOM      2  C   UNL     1      11.018 -15.862  32.356  1.00  0.00     0.012 A 
ATOM      3  C   UNL     1      12.265 -17.803  31.623  1.00  0.00     0.012 A 
ATOM      4  C   UNL     1       9.923 -16.677  32.659  1.00  0.00     0.047 A 
ATOM      5  C   UNL     1      11.171 -18.619  31.928  1.00  0.00     0.047 A 
ATOM      6  C   UNL     1       9.995 -18.067  32.450  1.00  0.00     0.118 A 
ENDROOT
BRANCH   1   7
ATOM      7  C   UNL     1      13.356 -15.575  31.482  1.00  0.00     0.010 C 
ATOM      8  C   UNL     1      13.610 -15.118  30.245  1.00  0.00     0.025 C 
BRANCH   8   9
ATOM      9  C   UNL     1      12.696 -15.219  29.092  1.00  0.00     0.064 C 
ATOM     10  O   UNL     1      13.004 -15.964  28.126  1.00  0.00    -0.545 OA
ATOM     11  O   UNL     1      11.537 -14.456  29.014  1.00  0.00    -0.545 OA
ENDBRANCH   8   9
ENDBRANCH   1   7
BRANCH   6  12
ATOM     12  O   UNL     1       8.927 -18.928  32.741  1.00  0.00    -0.497 OA
ATOM     13  C   UNL     1       8.503 -19.995  31.898  1.00  0.00     0.278 C 
ENDBRANCH   6  12
TORSDOF 3
ENDMDL
MODEL 2
REMARK VINA RESULT:    -5.165      2.323      3.771
REMARK INTER + INTRA:          -6.382
REMARK INTER:                  -6.053
REMARK INTRA:                  -0.329
REMARK UNBOUND:                -0.312
REMARK SMILES COc1ccc(C=CC(=O)[O-])cc1
REMARK SMILES IDX 6 1 5 2 12 3 4 4 13 5 3 6 7 7 8 8 9 9 10 10 11 11 2 12 1 13
REMARK H PARENT
REMARK Flexibility Score: inf
ROOT
ATOM      1  C   UNL     1      12.674 -14.057  29.212  1.00  0.00    -0.025 A 
ATOM      2  C   UNL     1      13.907 -14.632  29.563  1.00  0.00     0.012 A 
ATOM      3  C   UNL     1      11.490 -14.622  29.708  1.00  0.00     0.012 A 
ATOM      4  C   UNL     1      13.951 -15.785  30.352  1.00  0.00     0.047 A 
ATOM      5  C   UNL     1      11.534 -15.775  30.497  1.00  0.00     0.047 A 
ATOM      6  C   UNL     1      12.759 -16.368  30.822  1.00  0.00     0.118 A 
ENDROOT
BRANCH   1   7
ATOM      7  C   UNL     1      12.606 -12.809  28.425  1.00  0.00     0.010 C 
ATOM      8  C   UNL     1      12.576 -12.737  27.085  1.00  0.00     0.025 C 
BRANCH   8   9
ATOM      9  C   UNL     1      12.412 -13.882  26.171  1.00  0.00     0.064 C 
ATOM     10  O   UNL     1      13.389 -14.254  25.470  1.00  0.00    -0.545 OA
ATOM     11  O   UNL     1      11.186 -14.516  26.011  1.00  0.00    -0.545 OA
ENDBRANCH   8   9
ENDBRANCH   1   7
BRANCH   6  12
ATOM     12  O   UNL     1      12.749 -17.526  31.614  1.00  0.00    -0.497 OA
ATOM     13  C   UNL     1      11.585 -18.295  31.898  1.00  0.00     0.278 C 
ENDBRANCH   6  12
TORSDOF 3
ENDMDL
MODEL 3
REMARK VINA RESULT:    -5.155      1.492      5.062
REMARK INTER + INTRA:          -6.371
REMARK INTER:                  -6.056
REMARK INTRA:                  -0.315
REMARK UNBOUND:                -0.312
REMARK SMILES COc1ccc(C=CC(=O)[O-])cc1
REMARK SMILES IDX 6 1 5 2 12 3 4 4 13 5 3 6 7 7 8 8 9 9 10 10 11 11 2 12 1 13
REMARK H PARENT
REMARK Flexibility Score: inf
ROOT
ATOM      1  C   UNL     1      10.539 -17.956  32.548  1.00  0.00    -0.025 A 
ATOM      2  C   UNL     1       9.804 -16.762  32.647  1.00  0.00     0.012 A 
ATOM      3  C   UNL     1      11.692 -17.985  31.752  1.00  0.00     0.012 A 
ATOM      4  C   UNL     1      10.189 -15.632  31.919  1.00  0.00     0.047 A 
ATOM      5  C   UNL     1      12.077 -16.855  31.023  1.00  0.00     0.047 A 
ATOM      6  C   UNL     1      11.330 -15.674  31.096  1.00  0.00     0.118 A 
ENDROOT
BRANCH   1   7
ATOM      7  C   UNL     1      10.182 -19.144  33.349  1.00  0.00     0.010 C 
ATOM      8  C   UNL     1       9.348 -20.121  32.959  1.00  0.00     0.025 C 
BRANCH   8   9
ATOM      9  C   UNL     1       8.794 -20.282  31.602  1.00  0.00     0.064 C 
ATOM     10  O   UNL     1       7.566 -20.084  31.411  1.00  0.00    -0.545 OA
ATOM     11  O   UNL     1       9.581 -20.717  30.542  1.00  0.00    -0.545 OA
ENDBRANCH   8   9
ENDBRANCH   1   7
BRANCH   6  12
ATOM     12  O   UNL     1      11.757 -14.569  30.344  1.00  0.00    -0.497 OA
ATOM     13  C   UNL     1      11.788 -14.531  28.921  1.00  0.00     0.278 C 
ENDBRANCH   6  12
TORSDOF 3
ENDMDL
MODEL 4
REMARK VINA RESULT:    -5.094     10.473     11.732
REMARK INTER + INTRA:          -6.299
REMARK INTER:                  -6.064
REMARK INTRA:                  -0.235
REMARK UNBOUND:                -0.312
REMARK SMILES COc1ccc(C=CC(=O)[O-])cc1
REMARK SMILES IDX 6 1 5 2 12 3 4 4 13 5 3 6 7 7 8 8 9 9 10 10 11 11 2 12 1 13
REMARK H PARENT
REMARK Flexibility Score: inf
ROOT
ATOM      1  C   UNL     1       7.450 -20.576  20.786  1.00  0.00    -0.025 A 
ATOM      2  C   UNL     1       7.194 -21.958  20.793  1.00  0.00     0.012 A 
ATOM      3  C   UNL     1       8.778 -20.127  20.800  1.00  0.00     0.012 A 
ATOM      4  C   UNL     1       8.248 -22.872  20.867  1.00  0.00     0.047 A 
ATOM      5  C   UNL     1       9.833 -21.041  20.876  1.00  0.00     0.047 A 
ATOM      6  C   UNL     1       9.580 -22.417  20.914  1.00  0.00     0.118 A 
ENDROOT
BRANCH   1   7
ATOM      7  C   UNL     1       6.355 -19.594  20.653  1.00  0.00     0.010 C 
ATOM      8  C   UNL     1       5.804 -18.904  21.664  1.00  0.00     0.025 C 
BRANCH   8   9
ATOM      9  C   UNL     1       6.314 -18.859  23.047  1.00  0.00     0.064 C 
ATOM     10  O   UNL     1       5.629 -19.366  23.973  1.00  0.00    -0.545 OA
ATOM     11  O   UNL     1       7.500 -18.207  23.363  1.00  0.00    -0.545 OA
ENDBRANCH   8   9
ENDBRANCH   1   7
BRANCH   6  12
ATOM     12  O   UNL     1      10.672 -23.293  20.992  1.00  0.00    -0.497 OA
ATOM     13  C   UNL     1      11.075 -23.971  22.177  1.00  0.00     0.278 C 
ENDBRANCH   6  12
TORSDOF 3
ENDMDL
MODEL 5
REMARK VINA RESULT:    -5.052      2.595      5.876
REMARK INTER + INTRA:          -6.250
REMARK INTER:                  -5.986
REMARK INTRA:                  -0.264
REMARK UNBOUND:                -0.312
REMARK SMILES COc1ccc(C=CC(=O)[O-])cc1
REMARK SMILES IDX 6 1 5 2 12 3 4 4 13 5 3 6 7 7 8 8 9 9 10 10 11 11 2 12 1 13
REMARK H PARENT
REMARK Flexibility Score: inf
ROOT
ATOM      1  C   UNL     1      13.032 -14.661  29.064  1.00  0.00    -0.025 A 
ATOM      2  C   UNL     1      12.850 -15.521  27.968  1.00  0.00     0.012 A 
ATOM      3  C   UNL     1      12.537 -13.351  28.995  1.00  0.00     0.012 A 
ATOM      4  C   UNL     1      12.231 -15.061  26.803  1.00  0.00     0.047 A 
ATOM      5  C   UNL     1      11.918 -12.890  27.830  1.00  0.00     0.047 A 
ATOM      6  C   UNL     1      11.763 -13.735  26.725  1.00  0.00     0.118 A 
ENDROOT
BRANCH   1   7
ATOM      7  C   UNL     1      13.635 -15.141  30.324  1.00  0.00     0.010 C 
ATOM      8  C   UNL     1      12.968 -15.735  31.327  1.00  0.00     0.025 C 
BRANCH   8   9
ATOM      9  C   UNL     1      11.564 -16.183  31.273  1.00  0.00     0.064 C 
ATOM     10  O   UNL     1      11.313 -17.414  31.206  1.00  0.00    -0.545 OA
ATOM     11  O   UNL     1      10.513 -15.276  31.222  1.00  0.00    -0.545 OA
ENDBRANCH   8   9
ENDBRANCH   1   7
BRANCH   6  12
ATOM     12  O   UNL     1      11.138 -13.224  25.578  1.00  0.00    -0.497 OA
ATOM     13  C   UNL     1      11.371 -11.923  25.048  1.00  0.00     0.278 C 
ENDBRANCH   6  12
TORSDOF 3
ENDMDL
MODEL 6
REMARK VINA RESULT:    -5.008      2.262      3.667
REMARK INTER + INTRA:          -6.198
REMARK INTER:                  -5.869
REMARK INTRA:                  -0.329
REMARK UNBOUND:                -0.312
REMARK SMILES COc1ccc(C=CC(=O)[O-])cc1
REMARK SMILES IDX 6 1 5 2 12 3 4 4 13 5 3 6 7 7 8 8 9 9 10 10 11 11 2 12 1 13
REMARK H PARENT
REMARK Flexibility Score: inf
ROOT
ATOM      1  C   UNL     1      12.759 -14.085  29.189  1.00  0.00    -0.025 A 
ATOM      2  C   UNL     1      11.535 -14.551  29.699  1.00  0.00     0.012 A 
ATOM      3  C   UNL     1      13.928 -14.816  29.443  1.00  0.00     0.012 A 
ATOM      4  C   UNL     1      11.491 -15.700  30.494  1.00  0.00     0.047 A 
ATOM      5  C   UNL     1      13.885 -15.964  30.238  1.00  0.00     0.047 A 
ATOM      6  C   UNL     1      12.672 -16.414  30.773  1.00  0.00     0.118 A 
ENDROOT
BRANCH   1   7
ATOM      7  C   UNL     1      12.821 -12.905  28.303  1.00  0.00     0.010 C 
ATOM      8  C   UNL     1      12.740 -12.935  26.963  1.00  0.00     0.025 C 
BRANCH   8   9
ATOM      9  C   UNL     1      12.385 -14.116  26.154  1.00  0.00     0.064 C 
ATOM     10  O   UNL     1      11.173 -14.418  26.004  1.00  0.00    -0.545 OA
ATOM     11  O   UNL     1      13.360 -14.945  25.613  1.00  0.00    -0.545 OA
ENDBRANCH   8   9
ENDBRANCH   1   7
BRANCH   6  12
ATOM     12  O   UNL     1      12.682 -17.570  31.567  1.00  0.00    -0.497 OA
ATOM     13  C   UNL     1      11.524 -18.334  31.889  1.00  0.00     0.278 C 
ENDBRANCH   6  12
TORSDOF 3
ENDMDL
MODEL 7
REMARK VINA RESULT:    -4.943      2.399      3.563
REMARK INTER + INTRA:          -6.122
REMARK INTER:                  -6.028
REMARK INTRA:                  -0.094
REMARK UNBOUND:                -0.312
REMARK SMILES COc1ccc(C=CC(=O)[O-])cc1
REMARK SMILES IDX 6 1 5 2 12 3 4 4 13 5 3 6 7 7 8 8 9 9 10 10 11 11 2 12 1 13
REMARK H PARENT
REMARK Flexibility Score: inf
ROOT
ATOM      1  C   UNL     1      10.028 -18.741  32.467  1.00  0.00    -0.025 A 
ATOM      2  C   UNL     1      10.265 -19.653  33.510  1.00  0.00     0.012 A 
ATOM      3  C   UNL     1       9.654 -19.226  31.206  1.00  0.00     0.012 A 
ATOM      4  C   UNL     1      10.180 -21.029  33.279  1.00  0.00     0.047 A 
ATOM      5  C   UNL     1       9.570 -20.603  30.975  1.00  0.00     0.047 A 
ATOM      6  C   UNL     1       9.835 -21.514  32.004  1.00  0.00     0.118 A 
ENDROOT
BRANCH   1   7
ATOM      7  C   UNL     1      10.059 -17.283  32.701  1.00  0.00     0.010 C 
ATOM      8  C   UNL     1      11.008 -16.444  32.255  1.00  0.00     0.025 C 
BRANCH   8   9
ATOM      9  C   UNL     1      12.076 -16.792  31.300  1.00  0.00     0.064 C 
ATOM     10  O   UNL     1      12.968 -17.610  31.645  1.00  0.00    -0.545 OA
ATOM     11  O   UNL     1      12.162 -16.185  30.053  1.00  0.00    -0.545 OA
ENDBRANCH   8   9
ENDBRANCH   1   7
BRANCH   6  12
ATOM     12  O   UNL     1       9.740 -22.884  31.720  1.00  0.00    -0.497 OA
ATOM     13  C   UNL     1       9.882 -23.917  32.690  1.00  0.00     0.278 C 
ENDBRANCH   6  12
TORSDOF 3
ENDMDL
MODEL 8
REMARK VINA RESULT:    -4.842      1.447      2.271
REMARK INTER + INTRA:          -6.003
REMARK INTER:                  -5.692
REMARK INTRA:                  -0.311
REMARK UNBOUND:                -0.312
REMARK SMILES COc1ccc(C=CC(=O)[O-])cc1
REMARK SMILES IDX 6 1 5 2 12 3 4 4 13 5 3 6 7 7 8 8 9 9 10 10 11 11 2 12 1 13
REMARK H PARENT
REMARK Flexibility Score: inf
ROOT
ATOM      1  C   UNL     1      12.877 -15.507  30.365  1.00  0.00    -0.025 A 
ATOM      2  C   UNL     1      13.269 -16.749  30.894  1.00  0.00     0.012 A 
ATOM      3  C   UNL     1      11.609 -14.999  30.681  1.00  0.00     0.012 A 
ATOM      4  C   UNL     1      12.386 -17.492  31.683  1.00  0.00     0.047 A 
ATOM      5  C   UNL     1      10.726 -15.743  31.469  1.00  0.00     0.047 A 
ATOM      6  C   UNL     1      11.102 -16.994  31.972  1.00  0.00     0.118 A 
ENDROOT
BRANCH   1   7
ATOM      7  C   UNL     1      13.812 -14.680  29.576  1.00  0.00     0.010 C 
ATOM      8  C   UNL     1      13.905 -14.677  28.237  1.00  0.00     0.025 C 
BRANCH   8   9
ATOM      9  C   UNL     1      12.971 -15.347  27.313  1.00  0.00     0.064 C 
ATOM     10  O   UNL     1      13.327 -16.409  26.740  1.00  0.00    -0.545 OA
ATOM     11  O   UNL     1      11.733 -14.796  27.005  1.00  0.00    -0.545 OA
ENDBRANCH   8   9
ENDBRANCH   1   7
BRANCH   6  12
ATOM     12  O   UNL     1      10.178 -17.702  32.755  1.00  0.00    -0.497 OA
ATOM     13  C   UNL     1      10.326 -19.066  33.136  1.00  0.00     0.278 C 
ENDBRANCH   6  12
TORSDOF 3
ENDMDL
MODEL 9
REMARK VINA RESULT:    -4.780     10.374     11.632
REMARK INTER + INTRA:          -5.930
REMARK INTER:                  -5.622
REMARK INTRA:                  -0.308
REMARK UNBOUND:                -0.312
REMARK SMILES COc1ccc(C=CC(=O)[O-])cc1
REMARK SMILES IDX 6 1 5 2 12 3 4 4 13 5 3 6 7 7 8 8 9 9 10 10 11 11 2 12 1 13
REMARK H PARENT
REMARK Flexibility Score: inf
ROOT
ATOM      1  C   UNL     1       6.132 -16.765  21.528  1.00  0.00    -0.025 A 
ATOM      2  C   UNL     1       6.939 -17.322  22.535  1.00  0.00     0.012 A 
ATOM      3  C   UNL     1       5.859 -17.517  20.377  1.00  0.00     0.012 A 
ATOM      4  C   UNL     1       7.506 -18.589  22.367  1.00  0.00     0.047 A 
ATOM      5  C   UNL     1       6.427 -18.783  20.208  1.00  0.00     0.047 A 
ATOM      6  C   UNL     1       7.256 -19.328  21.196  1.00  0.00     0.118 A 
ENDROOT
BRANCH   1   7
ATOM      7  C   UNL     1       5.479 -15.453  21.708  1.00  0.00     0.010 C 
ATOM      8  C   UNL     1       4.305 -15.248  22.326  1.00  0.00     0.025 C 
BRANCH   8   9
ATOM      9  C   UNL     1       3.557 -16.258  23.097  1.00  0.00     0.064 C 
ATOM     10  O   UNL     1       3.722 -16.327  24.343  1.00  0.00    -0.545 OA
ATOM     11  O   UNL     1       2.728 -17.182  22.473  1.00  0.00    -0.545 OA
ENDBRANCH   8   9
ENDBRANCH   1   7
BRANCH   6  12
ATOM     12  O   UNL     1       7.803 -20.601  20.977  1.00  0.00    -0.497 OA
ATOM     13  C   UNL     1       9.197 -20.868  20.865  1.00  0.00     0.278 C 
ENDBRANCH   6  12
TORSDOF 3
ENDMDL
