MODEL 1
REMARK VINA RESULT:    -5.070      0.000      0.000
REMARK INTER + INTRA:          -6.460
REMARK INTER:                  -6.107
REMARK INTRA:                  -0.353
REMARK UNBOUND:                -0.353
REMARK SMILES COc1ccc([C@H]2CC(=O)c3c(O)cc(O)cc3O2)cc1O
REMARK SMILES IDX 7 1 8 2 9 3 10 4 11 5 12 6 14 7 15 8 17 9 18 10 19 11 6 12
REMARK SMILES IDX 3 13 21 14 4 15 20 16 5 17 2 18 1 19 22 20 13 22 16 24
REMARK H PARENT 22 21 13 23 16 25
REMARK Flexibility Score: inf
ROOT
ATOM      1  C   UNL     1     -14.621  12.167  -4.940  1.00  0.00     0.211 C 
ATOM      2  C   UNL     1     -13.501  13.209  -5.069  1.00  0.00     0.131 C 
ATOM      3  C   UNL     1     -14.106  14.540  -5.404  1.00  0.00     0.174 C 
ATOM      4  O   UNL     1     -13.729  15.564  -4.775  1.00  0.00    -0.294 OA
ATOM      5  C   UNL     1     -15.180  14.600  -6.425  1.00  0.00     0.102 A 
ATOM      6  C   UNL     1     -15.565  15.785  -7.106  1.00  0.00     0.133 A 
ATOM      7  C   UNL     1     -16.639  15.746  -8.004  1.00  0.00     0.093 A 
ATOM      8  C   UNL     1     -17.298  14.543  -8.280  1.00  0.00     0.123 A 
ATOM      9  C   UNL     1     -16.892  13.369  -7.647  1.00  0.00     0.093 A 
ATOM     10  C   UNL     1     -15.849  13.392  -6.718  1.00  0.00     0.138 A 
ATOM     11  O   UNL     1     -15.473  12.198  -6.088  1.00  0.00    -0.484 OA
ENDROOT
BRANCH   1  12
ATOM     12  C   UNL     1     -14.045  10.783  -4.761  1.00  0.00    -0.003 A 
ATOM     13  C   UNL     1     -13.018   8.183  -4.377  1.00  0.00     0.160 A 
ATOM     14  C   UNL     1     -12.484   9.270  -3.661  1.00  0.00     0.158 A 
ATOM     15  C   UNL     1     -14.077   8.409  -5.278  1.00  0.00     0.051 A 
ATOM     16  C   UNL     1     -12.999  10.556  -3.851  1.00  0.00     0.057 A 
ATOM     17  C   UNL     1     -14.587   9.696  -5.463  1.00  0.00     0.011 A 
BRANCH  13  18
ATOM     18  O   UNL     1     -12.481   6.903  -4.168  1.00  0.00    -0.493 OA
ATOM     19  C   UNL     1     -12.184   5.973  -5.205  1.00  0.00     0.278 C 
ENDBRANCH  13  18
BRANCH  14  20
ATOM     20  O   UNL     1     -11.441   9.091  -2.754  1.00  0.00    -0.504 OA
ATOM     21  H   UNL     1     -11.339   9.668  -1.927  1.00  0.00     0.293 HD
ENDBRANCH  14  20
ENDBRANCH   1  12
BRANCH   6  22
ATOM     22  O   UNL     1     -14.899  17.003  -6.956  1.00  0.00    -0.507 OA
ATOM     23  H   UNL     1     -14.012  17.108  -6.485  1.00  0.00     0.293 HD
ENDBRANCH   6  22
BRANCH   8  24
ATOM     24  O   UNL     1     -18.355  14.505  -9.188  1.00  0.00    -0.508 OA
ATOM     25  H   UNL     1     -18.846  13.643  -9.393  1.00  0.00     0.293 HD
ENDBRANCH   8  24
TORSDOF 5
ENDMDL
MODEL 2
REMARK VINA RESULT:    -4.757     13.285     14.542
REMARK INTER + INTRA:          -6.084
REMARK INTER:                  -5.693
REMARK INTRA:                  -0.391
REMARK UNBOUND:                -0.353
REMARK SMILES COc1ccc([C@H]2CC(=O)c3c(O)cc(O)cc3O2)cc1O
REMARK SMILES IDX 7 1 8 2 9 3 10 4 11 5 12 6 14 7 15 8 17 9 18 10 19 11 6 12
REMARK SMILES IDX 3 13 21 14 4 15 20 16 5 17 2 18 1 19 22 20 13 22 16 24
REMARK H PARENT 22 21 13 23 16 25
REMARK Flexibility Score: inf
ROOT
ATOM      1  C   UNL     1      -5.045  12.644 -15.977  1.00  0.00     0.211 C 
ATOM      2  C   UNL     1      -5.006  14.094 -15.475  1.00  0.00     0.131 C 
ATOM      3  C   UNL     1      -3.738  14.313 -14.704  1.00  0.00     0.174 C 
ATOM      4  O   UNL     1      -3.049  15.343 -14.928  1.00  0.00    -0.294 OA
ATOM      5  C   UNL     1      -3.299  13.272 -13.742  1.00  0.00     0.102 A 
ATOM      6  C   UNL     1      -2.367  13.499 -12.694  1.00  0.00     0.133 A 
ATOM      7  C   UNL     1      -1.968  12.430 -11.883  1.00  0.00     0.093 A 
ATOM      8  C   UNL     1      -2.520  11.156 -12.056  1.00  0.00     0.123 A 
ATOM      9  C   UNL     1      -3.470  10.941 -13.054  1.00  0.00     0.093 A 
ATOM     10  C   UNL     1      -3.852  11.983 -13.901  1.00  0.00     0.138 A 
ATOM     11  O   UNL     1      -4.798  11.733 -14.903  1.00  0.00    -0.484 OA
ENDROOT
BRANCH   1  12
ATOM     12  C   UNL     1      -6.375  12.338 -16.621  1.00  0.00    -0.003 A 
ATOM     13  C   UNL     1      -8.896  11.790 -17.765  1.00  0.00     0.160 A 
ATOM     14  C   UNL     1      -8.202  10.788 -17.063  1.00  0.00     0.158 A 
ATOM     15  C   UNL     1      -8.321  13.071 -17.879  1.00  0.00     0.051 A 
ATOM     16  C   UNL     1      -6.955  11.065 -16.493  1.00  0.00     0.057 A 
ATOM     17  C   UNL     1      -7.076  13.341 -17.308  1.00  0.00     0.011 A 
BRANCH  13  18
ATOM     18  O   UNL     1     -10.145  11.483 -18.328  1.00  0.00    -0.493 OA
ATOM     19  C   UNL     1     -11.398  11.766 -17.713  1.00  0.00     0.278 C 
ENDBRANCH  13  18
BRANCH  14  20
ATOM     20  O   UNL     1      -8.738   9.508 -16.918  1.00  0.00    -0.504 OA
ATOM     21  H   UNL     1      -8.168   8.710 -16.660  1.00  0.00     0.293 HD
ENDBRANCH  14  20
ENDBRANCH   1  12
BRANCH   6  22
ATOM     22  O   UNL     1      -1.842  14.759 -12.399  1.00  0.00    -0.507 OA
ATOM     23  H   UNL     1      -0.965  14.908 -11.921  1.00  0.00     0.293 HD
ENDBRANCH   6  22
BRANCH   8  24
ATOM     24  O   UNL     1      -2.134  10.098 -11.235  1.00  0.00    -0.508 OA
ATOM     25  H   UNL     1      -1.351  10.180 -10.597  1.00  0.00     0.293 HD
ENDBRANCH   8  24
TORSDOF 5
ENDMDL
MODEL 3
REMARK VINA RESULT:    -4.744     13.867     15.121
REMARK INTER + INTRA:          -6.069
REMARK INTER:                  -5.709
REMARK INTRA:                  -0.360
REMARK UNBOUND:                -0.353
REMARK SMILES COc1ccc([C@H]2CC(=O)c3c(O)cc(O)cc3O2)cc1O
REMARK SMILES IDX 7 1 8 2 9 3 10 4 11 5 12 6 14 7 15 8 17 9 18 10 19 11 6 12
REMARK SMILES IDX 3 13 21 14 4 15 20 16 5 17 2 18 1 19 22 20 13 22 16 24
REMARK H PARENT 22 21 13 23 16 25
REMARK Flexibility Score: inf
ROOT
ATOM      1  C   UNL     1      -4.103  11.921 -13.692  1.00  0.00     0.211 C 
ATOM      2  C   UNL     1      -3.106  10.777 -13.457  1.00  0.00     0.131 C 
ATOM      3  C   UNL     1      -2.275  11.091 -12.248  1.00  0.00     0.174 C 
ATOM      4  O   UNL     1      -2.091  10.199 -11.379  1.00  0.00    -0.294 OA
ATOM      5  C   UNL     1      -1.747  12.467 -12.081  1.00  0.00     0.102 A 
ATOM      6  C   UNL     1      -0.665  12.806 -11.227  1.00  0.00     0.133 A 
ATOM      7  C   UNL     1      -0.289  14.148 -11.091  1.00  0.00     0.093 A 
ATOM      8  C   UNL     1      -0.928  15.149 -11.829  1.00  0.00     0.123 A 
ATOM      9  C   UNL     1      -1.960  14.813 -12.705  1.00  0.00     0.093 A 
ATOM     10  C   UNL     1      -2.379  13.486 -12.826  1.00  0.00     0.138 A 
ATOM     11  O   UNL     1      -3.428  13.182 -13.703  1.00  0.00    -0.484 OA
ENDROOT
BRANCH   1  12
ATOM     12  C   UNL     1      -4.848  11.721 -14.989  1.00  0.00    -0.003 A 
ATOM     13  C   UNL     1      -6.199  11.397 -17.446  1.00  0.00     0.160 A 
ATOM     14  C   UNL     1      -6.680  12.306 -16.486  1.00  0.00     0.158 A 
ATOM     15  C   UNL     1      -5.030  10.661 -17.169  1.00  0.00     0.051 A 
ATOM     16  C   UNL     1      -6.005  12.467 -15.271  1.00  0.00     0.057 A 
ATOM     17  C   UNL     1      -4.360  10.827 -15.954  1.00  0.00     0.011 A 
BRANCH  13  18
ATOM     18  O   UNL     1      -6.897  11.254 -18.655  1.00  0.00    -0.493 OA
ATOM     19  C   UNL     1      -7.823  10.209 -18.934  1.00  0.00     0.278 C 
ENDBRANCH  13  18
BRANCH  14  20
ATOM     20  O   UNL     1      -7.828  13.061 -16.721  1.00  0.00    -0.504 OA
ATOM     21  H   UNL     1      -8.485  12.830 -17.458  1.00  0.00     0.293 HD
ENDBRANCH  14  20
ENDBRANCH   1  12
BRANCH   6  22
ATOM     22  O   UNL     1       0.083  11.856 -10.528  1.00  0.00    -0.507 OA
ATOM     23  H   UNL     1       0.126  10.877 -10.775  1.00  0.00     0.293 HD
ENDBRANCH   6  22
BRANCH   8  24
ATOM     24  O   UNL     1      -0.539  16.481 -11.705  1.00  0.00    -0.508 OA
ATOM     25  H   UNL     1      -0.947  17.209 -12.280  1.00  0.00     0.293 HD
ENDBRANCH   8  24
TORSDOF 5
ENDMDL
MODEL 4
REMARK VINA RESULT:    -4.735     13.646     14.387
REMARK INTER + INTRA:          -6.057
REMARK INTER:                  -5.666
REMARK INTRA:                  -0.391
REMARK UNBOUND:                -0.353
REMARK SMILES COc1ccc([C@H]2CC(=O)c3c(O)cc(O)cc3O2)cc1O
REMARK SMILES IDX 7 1 8 2 9 3 10 4 11 5 12 6 14 7 15 8 17 9 18 10 19 11 6 12
REMARK SMILES IDX 3 13 21 14 4 15 20 16 5 17 2 18 1 19 22 20 13 22 16 24
REMARK H PARENT 22 21 13 23 16 25
REMARK Flexibility Score: inf
ROOT
ATOM      1  C   UNL     1      -6.427  11.130 -17.382  1.00  0.00     0.211 C 
ATOM      2  C   UNL     1      -6.200   9.613 -17.422  1.00  0.00     0.131 C 
ATOM      3  C   UNL     1      -7.070   9.014 -18.487  1.00  0.00     0.174 C 
ATOM      4  O   UNL     1      -6.575   8.182 -19.292  1.00  0.00    -0.294 OA
ATOM      5  C   UNL     1      -8.477   9.470 -18.601  1.00  0.00     0.102 A 
ATOM      6  C   UNL     1      -9.496   8.747 -19.276  1.00  0.00     0.133 A 
ATOM      7  C   UNL     1     -10.778   9.301 -19.383  1.00  0.00     0.093 A 
ATOM      8  C   UNL     1     -11.080  10.528 -18.784  1.00  0.00     0.123 A 
ATOM      9  C   UNL     1     -10.093  11.218 -18.081  1.00  0.00     0.093 A 
ATOM     10  C   UNL     1      -8.797  10.704 -17.995  1.00  0.00     0.138 A 
ATOM     11  O   UNL     1      -7.824  11.428 -17.294  1.00  0.00    -0.484 OA
ENDROOT
BRANCH   1  12
ATOM     12  C   UNL     1      -5.691  11.750 -16.219  1.00  0.00    -0.003 A 
ATOM     13  C   UNL     1      -4.336  12.853 -14.004  1.00  0.00     0.160 A 
ATOM     14  C   UNL     1      -5.661  13.231 -14.285  1.00  0.00     0.158 A 
ATOM     15  C   UNL     1      -3.701  11.909 -14.835  1.00  0.00     0.051 A 
ATOM     16  C   UNL     1      -6.331  12.679 -15.382  1.00  0.00     0.057 A 
ATOM     17  C   UNL     1      -4.375  11.361 -15.928  1.00  0.00     0.011 A 
BRANCH  13  18
ATOM     18  O   UNL     1      -3.687  13.424 -12.898  1.00  0.00    -0.493 OA
ATOM     19  C   UNL     1      -2.583  14.320 -12.984  1.00  0.00     0.278 C 
ENDBRANCH  13  18
BRANCH  14  20
ATOM     20  O   UNL     1      -6.331  14.155 -13.484  1.00  0.00    -0.504 OA
ATOM     21  H   UNL     1      -6.016  14.390 -12.550  1.00  0.00     0.293 HD
ENDBRANCH  14  20
ENDBRANCH   1  12
BRANCH   6  22
ATOM     22  O   UNL     1      -9.298   7.476 -19.819  1.00  0.00    -0.507 OA
ATOM     23  H   UNL     1     -10.027   6.783 -19.915  1.00  0.00     0.293 HD
ENDBRANCH   6  22
BRANCH   8  24
ATOM     24  O   UNL     1     -12.361  11.068 -18.878  1.00  0.00    -0.508 OA
ATOM     25  H   UNL     1     -12.856  11.109 -19.761  1.00  0.00     0.293 HD
ENDBRANCH   8  24
TORSDOF 5
ENDMDL
MODEL 5
REMARK VINA RESULT:    -4.702      1.406      7.211
REMARK INTER + INTRA:          -6.018
REMARK INTER:                  -5.668
REMARK INTRA:                  -0.350
REMARK UNBOUND:                -0.353
REMARK SMILES COc1ccc([C@H]2CC(=O)c3c(O)cc(O)cc3O2)cc1O
REMARK SMILES IDX 7 1 8 2 9 3 10 4 11 5 12 6 14 7 15 8 17 9 18 10 19 11 6 12
REMARK SMILES IDX 3 13 21 14 4 15 20 16 5 17 2 18 1 19 22 20 13 22 16 24
REMARK H PARENT 22 21 13 23 16 25
REMARK Flexibility Score: inf
ROOT
ATOM      1  C   UNL     1     -14.151  13.012  -5.917  1.00  0.00     0.211 C 
ATOM      2  C   UNL     1     -13.820  13.648  -4.559  1.00  0.00     0.131 C 
ATOM      3  C   UNL     1     -12.876  12.752  -3.815  1.00  0.00     0.174 C 
ATOM      4  O   UNL     1     -11.862  13.250  -3.258  1.00  0.00    -0.294 OA
ATOM      5  C   UNL     1     -13.130  11.290  -3.811  1.00  0.00     0.102 A 
ATOM      6  C   UNL     1     -12.572  10.387  -2.868  1.00  0.00     0.133 A 
ATOM      7  C   UNL     1     -12.822   9.015  -2.995  1.00  0.00     0.093 A 
ATOM      8  C   UNL     1     -13.661   8.532  -4.005  1.00  0.00     0.123 A 
ATOM      9  C   UNL     1     -14.248   9.421  -4.904  1.00  0.00     0.093 A 
ATOM     10  C   UNL     1     -13.980  10.789  -4.821  1.00  0.00     0.138 A 
ATOM     11  O   UNL     1     -14.573  11.656  -5.748  1.00  0.00    -0.484 OA
ENDROOT
BRANCH   1  12
ATOM     12  C   UNL     1     -15.222  13.803  -6.629  1.00  0.00    -0.003 A 
ATOM     13  C   UNL     1     -17.186  15.273  -8.023  1.00  0.00     0.160 A 
ATOM     14  C   UNL     1     -16.139  15.938  -7.360  1.00  0.00     0.158 A 
ATOM     15  C   UNL     1     -17.233  13.866  -7.991  1.00  0.00     0.051 A 
ATOM     16  C   UNL     1     -15.165  15.205  -6.673  1.00  0.00     0.057 A 
ATOM     17  C   UNL     1     -16.258  13.140  -7.305  1.00  0.00     0.011 A 
BRANCH  13  18
ATOM     18  O   UNL     1     -18.151  16.034  -8.702  1.00  0.00    -0.493 OA
ATOM     19  C   UNL     1     -19.520  15.668  -8.834  1.00  0.00     0.278 C 
ENDBRANCH  13  18
BRANCH  14  20
ATOM     20  O   UNL     1     -16.048  17.330  -7.372  1.00  0.00    -0.504 OA
ATOM     21  H   UNL     1     -16.805  17.918  -7.701  1.00  0.00     0.293 HD
ENDBRANCH  14  20
ENDBRANCH   1  12
BRANCH   6  22
ATOM     22  O   UNL     1     -11.801  10.801  -1.779  1.00  0.00    -0.507 OA
ATOM     23  H   UNL     1     -10.869  10.462  -1.585  1.00  0.00     0.293 HD
ENDBRANCH   6  22
BRANCH   8  24
ATOM     24  O   UNL     1     -13.923   7.168  -4.117  1.00  0.00    -0.508 OA
ATOM     25  H   UNL     1     -13.236   6.525  -4.495  1.00  0.00     0.293 HD
ENDBRANCH   8  24
TORSDOF 5
ENDMDL
MODEL 6
REMARK VINA RESULT:    -4.651      3.246      7.148
REMARK INTER + INTRA:          -5.956
REMARK INTER:                  -5.611
REMARK INTRA:                  -0.345
REMARK UNBOUND:                -0.353
REMARK SMILES COc1ccc([C@H]2CC(=O)c3c(O)cc(O)cc3O2)cc1O
REMARK SMILES IDX 7 1 8 2 9 3 10 4 11 5 12 6 14 7 15 8 17 9 18 10 19 11 6 12
REMARK SMILES IDX 3 13 21 14 4 15 20 16 5 17 2 18 1 19 22 20 13 22 16 24
REMARK H PARENT 22 21 13 23 16 25
REMARK Flexibility Score: inf
ROOT
ATOM      1  C   UNL     1     -14.266  15.400  -5.848  1.00  0.00     0.211 C 
ATOM      2  C   UNL     1     -14.579  16.578  -4.915  1.00  0.00     0.131 C 
ATOM      3  C   UNL     1     -13.467  16.727  -3.920  1.00  0.00     0.174 C 
ATOM      4  O   UNL     1     -12.990  17.870  -3.695  1.00  0.00    -0.294 OA
ATOM      5  C   UNL     1     -12.916  15.509  -3.277  1.00  0.00     0.102 A 
ATOM      6  C   UNL     1     -12.159  15.517  -2.076  1.00  0.00     0.133 A 
ATOM      7  C   UNL     1     -11.626  14.316  -1.589  1.00  0.00     0.093 A 
ATOM      8  C   UNL     1     -11.880  13.105  -2.241  1.00  0.00     0.123 A 
ATOM      9  C   UNL     1     -12.662  13.088  -3.395  1.00  0.00     0.093 A 
ATOM     10  C   UNL     1     -13.169  14.279  -3.921  1.00  0.00     0.138 A 
ATOM     11  O   UNL     1     -13.940  14.232  -5.091  1.00  0.00    -0.484 OA
ENDROOT
BRANCH   1  12
ATOM     12  C   UNL     1     -15.434  15.116  -6.761  1.00  0.00    -0.003 A 
ATOM     13  C   UNL     1     -17.570  14.569  -8.521  1.00  0.00     0.160 A 
ATOM     14  C   UNL     1     -17.082  15.881  -8.384  1.00  0.00     0.158 A 
ATOM     15  C   UNL     1     -16.972  13.533  -7.777  1.00  0.00     0.051 A 
ATOM     16  C   UNL     1     -16.019  16.148  -7.514  1.00  0.00     0.057 A 
ATOM     17  C   UNL     1     -15.911  13.806  -6.911  1.00  0.00     0.011 A 
BRANCH  13  18
ATOM     18  O   UNL     1     -18.639  14.331  -9.400  1.00  0.00    -0.493 OA
ATOM     19  C   UNL     1     -19.144  13.040  -9.725  1.00  0.00     0.278 C 
ENDBRANCH  13  18
BRANCH  14  20
ATOM     20  O   UNL     1     -17.639  16.936  -9.107  1.00  0.00    -0.504 OA
ATOM     21  H   UNL     1     -17.750  17.863  -8.712  1.00  0.00     0.293 HD
ENDBRANCH  14  20
ENDBRANCH   1  12
BRANCH   6  22
ATOM     22  O   UNL     1     -11.940  16.669  -1.318  1.00  0.00    -0.507 OA
ATOM     23  H   UNL     1     -11.425  17.473  -1.648  1.00  0.00     0.293 HD
ENDBRANCH   6  22
BRANCH   8  24
ATOM     24  O   UNL     1     -11.364  11.909  -1.744  1.00  0.00    -0.508 OA
ATOM     25  H   UNL     1     -11.910  11.056  -1.742  1.00  0.00     0.293 HD
ENDBRANCH   8  24
TORSDOF 5
ENDMDL
MODEL 7
REMARK VINA RESULT:    -4.642     12.165     14.743
REMARK INTER + INTRA:          -5.945
REMARK INTER:                  -5.590
REMARK INTRA:                  -0.355
REMARK UNBOUND:                -0.353
REMARK SMILES COc1ccc([C@H]2CC(=O)c3c(O)cc(O)cc3O2)cc1O
REMARK SMILES IDX 7 1 8 2 9 3 10 4 11 5 12 6 14 7 15 8 17 9 18 10 19 11 6 12
REMARK SMILES IDX 3 13 21 14 4 15 20 16 5 17 2 18 1 19 22 20 13 22 16 24
REMARK H PARENT 22 21 13 23 16 25
REMARK Flexibility Score: inf
ROOT
ATOM      1  C   UNL     1     -11.276  12.606 -17.561  1.00  0.00     0.211 C 
ATOM      2  C   UNL     1     -11.706  12.102 -18.946  1.00  0.00     0.131 C 
ATOM      3  C   UNL     1     -11.429  10.631 -19.041  1.00  0.00     0.174 C 
ATOM      4  O   UNL     1     -12.316   9.866 -19.503  1.00  0.00    -0.294 OA
ATOM      5  C   UNL     1     -10.139  10.112 -18.525  1.00  0.00     0.102 A 
ATOM      6  C   UNL     1      -9.588   8.853 -18.883  1.00  0.00     0.133 A 
ATOM      7  C   UNL     1      -8.395   8.429 -18.285  1.00  0.00     0.093 A 
ATOM      8  C   UNL     1      -7.712   9.254 -17.385  1.00  0.00     0.123 A 
ATOM      9  C   UNL     1      -8.227  10.510 -17.068  1.00  0.00     0.093 A 
ATOM     10  C   UNL     1      -9.436  10.937 -17.621  1.00  0.00     0.138 A 
ATOM     11  O   UNL     1      -9.935  12.199 -17.271  1.00  0.00    -0.484 OA
ENDROOT
BRANCH   1  12
ATOM     12  C   UNL     1     -11.389  14.109 -17.481  1.00  0.00    -0.003 A 
ATOM     13  C   UNL     1     -11.571  16.917 -17.264  1.00  0.00     0.160 A 
ATOM     14  C   UNL     1     -12.657  16.105 -16.892  1.00  0.00     0.158 A 
ATOM     15  C   UNL     1     -10.390  16.310 -17.735  1.00  0.00     0.051 A 
ATOM     16  C   UNL     1     -12.561  14.713 -16.996  1.00  0.00     0.057 A 
ATOM     17  C   UNL     1     -10.300  14.920 -17.837  1.00  0.00     0.011 A 
BRANCH  13  18
ATOM     18  O   UNL     1     -11.695  18.311 -17.151  1.00  0.00    -0.493 OA
ATOM     19  C   UNL     1     -10.804  19.143 -16.416  1.00  0.00     0.278 C 
ENDBRANCH  13  18
BRANCH  14  20
ATOM     20  O   UNL     1     -13.842  16.662 -16.413  1.00  0.00    -0.504 OA
ATOM     21  H   UNL     1     -14.390  17.318 -16.958  1.00  0.00     0.293 HD
ENDBRANCH  14  20
ENDBRANCH   1  12
BRANCH   6  22
ATOM     22  O   UNL     1     -10.159   8.013 -19.841  1.00  0.00    -0.507 OA
ATOM     23  H   UNL     1     -11.108   7.670 -19.797  1.00  0.00     0.293 HD
ENDBRANCH   6  22
BRANCH   8  24
ATOM     24  O   UNL     1      -6.515   8.836 -16.806  1.00  0.00    -0.508 OA
ATOM     25  H   UNL     1      -6.379   7.879 -16.502  1.00  0.00     0.293 HD
ENDBRANCH   8  24
TORSDOF 5
ENDMDL
MODEL 8
REMARK VINA RESULT:    -4.560     13.342     13.678
REMARK INTER + INTRA:          -5.847
REMARK INTER:                  -5.485
REMARK INTRA:                  -0.362
REMARK UNBOUND:                -0.353
REMARK SMILES COc1ccc([C@H]2CC(=O)c3c(O)cc(O)cc3O2)cc1O
REMARK SMILES IDX 7 1 8 2 9 3 10 4 11 5 12 6 14 7 15 8 17 9 18 10 19 11 6 12
REMARK SMILES IDX 3 13 21 14 4 15 20 16 5 17 2 18 1 19 22 20 13 22 16 24
REMARK H PARENT 22 21 13 23 16 25
REMARK Flexibility Score: inf
ROOT
ATOM      1  C   UNL     1      -4.386  12.192 -13.550  1.00  0.00     0.211 C 
ATOM      2  C   UNL     1      -3.854  13.622 -13.719  1.00  0.00     0.131 C 
ATOM      3  C   UNL     1      -4.939  14.485 -14.290  1.00  0.00     0.174 C 
ATOM      4  O   UNL     1      -5.163  15.614 -13.777  1.00  0.00    -0.294 OA
ATOM      5  C   UNL     1      -5.761  13.956 -15.405  1.00  0.00     0.102 A 
ATOM      6  C   UNL     1      -6.537  14.765 -16.277  1.00  0.00     0.133 A 
ATOM      7  C   UNL     1      -7.332  14.158 -17.256  1.00  0.00     0.093 A 
ATOM      8  C   UNL     1      -7.327  12.769 -17.422  1.00  0.00     0.123 A 
ATOM      9  C   UNL     1      -6.531  11.975 -16.597  1.00  0.00     0.093 A 
ATOM     10  C   UNL     1      -5.761  12.556 -15.588  1.00  0.00     0.138 A 
ATOM     11  O   UNL     1      -4.982  11.730 -14.766  1.00  0.00    -0.484 OA
ENDROOT
BRANCH   1  12
ATOM     12  C   UNL     1      -3.279  11.256 -13.129  1.00  0.00    -0.003 A 
ATOM     13  C   UNL     1      -1.161   9.559 -12.357  1.00  0.00     0.160 A 
ATOM     14  C   UNL     1      -1.671   9.507 -13.667  1.00  0.00     0.158 A 
ATOM     15  C   UNL     1      -1.714  10.476 -11.442  1.00  0.00     0.051 A 
ATOM     16  C   UNL     1      -2.718  10.353 -14.047  1.00  0.00     0.057 A 
ATOM     17  C   UNL     1      -2.758  11.319 -11.827  1.00  0.00     0.011 A 
BRANCH  13  18
ATOM     18  O   UNL     1      -0.111   8.696 -12.003  1.00  0.00    -0.493 OA
ATOM     19  C   UNL     1       0.035   8.085 -10.725  1.00  0.00     0.278 C 
ENDBRANCH  13  18
BRANCH  14  20
ATOM     20  O   UNL     1      -1.149   8.620 -14.608  1.00  0.00    -0.504 OA
ATOM     21  H   UNL     1      -0.167   8.369 -14.628  1.00  0.00     0.293 HD
ENDBRANCH  14  20
ENDBRANCH   1  12
BRANCH   6  22
ATOM     22  O   UNL     1      -6.524  16.161 -16.235  1.00  0.00    -0.507 OA
ATOM     23  H   UNL     1      -6.610  16.702 -15.387  1.00  0.00     0.293 HD
ENDBRANCH   6  22
BRANCH   8  24
ATOM     24  O   UNL     1      -8.106  12.169 -18.409  1.00  0.00    -0.508 OA
ATOM     25  H   UNL     1      -7.946  12.349 -19.393  1.00  0.00     0.293 HD
ENDBRANCH   8  24
TORSDOF 5
ENDMDL
MODEL 9
REMARK VINA RESULT:    -4.492     13.392     13.784
REMARK INTER + INTRA:          -5.764
REMARK INTER:                  -5.395
REMARK INTRA:                  -0.369
REMARK UNBOUND:                -0.353
REMARK SMILES COc1ccc([C@H]2CC(=O)c3c(O)cc(O)cc3O2)cc1O
REMARK SMILES IDX 7 1 8 2 9 3 10 4 11 5 12 6 14 7 15 8 17 9 18 10 19 11 6 12
REMARK SMILES IDX 3 13 21 14 4 15 20 16 5 17 2 18 1 19 22 20 13 22 16 24
REMARK H PARENT 22 21 13 23 16 25
REMARK Flexibility Score: inf
ROOT
ATOM      1  C   UNL     1      -5.159  13.181 -14.134  1.00  0.00     0.211 C 
ATOM      2  C   UNL     1      -5.054  14.478 -14.949  1.00  0.00     0.131 C 
ATOM      3  C   UNL     1      -6.244  14.586 -15.854  1.00  0.00     0.174 C 
ATOM      4  O   UNL     1      -6.868  15.678 -15.925  1.00  0.00    -0.294 OA
ATOM      5  C   UNL     1      -6.691  13.381 -16.594  1.00  0.00     0.102 A 
ATOM      6  C   UNL     1      -7.527  13.416 -17.742  1.00  0.00     0.133 A 
ATOM      7  C   UNL     1      -7.946  12.214 -18.326  1.00  0.00     0.093 A 
ATOM      8  C   UNL     1      -7.506  10.984 -17.827  1.00  0.00     0.123 A 
ATOM      9  C   UNL     1      -6.647  10.948 -16.729  1.00  0.00     0.093 A 
ATOM     10  C   UNL     1      -6.249  12.133 -16.106  1.00  0.00     0.138 A 
ATOM     11  O   UNL     1      -5.397  12.064 -14.995  1.00  0.00    -0.484 OA
ENDROOT
BRANCH   1  12
ATOM     12  C   UNL     1      -3.904  12.954 -13.327  1.00  0.00    -0.003 A 
ATOM     13  C   UNL     1      -1.525  12.503 -11.877  1.00  0.00     0.160 A 
ATOM     14  C   UNL     1      -2.536  11.526 -11.903  1.00  0.00     0.158 A 
ATOM     15  C   UNL     1      -1.712  13.703 -12.593  1.00  0.00     0.051 A 
ATOM     16  C   UNL     1      -3.712  11.751 -12.627  1.00  0.00     0.057 A 
ATOM     17  C   UNL     1      -2.888  13.921 -13.313  1.00  0.00     0.011 A 
BRANCH  13  18
ATOM     18  O   UNL     1      -0.356  12.252 -11.142  1.00  0.00    -0.493 OA
ATOM     19  C   UNL     1       0.121  13.072 -10.080  1.00  0.00     0.278 C 
ENDBRANCH  13  18
BRANCH  14  20
ATOM     20  O   UNL     1      -2.390  10.321 -11.217  1.00  0.00    -0.504 OA
ATOM     21  H   UNL     1      -2.190   9.449 -11.692  1.00  0.00     0.293 HD
ENDBRANCH  14  20
ENDBRANCH   1  12
BRANCH   6  22
ATOM     22  O   UNL     1      -7.934  14.603 -18.355  1.00  0.00    -0.507 OA
ATOM     23  H   UNL     1      -8.863  14.764 -18.715  1.00  0.00     0.293 HD
ENDBRANCH   6  22
BRANCH   8  24
ATOM     24  O   UNL     1      -7.911   9.790 -18.422  1.00  0.00    -0.508 OA
ATOM     25  H   UNL     1      -7.252   9.047 -18.622  1.00  0.00     0.293 HD
ENDBRANCH   8  24
TORSDOF 5
ENDMDL
