MODEL 1
REMARK VINA RESULT:    -5.606      0.000      0.000
REMARK INTER + INTRA:          -6.097
REMARK INTER:                  -6.097
REMARK INTRA:                   0.000
REMARK UNBOUND:                 0.000
REMARK SMILES Cc1cc(O)c2c(c1)C(=O)c1cc(O)cc(O)c1C2=O
REMARK SMILES IDX 1 1 2 2 8 3 7 4 6 5 4 6 3 7 19 8 20 9 18 10 11 11 9 12 10 13
REMARK SMILES IDX 12 14 13 15 15 16 16 17 5 18 17 20 14 22
REMARK H PARENT 5 19 17 21 14 23
REMARK Flexibility Score: inf
ROOT
ATOM      1  C   UNL     1       7.642  10.125  -0.275  1.00  0.00     0.044 C 
ATOM      2  C   UNL     1       6.645   9.071  -0.655  1.00  0.00    -0.047 A 
ATOM      3  C   UNL     1       6.682   8.495  -1.930  1.00  0.00     0.016 A 
ATOM      4  C   UNL     1       5.735   7.526  -2.305  1.00  0.00     0.038 A 
ATOM      5  C   UNL     1       4.735   7.129  -1.390  1.00  0.00     0.076 A 
ATOM      6  C   UNL     1       4.653   7.777  -0.131  1.00  0.00     0.127 A 
ATOM      7  C   UNL     1       5.618   8.723   0.228  1.00  0.00     0.050 A 
ATOM      8  C   UNL     1       3.846   6.000  -1.767  1.00  0.00     0.201 C 
ATOM      9  O   UNL     1       3.371   5.250  -0.873  1.00  0.00    -0.288 OA
ATOM     10  C   UNL     1       3.673   5.645  -3.200  1.00  0.00     0.076 A 
ATOM     11  C   UNL     1       4.673   6.047  -4.113  1.00  0.00     0.041 A 
ATOM     12  C   UNL     1       5.776   6.927  -3.660  1.00  0.00     0.194 C 
ATOM     13  O   UNL     1       6.737   7.186  -4.436  1.00  0.00    -0.289 OA
ATOM     14  C   UNL     1       4.615   5.613  -5.449  1.00  0.00     0.059 A 
ATOM     15  C   UNL     1       3.566   4.799  -5.885  1.00  0.00     0.120 A 
ATOM     16  C   UNL     1       2.556   4.434  -4.996  1.00  0.00     0.093 A 
ATOM     17  C   UNL     1       2.580   4.868  -3.668  1.00  0.00     0.131 A 
ENDROOT
BRANCH   6  18
ATOM     18  O   UNL     1       3.615   7.541   0.773  1.00  0.00    -0.507 OA
ATOM     19  H   UNL     1       3.134   8.276   1.275  1.00  0.00     0.293 HD
ENDBRANCH   6  18
BRANCH  17  20
ATOM     20  O   UNL     1       1.487   4.539  -2.862  1.00  0.00    -0.507 OA
ATOM     21  H   UNL     1       1.568   4.285  -1.887  1.00  0.00     0.293 HD
ENDBRANCH  17  20
BRANCH  15  22
ATOM     22  O   UNL     1       3.512   4.358  -7.205  1.00  0.00    -0.508 OA
ATOM     23  H   UNL     1       2.698   3.878  -7.571  1.00  0.00     0.293 HD
ENDBRANCH  15  22
TORSDOF 3
ENDMDL
MODEL 2
REMARK VINA RESULT:    -5.367     11.391     13.561
REMARK INTER + INTRA:          -5.837
REMARK INTER:                  -5.837
REMARK INTRA:                   0.000
REMARK UNBOUND:                 0.000
REMARK SMILES Cc1cc(O)c2c(c1)C(=O)c1cc(O)cc(O)c1C2=O
REMARK SMILES IDX 1 1 2 2 8 3 7 4 6 5 4 6 3 7 19 8 20 9 18 10 11 11 9 12 10 13
REMARK SMILES IDX 12 14 13 15 15 16 16 17 5 18 17 20 14 22
REMARK H PARENT 5 19 17 21 14 23
REMARK Flexibility Score: inf
ROOT
ATOM      1  C   UNL     1      -5.994   3.141  -9.653  1.00  0.00     0.044 C 
ATOM      2  C   UNL     1      -6.555   2.868  -8.290  1.00  0.00    -0.047 A 
ATOM      3  C   UNL     1      -6.282   3.739  -7.228  1.00  0.00     0.016 A 
ATOM      4  C   UNL     1      -6.781   3.478  -5.941  1.00  0.00     0.038 A 
ATOM      5  C   UNL     1      -7.564   2.325  -5.711  1.00  0.00     0.076 A 
ATOM      6  C   UNL     1      -7.767   1.404  -6.771  1.00  0.00     0.127 A 
ATOM      7  C   UNL     1      -7.278   1.696  -8.048  1.00  0.00     0.050 A 
ATOM      8  C   UNL     1      -8.196   2.160  -4.377  1.00  0.00     0.201 C 
ATOM      9  O   UNL     1      -9.290   1.544  -4.272  1.00  0.00    -0.288 OA
ATOM     10  C   UNL     1      -7.637   2.879  -3.202  1.00  0.00     0.076 A 
ATOM     11  C   UNL     1      -6.850   4.029  -3.436  1.00  0.00     0.041 A 
ATOM     12  C   UNL     1      -6.480   4.401  -4.821  1.00  0.00     0.194 C 
ATOM     13  O   UNL     1      -5.887   5.493  -5.045  1.00  0.00    -0.289 OA
ATOM     14  C   UNL     1      -6.420   4.813  -2.352  1.00  0.00     0.059 A 
ATOM     15  C   UNL     1      -6.750   4.455  -1.042  1.00  0.00     0.120 A 
ATOM     16  C   UNL     1      -7.491   3.298  -0.806  1.00  0.00     0.093 A 
ATOM     17  C   UNL     1      -7.915   2.491  -1.865  1.00  0.00     0.131 A 
ENDROOT
BRANCH   6  18
ATOM     18  O   UNL     1      -8.410   0.178  -6.592  1.00  0.00    -0.507 OA
ATOM     19  H   UNL     1      -8.818  -0.117  -5.715  1.00  0.00     0.293 HD
ENDBRANCH   6  18
BRANCH  17  20
ATOM     20  O   UNL     1      -8.574   1.301  -1.545  1.00  0.00    -0.507 OA
ATOM     21  H   UNL     1      -9.226   0.839  -2.164  1.00  0.00     0.293 HD
ENDBRANCH  17  20
BRANCH  15  22
ATOM     22  O   UNL     1      -6.335   5.236   0.034  1.00  0.00    -0.508 OA
ATOM     23  H   UNL     1      -5.633   5.960  -0.075  1.00  0.00     0.293 HD
ENDBRANCH  15  22
TORSDOF 3
ENDMDL
MODEL 3
REMARK VINA RESULT:    -5.318     14.312     16.258
REMARK INTER + INTRA:          -5.784
REMARK INTER:                  -5.784
REMARK INTRA:                   0.000
REMARK UNBOUND:                 0.000
REMARK SMILES Cc1cc(O)c2c(c1)C(=O)c1cc(O)cc(O)c1C2=O
REMARK SMILES IDX 1 1 2 2 8 3 7 4 6 5 4 6 3 7 19 8 20 9 18 10 11 11 9 12 10 13
REMARK SMILES IDX 12 14 13 15 15 16 16 17 5 18 17 20 14 22
REMARK H PARENT 5 19 17 21 14 23
REMARK Flexibility Score: inf
ROOT
ATOM      1  C   UNL     1      -9.287  -2.475  -1.173  1.00  0.00     0.044 C 
ATOM      2  C   UNL     1      -8.007  -2.886  -0.508  1.00  0.00    -0.047 A 
ATOM      3  C   UNL     1      -7.972  -3.110   0.874  1.00  0.00     0.016 A 
ATOM      4  C   UNL     1      -6.772  -3.470   1.511  1.00  0.00     0.038 A 
ATOM      5  C   UNL     1      -5.588  -3.605   0.754  1.00  0.00     0.076 A 
ATOM      6  C   UNL     1      -5.612  -3.294  -0.631  1.00  0.00     0.127 A 
ATOM      7  C   UNL     1      -6.822  -2.959  -1.246  1.00  0.00     0.050 A 
ATOM      8  C   UNL     1      -4.375  -4.128   1.434  1.00  0.00     0.201 C 
ATOM      9  O   UNL     1      -3.525  -4.790   0.780  1.00  0.00    -0.288 OA
ATOM     10  C   UNL     1      -4.260  -4.034   2.912  1.00  0.00     0.076 A 
ATOM     11  C   UNL     1      -5.447  -3.894   3.666  1.00  0.00     0.041 A 
ATOM     12  C   UNL     1      -6.743  -3.697   2.975  1.00  0.00     0.194 C 
ATOM     13  O   UNL     1      -7.818  -3.699   3.635  1.00  0.00    -0.289 OA
ATOM     14  C   UNL     1      -5.392  -3.940   5.070  1.00  0.00     0.059 A 
ATOM     15  C   UNL     1      -4.171  -4.106   5.728  1.00  0.00     0.120 A 
ATOM     16  C   UNL     1      -2.993  -4.203   4.988  1.00  0.00     0.093 A 
ATOM     17  C   UNL     1      -3.018  -4.141   3.591  1.00  0.00     0.131 A 
ENDROOT
BRANCH   6  18
ATOM     18  O   UNL     1      -4.460  -3.270  -1.419  1.00  0.00    -0.507 OA
ATOM     19  H   UNL     1      -3.643  -3.835  -1.232  1.00  0.00     0.293 HD
ENDBRANCH   6  18
BRANCH  17  20
ATOM     20  O   UNL     1      -1.791  -4.152   2.923  1.00  0.00    -0.507 OA
ATOM     21  H   UNL     1      -1.195  -4.966   2.862  1.00  0.00     0.293 HD
ENDBRANCH  17  20
BRANCH  15  22
ATOM     22  O   UNL     1      -4.114  -4.163   7.118  1.00  0.00    -0.508 OA
ATOM     23  H   UNL     1      -3.604  -3.474   7.658  1.00  0.00     0.293 HD
ENDBRANCH  15  22
TORSDOF 3
ENDMDL
MODEL 4
REMARK VINA RESULT:    -5.287      3.123      4.860
REMARK INTER + INTRA:          -5.751
REMARK INTER:                  -5.751
REMARK INTRA:                   0.000
REMARK UNBOUND:                 0.000
REMARK SMILES Cc1cc(O)c2c(c1)C(=O)c1cc(O)cc(O)c1C2=O
REMARK SMILES IDX 1 1 2 2 8 3 7 4 6 5 4 6 3 7 19 8 20 9 18 10 11 11 9 12 10 13
REMARK SMILES IDX 12 14 13 15 15 16 16 17 5 18 17 20 14 22
REMARK H PARENT 5 19 17 21 14 23
REMARK Flexibility Score: inf
ROOT
ATOM      1  C   UNL     1       3.411   7.576  -2.486  1.00  0.00     0.044 C 
ATOM      2  C   UNL     1       4.041   6.347  -3.069  1.00  0.00    -0.047 A 
ATOM      3  C   UNL     1       3.787   5.989  -4.399  1.00  0.00     0.016 A 
ATOM      4  C   UNL     1       4.351   4.825  -4.948  1.00  0.00     0.038 A 
ATOM      5  C   UNL     1       5.181   4.004  -4.152  1.00  0.00     0.076 A 
ATOM      6  C   UNL     1       5.366   4.327  -2.783  1.00  0.00     0.127 A 
ATOM      7  C   UNL     1       4.812   5.501  -2.266  1.00  0.00     0.050 A 
ATOM      8  C   UNL     1       5.876   2.865  -4.806  1.00  0.00     0.201 C 
ATOM      9  O   UNL     1       6.993   2.478  -4.370  1.00  0.00    -0.288 OA
ATOM     10  C   UNL     1       5.347   2.311  -6.079  1.00  0.00     0.076 A 
ATOM     11  C   UNL     1       4.514   3.133  -6.870  1.00  0.00     0.041 A 
ATOM     12  C   UNL     1       4.070   4.450  -6.354  1.00  0.00     0.194 C 
ATOM     13  O   UNL     1       3.433   5.240  -7.103  1.00  0.00    -0.289 OA
ATOM     14  C   UNL     1       4.107   2.698  -8.143  1.00  0.00     0.059 A 
ATOM     15  C   UNL     1       4.507   1.449  -8.627  1.00  0.00     0.120 A 
ATOM     16  C   UNL     1       5.295   0.618  -7.832  1.00  0.00     0.093 A 
ATOM     17  C   UNL     1       5.697   1.019  -6.555  1.00  0.00     0.131 A 
ENDROOT
BRANCH   6  18
ATOM     18  O   UNL     1       6.056   3.495  -1.898  1.00  0.00    -0.507 OA
ATOM     19  H   UNL     1       7.042   3.285  -1.983  1.00  0.00     0.293 HD
ENDBRANCH   6  18
BRANCH  17  20
ATOM     20  O   UNL     1       6.407   0.097  -5.782  1.00  0.00    -0.507 OA
ATOM     21  H   UNL     1       7.403   0.153  -5.620  1.00  0.00     0.293 HD
ENDBRANCH  17  20
BRANCH  15  22
ATOM     22  O   UNL     1       4.115   1.019  -9.892  1.00  0.00    -0.508 OA
ATOM     23  H   UNL     1       4.118   1.644 -10.690  1.00  0.00     0.293 HD
ENDBRANCH  15  22
TORSDOF 3
ENDMDL
MODEL 5
REMARK VINA RESULT:    -5.198     15.138     15.692
REMARK INTER + INTRA:          -5.653
REMARK INTER:                  -5.653
REMARK INTRA:                   0.000
REMARK UNBOUND:                 0.000
REMARK SMILES Cc1cc(O)c2c(c1)C(=O)c1cc(O)cc(O)c1C2=O
REMARK SMILES IDX 1 1 2 2 8 3 7 4 6 5 4 6 3 7 19 8 20 9 18 10 11 11 9 12 10 13
REMARK SMILES IDX 12 14 13 15 15 16 16 17 5 18 17 20 14 22
REMARK H PARENT 5 19 17 21 14 23
REMARK Flexibility Score: inf
ROOT
ATOM      1  C   UNL     1       5.705  -6.089   6.830  1.00  0.00     0.044 C 
ATOM      2  C   UNL     1       4.253  -5.798   7.064  1.00  0.00    -0.047 A 
ATOM      3  C   UNL     1       3.330  -5.930   6.019  1.00  0.00     0.016 A 
ATOM      4  C   UNL     1       1.972  -5.634   6.221  1.00  0.00     0.038 A 
ATOM      5  C   UNL     1       1.529  -5.196   7.488  1.00  0.00     0.076 A 
ATOM      6  C   UNL     1       2.481  -4.983   8.519  1.00  0.00     0.127 A 
ATOM      7  C   UNL     1       3.823  -5.305   8.301  1.00  0.00     0.050 A 
ATOM      8  C   UNL     1       0.068  -5.034   7.705  1.00  0.00     0.201 C 
ATOM      9  O   UNL     1      -0.420  -5.216   8.852  1.00  0.00    -0.288 OA
ATOM     10  C   UNL     1      -0.834  -4.847   6.539  1.00  0.00     0.076 A 
ATOM     11  C   UNL     1      -0.386  -5.282   5.272  1.00  0.00     0.041 A 
ATOM     12  C   UNL     1       1.004  -5.769   5.107  1.00  0.00     0.194 C 
ATOM     13  O   UNL     1       1.370  -6.276   4.010  1.00  0.00    -0.289 OA
ATOM     14  C   UNL     1      -1.261  -5.249   4.172  1.00  0.00     0.059 A 
ATOM     15  C   UNL     1      -2.566  -4.773   4.317  1.00  0.00     0.120 A 
ATOM     16  C   UNL     1      -2.998  -4.304   5.558  1.00  0.00     0.093 A 
ATOM     17  C   UNL     1      -2.142  -4.308   6.663  1.00  0.00     0.131 A 
ENDROOT
BRANCH   6  18
ATOM     18  O   UNL     1       2.145  -4.423   9.753  1.00  0.00    -0.507 OA
ATOM     19  H   UNL     1       1.275  -3.937   9.928  1.00  0.00     0.293 HD
ENDBRANCH   6  18
BRANCH  17  20
ATOM     20  O   UNL     1      -2.615  -3.739   7.848  1.00  0.00    -0.507 OA
ATOM     21  H   UNL     1      -2.076  -3.099   8.415  1.00  0.00     0.293 HD
ENDBRANCH  17  20
BRANCH  15  22
ATOM     22  O   UNL     1      -3.439  -4.749   3.232  1.00  0.00    -0.508 OA
ATOM     23  H   UNL     1      -3.789  -5.602   2.814  1.00  0.00     0.293 HD
ENDBRANCH  15  22
TORSDOF 3
ENDMDL
MODEL 6
REMARK VINA RESULT:    -5.174     11.212     12.811
REMARK INTER + INTRA:          -5.627
REMARK INTER:                  -5.627
REMARK INTRA:                   0.000
REMARK UNBOUND:                 0.000
REMARK SMILES Cc1cc(O)c2c(c1)C(=O)c1cc(O)cc(O)c1C2=O
REMARK SMILES IDX 1 1 2 2 8 3 7 4 6 5 4 6 3 7 19 8 20 9 18 10 11 11 9 12 10 13
REMARK SMILES IDX 12 14 13 15 15 16 16 17 5 18 17 20 14 22
REMARK H PARENT 5 19 17 21 14 23
REMARK Flexibility Score: inf
ROOT
ATOM      1  C   UNL     1      -7.977   4.335   1.487  1.00  0.00     0.044 C 
ATOM      2  C   UNL     1      -7.644   4.354   0.025  1.00  0.00    -0.047 A 
ATOM      3  C   UNL     1      -8.164   3.372  -0.828  1.00  0.00     0.016 A 
ATOM      4  C   UNL     1      -7.836   3.364  -2.194  1.00  0.00     0.038 A 
ATOM      5  C   UNL     1      -6.973   4.353  -2.716  1.00  0.00     0.076 A 
ATOM      6  C   UNL     1      -6.384   5.294  -1.831  1.00  0.00     0.127 A 
ATOM      7  C   UNL     1      -6.741   5.294  -0.480  1.00  0.00     0.050 A 
ATOM      8  C   UNL     1      -6.768   4.402  -4.186  1.00  0.00     0.201 C 
ATOM      9  O   UNL     1      -6.526   5.503  -4.750  1.00  0.00    -0.288 OA
ATOM     10  C   UNL     1      -7.033   3.193  -5.008  1.00  0.00     0.076 A 
ATOM     11  C   UNL     1      -7.894   2.204  -4.482  1.00  0.00     0.041 A 
ATOM     12  C   UNL     1      -8.384   2.317  -3.088  1.00  0.00     0.194 C 
ATOM     13  O   UNL     1      -9.251   1.508  -2.655  1.00  0.00    -0.289 OA
ATOM     14  C   UNL     1      -8.278   1.114  -5.282  1.00  0.00     0.059 A 
ATOM     15  C   UNL     1      -7.803   0.992  -6.590  1.00  0.00     0.120 A 
ATOM     16  C   UNL     1      -6.921   1.945  -7.099  1.00  0.00     0.093 A 
ATOM     17  C   UNL     1      -6.508   3.028  -6.317  1.00  0.00     0.131 A 
ENDROOT
BRANCH   6  18
ATOM     18  O   UNL     1      -5.417   6.214  -2.243  1.00  0.00    -0.507 OA
ATOM     19  H   UNL     1      -5.373   7.166  -1.905  1.00  0.00     0.293 HD
ENDBRANCH   6  18
BRANCH  17  20
ATOM     20  O   UNL     1      -5.554   3.890  -6.862  1.00  0.00    -0.507 OA
ATOM     21  H   UNL     1      -4.664   3.580  -7.228  1.00  0.00     0.293 HD
ENDBRANCH  17  20
BRANCH  15  22
ATOM     22  O   UNL     1      -8.191  -0.080  -7.390  1.00  0.00    -0.508 OA
ATOM     23  H   UNL     1      -8.250  -1.023  -7.022  1.00  0.00     0.293 HD
ENDBRANCH  15  22
TORSDOF 3
ENDMDL
MODEL 7
REMARK VINA RESULT:    -5.171      1.364      5.528
REMARK INTER + INTRA:          -5.625
REMARK INTER:                  -5.625
REMARK INTRA:                   0.000
REMARK UNBOUND:                 0.000
REMARK SMILES Cc1cc(O)c2c(c1)C(=O)c1cc(O)cc(O)c1C2=O
REMARK SMILES IDX 1 1 2 2 8 3 7 4 6 5 4 6 3 7 19 8 20 9 18 10 11 11 9 12 10 13
REMARK SMILES IDX 12 14 13 15 15 16 16 17 5 18 17 20 14 22
REMARK H PARENT 5 19 17 21 14 23
REMARK Flexibility Score: inf
ROOT
ATOM      1  C   UNL     1       4.402   3.410  -6.589  1.00  0.00     0.044 C 
ATOM      2  C   UNL     1       4.166   4.273  -5.386  1.00  0.00    -0.047 A 
ATOM      3  C   UNL     1       5.190   5.093  -4.895  1.00  0.00     0.016 A 
ATOM      4  C   UNL     1       4.987   5.884  -3.752  1.00  0.00     0.038 A 
ATOM      5  C   UNL     1       3.741   5.854  -3.088  1.00  0.00     0.076 A 
ATOM      6  C   UNL     1       2.737   4.959  -3.540  1.00  0.00     0.127 A 
ATOM      7  C   UNL     1       2.955   4.197  -4.692  1.00  0.00     0.050 A 
ATOM      8  C   UNL     1       3.514   6.811  -1.974  1.00  0.00     0.201 C 
ATOM      9  O   UNL     1       2.352   7.238  -1.740  1.00  0.00    -0.288 OA
ATOM     10  C   UNL     1       4.677   7.407  -1.266  1.00  0.00     0.076 A 
ATOM     11  C   UNL     1       5.923   7.432  -1.932  1.00  0.00     0.041 A 
ATOM     12  C   UNL     1       6.078   6.743  -3.235  1.00  0.00     0.194 C 
ATOM     13  O   UNL     1       7.148   6.869  -3.893  1.00  0.00    -0.289 OA
ATOM     14  C   UNL     1       7.012   8.107  -1.353  1.00  0.00     0.059 A 
ATOM     15  C   UNL     1       6.876   8.742  -0.116  1.00  0.00     0.120 A 
ATOM     16  C   UNL     1       5.659   8.684   0.563  1.00  0.00     0.093 A 
ATOM     17  C   UNL     1       4.567   8.001   0.018  1.00  0.00     0.131 A 
ENDROOT
BRANCH   6  18
ATOM     18  O   UNL     1       1.533   4.768  -2.859  1.00  0.00    -0.507 OA
ATOM     19  H   UNL     1       0.666   5.218  -3.121  1.00  0.00     0.293 HD
ENDBRANCH   6  18
BRANCH  17  20
ATOM     20  O   UNL     1       3.411   7.909   0.797  1.00  0.00    -0.507 OA
ATOM     21  H   UNL     1       2.630   7.310   0.569  1.00  0.00     0.293 HD
ENDBRANCH  17  20
BRANCH  15  22
ATOM     22  O   UNL     1       7.949   9.422   0.456  1.00  0.00    -0.508 OA
ATOM     23  H   UNL     1       7.948  10.431   0.551  1.00  0.00     0.293 HD
ENDBRANCH  15  22
TORSDOF 3
ENDMDL
MODEL 8
REMARK VINA RESULT:    -5.153     14.887     16.311
REMARK INTER + INTRA:          -5.605
REMARK INTER:                  -5.605
REMARK INTRA:                   0.000
REMARK UNBOUND:                 0.000
REMARK SMILES Cc1cc(O)c2c(c1)C(=O)c1cc(O)cc(O)c1C2=O
REMARK SMILES IDX 1 1 2 2 8 3 7 4 6 5 4 6 3 7 19 8 20 9 18 10 11 11 9 12 10 13
REMARK SMILES IDX 12 14 13 15 15 16 16 17 5 18 17 20 14 22
REMARK H PARENT 5 19 17 21 14 23
REMARK Flexibility Score: inf
ROOT
ATOM      1  C   UNL     1      -6.415  -3.718   3.708  1.00  0.00     0.044 C 
ATOM      2  C   UNL     1      -5.001  -4.207   3.814  1.00  0.00    -0.047 A 
ATOM      3  C   UNL     1      -4.342  -4.190   5.049  1.00  0.00     0.016 A 
ATOM      4  C   UNL     1      -3.008  -4.621   5.155  1.00  0.00     0.038 A 
ATOM      5  C   UNL     1      -2.323  -5.075   4.006  1.00  0.00     0.076 A 
ATOM      6  C   UNL     1      -2.969  -5.010   2.745  1.00  0.00     0.127 A 
ATOM      7  C   UNL     1      -4.303  -4.598   2.668  1.00  0.00     0.050 A 
ATOM      8  C   UNL     1      -0.969  -5.660   4.181  1.00  0.00     0.201 C 
ATOM      9  O   UNL     1      -0.564  -6.554   3.390  1.00  0.00    -0.288 OA
ATOM     10  C   UNL     1      -0.174  -5.329   5.392  1.00  0.00     0.076 A 
ATOM     11  C   UNL     1      -0.862  -4.872   6.538  1.00  0.00     0.041 A 
ATOM     12  C   UNL     1      -2.315  -4.592   6.465  1.00  0.00     0.194 C 
ATOM     13  O   UNL     1      -2.958  -4.306   7.513  1.00  0.00    -0.289 OA
ATOM     14  C   UNL     1      -0.163  -4.680   7.743  1.00  0.00     0.059 A 
ATOM     15  C   UNL     1       1.211  -4.924   7.813  1.00  0.00     0.120 A 
ATOM     16  C   UNL     1       1.900  -5.336   6.673  1.00  0.00     0.093 A 
ATOM     17  C   UNL     1       1.233  -5.515   5.458  1.00  0.00     0.131 A 
ENDROOT
BRANCH   6  18
ATOM     18  O   UNL     1      -2.317  -5.309   1.546  1.00  0.00    -0.507 OA
ATOM     19  H   UNL     1      -1.936  -6.220   1.330  1.00  0.00     0.293 HD
ENDBRANCH   6  18
BRANCH  17  20
ATOM     20  O   UNL     1       2.004  -5.839   4.339  1.00  0.00    -0.507 OA
ATOM     21  H   UNL     1       1.613  -6.051   3.432  1.00  0.00     0.293 HD
ENDBRANCH  17  20
BRANCH  15  22
ATOM     22  O   UNL     1       1.904  -4.746   9.008  1.00  0.00    -0.508 OA
ATOM     23  H   UNL     1       2.877  -5.015   9.102  1.00  0.00     0.293 HD
ENDBRANCH  15  22
TORSDOF 3
ENDMDL
MODEL 9
REMARK VINA RESULT:    -5.120     14.887     16.656
REMARK INTER + INTRA:          -5.569
REMARK INTER:                  -5.569
REMARK INTRA:                   0.000
REMARK UNBOUND:                 0.000
REMARK SMILES Cc1cc(O)c2c(c1)C(=O)c1cc(O)cc(O)c1C2=O
REMARK SMILES IDX 1 1 2 2 8 3 7 4 6 5 4 6 3 7 19 8 20 9 18 10 11 11 9 12 10 13
REMARK SMILES IDX 12 14 13 15 15 16 16 17 5 18 17 20 14 22
REMARK H PARENT 5 19 17 21 14 23
REMARK Flexibility Score: inf
ROOT
ATOM      1  C   UNL     1      -5.113  -4.214   6.646  1.00  0.00     0.044 C 
ATOM      2  C   UNL     1      -3.674  -4.505   6.341  1.00  0.00    -0.047 A 
ATOM      3  C   UNL     1      -2.761  -4.712   7.382  1.00  0.00     0.016 A 
ATOM      4  C   UNL     1      -1.405  -4.958   7.107  1.00  0.00     0.038 A 
ATOM      5  C   UNL     1      -0.954  -4.995   5.769  1.00  0.00     0.076 A 
ATOM      6  C   UNL     1      -1.867  -4.701   4.723  1.00  0.00     0.127 A 
ATOM      7  C   UNL     1      -3.215  -4.480   5.020  1.00  0.00     0.050 A 
ATOM      8  C   UNL     1       0.451  -5.403   5.511  1.00  0.00     0.201 C 
ATOM      9  O   UNL     1       0.746  -5.994   4.438  1.00  0.00    -0.288 OA
ATOM     10  C   UNL     1       1.463  -5.285   6.593  1.00  0.00     0.076 A 
ATOM     11  C   UNL     1       1.008  -5.244   7.930  1.00  0.00     0.041 A 
ATOM     12  C   UNL     1      -0.444  -5.169   8.215  1.00  0.00     0.194 C 
ATOM     13  O   UNL     1      -0.860  -5.260   9.403  1.00  0.00    -0.289 OA
ATOM     14  C   UNL     1       1.937  -5.272   8.985  1.00  0.00     0.059 A 
ATOM     15  C   UNL     1       3.309  -5.324   8.722  1.00  0.00     0.120 A 
ATOM     16  C   UNL     1       3.761  -5.323   7.403  1.00  0.00     0.093 A 
ATOM     17  C   UNL     1       2.859  -5.276   6.336  1.00  0.00     0.131 A 
ENDROOT
BRANCH   6  18
ATOM     18  O   UNL     1      -1.474  -4.582   3.388  1.00  0.00    -0.507 OA
ATOM     19  H   UNL     1      -0.511  -4.477   3.097  1.00  0.00     0.293 HD
ENDBRANCH   6  18
BRANCH  17  20
ATOM     20  O   UNL     1       3.389  -5.185   5.047  1.00  0.00    -0.507 OA
ATOM     21  H   UNL     1       3.820  -4.349   4.677  1.00  0.00     0.293 HD
ENDBRANCH  17  20
BRANCH  15  22
ATOM     22  O   UNL     1       4.231  -5.363   9.764  1.00  0.00    -0.508 OA
ATOM     23  H   UNL     1       4.557  -4.517  10.216  1.00  0.00     0.293 HD
ENDBRANCH  15  22
TORSDOF 3
ENDMDL
