MODEL 1
REMARK VINA RESULT:    -3.209      0.000      0.000
REMARK INTER + INTRA:          -3.957
REMARK INTER:                  -3.771
REMARK INTRA:                  -0.186
REMARK UNBOUND:                -0.186
REMARK SMILES O=C([O-])CCC(=O)[O-]
REMARK SMILES IDX 4 1 2 2 1 3 3 4 5 5 6 6 7 7 8 8
REMARK H PARENT
REMARK Flexibility Score: inf
ROOT
ATOM      1  C   UNL     1      26.895  -8.587   0.010  1.00  0.00     0.059 C 
ENDROOT
BRANCH   1   2
ATOM      2  C   UNL     1      26.179  -7.273  -0.027  1.00  0.00     0.042 C 
ATOM      3  O   UNL     1      25.069  -7.173  -0.614  1.00  0.00    -0.550 OA
ATOM      4  O   UNL     1      26.761  -6.148   0.543  1.00  0.00    -0.550 OA
ENDBRANCH   1   2
BRANCH   1   5
ATOM      5  C   UNL     1      27.163  -9.090  -1.410  1.00  0.00     0.059 C 
BRANCH   5   6
ATOM      6  C   UNL     1      28.143  -8.200  -2.105  1.00  0.00     0.042 C 
ATOM      7  O   UNL     1      29.327  -8.109  -1.684  1.00  0.00    -0.550 OA
ATOM      8  O   UNL     1      27.737  -7.430  -3.188  1.00  0.00    -0.550 OA
ENDBRANCH   5   6
ENDBRANCH   1   5
TORSDOF 3
ENDMDL
MODEL 2
REMARK VINA RESULT:    -3.207      0.070      3.455
REMARK INTER + INTRA:          -3.955
REMARK INTER:                  -3.768
REMARK INTRA:                  -0.187
REMARK UNBOUND:                -0.186
REMARK SMILES O=C([O-])CCC(=O)[O-]
REMARK SMILES IDX 4 1 2 2 1 3 3 4 5 5 6 6 7 7 8 8
REMARK H PARENT
REMARK Flexibility Score: inf
ROOT
ATOM      1  C   UNL     1      27.159  -9.124  -1.392  1.00  0.00     0.059 C 
ENDROOT
BRANCH   1   2
ATOM      2  C   UNL     1      28.086  -8.215  -2.137  1.00  0.00     0.042 C 
ATOM      3  O   UNL     1      29.272  -8.059  -1.743  1.00  0.00    -0.550 OA
ATOM      4  O   UNL     1      27.626  -7.502  -3.237  1.00  0.00    -0.550 OA
ENDBRANCH   1   2
BRANCH   1   5
ATOM      5  C   UNL     1      26.910  -8.594   0.021  1.00  0.00     0.059 C 
BRANCH   5   6
ATOM      6  C   UNL     1      26.193  -7.283  -0.030  1.00  0.00     0.042 C 
ATOM      7  O   UNL     1      25.070  -7.196  -0.594  1.00  0.00    -0.550 OA
ATOM      8  O   UNL     1      26.786  -6.144   0.499  1.00  0.00    -0.550 OA
ENDBRANCH   5   6
ENDBRANCH   1   5
TORSDOF 3
ENDMDL
MODEL 3
REMARK VINA RESULT:    -3.199      1.276      3.609
REMARK INTER + INTRA:          -3.946
REMARK INTER:                  -3.835
REMARK INTRA:                  -0.111
REMARK UNBOUND:                -0.186
REMARK SMILES O=C([O-])CCC(=O)[O-]
REMARK SMILES IDX 4 1 2 2 1 3 3 4 5 5 6 6 7 7 8 8
REMARK H PARENT
REMARK Flexibility Score: inf
ROOT
ATOM      1  C   UNL     1      27.149  -9.057  -1.330  1.00  0.00     0.059 C 
ENDROOT
BRANCH   1   2
ATOM      2  C   UNL     1      28.123  -8.173  -2.043  1.00  0.00     0.042 C 
ATOM      3  O   UNL     1      29.320  -8.108  -1.656  1.00  0.00    -0.550 OA
ATOM      4  O   UNL     1      27.699  -7.382  -3.103  1.00  0.00    -0.550 OA
ENDBRANCH   1   2
BRANCH   1   5
ATOM      5  C   UNL     1      26.106  -8.218  -0.591  1.00  0.00     0.059 C 
BRANCH   5   6
ATOM      6  C   UNL     1      26.529  -7.984   0.824  1.00  0.00     0.042 C 
ATOM      7  O   UNL     1      26.855  -6.828   1.205  1.00  0.00    -0.550 OA
ATOM      8  O   UNL     1      26.613  -9.049   1.711  1.00  0.00    -0.550 OA
ENDBRANCH   5   6
ENDBRANCH   1   5
TORSDOF 3
ENDMDL
MODEL 4
REMARK VINA RESULT:    -3.096      1.553      2.200
REMARK INTER + INTRA:          -3.825
REMARK INTER:                  -3.778
REMARK INTRA:                  -0.047
REMARK UNBOUND:                -0.186
REMARK SMILES O=C([O-])CCC(=O)[O-]
REMARK SMILES IDX 4 1 2 2 1 3 3 4 5 5 6 6 7 7 8 8
REMARK H PARENT
REMARK Flexibility Score: inf
ROOT
ATOM      1  C   UNL     1      26.713  -7.469   0.063  1.00  0.00     0.059 C 
ENDROOT
BRANCH   1   2
ATOM      2  C   UNL     1      26.027  -8.409   1.004  1.00  0.00     0.042 C 
ATOM      3  O   UNL     1      26.703  -9.104   1.809  1.00  0.00    -0.550 OA
ATOM      4  O   UNL     1      24.647  -8.556   0.959  1.00  0.00    -0.550 OA
ENDBRANCH   1   2
BRANCH   1   5
ATOM      5  C   UNL     1      26.532  -7.933  -1.383  1.00  0.00     0.059 C 
BRANCH   5   6
ATOM      6  C   UNL     1      27.807  -7.769  -2.149  1.00  0.00     0.042 C 
ATOM      7  O   UNL     1      27.809  -7.166  -3.254  1.00  0.00    -0.550 OA
ATOM      8  O   UNL     1      28.984  -8.327  -1.667  1.00  0.00    -0.550 OA
ENDBRANCH   5   6
ENDBRANCH   1   5
TORSDOF 3
ENDMDL
MODEL 5
REMARK VINA RESULT:    -3.080     18.587     19.833
REMARK INTER + INTRA:          -3.805
REMARK INTER:                  -3.654
REMARK INTRA:                  -0.152
REMARK UNBOUND:                -0.186
REMARK SMILES O=C([O-])CCC(=O)[O-]
REMARK SMILES IDX 4 1 2 2 1 3 3 4 5 5 6 6 7 7 8 8
REMARK H PARENT
REMARK Flexibility Score: inf
ROOT
ATOM      1  C   UNL     1      16.167   7.201   5.633  1.00  0.00     0.059 C 
ENDROOT
BRANCH   1   2
ATOM      2  C   UNL     1      16.594   8.573   5.215  1.00  0.00     0.042 C 
ATOM      3  O   UNL     1      17.175   8.746   4.111  1.00  0.00    -0.550 OA
ATOM      4  O   UNL     1      16.395   9.653   6.065  1.00  0.00    -0.550 OA
ENDBRANCH   1   2
BRANCH   1   5
ATOM      5  C   UNL     1      17.387   6.326   5.926  1.00  0.00     0.059 C 
BRANCH   5   6
ATOM      6  C   UNL     1      17.930   6.624   7.287  1.00  0.00     0.042 C 
ATOM      7  O   UNL     1      19.166   6.525   7.511  1.00  0.00    -0.550 OA
ATOM      8  O   UNL     1      17.068   6.963   8.322  1.00  0.00    -0.550 OA
ENDBRANCH   5   6
ENDBRANCH   1   5
TORSDOF 3
ENDMDL
MODEL 6
REMARK VINA RESULT:    -3.078     18.578     19.843
REMARK INTER + INTRA:          -3.803
REMARK INTER:                  -3.652
REMARK INTRA:                  -0.152
REMARK UNBOUND:                -0.186
REMARK SMILES O=C([O-])CCC(=O)[O-]
REMARK SMILES IDX 4 1 2 2 1 3 3 4 5 5 6 6 7 7 8 8
REMARK H PARENT
REMARK Flexibility Score: inf
ROOT
ATOM      1  C   UNL     1      17.371   6.289   5.951  1.00  0.00     0.059 C 
ENDROOT
BRANCH   1   2
ATOM      2  C   UNL     1      17.919   6.606   7.307  1.00  0.00     0.042 C 
ATOM      3  O   UNL     1      19.153   6.497   7.533  1.00  0.00    -0.550 OA
ATOM      4  O   UNL     1      17.061   6.973   8.336  1.00  0.00    -0.550 OA
ENDBRANCH   1   2
BRANCH   1   5
ATOM      5  C   UNL     1      16.170   7.182   5.636  1.00  0.00     0.059 C 
BRANCH   5   6
ATOM      6  C   UNL     1      16.624   8.555   5.256  1.00  0.00     0.042 C 
ATOM      7  O   UNL     1      17.293   8.732   4.203  1.00  0.00    -0.550 OA
ATOM      8  O   UNL     1      16.353   9.633   6.089  1.00  0.00    -0.550 OA
ENDBRANCH   5   6
ENDBRANCH   1   5
TORSDOF 3
ENDMDL
MODEL 7
REMARK VINA RESULT:    -2.894     18.358     20.083
REMARK INTER + INTRA:          -3.588
REMARK INTER:                  -3.402
REMARK INTRA:                  -0.186
REMARK UNBOUND:                -0.186
REMARK SMILES O=C([O-])CCC(=O)[O-]
REMARK SMILES IDX 4 1 2 2 1 3 3 4 5 5 6 6 7 7 8 8
REMARK H PARENT
REMARK Flexibility Score: inf
ROOT
ATOM      1  C   UNL     1      16.077   7.293   5.820  1.00  0.00     0.059 C 
ENDROOT
BRANCH   1   2
ATOM      2  C   UNL     1      17.377   6.551   5.846  1.00  0.00     0.042 C 
ATOM      3  O   UNL     1      17.940   6.222   4.769  1.00  0.00    -0.550 OA
ATOM      4  O   UNL     1      17.941   6.179   7.060  1.00  0.00    -0.550 OA
ENDBRANCH   1   2
BRANCH   1   5
ATOM      5  C   UNL     1      16.250   8.653   5.142  1.00  0.00     0.059 C 
BRANCH   5   6
ATOM      6  C   UNL     1      17.209   9.504   5.911  1.00  0.00     0.042 C 
ATOM      7  O   UNL     1      16.915   9.900   7.071  1.00  0.00    -0.550 OA
ATOM      8  O   UNL     1      18.406   9.903   5.331  1.00  0.00    -0.550 OA
ENDBRANCH   5   6
ENDBRANCH   1   5
TORSDOF 3
ENDMDL
MODEL 8
REMARK VINA RESULT:    -2.845     19.052     19.852
REMARK INTER + INTRA:          -3.530
REMARK INTER:                  -3.406
REMARK INTRA:                  -0.124
REMARK UNBOUND:                -0.186
REMARK SMILES O=C([O-])CCC(=O)[O-]
REMARK SMILES IDX 4 1 2 2 1 3 3 4 5 5 6 6 7 7 8 8
REMARK H PARENT
REMARK Flexibility Score: inf
ROOT
ATOM      1  C   UNL     1      16.302   8.522   5.535  1.00  0.00     0.059 C 
ENDROOT
BRANCH   1   2
ATOM      2  C   UNL     1      16.989   8.568   4.206  1.00  0.00     0.042 C 
ATOM      3  O   UNL     1      16.332   8.382   3.147  1.00  0.00    -0.550 OA
ATOM      4  O   UNL     1      18.361   8.767   4.138  1.00  0.00    -0.550 OA
ENDBRANCH   1   2
BRANCH   1   5
ATOM      5  C   UNL     1      16.267   7.089   6.070  1.00  0.00     0.059 C 
BRANCH   5   6
ATOM      6  C   UNL     1      17.321   6.894   7.113  1.00  0.00     0.042 C 
ATOM      7  O   UNL     1      17.030   6.995   8.334  1.00  0.00    -0.550 OA
ATOM      8  O   UNL     1      18.635   6.649   6.736  1.00  0.00    -0.550 OA
ENDBRANCH   5   6
ENDBRANCH   1   5
TORSDOF 3
ENDMDL
MODEL 9
REMARK VINA RESULT:    -2.701     13.524     14.611
REMARK INTER + INTRA:          -3.361
REMARK INTER:                  -3.326
REMARK INTRA:                  -0.035
REMARK UNBOUND:                -0.186
REMARK SMILES O=C([O-])CCC(=O)[O-]
REMARK SMILES IDX 4 1 2 2 1 3 3 4 5 5 6 6 7 7 8 8
REMARK H PARENT
REMARK Flexibility Score: inf
ROOT
ATOM      1  C   UNL     1      29.183   3.249  -9.250  1.00  0.00     0.059 C 
ENDROOT
BRANCH   1   2
ATOM      2  C   UNL     1      30.334   3.518 -10.169  1.00  0.00     0.042 C 
ATOM      3  O   UNL     1      30.205   4.327 -11.125  1.00  0.00    -0.550 OA
ATOM      4  O   UNL     1      31.533   2.837 -10.000  1.00  0.00    -0.550 OA
ENDBRANCH   1   2
BRANCH   1   5
ATOM      5  C   UNL     1      27.857   3.367 -10.004  1.00  0.00     0.059 C 
BRANCH   5   6
ATOM      6  C   UNL     1      26.708   3.348  -9.048  1.00  0.00     0.042 C 
ATOM      7  O   UNL     1      25.841   2.436  -9.116  1.00  0.00    -0.550 OA
ATOM      8  O   UNL     1      26.564   4.365  -8.113  1.00  0.00    -0.550 OA
ENDBRANCH   5   6
ENDBRANCH   1   5
TORSDOF 3
ENDMDL
