MODEL 1
REMARK VINA RESULT:    -5.793      0.000      0.000
REMARK INTER + INTRA:          -6.468
REMARK INTER:                  -6.301
REMARK INTRA:                  -0.167
REMARK UNBOUND:                -0.167
REMARK SMILES CC(=O)[C@H]1CC[C@H]2[C@@H]3CC=C4C[C@@H](O)CC[C@@]4(C)[C@H]3CC[C@@]12C
REMARK SMILES IDX 4 1 5 2 6 3 7 4 22 5 21 6 20 7 19 8 8 9 9 10 10 11 11 12
REMARK SMILES IDX 17 13 16 14 15 15 13 16 12 17 18 18 23 19 2 20 1 21 3 22
REMARK SMILES IDX 14 23
REMARK H PARENT 14 24
REMARK Flexibility Score: inf
ROOT
ATOM      1  C   UNL     1      39.373 -39.030  -4.656  1.00  0.00     0.062 C 
ATOM      2  C   UNL     1      40.691 -38.284  -4.499  1.00  0.00     0.012 C 
ATOM      3  C   UNL     1      40.304 -36.825  -4.622  1.00  0.00     0.005 C 
ATOM      4  C   UNL     1      39.136 -36.771  -5.629  1.00  0.00    -0.001 C 
ATOM      5  C   UNL     1      38.588 -38.234  -5.742  1.00  0.00    -0.020 C 
ATOM      6  C   UNL     1      38.841 -38.811  -7.162  1.00  0.00     0.008 C 
ATOM      7  C   UNL     1      38.238 -37.936  -8.264  1.00  0.00     0.005 C 
ATOM      8  C   UNL     1      38.635 -36.432  -8.155  1.00  0.00     0.003 C 
ATOM      9  C   UNL     1      39.595 -36.125  -6.979  1.00  0.00     0.000 C 
ATOM     10  C   UNL     1      39.682 -34.594  -6.818  1.00  0.00     0.031 C 
ATOM     11  C   UNL     1      40.048 -33.912  -8.101  1.00  0.00    -0.027 C 
ATOM     12  C   UNL     1      39.791 -34.432  -9.319  1.00  0.00    -0.065 C 
ATOM     13  C   UNL     1      39.183 -35.831  -9.512  1.00  0.00    -0.008 C 
ATOM     14  C   UNL     1      40.287 -36.749 -10.160  1.00  0.00     0.014 C 
ATOM     15  C   UNL     1      41.477 -35.999 -10.800  1.00  0.00     0.033 C 
ATOM     16  C   UNL     1      41.034 -34.718 -11.521  1.00  0.00     0.118 C 
ATOM     17  C   UNL     1      40.357 -33.726 -10.542  1.00  0.00     0.063 C 
ATOM     18  C   UNL     1      37.974 -35.700 -10.476  1.00  0.00     0.016 C 
ATOM     19  C   UNL     1      37.073 -38.275  -5.417  1.00  0.00     0.012 C 
ENDROOT
BRANCH   1  20
ATOM     20  C   UNL     1      39.505 -40.526  -4.907  1.00  0.00     0.133 C 
ATOM     21  C   UNL     1      40.746 -41.146  -5.484  1.00  0.00     0.088 C 
ATOM     22  O   UNL     1      38.568 -41.253  -4.615  1.00  0.00    -0.300 OA
ENDBRANCH   1  20
BRANCH  16  23
ATOM     23  O   UNL     1      42.154 -34.119 -12.117  1.00  0.00    -0.393 OA
ATOM     24  H   UNL     1      42.149 -33.165 -11.841  1.00  0.00     0.210 HD
ENDBRANCH  16  23
TORSDOF 2
ENDMDL
MODEL 2
REMARK VINA RESULT:    -5.533      3.092      4.873
REMARK INTER + INTRA:          -6.185
REMARK INTER:                  -6.005
REMARK INTRA:                  -0.180
REMARK UNBOUND:                -0.167
REMARK SMILES CC(=O)[C@H]1CC[C@H]2[C@@H]3CC=C4C[C@@H](O)CC[C@@]4(C)[C@H]3CC[C@@]12C
REMARK SMILES IDX 4 1 5 2 6 3 7 4 22 5 21 6 20 7 19 8 8 9 9 10 10 11 11 12
REMARK SMILES IDX 17 13 16 14 15 15 13 16 12 17 18 18 23 19 2 20 1 21 3 22
REMARK SMILES IDX 14 23
REMARK H PARENT 14 24
REMARK Flexibility Score: inf
ROOT
ATOM      1  C   UNL     1      40.600 -40.116  -2.782  1.00  0.00     0.062 C 
ATOM      2  C   UNL     1      39.409 -41.012  -3.089  1.00  0.00     0.012 C 
ATOM      3  C   UNL     1      39.481 -41.219  -4.587  1.00  0.00     0.005 C 
ATOM      4  C   UNL     1      40.036 -39.907  -5.179  1.00  0.00    -0.001 C 
ATOM      5  C   UNL     1      40.676 -39.125  -3.982  1.00  0.00    -0.020 C 
ATOM      6  C   UNL     1      39.887 -37.819  -3.689  1.00  0.00     0.008 C 
ATOM      7  C   UNL     1      39.784 -36.911  -4.918  1.00  0.00     0.005 C 
ATOM      8  C   UNL     1      39.269 -37.642  -6.195  1.00  0.00     0.003 C 
ATOM      9  C   UNL     1      38.922 -39.134  -5.960  1.00  0.00     0.000 C 
ATOM     10  C   UNL     1      38.698 -39.795  -7.334  1.00  0.00     0.031 C 
ATOM     11  C   UNL     1      37.690 -39.055  -8.160  1.00  0.00    -0.027 C 
ATOM     12  C   UNL     1      37.433 -37.738  -8.014  1.00  0.00    -0.065 C 
ATOM     13  C   UNL     1      38.079 -36.884  -6.911  1.00  0.00    -0.008 C 
ATOM     14  C   UNL     1      36.947 -36.472  -5.897  1.00  0.00     0.014 C 
ATOM     15  C   UNL     1      35.501 -36.633  -6.419  1.00  0.00     0.033 C 
ATOM     16  C   UNL     1      35.375 -36.246  -7.900  1.00  0.00     0.118 C 
ATOM     17  C   UNL     1      36.274 -37.136  -8.794  1.00  0.00     0.063 C 
ATOM     18  C   UNL     1      38.679 -35.616  -7.576  1.00  0.00     0.016 C 
ATOM     19  C   UNL     1      42.159 -38.789  -4.281  1.00  0.00     0.012 C 
ENDROOT
BRANCH   1  20
ATOM     20  C   UNL     1      40.585 -39.475  -1.401  1.00  0.00     0.133 C 
ATOM     21  C   UNL     1      39.340 -39.371  -0.567  1.00  0.00     0.088 C 
ATOM     22  O   UNL     1      41.632 -39.038  -0.947  1.00  0.00    -0.300 OA
ENDBRANCH   1  20
BRANCH  16  23
ATOM     23  O   UNL     1      34.032 -36.369  -8.290  1.00  0.00    -0.393 OA
ATOM     24  H   UNL     1      33.726 -37.262  -7.980  1.00  0.00     0.210 HD
ENDBRANCH  16  23
TORSDOF 2
ENDMDL
MODEL 3
REMARK VINA RESULT:    -5.392      2.357      6.916
REMARK INTER + INTRA:          -6.032
REMARK INTER:                  -5.852
REMARK INTRA:                  -0.180
REMARK UNBOUND:                -0.167
REMARK SMILES CC(=O)[C@H]1CC[C@H]2[C@@H]3CC=C4C[C@@H](O)CC[C@@]4(C)[C@H]3CC[C@@]12C
REMARK SMILES IDX 4 1 5 2 6 3 7 4 22 5 21 6 20 7 19 8 8 9 9 10 10 11 11 12
REMARK SMILES IDX 17 13 16 14 15 15 13 16 12 17 18 18 23 19 2 20 1 21 3 22
REMARK SMILES IDX 14 23
REMARK H PARENT 14 24
REMARK Flexibility Score: inf
ROOT
ATOM      1  C   UNL     1      37.940 -37.525  -8.358  1.00  0.00     0.062 C 
ATOM      2  C   UNL     1      38.488 -38.916  -8.643  1.00  0.00     0.012 C 
ATOM      3  C   UNL     1      37.913 -39.771  -7.533  1.00  0.00     0.005 C 
ATOM      4  C   UNL     1      37.836 -38.867  -6.286  1.00  0.00    -0.001 C 
ATOM      5  C   UNL     1      37.963 -37.394  -6.806  1.00  0.00    -0.020 C 
ATOM      6  C   UNL     1      39.284 -36.744  -6.310  1.00  0.00     0.008 C 
ATOM      7  C   UNL     1      39.416 -36.778  -4.785  1.00  0.00     0.005 C 
ATOM      8  C   UNL     1      39.182 -38.191  -4.169  1.00  0.00     0.003 C 
ATOM      9  C   UNL     1      38.903 -39.291  -5.223  1.00  0.00     0.000 C 
ATOM     10  C   UNL     1      38.422 -40.554  -4.481  1.00  0.00     0.031 C 
ATOM     11  C   UNL     1      39.371 -40.970  -3.398  1.00  0.00    -0.027 C 
ATOM     12  C   UNL     1      40.200 -40.112  -2.768  1.00  0.00    -0.065 C 
ATOM     13  C   UNL     1      40.326 -38.634  -3.169  1.00  0.00    -0.008 C 
ATOM     14  C   UNL     1      41.760 -38.422  -3.784  1.00  0.00     0.014 C 
ATOM     15  C   UNL     1      42.782 -39.540  -3.475  1.00  0.00     0.033 C 
ATOM     16  C   UNL     1      42.639 -40.075  -2.042  1.00  0.00     0.118 C 
ATOM     17  C   UNL     1      41.232 -40.679  -1.805  1.00  0.00     0.063 C 
ATOM     18  C   UNL     1      40.170 -37.773  -1.887  1.00  0.00     0.016 C 
ATOM     19  C   UNL     1      36.751 -36.546  -6.341  1.00  0.00     0.012 C 
ENDROOT
BRANCH   1  20
ATOM     20  C   UNL     1      38.618 -36.396  -9.122  1.00  0.00     0.133 C 
ATOM     21  C   UNL     1      39.956 -36.555  -9.787  1.00  0.00     0.088 C 
ATOM     22  O   UNL     1      38.046 -35.320  -9.207  1.00  0.00    -0.300 OA
ENDBRANCH   1  20
BRANCH  16  23
ATOM     23  O   UNL     1      43.626 -41.047  -1.818  1.00  0.00    -0.393 OA
ATOM     24  H   UNL     1      43.423 -41.805  -2.427  1.00  0.00     0.210 HD
ENDBRANCH  16  23
TORSDOF 2
ENDMDL
MODEL 4
REMARK VINA RESULT:    -5.299      2.644      4.001
REMARK INTER + INTRA:          -5.931
REMARK INTER:                  -5.751
REMARK INTRA:                  -0.180
REMARK UNBOUND:                -0.167
REMARK SMILES CC(=O)[C@H]1CC[C@H]2[C@@H]3CC=C4C[C@@H](O)CC[C@@]4(C)[C@H]3CC[C@@]12C
REMARK SMILES IDX 4 1 5 2 6 3 7 4 22 5 21 6 20 7 19 8 8 9 9 10 10 11 11 12
REMARK SMILES IDX 17 13 16 14 15 15 13 16 12 17 18 18 23 19 2 20 1 21 3 22
REMARK SMILES IDX 14 23
REMARK H PARENT 14 24
REMARK Flexibility Score: inf
ROOT
ATOM      1  C   UNL     1      40.581 -39.116  -2.608  1.00  0.00     0.062 C 
ATOM      2  C   UNL     1      40.214 -37.645  -2.485  1.00  0.00     0.012 C 
ATOM      3  C   UNL     1      38.707 -37.629  -2.635  1.00  0.00     0.005 C 
ATOM      4  C   UNL     1      38.359 -38.758  -3.627  1.00  0.00    -0.001 C 
ATOM      5  C   UNL     1      39.623 -39.680  -3.700  1.00  0.00    -0.020 C 
ATOM      6  C   UNL     1      40.272 -39.619  -5.111  1.00  0.00     0.008 C 
ATOM      7  C   UNL     1      39.287 -39.986  -6.223  1.00  0.00     0.005 C 
ATOM      8  C   UNL     1      37.942 -39.199  -6.153  1.00  0.00     0.003 C 
ATOM      9  C   UNL     1      37.884 -38.169  -4.997  1.00  0.00     0.000 C 
ATOM     10  C   UNL     1      36.430 -37.672  -4.872  1.00  0.00     0.031 C 
ATOM     11  C   UNL     1      35.893 -37.161  -6.174  1.00  0.00    -0.027 C 
ATOM     12  C   UNL     1      36.347 -37.572  -7.377  1.00  0.00    -0.065 C 
ATOM     13  C   UNL     1      37.535 -38.535  -7.531  1.00  0.00    -0.008 C 
ATOM     14  C   UNL     1      38.727 -37.731  -8.173  1.00  0.00     0.014 C 
ATOM     15  C   UNL     1      38.335 -36.395  -8.846  1.00  0.00     0.033 C 
ATOM     16  C   UNL     1      36.995 -36.493  -9.589  1.00  0.00     0.118 C 
ATOM     17  C   UNL     1      35.841 -36.860  -8.623  1.00  0.00     0.063 C 
ATOM     18  C   UNL     1      37.102 -39.684  -8.481  1.00  0.00     0.016 C 
ATOM     19  C   UNL     1      39.251 -41.145  -3.354  1.00  0.00     0.012 C 
ENDROOT
BRANCH   1  20
ATOM     20  C   UNL     1      42.062 -39.395  -2.827  1.00  0.00     0.133 C 
ATOM     21  C   UNL     1      43.016 -38.355  -3.343  1.00  0.00     0.088 C 
ATOM     22  O   UNL     1      42.495 -40.506  -2.561  1.00  0.00    -0.300 OA
ENDBRANCH   1  20
BRANCH  16  23
ATOM     23  O   UNL     1      36.729 -35.264 -10.213  1.00  0.00    -0.393 OA
ATOM     24  H   UNL     1      37.607 -34.828 -10.370  1.00  0.00     0.210 HD
ENDBRANCH  16  23
TORSDOF 2
ENDMDL
MODEL 5
REMARK VINA RESULT:    -5.069      4.401      9.070
REMARK INTER + INTRA:          -5.681
REMARK INTER:                  -5.536
REMARK INTRA:                  -0.144
REMARK UNBOUND:                -0.167
REMARK SMILES CC(=O)[C@H]1CC[C@H]2[C@@H]3CC=C4C[C@@H](O)CC[C@@]4(C)[C@H]3CC[C@@]12C
REMARK SMILES IDX 4 1 5 2 6 3 7 4 22 5 21 6 20 7 19 8 8 9 9 10 10 11 11 12
REMARK SMILES IDX 17 13 16 14 15 15 13 16 12 17 18 18 23 19 2 20 1 21 3 22
REMARK SMILES IDX 14 23
REMARK H PARENT 14 24
REMARK Flexibility Score: inf
ROOT
ATOM      1  C   UNL     1      40.501 -38.077  -5.292  1.00  0.00     0.062 C 
ATOM      2  C   UNL     1      41.495 -37.231  -4.511  1.00  0.00     0.012 C 
ATOM      3  C   UNL     1      42.526 -38.229  -4.027  1.00  0.00     0.005 C 
ATOM      4  C   UNL     1      41.763 -39.541  -3.752  1.00  0.00    -0.001 C 
ATOM      5  C   UNL     1      40.386 -39.407  -4.487  1.00  0.00    -0.020 C 
ATOM      6  C   UNL     1      39.216 -39.353  -3.466  1.00  0.00     0.008 C 
ATOM      7  C   UNL     1      39.199 -40.567  -2.533  1.00  0.00     0.005 C 
ATOM      8  C   UNL     1      40.572 -40.848  -1.849  1.00  0.00     0.003 C 
ATOM      9  C   UNL     1      41.672 -39.821  -2.215  1.00  0.00     0.000 C 
ATOM     10  C   UNL     1      43.022 -40.364  -1.706  1.00  0.00     0.031 C 
ATOM     11  C   UNL     1      42.976 -40.719  -0.251  1.00  0.00    -0.027 C 
ATOM     12  C   UNL     1      41.842 -41.067   0.393  1.00  0.00    -0.065 C 
ATOM     13  C   UNL     1      40.462 -41.034  -0.281  1.00  0.00    -0.008 C 
ATOM     14  C   UNL     1      39.624 -39.882   0.392  1.00  0.00     0.014 C 
ATOM     15  C   UNL     1      40.167 -39.377   1.748  1.00  0.00     0.033 C 
ATOM     16  C   UNL     1      40.720 -40.520   2.611  1.00  0.00     0.118 C 
ATOM     17  C   UNL     1      41.893 -41.244   1.904  1.00  0.00     0.063 C 
ATOM     18  C   UNL     1      39.773 -42.402  -0.031  1.00  0.00     0.016 C 
ATOM     19  C   UNL     1      40.175 -40.588  -5.469  1.00  0.00     0.012 C 
ENDROOT
BRANCH   1  20
ATOM     20  C   UNL     1      39.181 -37.389  -5.613  1.00  0.00     0.133 C 
ATOM     21  C   UNL     1      38.271 -37.852  -6.715  1.00  0.00     0.088 C 
ATOM     22  O   UNL     1      38.843 -36.427  -4.939  1.00  0.00    -0.300 OA
ENDBRANCH   1  20
BRANCH  16  23
ATOM     23  O   UNL     1      41.148 -39.996   3.841  1.00  0.00    -0.393 OA
ATOM     24  H   UNL     1      40.964 -40.691   4.527  1.00  0.00     0.210 HD
ENDBRANCH  16  23
TORSDOF 2
ENDMDL
MODEL 6
REMARK VINA RESULT:    -5.009      4.689      7.747
REMARK INTER + INTRA:          -5.615
REMARK INTER:                  -5.438
REMARK INTRA:                  -0.177
REMARK UNBOUND:                -0.167
REMARK SMILES CC(=O)[C@H]1CC[C@H]2[C@@H]3CC=C4C[C@@H](O)CC[C@@]4(C)[C@H]3CC[C@@]12C
REMARK SMILES IDX 4 1 5 2 6 3 7 4 22 5 21 6 20 7 19 8 8 9 9 10 10 11 11 12
REMARK SMILES IDX 17 13 16 14 15 15 13 16 12 17 18 18 23 19 2 20 1 21 3 22
REMARK SMILES IDX 14 23
REMARK H PARENT 14 24
REMARK Flexibility Score: inf
ROOT
ATOM      1  C   UNL     1      42.793 -39.773   1.549  1.00  0.00     0.062 C 
ATOM      2  C   UNL     1      42.610 -41.200   1.053  1.00  0.00     0.012 C 
ATOM      3  C   UNL     1      43.230 -41.190  -0.328  1.00  0.00     0.005 C 
ATOM      4  C   UNL     1      42.956 -39.791  -0.916  1.00  0.00    -0.001 C 
ATOM      5  C   UNL     1      42.561 -38.879   0.294  1.00  0.00    -0.020 C 
ATOM      6  C   UNL     1      41.079 -38.426   0.186  1.00  0.00     0.008 C 
ATOM      7  C   UNL     1      40.782 -37.708  -1.133  1.00  0.00     0.005 C 
ATOM      8  C   UNL     1      41.256 -38.495  -2.393  1.00  0.00     0.003 C 
ATOM      9  C   UNL     1      41.896 -39.867  -2.065  1.00  0.00     0.000 C 
ATOM     10  C   UNL     1      42.560 -40.405  -3.349  1.00  0.00     0.031 C 
ATOM     11  C   UNL     1      41.611 -40.433  -4.507  1.00  0.00    -0.027 C 
ATOM     12  C   UNL     1      40.542 -39.616  -4.612  1.00  0.00    -0.065 C 
ATOM     13  C   UNL     1      40.133 -38.638  -3.499  1.00  0.00    -0.008 C 
ATOM     14  C   UNL     1      38.769 -39.141  -2.893  1.00  0.00     0.014 C 
ATOM     15  C   UNL     1      37.997 -40.160  -3.762  1.00  0.00     0.033 C 
ATOM     16  C   UNL     1      38.090 -39.832  -5.259  1.00  0.00     0.118 C 
ATOM     17  C   UNL     1      39.559 -39.852  -5.750  1.00  0.00     0.063 C 
ATOM     18  C   UNL     1      39.941 -37.237  -4.138  1.00  0.00     0.016 C 
ATOM     19  C   UNL     1      43.488 -37.638   0.366  1.00  0.00     0.012 C 
ENDROOT
BRANCH   1  20
ATOM     20  C   UNL     1      41.971 -39.407   2.777  1.00  0.00     0.133 C 
ATOM     21  C   UNL     1      40.811 -40.235   3.254  1.00  0.00     0.088 C 
ATOM     22  O   UNL     1      42.273 -38.404   3.407  1.00  0.00    -0.300 OA
ENDBRANCH   1  20
BRANCH  16  23
ATOM     23  O   UNL     1      37.329 -40.766  -5.978  1.00  0.00    -0.393 OA
ATOM     24  H   UNL     1      37.181 -40.379  -6.881  1.00  0.00     0.210 HD
ENDBRANCH  16  23
TORSDOF 2
ENDMDL
MODEL 7
REMARK VINA RESULT:    -4.995      3.216      7.549
REMARK INTER + INTRA:          -5.600
REMARK INTER:                  -5.457
REMARK INTRA:                  -0.144
REMARK UNBOUND:                -0.167
REMARK SMILES CC(=O)[C@H]1CC[C@H]2[C@@H]3CC=C4C[C@@H](O)CC[C@@]4(C)[C@H]3CC[C@@]12C
REMARK SMILES IDX 4 1 5 2 6 3 7 4 22 5 21 6 20 7 19 8 8 9 9 10 10 11 11 12
REMARK SMILES IDX 17 13 16 14 15 15 13 16 12 17 18 18 23 19 2 20 1 21 3 22
REMARK SMILES IDX 14 23
REMARK H PARENT 14 24
REMARK Flexibility Score: inf
ROOT
ATOM      1  C   UNL     1      37.417 -38.882  -6.337  1.00  0.00     0.062 C 
ATOM      2  C   UNL     1      37.406 -40.364  -5.993  1.00  0.00     0.012 C 
ATOM      3  C   UNL     1      37.117 -40.394  -4.506  1.00  0.00     0.005 C 
ATOM      4  C   UNL     1      37.796 -39.144  -3.909  1.00  0.00    -0.001 C 
ATOM      5  C   UNL     1      38.096 -38.192  -5.116  1.00  0.00    -0.020 C 
ATOM      6  C   UNL     1      39.627 -38.037  -5.331  1.00  0.00     0.008 C 
ATOM      7  C   UNL     1      40.346 -37.538  -4.075  1.00  0.00     0.005 C 
ATOM      8  C   UNL     1      40.007 -38.359  -2.793  1.00  0.00     0.003 C 
ATOM      9  C   UNL     1      39.041 -39.543  -3.050  1.00  0.00     0.000 C 
ATOM     10  C   UNL     1      38.577 -40.087  -1.684  1.00  0.00     0.031 C 
ATOM     11  C   UNL     1      39.729 -40.420  -0.787  1.00  0.00    -0.027 C 
ATOM     12  C   UNL     1      40.940 -39.832  -0.883  1.00  0.00    -0.065 C 
ATOM     13  C   UNL     1      41.289 -38.830  -1.995  1.00  0.00    -0.008 C 
ATOM     14  C   UNL     1      42.354 -39.507  -2.937  1.00  0.00     0.014 C 
ATOM     15  C   UNL     1      43.070 -40.742  -2.344  1.00  0.00     0.033 C 
ATOM     16  C   UNL     1      43.375 -40.571  -0.848  1.00  0.00     0.118 C 
ATOM     17  C   UNL     1      42.077 -40.371  -0.027  1.00  0.00     0.063 C 
ATOM     18  C   UNL     1      41.901 -37.568  -1.328  1.00  0.00     0.016 C 
ATOM     19  C   UNL     1      37.453 -36.800  -4.886  1.00  0.00     0.012 C 
ENDROOT
BRANCH   1  20
ATOM     20  C   UNL     1      38.010 -38.541  -7.697  1.00  0.00     0.133 C 
ATOM     21  C   UNL     1      37.782 -37.219  -8.374  1.00  0.00     0.088 C 
ATOM     22  O   UNL     1      38.709 -39.373  -8.257  1.00  0.00    -0.300 OA
ENDBRANCH   1  20
BRANCH  16  23
ATOM     23  O   UNL     1      44.065 -41.704  -0.392  1.00  0.00    -0.393 OA
ATOM     24  H   UNL     1      44.897 -41.768  -0.931  1.00  0.00     0.210 HD
ENDBRANCH  16  23
TORSDOF 2
ENDMDL
MODEL 8
REMARK VINA RESULT:    -4.977      3.927      6.494
REMARK INTER + INTRA:          -5.581
REMARK INTER:                  -5.399
REMARK INTRA:                  -0.182
REMARK UNBOUND:                -0.167
REMARK SMILES CC(=O)[C@H]1CC[C@H]2[C@@H]3CC=C4C[C@@H](O)CC[C@@]4(C)[C@H]3CC[C@@]12C
REMARK SMILES IDX 4 1 5 2 6 3 7 4 22 5 21 6 20 7 19 8 8 9 9 10 10 11 11 12
REMARK SMILES IDX 17 13 16 14 15 15 13 16 12 17 18 18 23 19 2 20 1 21 3 22
REMARK SMILES IDX 14 23
REMARK H PARENT 14 24
REMARK Flexibility Score: inf
ROOT
ATOM      1  C   UNL     1      36.871 -35.089  -4.363  1.00  0.00     0.062 C 
ATOM      2  C   UNL     1      37.638 -34.949  -5.670  1.00  0.00     0.012 C 
ATOM      3  C   UNL     1      37.407 -36.269  -6.375  1.00  0.00     0.005 C 
ATOM      4  C   UNL     1      37.329 -37.342  -5.269  1.00  0.00    -0.001 C 
ATOM      5  C   UNL     1      37.087 -36.570  -3.928  1.00  0.00    -0.020 C 
ATOM      6  C   UNL     1      38.310 -36.711  -2.980  1.00  0.00     0.008 C 
ATOM      7  C   UNL     1      38.660 -38.173  -2.691  1.00  0.00     0.005 C 
ATOM      8  C   UNL     1      38.800 -39.048  -3.974  1.00  0.00     0.003 C 
ATOM      9  C   UNL     1      38.598 -38.257  -5.291  1.00  0.00     0.000 C 
ATOM     10  C   UNL     1      38.486 -39.273  -6.446  1.00  0.00     0.031 C 
ATOM     11  C   UNL     1      39.642 -40.226  -6.475  1.00  0.00    -0.027 C 
ATOM     12  C   UNL     1      40.365 -40.549  -5.383  1.00  0.00    -0.065 C 
ATOM     13  C   UNL     1      40.138 -39.891  -4.012  1.00  0.00    -0.008 C 
ATOM     14  C   UNL     1      41.401 -39.008  -3.687  1.00  0.00     0.014 C 
ATOM     15  C   UNL     1      42.657 -39.315  -4.534  1.00  0.00     0.033 C 
ATOM     16  C   UNL     1      42.826 -40.819  -4.793  1.00  0.00     0.118 C 
ATOM     17  C   UNL     1      41.615 -41.397  -5.567  1.00  0.00     0.063 C 
ATOM     18  C   UNL     1      39.998 -41.019  -2.955  1.00  0.00     0.016 C 
ATOM     19  C   UNL     1      35.810 -37.092  -3.221  1.00  0.00     0.012 C 
ENDROOT
BRANCH   1  20
ATOM     20  C   UNL     1      37.199 -34.041  -3.308  1.00  0.00     0.133 C 
ATOM     21  C   UNL     1      38.443 -33.201  -3.358  1.00  0.00     0.088 C 
ATOM     22  O   UNL     1      36.411 -33.868  -2.390  1.00  0.00    -0.300 OA
ENDBRANCH   1  20
BRANCH  16  23
ATOM     23  O   UNL     1      44.008 -41.026  -5.522  1.00  0.00    -0.393 OA
ATOM     24  H   UNL     1      43.756 -41.539  -6.334  1.00  0.00     0.210 HD
ENDBRANCH  16  23
TORSDOF 2
ENDMDL
MODEL 9
REMARK VINA RESULT:    -4.872      3.276      6.734
REMARK INTER + INTRA:          -5.467
REMARK INTER:                  -5.322
REMARK INTRA:                  -0.145
REMARK UNBOUND:                -0.167
REMARK SMILES CC(=O)[C@H]1CC[C@H]2[C@@H]3CC=C4C[C@@H](O)CC[C@@]4(C)[C@H]3CC[C@@]12C
REMARK SMILES IDX 4 1 5 2 6 3 7 4 22 5 21 6 20 7 19 8 8 9 9 10 10 11 11 12
REMARK SMILES IDX 17 13 16 14 15 15 13 16 12 17 18 18 23 19 2 20 1 21 3 22
REMARK SMILES IDX 14 23
REMARK H PARENT 14 24
REMARK Flexibility Score: inf
ROOT
ATOM      1  C   UNL     1      36.857 -35.682  -6.717  1.00  0.00     0.062 C 
ATOM      2  C   UNL     1      37.347 -34.941  -5.481  1.00  0.00     0.012 C 
ATOM      3  C   UNL     1      38.856 -35.052  -5.561  1.00  0.00     0.005 C 
ATOM      4  C   UNL     1      39.155 -36.426  -6.195  1.00  0.00    -0.001 C 
ATOM      5  C   UNL     1      37.820 -36.899  -6.863  1.00  0.00    -0.020 C 
ATOM      6  C   UNL     1      37.257 -38.157  -6.145  1.00  0.00     0.008 C 
ATOM      7  C   UNL     1      38.265 -39.309  -6.108  1.00  0.00     0.005 C 
ATOM      8  C   UNL     1      39.669 -38.894  -5.568  1.00  0.00     0.003 C 
ATOM      9  C   UNL     1      39.755 -37.409  -5.136  1.00  0.00     0.000 C 
ATOM     10  C   UNL     1      41.239 -37.068  -4.892  1.00  0.00     0.031 C 
ATOM     11  C   UNL     1      41.889 -38.022  -3.938  1.00  0.00    -0.027 C 
ATOM     12  C   UNL     1      41.467 -39.291  -3.752  1.00  0.00    -0.065 C 
ATOM     13  C   UNL     1      40.208 -39.854  -4.432  1.00  0.00    -0.008 C 
ATOM     14  C   UNL     1      39.130 -40.107  -3.312  1.00  0.00     0.014 C 
ATOM     15  C   UNL     1      39.675 -40.142  -1.866  1.00  0.00     0.033 C 
ATOM     16  C   UNL     1      41.040 -40.841  -1.780  1.00  0.00     0.118 C 
ATOM     17  C   UNL     1      42.102 -40.110  -2.638  1.00  0.00     0.063 C 
ATOM     18  C   UNL     1      40.589 -41.197  -5.110  1.00  0.00     0.016 C 
ATOM     19  C   UNL     1      38.041 -37.205  -8.367  1.00  0.00     0.012 C 
ENDROOT
BRANCH   1  20
ATOM     20  C   UNL     1      35.372 -36.016  -6.721  1.00  0.00     0.133 C 
ATOM     21  C   UNL     1      34.626 -36.381  -7.973  1.00  0.00     0.088 C 
ATOM     22  O   UNL     1      34.765 -35.998  -5.661  1.00  0.00    -0.300 OA
ENDBRANCH   1  20
BRANCH  16  23
ATOM     23  O   UNL     1      41.448 -40.880  -0.438  1.00  0.00    -0.393 OA
ATOM     24  H   UNL     1      41.228 -41.787  -0.099  1.00  0.00     0.210 HD
ENDBRANCH  16  23
TORSDOF 2
ENDMDL
