MODEL 1
REMARK VINA RESULT:    -4.657      0.000      0.000
REMARK INTER + INTRA:         -12.434
REMARK INTER:                 -10.102
REMARK INTRA:                  -2.332
REMARK UNBOUND:                -2.332
REMARK SMILES CCCCCCCCCCCCCCCCCCCCCC(=O)[O-]
REMARK SMILES IDX 12 1 11 2 10 3 9 4 8 5 7 6 6 7 5 8 4 9 3 10 2 11 1 12 13 13
REMARK SMILES IDX 14 14 15 15 16 16 17 17 18 18 19 19 20 20 21 21 22 22 23 23
REMARK SMILES IDX 24 24
REMARK H PARENT
REMARK Flexibility Score: inf
ROOT
ATOM      1  C   UNL     1       4.908  78.592  62.905  1.00  0.00     0.000 C 
ENDROOT
BRANCH   1   2
ATOM      2  C   UNL     1       6.357  79.104  62.876  1.00  0.00     0.000 C 
BRANCH   2   3
ATOM      3  C   UNL     1       7.276  78.343  63.842  1.00  0.00     0.000 C 
BRANCH   3   4
ATOM      4  C   UNL     1       6.481  77.772  65.024  1.00  0.00    -0.000 C 
BRANCH   4   5
ATOM      5  C   UNL     1       7.220  78.006  66.349  1.00  0.00    -0.000 C 
BRANCH   5   6
ATOM      6  C   UNL     1       7.037  76.844  67.339  1.00  0.00    -0.000 C 
BRANCH   6   7
ATOM      7  C   UNL     1       5.704  76.101  67.141  1.00  0.00    -0.000 C 
BRANCH   7   8
ATOM      8  C   UNL     1       4.744  76.287  68.329  1.00  0.00    -0.000 C 
BRANCH   8   9
ATOM      9  C   UNL     1       3.685  77.372  68.066  1.00  0.00    -0.000 C 
BRANCH   9  10
ATOM     10  C   UNL     1       3.996  78.688  68.795  1.00  0.00    -0.000 C 
BRANCH  10  11
ATOM     11  C   UNL     1       4.306  79.839  67.826  1.00  0.00    -0.003 C 
ATOM     12  C   UNL     1       3.675  79.591  66.458  1.00  0.00     0.004 C 
ENDBRANCH  10  11
ENDBRANCH   9  10
ENDBRANCH   8   9
ENDBRANCH   7   8
ENDBRANCH   6   7
ENDBRANCH   5   6
ENDBRANCH   4   5
ENDBRANCH   3   4
ENDBRANCH   2   3
ENDBRANCH   1   2
BRANCH   1  13
ATOM     13  C   UNL     1       3.891  79.672  62.494  1.00  0.00     0.000 C 
BRANCH  13  14
ATOM     14  C   UNL     1       4.311  81.080  62.946  1.00  0.00     0.000 C 
BRANCH  14  15
ATOM     15  C   UNL     1       3.157  81.857  63.605  1.00  0.00     0.000 C 
BRANCH  15  16
ATOM     16  C   UNL     1       3.647  82.967  64.551  1.00  0.00     0.000 C 
BRANCH  16  17
ATOM     17  C   UNL     1       3.094  84.377  64.256  1.00  0.00     0.000 C 
BRANCH  17  18
ATOM     18  C   UNL     1       4.128  85.386  63.720  1.00  0.00     0.000 C 
BRANCH  18  19
ATOM     19  C   UNL     1       4.289  85.396  62.189  1.00  0.00     0.000 C 
BRANCH  19  20
ATOM     20  C   UNL     1       4.514  86.805  61.597  1.00  0.00     0.006 C 
BRANCH  20  21
ATOM     21  C   UNL     1       3.524  87.839  62.148  1.00  0.00     0.053 C 
BRANCH  21  22
ATOM     22  C   UNL     1       3.215  88.873  61.112  1.00  0.00     0.041 C 
ATOM     23  O   UNL     1       2.444  88.599  60.154  1.00  0.00    -0.550 OA
ATOM     24  O   UNL     1       3.737  90.154  61.232  1.00  0.00    -0.550 OA
ENDBRANCH  21  22
ENDBRANCH  20  21
ENDBRANCH  19  20
ENDBRANCH  18  19
ENDBRANCH  17  18
ENDBRANCH  16  17
ENDBRANCH  15  16
ENDBRANCH  14  15
ENDBRANCH  13  14
ENDBRANCH   1  13
TORSDOF 20
ENDMDL
MODEL 2
REMARK VINA RESULT:    -4.575      4.653     10.184
REMARK INTER + INTRA:         -12.257
REMARK INTER:                 -10.089
REMARK INTRA:                  -2.168
REMARK UNBOUND:                -2.332
REMARK SMILES CCCCCCCCCCCCCCCCCCCCCC(=O)[O-]
REMARK SMILES IDX 12 1 11 2 10 3 9 4 8 5 7 6 6 7 5 8 4 9 3 10 2 11 1 12 13 13
REMARK SMILES IDX 14 14 15 15 16 16 17 17 18 18 19 19 20 20 21 21 22 22 23 23
REMARK SMILES IDX 24 24
REMARK H PARENT
REMARK Flexibility Score: inf
ROOT
ATOM      1  C   UNL     1       4.142  85.081  63.960  1.00  0.00     0.000 C 
ENDROOT
BRANCH   1   2
ATOM      2  C   UNL     1       4.927  84.737  62.684  1.00  0.00     0.000 C 
BRANCH   2   3
ATOM      3  C   UNL     1       4.830  85.833  61.612  1.00  0.00     0.000 C 
BRANCH   3   4
ATOM      4  C   UNL     1       4.101  87.069  62.155  1.00  0.00    -0.000 C 
BRANCH   4   5
ATOM      5  C   UNL     1       4.101  88.205  61.122  1.00  0.00    -0.000 C 
BRANCH   5   6
ATOM      6  C   UNL     1       3.095  89.315  61.467  1.00  0.00    -0.000 C 
BRANCH   6   7
ATOM      7  C   UNL     1       1.640  88.907  61.177  1.00  0.00    -0.000 C 
BRANCH   7   8
ATOM      8  C   UNL     1       0.745  88.994  62.424  1.00  0.00    -0.000 C 
BRANCH   8   9
ATOM      9  C   UNL     1       0.083  87.648  62.769  1.00  0.00    -0.000 C 
BRANCH   9  10
ATOM     10  C   UNL     1       0.300  86.588  61.678  1.00  0.00    -0.000 C 
BRANCH  10  11
ATOM     11  C   UNL     1       1.003  85.331  62.211  1.00  0.00    -0.003 C 
ATOM     12  C   UNL     1       0.191  84.678  63.327  1.00  0.00     0.004 C 
ENDBRANCH  10  11
ENDBRANCH   9  10
ENDBRANCH   8   9
ENDBRANCH   7   8
ENDBRANCH   6   7
ENDBRANCH   5   6
ENDBRANCH   4   5
ENDBRANCH   3   4
ENDBRANCH   2   3
ENDBRANCH   1   2
BRANCH   1  13
ATOM     13  C   UNL     1       3.562  83.834  64.651  1.00  0.00     0.000 C 
BRANCH  13  14
ATOM     14  C   UNL     1       3.806  82.547  63.847  1.00  0.00     0.000 C 
BRANCH  14  15
ATOM     15  C   UNL     1       2.724  81.481  64.096  1.00  0.00     0.000 C 
BRANCH  15  16
ATOM     16  C   UNL     1       3.202  80.056  63.768  1.00  0.00     0.000 C 
BRANCH  16  17
ATOM     17  C   UNL     1       4.280  79.488  64.716  1.00  0.00     0.000 C 
BRANCH  17  18
ATOM     18  C   UNL     1       5.313  78.560  64.049  1.00  0.00     0.000 C 
BRANCH  18  19
ATOM     19  C   UNL     1       5.893  77.470  64.969  1.00  0.00     0.000 C 
BRANCH  19  20
ATOM     20  C   UNL     1       7.100  77.944  65.809  1.00  0.00     0.006 C 
BRANCH  20  21
ATOM     21  C   UNL     1       6.718  78.257  67.261  1.00  0.00     0.053 C 
BRANCH  21  22
ATOM     22  C   UNL     1       6.183  77.034  67.938  1.00  0.00     0.041 C 
ATOM     23  O   UNL     1       6.922  76.028  68.107  1.00  0.00    -0.550 OA
ATOM     24  O   UNL     1       4.883  77.024  68.427  1.00  0.00    -0.550 OA
ENDBRANCH  21  22
ENDBRANCH  20  21
ENDBRANCH  19  20
ENDBRANCH  18  19
ENDBRANCH  17  18
ENDBRANCH  16  17
ENDBRANCH  15  16
ENDBRANCH  14  15
ENDBRANCH  13  14
ENDBRANCH   1  13
TORSDOF 20
ENDMDL
MODEL 3
REMARK VINA RESULT:    -4.565      1.172      2.195
REMARK INTER + INTRA:         -12.234
REMARK INTER:                 -10.426
REMARK INTRA:                  -1.808
REMARK UNBOUND:                -2.332
REMARK SMILES CCCCCCCCCCCCCCCCCCCCCC(=O)[O-]
REMARK SMILES IDX 12 1 11 2 10 3 9 4 8 5 7 6 6 7 5 8 4 9 3 10 2 11 1 12 13 13
REMARK SMILES IDX 14 14 15 15 16 16 17 17 18 18 19 19 20 20 21 21 22 22 23 23
REMARK SMILES IDX 24 24
REMARK H PARENT
REMARK Flexibility Score: inf
ROOT
ATOM      1  C   UNL     1       3.074  80.108  63.235  1.00  0.00     0.000 C 
ENDROOT
BRANCH   1   2
ATOM      2  C   UNL     1       4.190  79.736  64.225  1.00  0.00     0.000 C 
BRANCH   2   3
ATOM      3  C   UNL     1       5.385  79.053  63.544  1.00  0.00     0.000 C 
BRANCH   3   4
ATOM      4  C   UNL     1       5.586  77.631  64.084  1.00  0.00    -0.000 C 
BRANCH   4   5
ATOM      5  C   UNL     1       6.755  77.581  65.079  1.00  0.00    -0.000 C 
BRANCH   5   6
ATOM      6  C   UNL     1       6.395  76.835  66.374  1.00  0.00    -0.000 C 
BRANCH   6   7
ATOM      7  C   UNL     1       6.692  77.662  67.637  1.00  0.00    -0.000 C 
BRANCH   7   8
ATOM      8  C   UNL     1       5.663  78.782  67.863  1.00  0.00    -0.000 C 
BRANCH   8   9
ATOM      9  C   UNL     1       4.224  78.330  67.558  1.00  0.00    -0.000 C 
BRANCH   9  10
ATOM     10  C   UNL     1       3.541  77.680  68.771  1.00  0.00    -0.000 C 
BRANCH  10  11
ATOM     11  C   UNL     1       2.860  76.349  68.420  1.00  0.00    -0.003 C 
ATOM     12  C   UNL     1       3.845  75.186  68.510  1.00  0.00     0.004 C 
ENDBRANCH  10  11
ENDBRANCH   9  10
ENDBRANCH   8   9
ENDBRANCH   7   8
ENDBRANCH   6   7
ENDBRANCH   5   6
ENDBRANCH   4   5
ENDBRANCH   3   4
ENDBRANCH   2   3
ENDBRANCH   1   2
BRANCH   1  13
ATOM     13  C   UNL     1       2.667  81.589  63.333  1.00  0.00     0.000 C 
BRANCH  13  14
ATOM     14  C   UNL     1       3.465  82.350  64.403  1.00  0.00     0.000 C 
BRANCH  14  15
ATOM     15  C   UNL     1       2.906  83.761  64.663  1.00  0.00     0.000 C 
BRANCH  15  16
ATOM     16  C   UNL     1       3.963  84.865  64.487  1.00  0.00     0.000 C 
BRANCH  16  17
ATOM     17  C   UNL     1       4.806  84.770  63.197  1.00  0.00     0.000 C 
BRANCH  17  18
ATOM     18  C   UNL     1       4.187  85.450  61.960  1.00  0.00     0.000 C 
BRANCH  18  19
ATOM     19  C   UNL     1       4.327  86.983  61.927  1.00  0.00     0.000 C 
BRANCH  19  20
ATOM     20  C   UNL     1       2.992  87.724  61.695  1.00  0.00     0.006 C 
BRANCH  20  21
ATOM     21  C   UNL     1       3.073  89.210  62.065  1.00  0.00     0.053 C 
BRANCH  21  22
ATOM     22  C   UNL     1       3.301  90.043  60.843  1.00  0.00     0.041 C 
ATOM     23  O   UNL     1       2.373  90.757  60.380  1.00  0.00    -0.550 OA
ATOM     24  O   UNL     1       4.554  90.070  60.245  1.00  0.00    -0.550 OA
ENDBRANCH  21  22
ENDBRANCH  20  21
ENDBRANCH  19  20
ENDBRANCH  18  19
ENDBRANCH  17  18
ENDBRANCH  16  17
ENDBRANCH  15  16
ENDBRANCH  14  15
ENDBRANCH  13  14
ENDBRANCH   1  13
TORSDOF 20
ENDMDL
MODEL 4
REMARK VINA RESULT:    -4.558      3.479      7.930
REMARK INTER + INTRA:         -12.220
REMARK INTER:                  -9.249
REMARK INTRA:                  -2.972
REMARK UNBOUND:                -2.332
REMARK SMILES CCCCCCCCCCCCCCCCCCCCCC(=O)[O-]
REMARK SMILES IDX 12 1 11 2 10 3 9 4 8 5 7 6 6 7 5 8 4 9 3 10 2 11 1 12 13 13
REMARK SMILES IDX 14 14 15 15 16 16 17 17 18 18 19 19 20 20 21 21 22 22 23 23
REMARK SMILES IDX 24 24
REMARK H PARENT
REMARK Flexibility Score: inf
ROOT
ATOM      1  C   UNL     1       3.327  79.532  66.296  1.00  0.00     0.000 C 
ENDROOT
BRANCH   1   2
ATOM      2  C   UNL     1       3.844  80.266  65.048  1.00  0.00     0.000 C 
BRANCH   2   3
ATOM      3  C   UNL     1       3.048  79.921  63.781  1.00  0.00     0.000 C 
BRANCH   3   4
ATOM      4  C   UNL     1       3.015  81.110  62.812  1.00  0.00    -0.000 C 
BRANCH   4   5
ATOM      5  C   UNL     1       1.594  81.681  62.689  1.00  0.00    -0.000 C 
BRANCH   5   6
ATOM      6  C   UNL     1       0.870  81.758  64.042  1.00  0.00    -0.000 C 
BRANCH   6   7
ATOM      7  C   UNL     1       0.884  83.175  64.641  1.00  0.00    -0.000 C 
BRANCH   7   8
ATOM      8  C   UNL     1       2.248  83.547  65.245  1.00  0.00    -0.000 C 
BRANCH   8   9
ATOM      9  C   UNL     1       2.930  84.704  64.492  1.00  0.00    -0.000 C 
BRANCH   9  10
ATOM     10  C   UNL     1       4.419  84.437  64.226  1.00  0.00    -0.000 C 
BRANCH  10  11
ATOM     11  C   UNL     1       4.840  84.821  62.799  1.00  0.00    -0.003 C 
ATOM     12  C   UNL     1       4.249  86.169  62.395  1.00  0.00     0.004 C 
ENDBRANCH  10  11
ENDBRANCH   9  10
ENDBRANCH   8   9
ENDBRANCH   7   8
ENDBRANCH   6   7
ENDBRANCH   5   6
ENDBRANCH   4   5
ENDBRANCH   3   4
ENDBRANCH   2   3
ENDBRANCH   1   2
BRANCH   1  13
ATOM     13  C   UNL     1       4.131  79.879  67.561  1.00  0.00     0.000 C 
BRANCH  13  14
ATOM     14  C   UNL     1       4.064  78.772  68.625  1.00  0.00     0.000 C 
BRANCH  14  15
ATOM     15  C   UNL     1       5.295  77.848  68.593  1.00  0.00     0.000 C 
BRANCH  15  16
ATOM     16  C   UNL     1       6.502  78.485  67.882  1.00  0.00     0.000 C 
BRANCH  16  17
ATOM     17  C   UNL     1       7.158  77.614  66.789  1.00  0.00     0.000 C 
BRANCH  17  18
ATOM     18  C   UNL     1       6.177  76.786  65.938  1.00  0.00     0.000 C 
BRANCH  18  19
ATOM     19  C   UNL     1       5.882  77.366  64.542  1.00  0.00     0.000 C 
BRANCH  19  20
ATOM     20  C   UNL     1       6.961  78.349  64.037  1.00  0.00     0.006 C 
BRANCH  20  21
ATOM     21  C   UNL     1       6.555  79.048  62.734  1.00  0.00     0.053 C 
BRANCH  21  22
ATOM     22  C   UNL     1       7.754  79.285  61.871  1.00  0.00     0.041 C 
ATOM     23  O   UNL     1       8.763  79.877  62.337  1.00  0.00    -0.550 OA
ATOM     24  O   UNL     1       7.777  78.806  60.567  1.00  0.00    -0.550 OA
ENDBRANCH  21  22
ENDBRANCH  20  21
ENDBRANCH  19  20
ENDBRANCH  18  19
ENDBRANCH  17  18
ENDBRANCH  16  17
ENDBRANCH  15  16
ENDBRANCH  14  15
ENDBRANCH  13  14
ENDBRANCH   1  13
TORSDOF 20
ENDMDL
MODEL 5
REMARK VINA RESULT:    -4.536      3.635      8.564
REMARK INTER + INTRA:         -12.171
REMARK INTER:                 -10.242
REMARK INTRA:                  -1.930
REMARK UNBOUND:                -2.332
REMARK SMILES CCCCCCCCCCCCCCCCCCCCCC(=O)[O-]
REMARK SMILES IDX 12 1 11 2 10 3 9 4 8 5 7 6 6 7 5 8 4 9 3 10 2 11 1 12 13 13
REMARK SMILES IDX 14 14 15 15 16 16 17 17 18 18 19 19 20 20 21 21 22 22 23 23
REMARK SMILES IDX 24 24
REMARK H PARENT
REMARK Flexibility Score: inf
ROOT
ATOM      1  C   UNL     1       3.836  79.777  67.583  1.00  0.00     0.000 C 
ENDROOT
BRANCH   1   2
ATOM      2  C   UNL     1       2.612  79.854  66.656  1.00  0.00     0.000 C 
BRANCH   2   3
ATOM      3  C   UNL     1       2.516  81.193  65.909  1.00  0.00     0.000 C 
BRANCH   3   4
ATOM      4  C   UNL     1       3.747  81.416  65.021  1.00  0.00    -0.000 C 
BRANCH   4   5
ATOM      5  C   UNL     1       3.506  82.558  64.023  1.00  0.00    -0.000 C 
BRANCH   5   6
ATOM      6  C   UNL     1       3.297  83.913  64.716  1.00  0.00    -0.000 C 
BRANCH   6   7
ATOM      7  C   UNL     1       4.422  84.917  64.408  1.00  0.00    -0.000 C 
BRANCH   7   8
ATOM      8  C   UNL     1       4.753  84.989  62.908  1.00  0.00    -0.000 C 
BRANCH   8   9
ATOM      9  C   UNL     1       3.717  85.805  62.115  1.00  0.00    -0.000 C 
BRANCH   9  10
ATOM     10  C   UNL     1       4.143  87.269  61.922  1.00  0.00    -0.000 C 
BRANCH  10  11
ATOM     11  C   UNL     1       2.992  88.255  62.177  1.00  0.00    -0.003 C 
ATOM     12  C   UNL     1       3.317  89.635  61.613  1.00  0.00     0.004 C 
ENDBRANCH  10  11
ENDBRANCH   9  10
ENDBRANCH   8   9
ENDBRANCH   7   8
ENDBRANCH   6   7
ENDBRANCH   5   6
ENDBRANCH   4   5
ENDBRANCH   3   4
ENDBRANCH   2   3
ENDBRANCH   1   2
BRANCH   1  13
ATOM     13  C   UNL     1       3.761  78.590  68.560  1.00  0.00     0.000 C 
BRANCH  13  14
ATOM     14  C   UNL     1       5.095  77.835  68.675  1.00  0.00     0.000 C 
BRANCH  14  15
ATOM     15  C   UNL     1       6.255  78.580  67.988  1.00  0.00     0.000 C 
BRANCH  15  16
ATOM     16  C   UNL     1       6.917  77.754  66.870  1.00  0.00     0.000 C 
BRANCH  16  17
ATOM     17  C   UNL     1       6.698  78.287  65.439  1.00  0.00     0.000 C 
BRANCH  17  18
ATOM     18  C   UNL     1       5.941  77.334  64.494  1.00  0.00     0.000 C 
BRANCH  18  19
ATOM     19  C   UNL     1       5.275  78.016  63.285  1.00  0.00     0.000 C 
BRANCH  19  20
ATOM     20  C   UNL     1       5.906  79.375  62.912  1.00  0.00     0.006 C 
BRANCH  20  21
ATOM     21  C   UNL     1       6.492  79.383  61.495  1.00  0.00     0.053 C 
BRANCH  21  22
ATOM     22  C   UNL     1       7.912  78.911  61.512  1.00  0.00     0.041 C 
ATOM     23  O   UNL     1       8.449  78.479  60.459  1.00  0.00    -0.550 OA
ATOM     24  O   UNL     1       8.658  78.998  62.681  1.00  0.00    -0.550 OA
ENDBRANCH  21  22
ENDBRANCH  20  21
ENDBRANCH  19  20
ENDBRANCH  18  19
ENDBRANCH  17  18
ENDBRANCH  16  17
ENDBRANCH  15  16
ENDBRANCH  14  15
ENDBRANCH  13  14
ENDBRANCH   1  13
TORSDOF 20
ENDMDL
MODEL 6
REMARK VINA RESULT:    -4.508      3.522      9.017
REMARK INTER + INTRA:         -12.111
REMARK INTER:                 -10.527
REMARK INTRA:                  -1.584
REMARK UNBOUND:                -2.332
REMARK SMILES CCCCCCCCCCCCCCCCCCCCCC(=O)[O-]
REMARK SMILES IDX 12 1 11 2 10 3 9 4 8 5 7 6 6 7 5 8 4 9 3 10 2 11 1 12 13 13
REMARK SMILES IDX 14 14 15 15 16 16 17 17 18 18 19 19 20 20 21 21 22 22 23 23
REMARK SMILES IDX 24 24
REMARK H PARENT
REMARK Flexibility Score: inf
ROOT
ATOM      1  C   UNL     1       3.349  79.498  62.913  1.00  0.00     0.000 C 
ENDROOT
BRANCH   1   2
ATOM      2  C   UNL     1       3.186  80.049  64.339  1.00  0.00     0.000 C 
BRANCH   2   3
ATOM      3  C   UNL     1       2.599  81.468  64.365  1.00  0.00     0.000 C 
BRANCH   3   4
ATOM      4  C   UNL     1       3.646  82.503  63.933  1.00  0.00    -0.000 C 
BRANCH   4   5
ATOM      5  C   UNL     1       3.348  83.877  64.551  1.00  0.00    -0.000 C 
BRANCH   5   6
ATOM      6  C   UNL     1       4.462  84.900  64.279  1.00  0.00    -0.000 C 
BRANCH   6   7
ATOM      7  C   UNL     1       4.520  85.337  62.805  1.00  0.00    -0.000 C 
BRANCH   7   8
ATOM      8  C   UNL     1       3.398  86.322  62.438  1.00  0.00    -0.000 C 
BRANCH   8   9
ATOM      9  C   UNL     1       3.915  87.532  61.640  1.00  0.00    -0.000 C 
BRANCH   9  10
ATOM     10  C   UNL     1       3.248  88.849  62.067  1.00  0.00    -0.000 C 
BRANCH  10  11
ATOM     11  C   UNL     1       3.113  89.845  60.905  1.00  0.00    -0.003 C 
ATOM     12  C   UNL     1       4.453  90.060  60.208  1.00  0.00     0.004 C 
ENDBRANCH  10  11
ENDBRANCH   9  10
ENDBRANCH   8   9
ENDBRANCH   7   8
ENDBRANCH   6   7
ENDBRANCH   5   6
ENDBRANCH   4   5
ENDBRANCH   3   4
ENDBRANCH   2   3
ENDBRANCH   1   2
BRANCH   1  13
ATOM     13  C   UNL     1       4.746  78.900  62.668  1.00  0.00     0.000 C 
BRANCH  13  14
ATOM     14  C   UNL     1       5.646  78.972  63.912  1.00  0.00     0.000 C 
BRANCH  14  15
ATOM     15  C   UNL     1       6.268  77.610  64.269  1.00  0.00     0.000 C 
BRANCH  15  16
ATOM     16  C   UNL     1       5.824  77.095  65.650  1.00  0.00     0.000 C 
BRANCH  16  17
ATOM     17  C   UNL     1       6.876  77.229  66.772  1.00  0.00     0.000 C 
BRANCH  17  18
ATOM     18  C   UNL     1       6.672  78.428  67.719  1.00  0.00     0.000 C 
BRANCH  18  19
ATOM     19  C   UNL     1       5.321  78.447  68.457  1.00  0.00     0.000 C 
BRANCH  19  20
ATOM     20  C   UNL     1       4.383  79.588  68.009  1.00  0.00     0.006 C 
BRANCH  20  21
ATOM     21  C   UNL     1       3.369  79.976  69.092  1.00  0.00     0.053 C 
BRANCH  21  22
ATOM     22  C   UNL     1       2.130  80.542  68.472  1.00  0.00     0.041 C 
ATOM     23  O   UNL     1       1.640  80.013  67.439  1.00  0.00    -0.550 OA
ATOM     24  O   UNL     1       1.488  81.622  69.064  1.00  0.00    -0.550 OA
ENDBRANCH  21  22
ENDBRANCH  20  21
ENDBRANCH  19  20
ENDBRANCH  18  19
ENDBRANCH  17  18
ENDBRANCH  16  17
ENDBRANCH  15  16
ENDBRANCH  14  15
ENDBRANCH  13  14
ENDBRANCH   1  13
TORSDOF 20
ENDMDL
MODEL 7
REMARK VINA RESULT:    -4.501      0.898      3.027
REMARK INTER + INTRA:         -12.096
REMARK INTER:                  -9.750
REMARK INTRA:                  -2.346
REMARK UNBOUND:                -2.332
REMARK SMILES CCCCCCCCCCCCCCCCCCCCCC(=O)[O-]
REMARK SMILES IDX 12 1 11 2 10 3 9 4 8 5 7 6 6 7 5 8 4 9 3 10 2 11 1 12 13 13
REMARK SMILES IDX 14 14 15 15 16 16 17 17 18 18 19 19 20 20 21 21 22 22 23 23
REMARK SMILES IDX 24 24
REMARK H PARENT
REMARK Flexibility Score: inf
ROOT
ATOM      1  C   UNL     1       2.905  80.974  66.101  1.00  0.00     0.000 C 
ENDROOT
BRANCH   1   2
ATOM      2  C   UNL     1       3.457  79.622  66.581  1.00  0.00     0.000 C 
BRANCH   2   3
ATOM      3  C   UNL     1       4.400  79.758  67.785  1.00  0.00     0.000 C 
BRANCH   3   4
ATOM      4  C   UNL     1       4.148  78.644  68.809  1.00  0.00    -0.000 C 
BRANCH   4   5
ATOM      5  C   UNL     1       3.946  77.290  68.111  1.00  0.00    -0.000 C 
BRANCH   5   6
ATOM      6  C   UNL     1       5.143  76.346  68.298  1.00  0.00    -0.000 C 
BRANCH   6   7
ATOM      7  C   UNL     1       5.997  76.212  67.025  1.00  0.00    -0.000 C 
BRANCH   7   8
ATOM      8  C   UNL     1       7.185  77.188  67.006  1.00  0.00    -0.000 C 
BRANCH   8   9
ATOM      9  C   UNL     1       7.211  78.060  65.738  1.00  0.00    -0.000 C 
BRANCH   9  10
ATOM     10  C   UNL     1       6.073  77.718  64.764  1.00  0.00    -0.000 C 
BRANCH  10  11
ATOM     11  C   UNL     1       5.709  78.897  63.848  1.00  0.00    -0.003 C 
ATOM     12  C   UNL     1       4.993  78.414  62.590  1.00  0.00     0.004 C 
ENDBRANCH  10  11
ENDBRANCH   9  10
ENDBRANCH   8   9
ENDBRANCH   7   8
ENDBRANCH   6   7
ENDBRANCH   5   6
ENDBRANCH   4   5
ENDBRANCH   3   4
ENDBRANCH   2   3
ENDBRANCH   1   2
BRANCH   1  13
ATOM     13  C   UNL     1       2.541  80.966  64.606  1.00  0.00     0.000 C 
BRANCH  13  14
ATOM     14  C   UNL     1       3.520  81.791  63.755  1.00  0.00     0.000 C 
BRANCH  14  15
ATOM     15  C   UNL     1       2.861  83.040  63.142  1.00  0.00     0.000 C 
BRANCH  15  16
ATOM     16  C   UNL     1       2.809  84.229  64.118  1.00  0.00     0.000 C 
BRANCH  16  17
ATOM     17  C   UNL     1       4.018  85.187  64.053  1.00  0.00     0.000 C 
BRANCH  17  18
ATOM     18  C   UNL     1       4.989  84.936  62.884  1.00  0.00     0.000 C 
BRANCH  18  19
ATOM     19  C   UNL     1       4.795  85.864  61.671  1.00  0.00     0.000 C 
BRANCH  19  20
ATOM     20  C   UNL     1       3.860  87.061  61.948  1.00  0.00     0.006 C 
BRANCH  20  21
ATOM     21  C   UNL     1       4.052  88.202  60.940  1.00  0.00     0.053 C 
BRANCH  21  22
ATOM     22  C   UNL     1       3.250  89.399  61.344  1.00  0.00     0.041 C 
ATOM     23  O   UNL     1       2.896  90.245  60.482  1.00  0.00    -0.550 OA
ATOM     24  O   UNL     1       2.850  89.552  62.666  1.00  0.00    -0.550 OA
ENDBRANCH  21  22
ENDBRANCH  20  21
ENDBRANCH  19  20
ENDBRANCH  18  19
ENDBRANCH  17  18
ENDBRANCH  16  17
ENDBRANCH  15  16
ENDBRANCH  14  15
ENDBRANCH  13  14
ENDBRANCH   1  13
TORSDOF 20
ENDMDL
MODEL 8
REMARK VINA RESULT:    -4.492      4.815      9.703
REMARK INTER + INTRA:         -12.077
REMARK INTER:                 -10.324
REMARK INTRA:                  -1.754
REMARK UNBOUND:                -2.332
REMARK SMILES CCCCCCCCCCCCCCCCCCCCCC(=O)[O-]
REMARK SMILES IDX 12 1 11 2 10 3 9 4 8 5 7 6 6 7 5 8 4 9 3 10 2 11 1 12 13 13
REMARK SMILES IDX 14 14 15 15 16 16 17 17 18 18 19 19 20 20 21 21 22 22 23 23
REMARK SMILES IDX 24 24
REMARK H PARENT
REMARK Flexibility Score: inf
ROOT
ATOM      1  C   UNL     1       5.239  78.004  63.503  1.00  0.00     0.000 C 
ENDROOT
BRANCH   1   2
ATOM      2  C   UNL     1       4.773  79.408  63.922  1.00  0.00     0.000 C 
BRANCH   2   3
ATOM      3  C   UNL     1       3.871  80.074  62.873  1.00  0.00     0.000 C 
BRANCH   3   4
ATOM      4  C   UNL     1       4.046  81.598  62.884  1.00  0.00    -0.000 C 
BRANCH   4   5
ATOM      5  C   UNL     1       3.067  82.257  63.866  1.00  0.00    -0.000 C 
BRANCH   5   6
ATOM      6  C   UNL     1       3.700  83.429  64.632  1.00  0.00    -0.000 C 
BRANCH   6   7
ATOM      7  C   UNL     1       3.339  84.797  64.028  1.00  0.00    -0.000 C 
BRANCH   7   8
ATOM      8  C   UNL     1       4.460  85.364  63.141  1.00  0.00    -0.000 C 
BRANCH   8   9
ATOM      9  C   UNL     1       3.923  85.988  61.841  1.00  0.00    -0.000 C 
BRANCH   9  10
ATOM     10  C   UNL     1       3.369  87.406  62.052  1.00  0.00    -0.000 C 
BRANCH  10  11
ATOM     11  C   UNL     1       4.049  88.444  61.147  1.00  0.00    -0.003 C 
ATOM     12  C   UNL     1       3.484  89.841  61.391  1.00  0.00     0.004 C 
ENDBRANCH  10  11
ENDBRANCH   9  10
ENDBRANCH   8   9
ENDBRANCH   7   8
ENDBRANCH   6   7
ENDBRANCH   5   6
ENDBRANCH   4   5
ENDBRANCH   3   4
ENDBRANCH   2   3
ENDBRANCH   1   2
BRANCH   1  13
ATOM     13  C   UNL     1       6.004  77.277  64.623  1.00  0.00     0.000 C 
BRANCH  13  14
ATOM     14  C   UNL     1       7.238  78.060  65.099  1.00  0.00     0.000 C 
BRANCH  14  15
ATOM     15  C   UNL     1       7.603  77.752  66.563  1.00  0.00     0.000 C 
BRANCH  15  16
ATOM     16  C   UNL     1       6.389  77.313  67.401  1.00  0.00     0.000 C 
BRANCH  16  17
ATOM     17  C   UNL     1       5.764  78.415  68.283  1.00  0.00     0.000 C 
BRANCH  17  18
ATOM     18  C   UNL     1       4.675  79.262  67.597  1.00  0.00     0.000 C 
BRANCH  18  19
ATOM     19  C   UNL     1       3.269  78.634  67.602  1.00  0.00     0.000 C 
BRANCH  19  20
ATOM     20  C   UNL     1       2.991  77.740  68.830  1.00  0.00     0.006 C 
BRANCH  20  21
ATOM     21  C   UNL     1       2.000  76.610  68.523  1.00  0.00     0.053 C 
BRANCH  21  22
ATOM     22  C   UNL     1       2.704  75.291  68.485  1.00  0.00     0.041 C 
ATOM     23  O   UNL     1       3.945  75.229  68.687  1.00  0.00    -0.550 OA
ATOM     24  O   UNL     1       1.980  74.123  68.278  1.00  0.00    -0.550 OA
ENDBRANCH  21  22
ENDBRANCH  20  21
ENDBRANCH  19  20
ENDBRANCH  18  19
ENDBRANCH  17  18
ENDBRANCH  16  17
ENDBRANCH  15  16
ENDBRANCH  14  15
ENDBRANCH  13  14
ENDBRANCH   1  13
TORSDOF 20
ENDMDL
MODEL 9
REMARK VINA RESULT:    -4.476      4.538     10.026
REMARK INTER + INTRA:         -12.041
REMARK INTER:                  -9.863
REMARK INTRA:                  -2.179
REMARK UNBOUND:                -2.332
REMARK SMILES CCCCCCCCCCCCCCCCCCCCCC(=O)[O-]
REMARK SMILES IDX 12 1 11 2 10 3 9 4 8 5 7 6 6 7 5 8 4 9 3 10 2 11 1 12 13 13
REMARK SMILES IDX 14 14 15 15 16 16 17 17 18 18 19 19 20 20 21 21 22 22 23 23
REMARK SMILES IDX 24 24
REMARK H PARENT
REMARK Flexibility Score: inf
ROOT
ATOM      1  C   UNL     1       4.610  85.007  62.673  1.00  0.00     0.000 C 
ENDROOT
BRANCH   1   2
ATOM      2  C   UNL     1       4.133  86.439  62.383  1.00  0.00     0.000 C 
BRANCH   2   3
ATOM      3  C   UNL     1       4.653  86.979  61.042  1.00  0.00     0.000 C 
BRANCH   3   4
ATOM      4  C   UNL     1       4.168  88.414  60.802  1.00  0.00    -0.000 C 
BRANCH   4   5
ATOM      5  C   UNL     1       3.260  88.887  61.946  1.00  0.00    -0.000 C 
BRANCH   5   6
ATOM      6  C   UNL     1       1.839  89.226  61.470  1.00  0.00    -0.000 C 
BRANCH   6   7
ATOM      7  C   UNL     1       0.766  88.896  62.522  1.00  0.00    -0.000 C 
BRANCH   7   8
ATOM      8  C   UNL     1      -0.009  87.610  62.189  1.00  0.00    -0.000 C 
BRANCH   8   9
ATOM      9  C   UNL     1       0.532  86.384  62.947  1.00  0.00    -0.000 C 
BRANCH   9  10
ATOM     10  C   UNL     1       0.612  85.132  62.060  1.00  0.00    -0.000 C 
BRANCH  10  11
ATOM     11  C   UNL     1       0.129  83.866  62.784  1.00  0.00    -0.003 C 
ATOM     12  C   UNL     1       0.072  84.084  64.294  1.00  0.00     0.004 C 
ENDBRANCH  10  11
ENDBRANCH   9  10
ENDBRANCH   8   9
ENDBRANCH   7   8
ENDBRANCH   6   7
ENDBRANCH   5   6
ENDBRANCH   4   5
ENDBRANCH   3   4
ENDBRANCH   2   3
ENDBRANCH   1   2
BRANCH   1  13
ATOM     13  C   UNL     1       4.332  84.576  64.125  1.00  0.00     0.000 C 
BRANCH  13  14
ATOM     14  C   UNL     1       3.747  83.158  64.218  1.00  0.00     0.000 C 
BRANCH  14  15
ATOM     15  C   UNL     1       3.408  82.569  62.837  1.00  0.00     0.000 C 
BRANCH  15  16
ATOM     16  C   UNL     1       4.131  81.238  62.561  1.00  0.00     0.000 C 
BRANCH  16  17
ATOM     17  C   UNL     1       4.216  80.273  63.763  1.00  0.00     0.000 C 
BRANCH  17  18
ATOM     18  C   UNL     1       4.777  78.875  63.440  1.00  0.00     0.000 C 
BRANCH  18  19
ATOM     19  C   UNL     1       6.177  78.591  64.016  1.00  0.00     0.000 C 
BRANCH  19  20
ATOM     20  C   UNL     1       6.187  77.511  65.119  1.00  0.00     0.006 C 
BRANCH  20  21
ATOM     21  C   UNL     1       7.329  77.709  66.125  1.00  0.00     0.053 C 
BRANCH  21  22
ATOM     22  C   UNL     1       6.839  77.496  67.523  1.00  0.00     0.041 C 
ATOM     23  O   UNL     1       6.380  78.462  68.187  1.00  0.00    -0.550 OA
ATOM     24  O   UNL     1       6.843  76.221  68.073  1.00  0.00    -0.550 OA
ENDBRANCH  21  22
ENDBRANCH  20  21
ENDBRANCH  19  20
ENDBRANCH  18  19
ENDBRANCH  17  18
ENDBRANCH  16  17
ENDBRANCH  15  16
ENDBRANCH  14  15
ENDBRANCH  13  14
ENDBRANCH   1  13
TORSDOF 20
ENDMDL
