MODEL 1
REMARK VINA RESULT:    -4.626      0.000      0.000
REMARK INTER + INTRA:          -6.351
REMARK INTER:                  -6.249
REMARK INTRA:                  -0.102
REMARK UNBOUND:                -0.102
REMARK SMILES [NH3+]CCCC[C@@H]([NH3+])C(=O)[O-]
REMARK SMILES IDX 4 1 3 2 2 3 1 4 5 8 6 9 7 10 8 14 9 15 10 16
REMARK H PARENT 1 5 1 6 1 7 7 11 7 12 7 13
REMARK Flexibility Score: inf
ROOT
ATOM      1  C   UNL     1       4.879  46.637  10.492  1.00  0.00     0.012 C 
ENDROOT
BRANCH   1   2
ATOM      2  C   UNL     1       5.431  47.409   9.280  1.00  0.00     0.061 C 
BRANCH   2   3
ATOM      3  C   UNL     1       6.886  47.891   9.435  1.00  0.00     0.258 C 
BRANCH   3   4
ATOM      4  N   UNL     1       7.154  49.106   8.663  1.00  0.00    -0.358 N 
ATOM      5  H   UNL     1       8.122  49.449   8.853  1.00  0.00     0.344 HD
ATOM      6  H   UNL     1       7.032  48.924   7.640  1.00  0.00     0.344 HD
ATOM      7  H   UNL     1       6.479  49.849   8.956  1.00  0.00     0.344 HD
ENDBRANCH   3   4
ENDBRANCH   2   3
ENDBRANCH   1   2
BRANCH   1   8
ATOM      8  C   UNL     1       4.060  45.398  10.087  1.00  0.00     0.072 C 
BRANCH   8   9
ATOM      9  C   UNL     1       3.853  44.416  11.261  1.00  0.00     0.227 C 
BRANCH   9  10
ATOM     10  N   UNL     1       4.513  44.886  12.486  1.00  0.00    -0.350 N 
ATOM     11  H   UNL     1       3.852  45.465  13.051  1.00  0.00     0.345 HD
ATOM     12  H   UNL     1       5.330  45.491  12.240  1.00  0.00     0.345 HD
ATOM     13  H   UNL     1       4.848  44.079  13.063  1.00  0.00     0.345 HD
ENDBRANCH   9  10
BRANCH   9  14
ATOM     14  C   UNL     1       2.379  44.235  11.509  1.00  0.00     0.099 C 
ATOM     15  O   UNL     1       1.558  45.102  11.107  1.00  0.00    -0.544 OA
ATOM     16  O   UNL     1       1.915  43.123  12.201  1.00  0.00    -0.544 OA
ENDBRANCH   9  14
ENDBRANCH   8   9
ENDBRANCH   1   8
TORSDOF 7
ENDMDL
MODEL 2
REMARK VINA RESULT:    -4.618      0.081      1.025
REMARK INTER + INTRA:          -6.340
REMARK INTER:                  -6.239
REMARK INTRA:                  -0.100
REMARK UNBOUND:                -0.102
REMARK SMILES [NH3+]CCCC[C@@H]([NH3+])C(=O)[O-]
REMARK SMILES IDX 4 1 3 2 2 3 1 4 5 8 6 9 7 10 8 14 9 15 10 16
REMARK H PARENT 1 5 1 6 1 7 7 11 7 12 7 13
REMARK Flexibility Score: inf
ROOT
ATOM      1  C   UNL     1       4.869  46.612  10.495  1.00  0.00     0.012 C 
ENDROOT
BRANCH   1   2
ATOM      2  C   UNL     1       5.367  47.401   9.271  1.00  0.00     0.061 C 
BRANCH   2   3
ATOM      3  C   UNL     1       6.830  47.876   9.366  1.00  0.00     0.258 C 
BRANCH   3   4
ATOM      4  N   UNL     1       7.062  49.115   8.621  1.00  0.00    -0.358 N 
ATOM      5  H   UNL     1       7.167  48.910   7.601  1.00  0.00     0.344 HD
ATOM      6  H   UNL     1       6.274  49.786   8.772  1.00  0.00     0.344 HD
ATOM      7  H   UNL     1       7.948  49.554   8.960  1.00  0.00     0.344 HD
ENDBRANCH   3   4
ENDBRANCH   2   3
ENDBRANCH   1   2
BRANCH   1   8
ATOM      8  C   UNL     1       4.085  45.345  10.108  1.00  0.00     0.072 C 
BRANCH   8   9
ATOM      9  C   UNL     1       3.882  44.387  11.303  1.00  0.00     0.227 C 
BRANCH   9  10
ATOM     10  N   UNL     1       4.512  44.902  12.525  1.00  0.00    -0.350 N 
ATOM     11  H   UNL     1       3.820  44.916  13.308  1.00  0.00     0.345 HD
ATOM     12  H   UNL     1       4.834  45.886  12.372  1.00  0.00     0.345 HD
ATOM     13  H   UNL     1       5.333  44.313  12.799  1.00  0.00     0.345 HD
ENDBRANCH   9  10
BRANCH   9  14
ATOM     14  C   UNL     1       2.408  44.178  11.533  1.00  0.00     0.099 C 
ATOM     15  O   UNL     1       2.005  43.182  12.189  1.00  0.00    -0.544 OA
ATOM     16  O   UNL     1       1.483  45.070  11.005  1.00  0.00    -0.544 OA
ENDBRANCH   9  14
ENDBRANCH   8   9
ENDBRANCH   1   8
TORSDOF 7
ENDMDL
MODEL 3
REMARK VINA RESULT:    -4.493     15.336     16.218
REMARK INTER + INTRA:          -6.171
REMARK INTER:                  -6.028
REMARK INTRA:                  -0.143
REMARK UNBOUND:                -0.102
REMARK SMILES [NH3+]CCCC[C@@H]([NH3+])C(=O)[O-]
REMARK SMILES IDX 4 1 3 2 2 3 1 4 5 8 6 9 7 10 8 14 9 15 10 16
REMARK H PARENT 1 5 1 6 1 7 7 11 7 12 7 13
REMARK Flexibility Score: inf
ROOT
ATOM      1  C   UNL     1      13.436  34.621  14.239  1.00  0.00     0.012 C 
ENDROOT
BRANCH   1   2
ATOM      2  C   UNL     1      13.029  35.981  13.644  1.00  0.00     0.061 C 
BRANCH   2   3
ATOM      3  C   UNL     1      13.663  36.300  12.277  1.00  0.00     0.258 C 
BRANCH   3   4
ATOM      4  N   UNL     1      13.145  37.542  11.699  1.00  0.00    -0.358 N 
ATOM      5  H   UNL     1      12.916  38.225  12.457  1.00  0.00     0.344 HD
ATOM      6  H   UNL     1      13.842  37.958  11.040  1.00  0.00     0.344 HD
ATOM      7  H   UNL     1      12.267  37.330  11.172  1.00  0.00     0.344 HD
ENDBRANCH   3   4
ENDBRANCH   2   3
ENDBRANCH   1   2
BRANCH   1   8
ATOM      8  C   UNL     1      13.802  33.586  13.161  1.00  0.00     0.072 C 
BRANCH   8   9
ATOM      9  C   UNL     1      15.266  33.104  13.276  1.00  0.00     0.227 C 
BRANCH   9  10
ATOM     10  N   UNL     1      15.916  33.628  14.484  1.00  0.00    -0.350 N 
ATOM     11  H   UNL     1      15.934  32.895  15.229  1.00  0.00     0.345 HD
ATOM     12  H   UNL     1      15.375  34.442  14.855  1.00  0.00     0.345 HD
ATOM     13  H   UNL     1      16.895  33.935  14.277  1.00  0.00     0.345 HD
ENDBRANCH   9  10
BRANCH   9  14
ATOM     14  C   UNL     1      15.298  31.598  13.286  1.00  0.00     0.099 C 
ATOM     15  O   UNL     1      15.947  30.985  14.174  1.00  0.00    -0.544 OA
ATOM     16  O   UNL     1      14.631  30.875  12.304  1.00  0.00    -0.544 OA
ENDBRANCH   9  14
ENDBRANCH   8   9
ENDBRANCH   1   8
TORSDOF 7
ENDMDL
MODEL 4
REMARK VINA RESULT:    -4.322      1.551      1.970
REMARK INTER + INTRA:          -5.941
REMARK INTER:                  -5.807
REMARK INTRA:                  -0.133
REMARK UNBOUND:                -0.102
REMARK SMILES [NH3+]CCCC[C@@H]([NH3+])C(=O)[O-]
REMARK SMILES IDX 4 1 3 2 2 3 1 4 5 8 6 9 7 10 8 14 9 15 10 16
REMARK H PARENT 1 5 1 6 1 7 7 11 7 12 7 13
REMARK Flexibility Score: inf
ROOT
ATOM      1  C   UNL     1       4.872  46.919   9.648  1.00  0.00     0.012 C 
ENDROOT
BRANCH   1   2
ATOM      2  C   UNL     1       3.656  47.271   8.773  1.00  0.00     0.061 C 
BRANCH   2   3
ATOM      3  C   UNL     1       3.834  48.528   7.901  1.00  0.00     0.258 C 
BRANCH   3   4
ATOM      4  N   UNL     1       5.180  49.096   8.012  1.00  0.00    -0.358 N 
ATOM      5  H   UNL     1       5.127  50.135   8.102  1.00  0.00     0.344 HD
ATOM      6  H   UNL     1       5.681  48.688   8.835  1.00  0.00     0.344 HD
ATOM      7  H   UNL     1       5.716  48.868   7.144  1.00  0.00     0.344 HD
ENDBRANCH   3   4
ENDBRANCH   2   3
ENDBRANCH   1   2
BRANCH   1   8
ATOM      8  C   UNL     1       4.510  46.009  10.835  1.00  0.00     0.072 C 
BRANCH   8   9
ATOM      9  C   UNL     1       3.691  44.772  10.404  1.00  0.00     0.227 C 
BRANCH   9  10
ATOM     10  N   UNL     1       4.535  43.576  10.283  1.00  0.00    -0.350 N 
ATOM     11  H   UNL     1       3.940  42.717  10.266  1.00  0.00     0.345 HD
ATOM     12  H   UNL     1       5.170  43.504  11.112  1.00  0.00     0.345 HD
ATOM     13  H   UNL     1       5.113  43.615   9.412  1.00  0.00     0.345 HD
ENDBRANCH   9  10
BRANCH   9  14
ATOM     14  C   UNL     1       2.591  44.527  11.404  1.00  0.00     0.099 C 
ATOM     15  O   UNL     1       2.856  44.018  12.524  1.00  0.00    -0.544 OA
ATOM     16  O   UNL     1       1.274  44.840  11.089  1.00  0.00    -0.544 OA
ENDBRANCH   9  14
ENDBRANCH   8   9
ENDBRANCH   1   8
TORSDOF 7
ENDMDL
MODEL 5
REMARK VINA RESULT:    -4.247      2.156      2.638
REMARK INTER + INTRA:          -5.839
REMARK INTER:                  -5.424
REMARK INTRA:                  -0.416
REMARK UNBOUND:                -0.102
REMARK SMILES [NH3+]CCCC[C@@H]([NH3+])C(=O)[O-]
REMARK SMILES IDX 4 1 3 2 2 3 1 4 5 8 6 9 7 10 8 14 9 15 10 16
REMARK H PARENT 1 5 1 6 1 7 7 11 7 12 7 13
REMARK Flexibility Score: inf
ROOT
ATOM      1  C   UNL     1       2.108  45.505  10.047  1.00  0.00     0.012 C 
ENDROOT
BRANCH   1   2
ATOM      2  C   UNL     1       2.900  46.548   9.239  1.00  0.00     0.061 C 
BRANCH   2   3
ATOM      3  C   UNL     1       4.337  46.790   9.737  1.00  0.00     0.258 C 
BRANCH   3   4
ATOM      4  N   UNL     1       4.422  46.820  11.199  1.00  0.00    -0.358 N 
ATOM      5  H   UNL     1       4.933  47.676  11.514  1.00  0.00     0.344 HD
ATOM      6  H   UNL     1       3.465  46.797  11.621  1.00  0.00     0.344 HD
ATOM      7  H   UNL     1       4.953  45.981  11.524  1.00  0.00     0.344 HD
ENDBRANCH   3   4
ENDBRANCH   2   3
ENDBRANCH   1   2
BRANCH   1   8
ATOM      8  C   UNL     1       2.269  44.077   9.497  1.00  0.00     0.072 C 
BRANCH   8   9
ATOM      9  C   UNL     1       3.080  43.165  10.445  1.00  0.00     0.227 C 
BRANCH   9  10
ATOM     10  N   UNL     1       4.526  43.332  10.253  1.00  0.00    -0.350 N 
ATOM     11  H   UNL     1       4.711  43.937   9.422  1.00  0.00     0.345 HD
ATOM     12  H   UNL     1       4.971  42.403  10.071  1.00  0.00     0.345 HD
ATOM     13  H   UNL     1       4.967  43.762  11.100  1.00  0.00     0.345 HD
ENDBRANCH   9  10
BRANCH   9  14
ATOM     14  C   UNL     1       2.711  43.471  11.872  1.00  0.00     0.099 C 
ATOM     15  O   UNL     1       1.632  43.036  12.355  1.00  0.00    -0.544 OA
ATOM     16  O   UNL     1       3.546  44.254  12.660  1.00  0.00    -0.544 OA
ENDBRANCH   9  14
ENDBRANCH   8   9
ENDBRANCH   1   8
TORSDOF 7
ENDMDL
MODEL 6
REMARK VINA RESULT:    -4.230      2.889      4.702
REMARK INTER + INTRA:          -5.817
REMARK INTER:                  -5.299
REMARK INTRA:                  -0.517
REMARK UNBOUND:                -0.102
REMARK SMILES [NH3+]CCCC[C@@H]([NH3+])C(=O)[O-]
REMARK SMILES IDX 4 1 3 2 2 3 1 4 5 8 6 9 7 10 8 14 9 15 10 16
REMARK H PARENT 1 5 1 6 1 7 7 11 7 12 7 13
REMARK Flexibility Score: inf
ROOT
ATOM      1  C   UNL     1       1.690  44.812  10.444  1.00  0.00     0.012 C 
ENDROOT
BRANCH   1   2
ATOM      2  C   UNL     1       2.336  43.811   9.470  1.00  0.00     0.061 C 
BRANCH   2   3
ATOM      3  C   UNL     1       3.211  42.736  10.142  1.00  0.00     0.258 C 
BRANCH   3   4
ATOM      4  N   UNL     1       4.533  43.246  10.514  1.00  0.00    -0.358 N 
ATOM      5  H   UNL     1       5.272  42.791   9.933  1.00  0.00     0.344 HD
ATOM      6  H   UNL     1       4.570  44.285  10.394  1.00  0.00     0.344 HD
ATOM      7  H   UNL     1       4.715  43.016  11.517  1.00  0.00     0.344 HD
ENDBRANCH   3   4
ENDBRANCH   2   3
ENDBRANCH   1   2
BRANCH   1   8
ATOM      8  C   UNL     1       2.183  46.255  10.231  1.00  0.00     0.072 C 
BRANCH   8   9
ATOM      9  C   UNL     1       3.254  46.357   9.123  1.00  0.00     0.227 C 
BRANCH   9  10
ATOM     10  N   UNL     1       2.879  47.337   8.095  1.00  0.00    -0.350 N 
ATOM     11  H   UNL     1       3.518  47.257   7.272  1.00  0.00     0.345 HD
ATOM     12  H   UNL     1       2.976  48.307   8.475  1.00  0.00     0.345 HD
ATOM     13  H   UNL     1       1.891  47.190   7.783  1.00  0.00     0.345 HD
ENDBRANCH   9  10
BRANCH   9  14
ATOM     14  C   UNL     1       4.576  46.735   9.737  1.00  0.00     0.099 C 
ATOM     15  O   UNL     1       5.382  47.466   9.103  1.00  0.00    -0.544 OA
ATOM     16  O   UNL     1       4.924  46.265  10.997  1.00  0.00    -0.544 OA
ENDBRANCH   9  14
ENDBRANCH   8   9
ENDBRANCH   1   8
TORSDOF 7
ENDMDL
MODEL 7
REMARK VINA RESULT:    -4.226      2.281      2.557
REMARK INTER + INTRA:          -5.811
REMARK INTER:                  -5.587
REMARK INTRA:                  -0.224
REMARK UNBOUND:                -0.102
REMARK SMILES [NH3+]CCCC[C@@H]([NH3+])C(=O)[O-]
REMARK SMILES IDX 4 1 3 2 2 3 1 4 5 8 6 9 7 10 8 14 9 15 10 16
REMARK H PARENT 1 5 1 6 1 7 7 11 7 12 7 13
REMARK Flexibility Score: inf
ROOT
ATOM      1  C   UNL     1       2.373  47.489   9.225  1.00  0.00     0.012 C 
ENDROOT
BRANCH   1   2
ATOM      2  C   UNL     1       2.834  47.879   7.810  1.00  0.00     0.061 C 
BRANCH   2   3
ATOM      3  C   UNL     1       3.795  49.082   7.756  1.00  0.00     0.258 C 
BRANCH   3   4
ATOM      4  N   UNL     1       5.149  48.732   8.193  1.00  0.00    -0.358 N 
ATOM      5  H   UNL     1       5.696  48.338   7.395  1.00  0.00     0.344 HD
ATOM      6  H   UNL     1       5.636  49.572   8.582  1.00  0.00     0.344 HD
ATOM      7  H   UNL     1       5.086  48.003   8.940  1.00  0.00     0.344 HD
ENDBRANCH   3   4
ENDBRANCH   2   3
ENDBRANCH   1   2
BRANCH   1   8
ATOM      8  C   UNL     1       2.670  46.018   9.565  1.00  0.00     0.072 C 
BRANCH   8   9
ATOM      9  C   UNL     1       4.013  45.840  10.307  1.00  0.00     0.227 C 
BRANCH   9  10
ATOM     10  N   UNL     1       4.300  46.979  11.190  1.00  0.00    -0.350 N 
ATOM     11  H   UNL     1       3.512  47.121  11.861  1.00  0.00     0.345 HD
ATOM     12  H   UNL     1       4.393  47.854  10.624  1.00  0.00     0.345 HD
ATOM     13  H   UNL     1       5.186  46.822  11.724  1.00  0.00     0.345 HD
ENDBRANCH   9  10
BRANCH   9  14
ATOM     14  C   UNL     1       3.979  44.565  11.107  1.00  0.00     0.099 C 
ATOM     15  O   UNL     1       3.970  44.608  12.366  1.00  0.00    -0.544 OA
ATOM     16  O   UNL     1       3.979  43.333  10.464  1.00  0.00    -0.544 OA
ENDBRANCH   9  14
ENDBRANCH   8   9
ENDBRANCH   1   8
TORSDOF 7
ENDMDL
MODEL 8
REMARK VINA RESULT:    -4.139      3.122      3.724
REMARK INTER + INTRA:          -5.693
REMARK INTER:                  -5.125
REMARK INTRA:                  -0.568
REMARK UNBOUND:                -0.102
REMARK SMILES [NH3+]CCCC[C@@H]([NH3+])C(=O)[O-]
REMARK SMILES IDX 4 1 3 2 2 3 1 4 5 8 6 9 7 10 8 14 9 15 10 16
REMARK H PARENT 1 5 1 6 1 7 7 11 7 12 7 13
REMARK Flexibility Score: inf
ROOT
ATOM      1  C   UNL     1       1.471  44.354   9.389  1.00  0.00     0.012 C 
ENDROOT
BRANCH   1   2
ATOM      2  C   UNL     1       0.852  45.671   9.888  1.00  0.00     0.061 C 
BRANCH   2   3
ATOM      3  C   UNL     1       1.308  46.926   9.120  1.00  0.00     0.258 C 
BRANCH   3   4
ATOM      4  N   UNL     1       2.491  47.547   9.721  1.00  0.00    -0.358 N 
ATOM      5  H   UNL     1       3.241  46.833   9.862  1.00  0.00     0.344 HD
ATOM      6  H   UNL     1       2.843  48.324   9.116  1.00  0.00     0.344 HD
ATOM      7  H   UNL     1       2.231  47.938  10.655  1.00  0.00     0.344 HD
ENDBRANCH   3   4
ENDBRANCH   2   3
ENDBRANCH   1   2
BRANCH   1   8
ATOM      8  C   UNL     1       2.220  43.590  10.495  1.00  0.00     0.072 C 
BRANCH   8   9
ATOM      9  C   UNL     1       3.744  43.842  10.462  1.00  0.00     0.227 C 
BRANCH   9  10
ATOM     10  N   UNL     1       4.181  44.356   9.158  1.00  0.00    -0.350 N 
ATOM     11  H   UNL     1       5.155  44.037   8.954  1.00  0.00     0.345 HD
ATOM     12  H   UNL     1       4.188  45.402   9.172  1.00  0.00     0.345 HD
ATOM     13  H   UNL     1       3.542  44.030   8.395  1.00  0.00     0.345 HD
ENDBRANCH   9  10
BRANCH   9  14
ATOM     14  C   UNL     1       4.114  44.816  11.549  1.00  0.00     0.099 C 
ATOM     15  O   UNL     1       4.489  45.982  11.254  1.00  0.00    -0.544 OA
ATOM     16  O   UNL     1       4.067  44.430  12.884  1.00  0.00    -0.544 OA
ENDBRANCH   9  14
ENDBRANCH   8   9
ENDBRANCH   1   8
TORSDOF 7
ENDMDL
MODEL 9
REMARK VINA RESULT:    -4.093      3.221      5.050
REMARK INTER + INTRA:          -5.631
REMARK INTER:                  -5.430
REMARK INTRA:                  -0.202
REMARK UNBOUND:                -0.102
REMARK SMILES [NH3+]CCCC[C@@H]([NH3+])C(=O)[O-]
REMARK SMILES IDX 4 1 3 2 2 3 1 4 5 8 6 9 7 10 8 14 9 15 10 16
REMARK H PARENT 1 5 1 6 1 7 7 11 7 12 7 13
REMARK Flexibility Score: inf
ROOT
ATOM      1  C   UNL     1       2.850  43.971   9.480  1.00  0.00     0.012 C 
ENDROOT
BRANCH   1   2
ATOM      2  C   UNL     1       2.755  42.899  10.579  1.00  0.00     0.061 C 
BRANCH   2   3
ATOM      3  C   UNL     1       2.520  43.453  11.998  1.00  0.00     0.258 C 
BRANCH   3   4
ATOM      4  N   UNL     1       1.184  44.033  12.154  1.00  0.00    -0.358 N 
ATOM      5  H   UNL     1       0.771  44.246  11.218  1.00  0.00     0.344 HD
ATOM      6  H   UNL     1       0.562  43.379  12.682  1.00  0.00     0.344 HD
ATOM      7  H   UNL     1       1.264  44.928  12.689  1.00  0.00     0.344 HD
ENDBRANCH   3   4
ENDBRANCH   2   3
ENDBRANCH   1   2
BRANCH   1   8
ATOM      8  C   UNL     1       4.094  44.866   9.625  1.00  0.00     0.072 C 
BRANCH   8   9
ATOM      9  C   UNL     1       3.735  46.325   9.985  1.00  0.00     0.227 C 
BRANCH   9  10
ATOM     10  N   UNL     1       4.147  46.664  11.353  1.00  0.00    -0.350 N 
ATOM     11  H   UNL     1       5.166  46.897  11.375  1.00  0.00     0.345 HD
ATOM     12  H   UNL     1       3.999  45.842  11.983  1.00  0.00     0.345 HD
ATOM     13  H   UNL     1       3.598  47.477  11.718  1.00  0.00     0.345 HD
ENDBRANCH   9  10
BRANCH   9  14
ATOM     14  C   UNL     1       4.393  47.259   9.004  1.00  0.00     0.099 C 
ATOM     15  O   UNL     1       3.717  47.783   8.079  1.00  0.00    -0.544 OA
ATOM     16  O   UNL     1       5.752  47.533   9.098  1.00  0.00    -0.544 OA
ENDBRANCH   9  14
ENDBRANCH   8   9
ENDBRANCH   1   8
TORSDOF 7
ENDMDL
