MODEL 1
REMARK VINA RESULT:    -3.513      0.000      0.000
REMARK INTER + INTRA:          -5.682
REMARK INTER:                  -5.155
REMARK INTRA:                  -0.526
REMARK UNBOUND:                -0.526
REMARK SMILES O=C([O-])CCCCCCCC(=O)[O-]
REMARK SMILES IDX 7 1 6 2 5 3 4 4 2 5 1 6 3 7 8 8 9 9 10 10 11 11 12 12 13 13
REMARK H PARENT
REMARK Flexibility Score: inf
ROOT
ATOM      1  C   UNL     1      54.434  53.805  47.384  1.00  0.00     0.000 C 
ENDROOT
BRANCH   1   2
ATOM      2  C   UNL     1      55.016  54.276  46.040  1.00  0.00     0.000 C 
BRANCH   2   3
ATOM      3  C   UNL     1      54.160  55.350  45.338  1.00  0.00     0.006 C 
BRANCH   3   4
ATOM      4  C   UNL     1      52.862  55.650  46.102  1.00  0.00     0.053 C 
BRANCH   4   5
ATOM      5  C   UNL     1      51.878  56.342  45.213  1.00  0.00     0.041 C 
ATOM      6  O   UNL     1      50.753  56.687  45.661  1.00  0.00    -0.550 OA
ATOM      7  O   UNL     1      52.183  56.560  43.875  1.00  0.00    -0.550 OA
ENDBRANCH   4   5
ENDBRANCH   3   4
ENDBRANCH   2   3
ENDBRANCH   1   2
BRANCH   1   8
ATOM      8  C   UNL     1      53.892  52.370  47.329  1.00  0.00     0.000 C 
BRANCH   8   9
ATOM      9  C   UNL     1      52.551  52.259  48.065  1.00  0.00     0.006 C 
BRANCH   9  10
ATOM     10  C   UNL     1      52.422  53.343  49.139  1.00  0.00     0.053 C 
BRANCH  10  11
ATOM     11  C   UNL     1      52.211  52.724  50.485  1.00  0.00     0.041 C 
ATOM     12  O   UNL     1      52.285  51.475  50.627  1.00  0.00    -0.550 OA
ATOM     13  O   UNL     1      51.883  53.522  51.574  1.00  0.00    -0.550 OA
ENDBRANCH  10  11
ENDBRANCH   9  10
ENDBRANCH   8   9
ENDBRANCH   1   8
TORSDOF 8
ENDMDL
MODEL 2
REMARK VINA RESULT:    -3.415      0.559      5.699
REMARK INTER + INTRA:          -5.539
REMARK INTER:                  -5.118
REMARK INTRA:                  -0.421
REMARK UNBOUND:                -0.526
REMARK SMILES O=C([O-])CCCCCCCC(=O)[O-]
REMARK SMILES IDX 7 1 6 2 5 3 4 4 2 5 1 6 3 7 8 8 9 9 10 10 11 11 12 12 13 13
REMARK H PARENT
REMARK Flexibility Score: inf
ROOT
ATOM      1  C   UNL     1      54.156  54.074  47.298  1.00  0.00     0.000 C 
ENDROOT
BRANCH   1   2
ATOM      2  C   UNL     1      53.532  52.668  47.268  1.00  0.00     0.000 C 
BRANCH   2   3
ATOM      3  C   UNL     1      52.541  52.406  48.421  1.00  0.00     0.006 C 
BRANCH   3   4
ATOM      4  C   UNL     1      52.601  53.499  49.497  1.00  0.00     0.053 C 
BRANCH   4   5
ATOM      5  C   UNL     1      52.372  52.911  50.854  1.00  0.00     0.041 C 
ATOM      6  O   UNL     1      51.584  51.940  50.999  1.00  0.00    -0.550 OA
ATOM      7  O   UNL     1      52.990  53.468  51.966  1.00  0.00    -0.550 OA
ENDBRANCH   4   5
ENDBRANCH   3   4
ENDBRANCH   2   3
ENDBRANCH   1   2
BRANCH   1   8
ATOM      8  C   UNL     1      54.776  54.481  45.955  1.00  0.00     0.000 C 
BRANCH   8   9
ATOM      9  C   UNL     1      53.980  55.618  45.303  1.00  0.00     0.006 C 
BRANCH   9  10
ATOM     10  C   UNL     1      52.743  55.970  46.133  1.00  0.00     0.053 C 
BRANCH  10  11
ATOM     11  C   UNL     1      51.609  56.366  45.241  1.00  0.00     0.041 C 
ATOM     12  O   UNL     1      50.568  56.879  45.729  1.00  0.00    -0.550 OA
ATOM     13  O   UNL     1      51.682  56.125  43.875  1.00  0.00    -0.550 OA
ENDBRANCH  10  11
ENDBRANCH   9  10
ENDBRANCH   8   9
ENDBRANCH   1   8
TORSDOF 8
ENDMDL
MODEL 3
REMARK VINA RESULT:    -3.289      1.675      5.594
REMARK INTER + INTRA:          -5.353
REMARK INTER:                  -4.804
REMARK INTRA:                  -0.550
REMARK UNBOUND:                -0.526
REMARK SMILES O=C([O-])CCCCCCCC(=O)[O-]
REMARK SMILES IDX 7 1 6 2 5 3 4 4 2 5 1 6 3 7 8 8 9 9 10 10 11 11 12 12 13 13
REMARK H PARENT
REMARK Flexibility Score: inf
ROOT
ATOM      1  C   UNL     1      52.355  52.699  48.509  1.00  0.00     0.000 C 
ENDROOT
BRANCH   1   2
ATOM      2  C   UNL     1      52.657  52.004  49.848  1.00  0.00     0.000 C 
BRANCH   2   3
ATOM      3  C   UNL     1      51.851  52.571  51.034  1.00  0.00     0.006 C 
BRANCH   3   4
ATOM      4  C   UNL     1      52.739  53.328  52.031  1.00  0.00     0.053 C 
BRANCH   4   5
ATOM      5  C   UNL     1      52.942  54.741  51.584  1.00  0.00     0.041 C 
ATOM      6  O   UNL     1      51.956  55.516  51.469  1.00  0.00    -0.550 OA
ATOM      7  O   UNL     1      54.213  55.188  51.246  1.00  0.00    -0.550 OA
ENDBRANCH   4   5
ENDBRANCH   3   4
ENDBRANCH   2   3
ENDBRANCH   1   2
BRANCH   1   8
ATOM      8  C   UNL     1      53.560  53.466  47.949  1.00  0.00     0.000 C 
BRANCH   8   9
ATOM      9  C   UNL     1      53.223  54.948  47.745  1.00  0.00     0.006 C 
BRANCH   9  10
ATOM     10  C   UNL     1      53.106  55.286  46.256  1.00  0.00     0.053 C 
BRANCH  10  11
ATOM     11  C   UNL     1      52.085  56.357  46.040  1.00  0.00     0.041 C 
ATOM     12  O   UNL     1      51.286  56.284  45.070  1.00  0.00    -0.550 OA
ATOM     13  O   UNL     1      52.047  57.461  46.882  1.00  0.00    -0.550 OA
ENDBRANCH  10  11
ENDBRANCH   9  10
ENDBRANCH   8   9
ENDBRANCH   1   8
TORSDOF 8
ENDMDL
MODEL 4
REMARK VINA RESULT:    -3.270     12.296     15.066
REMARK INTER + INTRA:          -5.326
REMARK INTER:                  -5.058
REMARK INTRA:                  -0.268
REMARK UNBOUND:                -0.526
REMARK SMILES O=C([O-])CCCCCCCC(=O)[O-]
REMARK SMILES IDX 7 1 6 2 5 3 4 4 2 5 1 6 3 7 8 8 9 9 10 10 11 11 12 12 13 13
REMARK H PARENT
REMARK Flexibility Score: inf
ROOT
ATOM      1  C   UNL     1      50.430  54.813  60.951  1.00  0.00     0.000 C 
ENDROOT
BRANCH   1   2
ATOM      2  C   UNL     1      50.887  53.688  61.896  1.00  0.00     0.000 C 
BRANCH   2   3
ATOM      3  C   UNL     1      50.320  52.302  61.527  1.00  0.00     0.006 C 
BRANCH   3   4
ATOM      4  C   UNL     1      50.892  51.187  62.413  1.00  0.00     0.053 C 
BRANCH   4   5
ATOM      5  C   UNL     1      50.124  49.917  62.218  1.00  0.00     0.041 C 
ATOM      6  O   UNL     1      49.939  49.461  61.060  1.00  0.00    -0.550 OA
ATOM      7  O   UNL     1      49.571  49.265  63.313  1.00  0.00    -0.550 OA
ENDBRANCH   4   5
ENDBRANCH   3   4
ENDBRANCH   2   3
ENDBRANCH   1   2
BRANCH   1   8
ATOM      8  C   UNL     1      49.739  55.968  61.689  1.00  0.00     0.000 C 
BRANCH   8   9
ATOM      9  C   UNL     1      49.011  56.893  60.705  1.00  0.00     0.006 C 
BRANCH   9  10
ATOM     10  C   UNL     1      49.487  56.654  59.270  1.00  0.00     0.053 C 
BRANCH  10  11
ATOM     11  C   UNL     1      49.889  57.944  58.629  1.00  0.00     0.041 C 
ATOM     12  O   UNL     1      50.685  58.723  59.217  1.00  0.00    -0.550 OA
ATOM     13  O   UNL     1      49.346  58.311  57.404  1.00  0.00    -0.550 OA
ENDBRANCH  10  11
ENDBRANCH   9  10
ENDBRANCH   8   9
ENDBRANCH   1   8
TORSDOF 8
ENDMDL
MODEL 5
REMARK VINA RESULT:    -3.258      1.749      2.682
REMARK INTER + INTRA:          -5.308
REMARK INTER:                  -4.960
REMARK INTRA:                  -0.348
REMARK UNBOUND:                -0.526
REMARK SMILES O=C([O-])CCCCCCCC(=O)[O-]
REMARK SMILES IDX 7 1 6 2 5 3 4 4 2 5 1 6 3 7 8 8 9 9 10 10 11 11 12 12 13 13
REMARK H PARENT
REMARK Flexibility Score: inf
ROOT
ATOM      1  C   UNL     1      52.793  52.242  48.544  1.00  0.00     0.000 C 
ENDROOT
BRANCH   1   2
ATOM      2  C   UNL     1      53.290  53.080  47.353  1.00  0.00     0.000 C 
BRANCH   2   3
ATOM      3  C   UNL     1      53.073  54.597  47.530  1.00  0.00     0.006 C 
BRANCH   3   4
ATOM      4  C   UNL     1      53.242  55.365  46.212  1.00  0.00     0.053 C 
BRANCH   4   5
ATOM      5  C   UNL     1      52.212  56.444  46.098  1.00  0.00     0.041 C 
ATOM      6  O   UNL     1      52.219  57.414  46.901  1.00  0.00    -0.550 OA
ATOM      7  O   UNL     1      51.213  56.353  45.136  1.00  0.00    -0.550 OA
ENDBRANCH   4   5
ENDBRANCH   3   4
ENDBRANCH   2   3
ENDBRANCH   1   2
BRANCH   1   8
ATOM      8  C   UNL     1      52.279  53.103  49.706  1.00  0.00     0.000 C 
BRANCH   8   9
ATOM      9  C   UNL     1      52.134  52.271  50.986  1.00  0.00     0.006 C 
BRANCH   9  10
ATOM     10  C   UNL     1      52.444  50.795  50.721  1.00  0.00     0.053 C 
BRANCH  10  11
ATOM     11  C   UNL     1      53.472  50.295  51.685  1.00  0.00     0.041 C 
ATOM     12  O   UNL     1      54.200  51.107  52.314  1.00  0.00    -0.550 OA
ATOM     13  O   UNL     1      53.659  48.929  51.855  1.00  0.00    -0.550 OA
ENDBRANCH  10  11
ENDBRANCH   9  10
ENDBRANCH   8   9
ENDBRANCH   1   8
TORSDOF 8
ENDMDL
MODEL 6
REMARK VINA RESULT:    -3.247      1.097      1.701
REMARK INTER + INTRA:          -5.292
REMARK INTER:                  -4.911
REMARK INTRA:                  -0.381
REMARK UNBOUND:                -0.526
REMARK SMILES O=C([O-])CCCCCCCC(=O)[O-]
REMARK SMILES IDX 7 1 6 2 5 3 4 4 2 5 1 6 3 7 8 8 9 9 10 10 11 11 12 12 13 13
REMARK H PARENT
REMARK Flexibility Score: inf
ROOT
ATOM      1  C   UNL     1      53.227  52.803  47.263  1.00  0.00     0.000 C 
ENDROOT
BRANCH   1   2
ATOM      2  C   UNL     1      54.172  54.017  47.240  1.00  0.00     0.000 C 
BRANCH   2   3
ATOM      3  C   UNL     1      53.849  55.032  46.124  1.00  0.00     0.006 C 
BRANCH   3   4
ATOM      4  C   UNL     1      52.592  55.856  46.435  1.00  0.00     0.053 C 
BRANCH   4   5
ATOM      5  C   UNL     1      51.936  56.310  45.170  1.00  0.00     0.041 C 
ATOM      6  O   UNL     1      50.733  56.681  45.178  1.00  0.00    -0.550 OA
ATOM      7  O   UNL     1      52.638  56.276  43.972  1.00  0.00    -0.550 OA
ENDBRANCH   4   5
ENDBRANCH   3   4
ENDBRANCH   2   3
ENDBRANCH   1   2
BRANCH   1   8
ATOM      8  C   UNL     1      52.987  52.260  48.678  1.00  0.00     0.000 C 
BRANCH   8   9
ATOM      9  C   UNL     1      52.381  53.337  49.586  1.00  0.00     0.006 C 
BRANCH   9  10
ATOM     10  C   UNL     1      51.989  52.753  50.946  1.00  0.00     0.053 C 
BRANCH  10  11
ATOM     11  C   UNL     1      52.983  53.149  51.992  1.00  0.00     0.041 C 
ATOM     12  O   UNL     1      53.088  54.354  52.342  1.00  0.00    -0.550 OA
ATOM     13  O   UNL     1      53.827  52.195  52.545  1.00  0.00    -0.550 OA
ENDBRANCH  10  11
ENDBRANCH   9  10
ENDBRANCH   8   9
ENDBRANCH   1   8
TORSDOF 8
ENDMDL
MODEL 7
REMARK VINA RESULT:    -3.126      1.194      1.509
REMARK INTER + INTRA:          -5.114
REMARK INTER:                  -4.477
REMARK INTRA:                  -0.637
REMARK UNBOUND:                -0.526
REMARK SMILES O=C([O-])CCCCCCCC(=O)[O-]
REMARK SMILES IDX 7 1 6 2 5 3 4 4 2 5 1 6 3 7 8 8 9 9 10 10 11 11 12 12 13 13
REMARK H PARENT
REMARK Flexibility Score: inf
ROOT
ATOM      1  C   UNL     1      54.720  53.822  47.945  1.00  0.00     0.000 C 
ENDROOT
BRANCH   1   2
ATOM      2  C   UNL     1      55.112  54.848  46.867  1.00  0.00     0.000 C 
BRANCH   2   3
ATOM      3  C   UNL     1      54.052  55.017  45.760  1.00  0.00     0.006 C 
BRANCH   3   4
ATOM      4  C   UNL     1      52.772  55.687  46.279  1.00  0.00     0.053 C 
BRANCH   4   5
ATOM      5  C   UNL     1      52.969  57.164  46.412  1.00  0.00     0.041 C 
ATOM      6  O   UNL     1      52.372  57.803  47.317  1.00  0.00    -0.550 OA
ATOM      7  O   UNL     1      53.774  57.842  45.506  1.00  0.00    -0.550 OA
ENDBRANCH   4   5
ENDBRANCH   3   4
ENDBRANCH   2   3
ENDBRANCH   1   2
BRANCH   1   8
ATOM      8  C   UNL     1      54.118  52.539  47.357  1.00  0.00     0.000 C 
BRANCH   8   9
ATOM      9  C   UNL     1      52.729  52.262  47.945  1.00  0.00     0.006 C 
BRANCH   9  10
ATOM     10  C   UNL     1      52.430  53.203  49.115  1.00  0.00     0.053 C 
BRANCH  10  11
ATOM     11  C   UNL     1      52.158  52.421  50.361  1.00  0.00     0.041 C 
ATOM     12  O   UNL     1      51.595  52.970  51.344  1.00  0.00    -0.550 OA
ATOM     13  O   UNL     1      52.569  51.097  50.454  1.00  0.00    -0.550 OA
ENDBRANCH  10  11
ENDBRANCH   9  10
ENDBRANCH   8   9
ENDBRANCH   1   8
TORSDOF 8
ENDMDL
MODEL 8
REMARK VINA RESULT:    -3.108     13.040     14.294
REMARK INTER + INTRA:          -5.088
REMARK INTER:                  -4.824
REMARK INTRA:                  -0.264
REMARK UNBOUND:                -0.526
REMARK SMILES O=C([O-])CCCCCCCC(=O)[O-]
REMARK SMILES IDX 7 1 6 2 5 3 4 4 2 5 1 6 3 7 8 8 9 9 10 10 11 11 12 12 13 13
REMARK H PARENT
REMARK Flexibility Score: inf
ROOT
ATOM      1  C   UNL     1      50.397  52.274  61.665  1.00  0.00     0.000 C 
ENDROOT
BRANCH   1   2
ATOM      2  C   UNL     1      51.139  53.594  61.395  1.00  0.00     0.000 C 
BRANCH   2   3
ATOM      3  C   UNL     1      50.206  54.818  61.293  1.00  0.00     0.006 C 
BRANCH   3   4
ATOM      4  C   UNL     1      50.733  55.871  60.308  1.00  0.00     0.053 C 
BRANCH   4   5
ATOM      5  C   UNL     1      49.608  56.695  59.768  1.00  0.00     0.041 C 
ATOM      6  O   UNL     1      49.629  57.090  58.573  1.00  0.00    -0.550 OA
ATOM      7  O   UNL     1      48.560  57.069  60.600  1.00  0.00    -0.550 OA
ENDBRANCH   4   5
ENDBRANCH   3   4
ENDBRANCH   2   3
ENDBRANCH   1   2
BRANCH   1   8
ATOM      8  C   UNL     1      51.059  51.431  62.764  1.00  0.00     0.000 C 
BRANCH   8   9
ATOM      9  C   UNL     1      50.358  50.075  62.915  1.00  0.00     0.006 C 
BRANCH   9  10
ATOM     10  C   UNL     1      49.982  49.495  61.550  1.00  0.00     0.053 C 
BRANCH  10  11
ATOM     11  C   UNL     1      50.989  48.477  61.118  1.00  0.00     0.041 C 
ATOM     12  O   UNL     1      51.907  48.794  60.316  1.00  0.00    -0.550 OA
ATOM     13  O   UNL     1      50.885  47.165  61.561  1.00  0.00    -0.550 OA
ENDBRANCH  10  11
ENDBRANCH   9  10
ENDBRANCH   8   9
ENDBRANCH   1   8
TORSDOF 8
ENDMDL
MODEL 9
REMARK VINA RESULT:    -3.009      1.746      5.640
REMARK INTER + INTRA:          -4.942
REMARK INTER:                  -4.311
REMARK INTRA:                  -0.631
REMARK UNBOUND:                -0.526
REMARK SMILES O=C([O-])CCCCCCCC(=O)[O-]
REMARK SMILES IDX 7 1 6 2 5 3 4 4 2 5 1 6 3 7 8 8 9 9 10 10 11 11 12 12 13 13
REMARK H PARENT
REMARK Flexibility Score: inf
ROOT
ATOM      1  C   UNL     1      54.470  54.100  47.382  1.00  0.00     0.000 C 
ENDROOT
BRANCH   1   2
ATOM      2  C   UNL     1      54.055  52.626  47.236  1.00  0.00     0.000 C 
BRANCH   2   3
ATOM      3  C   UNL     1      52.705  52.294  47.905  1.00  0.00     0.006 C 
BRANCH   3   4
ATOM      4  C   UNL     1      52.383  53.244  49.066  1.00  0.00     0.053 C 
BRANCH   4   5
ATOM      5  C   UNL     1      52.250  52.482  50.346  1.00  0.00     0.041 C 
ATOM      6  O   UNL     1      52.685  51.303  50.430  1.00  0.00    -0.550 OA
ATOM      7  O   UNL     1      51.600  53.055  51.432  1.00  0.00    -0.550 OA
ENDBRANCH   4   5
ENDBRANCH   3   4
ENDBRANCH   2   3
ENDBRANCH   1   2
BRANCH   1   8
ATOM      8  C   UNL     1      54.467  54.856  46.047  1.00  0.00     0.000 C 
BRANCH   8   9
ATOM      9  C   UNL     1      53.107  55.516  45.790  1.00  0.00     0.006 C 
BRANCH   9  10
ATOM     10  C   UNL     1      52.893  56.715  46.718  1.00  0.00     0.053 C 
BRANCH  10  11
ATOM     11  C   UNL     1      53.953  57.747  46.494  1.00  0.00     0.041 C 
ATOM     12  O   UNL     1      54.107  58.260  45.354  1.00  0.00    -0.550 OA
ATOM     13  O   UNL     1      54.804  58.106  47.531  1.00  0.00    -0.550 OA
ENDBRANCH  10  11
ENDBRANCH   9  10
ENDBRANCH   8   9
ENDBRANCH   1   8
TORSDOF 8
ENDMDL
