MODEL 1
REMARK VINA RESULT:    -5.266      0.000      0.000
REMARK INTER + INTRA:          -6.841
REMARK INTER:                  -6.498
REMARK INTRA:                  -0.343
REMARK UNBOUND:                -0.343
REMARK SMILES COC(=O)c1ccccc1C(=O)OC
REMARK SMILES IDX 5 1 6 2 7 3 8 4 9 5 10 6 3 7 4 8 2 9 1 10 11 11 12 12 13 13
REMARK SMILES IDX 14 14
REMARK H PARENT
REMARK Flexibility Score: inf
ROOT
ATOM      1  C   UNL     1       7.219  -1.915  47.741  1.00  0.00     0.074 A 
ATOM      2  C   UNL     1       8.413  -2.176  47.043  1.00  0.00     0.016 A 
ATOM      3  C   UNL     1       9.511  -2.741  47.693  1.00  0.00     0.001 A 
ATOM      4  C   UNL     1       9.436  -3.052  49.049  1.00  0.00     0.001 A 
ATOM      5  C   UNL     1       8.255  -2.823  49.755  1.00  0.00     0.016 A 
ATOM      6  C   UNL     1       7.127  -2.275  49.113  1.00  0.00     0.074 A 
ENDROOT
BRANCH   1   7
ATOM      7  C   UNL     1       6.135  -1.212  47.019  1.00  0.00     0.338 C 
ATOM      8  O   UNL     1       6.233   0.021  46.769  1.00  0.00    -0.246 OA
BRANCH   7   9
ATOM      9  O   UNL     1       5.027  -1.934  46.566  1.00  0.00    -0.465 OA
ATOM     10  C   UNL     1       5.142  -3.209  45.948  1.00  0.00     0.282 C 
ENDBRANCH   7   9
ENDBRANCH   1   7
BRANCH   6  11
ATOM     11  C   UNL     1       5.868  -2.165  49.885  1.00  0.00     0.338 C 
ATOM     12  O   UNL     1       5.748  -1.270  50.766  1.00  0.00    -0.246 OA
BRANCH  11  13
ATOM     13  O   UNL     1       4.836  -3.086  49.675  1.00  0.00    -0.465 OA
ATOM     14  C   UNL     1       4.723  -4.295  50.418  1.00  0.00     0.282 C 
ENDBRANCH  11  13
ENDBRANCH   6  11
TORSDOF 4
ENDMDL
MODEL 2
REMARK VINA RESULT:    -5.231      2.162      3.888
REMARK INTER + INTRA:          -6.797
REMARK INTER:                  -6.432
REMARK INTRA:                  -0.365
REMARK UNBOUND:                -0.343
REMARK SMILES COC(=O)c1ccccc1C(=O)OC
REMARK SMILES IDX 5 1 6 2 7 3 8 4 9 5 10 6 3 7 4 8 2 9 1 10 11 11 12 12 13 13
REMARK SMILES IDX 14 14
REMARK H PARENT
REMARK Flexibility Score: inf
ROOT
ATOM      1  C   UNL     1       6.714  -1.957  49.102  1.00  0.00     0.074 A 
ATOM      2  C   UNL     1       5.734  -1.217  48.416  1.00  0.00     0.016 A 
ATOM      3  C   UNL     1       5.939  -0.808  47.098  1.00  0.00     0.001 A 
ATOM      4  C   UNL     1       7.126  -1.132  46.444  1.00  0.00     0.001 A 
ATOM      5  C   UNL     1       8.102  -1.885  47.096  1.00  0.00     0.016 A 
ATOM      6  C   UNL     1       7.906  -2.326  48.419  1.00  0.00     0.074 A 
ENDROOT
BRANCH   1   7
ATOM      7  C   UNL     1       6.480  -2.258  50.532  1.00  0.00     0.338 C 
ATOM      8  O   UNL     1       7.137  -1.657  51.425  1.00  0.00    -0.246 OA
BRANCH   7   9
ATOM      9  O   UNL     1       5.485  -3.174  50.890  1.00  0.00    -0.465 OA
ATOM     10  C   UNL     1       5.692  -4.580  50.866  1.00  0.00     0.282 C 
ENDBRANCH   7   9
ENDBRANCH   1   7
BRANCH   6  11
ATOM     11  C   UNL     1       8.925  -3.219  49.016  1.00  0.00     0.338 C 
ATOM     12  O   UNL     1      10.041  -2.751  49.371  1.00  0.00    -0.246 OA
BRANCH  11  13
ATOM     13  O   UNL     1       8.669  -4.590  49.137  1.00  0.00    -0.465 OA
ATOM     14  C   UNL     1       8.460  -5.434  48.011  1.00  0.00     0.282 C 
ENDBRANCH  11  13
ENDBRANCH   6  11
TORSDOF 4
ENDMDL
MODEL 3
REMARK VINA RESULT:    -5.222      2.196      3.175
REMARK INTER + INTRA:          -6.787
REMARK INTER:                  -6.462
REMARK INTRA:                  -0.325
REMARK UNBOUND:                -0.343
REMARK SMILES COC(=O)c1ccccc1C(=O)OC
REMARK SMILES IDX 5 1 6 2 7 3 8 4 9 5 10 6 3 7 4 8 2 9 1 10 11 11 12 12 13 13
REMARK SMILES IDX 14 14
REMARK H PARENT
REMARK Flexibility Score: inf
ROOT
ATOM      1  C   UNL     1       7.941  -2.324  48.442  1.00  0.00     0.074 A 
ATOM      2  C   UNL     1       8.145  -1.767  47.167  1.00  0.00     0.016 A 
ATOM      3  C   UNL     1       7.159  -0.985  46.564  1.00  0.00     0.001 A 
ATOM      4  C   UNL     1       5.955  -0.747  47.225  1.00  0.00     0.001 A 
ATOM      5  C   UNL     1       5.742  -1.270  48.500  1.00  0.00     0.016 A 
ATOM      6  C   UNL     1       6.732  -2.043  49.136  1.00  0.00     0.074 A 
ENDROOT
BRANCH   1   7
ATOM      7  C   UNL     1       8.980  -3.235  48.973  1.00  0.00     0.338 C 
ATOM      8  O   UNL     1      10.087  -2.776  49.370  1.00  0.00    -0.246 OA
BRANCH   7   9
ATOM      9  O   UNL     1       8.707  -4.602  49.086  1.00  0.00    -0.465 OA
ATOM     10  C   UNL     1       8.500  -5.439  47.955  1.00  0.00     0.282 C 
ENDBRANCH   7   9
ENDBRANCH   1   7
BRANCH   6  11
ATOM     11  C   UNL     1       6.494  -2.471  50.533  1.00  0.00     0.338 C 
ATOM     12  O   UNL     1       6.735  -1.676  51.483  1.00  0.00    -0.246 OA
BRANCH  11  13
ATOM     13  O   UNL     1       6.055  -3.772  50.801  1.00  0.00    -0.465 OA
ATOM     14  C   UNL     1       4.774  -4.247  50.403  1.00  0.00     0.282 C 
ENDBRANCH  11  13
ENDBRANCH   6  11
TORSDOF 4
ENDMDL
MODEL 4
REMARK VINA RESULT:    -5.197      0.101      3.145
REMARK INTER + INTRA:          -6.756
REMARK INTER:                  -6.395
REMARK INTRA:                  -0.361
REMARK UNBOUND:                -0.343
REMARK SMILES COC(=O)c1ccccc1C(=O)OC
REMARK SMILES IDX 5 1 6 2 7 3 8 4 9 5 10 6 3 7 4 8 2 9 1 10 11 11 12 12 13 13
REMARK SMILES IDX 14 14
REMARK H PARENT
REMARK Flexibility Score: inf
ROOT
ATOM      1  C   UNL     1       7.146  -2.311  49.082  1.00  0.00     0.074 A 
ATOM      2  C   UNL     1       8.267  -2.836  49.751  1.00  0.00     0.016 A 
ATOM      3  C   UNL     1       9.462  -3.066  49.069  1.00  0.00     0.001 A 
ATOM      4  C   UNL     1       9.558  -2.776  47.709  1.00  0.00     0.001 A 
ATOM      5  C   UNL     1       8.467  -2.232  47.031  1.00  0.00     0.016 A 
ATOM      6  C   UNL     1       7.258  -1.972  47.705  1.00  0.00     0.074 A 
ENDROOT
BRANCH   1   7
ATOM      7  C   UNL     1       5.878  -2.199  49.837  1.00  0.00     0.338 C 
ATOM      8  O   UNL     1       5.704  -1.251  50.652  1.00  0.00    -0.246 OA
BRANCH   7   9
ATOM      9  O   UNL     1       4.851  -3.119  49.602  1.00  0.00    -0.465 OA
ATOM     10  C   UNL     1       4.796  -4.388  50.241  1.00  0.00     0.282 C 
ENDBRANCH   7   9
ENDBRANCH   1   7
BRANCH   6  11
ATOM     11  C   UNL     1       6.176  -1.287  46.961  1.00  0.00     0.338 C 
ATOM     12  O   UNL     1       6.248  -0.045  46.750  1.00  0.00    -0.246 OA
BRANCH  11  13
ATOM     13  O   UNL     1       5.053  -2.006  46.539  1.00  0.00    -0.465 OA
ATOM     14  C   UNL     1       5.133  -3.343  46.059  1.00  0.00     0.282 C 
ENDBRANCH  11  13
ENDBRANCH   6  11
TORSDOF 4
ENDMDL
MODEL 5
REMARK VINA RESULT:    -5.195      1.538      2.809
REMARK INTER + INTRA:          -6.754
REMARK INTER:                  -6.333
REMARK INTRA:                  -0.421
REMARK UNBOUND:                -0.343
REMARK SMILES COC(=O)c1ccccc1C(=O)OC
REMARK SMILES IDX 5 1 6 2 7 3 8 4 9 5 10 6 3 7 4 8 2 9 1 10 11 11 12 12 13 13
REMARK SMILES IDX 14 14
REMARK H PARENT
REMARK Flexibility Score: inf
ROOT
ATOM      1  C   UNL     1       7.067  -3.774  47.954  1.00  0.00     0.074 A 
ATOM      2  C   UNL     1       8.117  -4.696  47.787  1.00  0.00     0.016 A 
ATOM      3  C   UNL     1       9.422  -4.365  48.151  1.00  0.00     0.001 A 
ATOM      4  C   UNL     1       9.700  -3.109  48.687  1.00  0.00     0.001 A 
ATOM      5  C   UNL     1       8.672  -2.189  48.884  1.00  0.00     0.016 A 
ATOM      6  C   UNL     1       7.343  -2.510  48.544  1.00  0.00     0.074 A 
ENDROOT
BRANCH   1   7
ATOM      7  C   UNL     1       5.729  -4.148  47.442  1.00  0.00     0.338 C 
ATOM      8  O   UNL     1       5.352  -3.757  46.303  1.00  0.00    -0.246 OA
BRANCH   7   9
ATOM      9  O   UNL     1       4.908  -4.984  48.204  1.00  0.00    -0.465 OA
ATOM     10  C   UNL     1       4.209  -4.531  49.357  1.00  0.00     0.282 C 
ENDBRANCH   7   9
ENDBRANCH   1   7
BRANCH   6  11
ATOM     11  C   UNL     1       6.280  -1.538  48.884  1.00  0.00     0.338 C 
ATOM     12  O   UNL     1       5.840  -1.476  50.065  1.00  0.00    -0.246 OA
BRANCH  11  13
ATOM     13  O   UNL     1       5.727  -0.727  47.886  1.00  0.00    -0.465 OA
ATOM     14  C   UNL     1       6.500  -0.184  46.822  1.00  0.00     0.282 C 
ENDBRANCH  11  13
ENDBRANCH   6  11
TORSDOF 4
ENDMDL
MODEL 6
REMARK VINA RESULT:    -5.192      2.311      3.987
REMARK INTER + INTRA:          -6.749
REMARK INTER:                  -6.356
REMARK INTRA:                  -0.393
REMARK UNBOUND:                -0.343
REMARK SMILES COC(=O)c1ccccc1C(=O)OC
REMARK SMILES IDX 5 1 6 2 7 3 8 4 9 5 10 6 3 7 4 8 2 9 1 10 11 11 12 12 13 13
REMARK SMILES IDX 14 14
REMARK H PARENT
REMARK Flexibility Score: inf
ROOT
ATOM      1  C   UNL     1       7.333  -2.036  47.963  1.00  0.00     0.074 A 
ATOM      2  C   UNL     1       7.097  -0.730  47.496  1.00  0.00     0.016 A 
ATOM      3  C   UNL     1       6.182  -0.493  46.470  1.00  0.00     0.001 A 
ATOM      4  C   UNL     1       5.489  -1.555  45.893  1.00  0.00     0.001 A 
ATOM      5  C   UNL     1       5.689  -2.855  46.357  1.00  0.00     0.016 A 
ATOM      6  C   UNL     1       6.591  -3.114  47.407  1.00  0.00     0.074 A 
ENDROOT
BRANCH   1   7
ATOM      7  C   UNL     1       8.397  -2.228  48.974  1.00  0.00     0.338 C 
ATOM      8  O   UNL     1       9.606  -2.299  48.619  1.00  0.00    -0.246 OA
BRANCH   7   9
ATOM      9  O   UNL     1       8.060  -2.275  50.330  1.00  0.00    -0.465 OA
ATOM     10  C   UNL     1       6.773  -1.915  50.814  1.00  0.00     0.282 C 
ENDBRANCH   7   9
ENDBRANCH   1   7
BRANCH   6  11
ATOM     11  C   UNL     1       6.673  -4.496  47.933  1.00  0.00     0.338 C 
ATOM     12  O   UNL     1       5.999  -4.822  48.949  1.00  0.00    -0.246 OA
BRANCH  11  13
ATOM     13  O   UNL     1       7.537  -5.422  47.337  1.00  0.00    -0.465 OA
ATOM     14  C   UNL     1       8.807  -5.752  47.887  1.00  0.00     0.282 C 
ENDBRANCH  11  13
ENDBRANCH   6  11
TORSDOF 4
ENDMDL
MODEL 7
REMARK VINA RESULT:    -5.171      1.571      2.622
REMARK INTER + INTRA:          -6.724
REMARK INTER:                  -6.324
REMARK INTRA:                  -0.400
REMARK UNBOUND:                -0.343
REMARK SMILES COC(=O)c1ccccc1C(=O)OC
REMARK SMILES IDX 5 1 6 2 7 3 8 4 9 5 10 6 3 7 4 8 2 9 1 10 11 11 12 12 13 13
REMARK SMILES IDX 14 14
REMARK H PARENT
REMARK Flexibility Score: inf
ROOT
ATOM      1  C   UNL     1       7.336  -2.504  48.561  1.00  0.00     0.074 A 
ATOM      2  C   UNL     1       8.639  -2.097  48.903  1.00  0.00     0.016 A 
ATOM      3  C   UNL     1       9.728  -2.946  48.703  1.00  0.00     0.001 A 
ATOM      4  C   UNL     1       9.534  -4.214  48.159  1.00  0.00     0.001 A 
ATOM      5  C   UNL     1       8.255  -4.629  47.789  1.00  0.00     0.016 A 
ATOM      6  C   UNL     1       7.145  -3.779  47.962  1.00  0.00     0.074 A 
ENDROOT
BRANCH   1   7
ATOM      7  C   UNL     1       6.216  -1.599  48.904  1.00  0.00     0.338 C 
ATOM      8  O   UNL     1       5.782  -1.545  50.088  1.00  0.00    -0.246 OA
BRANCH   7   9
ATOM      9  O   UNL     1       5.677  -0.764  47.921  1.00  0.00    -0.465 OA
ATOM     10  C   UNL     1       6.442  -0.276  46.825  1.00  0.00     0.282 C 
ENDBRANCH   7   9
ENDBRANCH   1   7
BRANCH   6  11
ATOM     11  C   UNL     1       5.832  -4.229  47.443  1.00  0.00     0.338 C 
ATOM     12  O   UNL     1       5.430  -3.827  46.317  1.00  0.00    -0.246 OA
BRANCH  11  13
ATOM     13  O   UNL     1       5.018  -5.056  48.225  1.00  0.00    -0.465 OA
ATOM     14  C   UNL     1       3.883  -4.570  48.931  1.00  0.00     0.282 C 
ENDBRANCH  11  13
ENDBRANCH   6  11
TORSDOF 4
ENDMDL
MODEL 8
REMARK VINA RESULT:    -5.147      2.144      3.558
REMARK INTER + INTRA:          -6.694
REMARK INTER:                  -6.315
REMARK INTRA:                  -0.379
REMARK UNBOUND:                -0.343
REMARK SMILES COC(=O)c1ccccc1C(=O)OC
REMARK SMILES IDX 5 1 6 2 7 3 8 4 9 5 10 6 3 7 4 8 2 9 1 10 11 11 12 12 13 13
REMARK SMILES IDX 14 14
REMARK H PARENT
REMARK Flexibility Score: inf
ROOT
ATOM      1  C   UNL     1       7.086  -2.560  48.504  1.00  0.00     0.074 A 
ATOM      2  C   UNL     1       7.297  -2.011  49.782  1.00  0.00     0.016 A 
ATOM      3  C   UNL     1       6.419  -2.286  50.831  1.00  0.00     0.001 A 
ATOM      4  C   UNL     1       5.318  -3.114  50.621  1.00  0.00     0.001 A 
ATOM      5  C   UNL     1       5.103  -3.688  49.369  1.00  0.00     0.016 A 
ATOM      6  C   UNL     1       5.989  -3.441  48.302  1.00  0.00     0.074 A 
ENDROOT
BRANCH   1   7
ATOM      7  C   UNL     1       7.990  -2.136  47.411  1.00  0.00     0.338 C 
ATOM      8  O   UNL     1       9.141  -2.641  47.304  1.00  0.00    -0.246 OA
BRANCH   7   9
ATOM      9  O   UNL     1       7.539  -1.212  46.462  1.00  0.00    -0.465 OA
ATOM     10  C   UNL     1       6.699  -0.116  46.798  1.00  0.00     0.282 C 
ENDBRANCH   7   9
ENDBRANCH   1   7
BRANCH   6  11
ATOM     11  C   UNL     1       5.774  -4.171  47.032  1.00  0.00     0.338 C 
ATOM     12  O   UNL     1       5.160  -3.612  46.081  1.00  0.00    -0.246 OA
BRANCH  11  13
ATOM     13  O   UNL     1       6.204  -5.497  46.906  1.00  0.00    -0.465 OA
ATOM     14  C   UNL     1       7.441  -5.957  47.436  1.00  0.00     0.282 C 
ENDBRANCH  11  13
ENDBRANCH   6  11
TORSDOF 4
ENDMDL
MODEL 9
REMARK VINA RESULT:    -5.144      1.977      3.836
REMARK INTER + INTRA:          -6.690
REMARK INTER:                  -6.260
REMARK INTRA:                  -0.430
REMARK UNBOUND:                -0.343
REMARK SMILES COC(=O)c1ccccc1C(=O)OC
REMARK SMILES IDX 5 1 6 2 7 3 8 4 9 5 10 6 3 7 4 8 2 9 1 10 11 11 12 12 13 13
REMARK SMILES IDX 14 14
REMARK H PARENT
REMARK Flexibility Score: inf
ROOT
ATOM      1  C   UNL     1       6.174  -3.042  47.758  1.00  0.00     0.074 A 
ATOM      2  C   UNL     1       5.473  -2.818  46.559  1.00  0.00     0.016 A 
ATOM      3  C   UNL     1       5.519  -1.575  45.926  1.00  0.00     0.001 A 
ATOM      4  C   UNL     1       6.266  -0.537  46.480  1.00  0.00     0.001 A 
ATOM      5  C   UNL     1       6.989  -0.744  47.654  1.00  0.00     0.016 A 
ATOM      6  C   UNL     1       6.974  -1.996  48.298  1.00  0.00     0.074 A 
ENDROOT
BRANCH   1   7
ATOM      7  C   UNL     1       5.990  -4.345  48.435  1.00  0.00     0.338 C 
ATOM      8  O   UNL     1       6.669  -5.348  48.081  1.00  0.00    -0.246 OA
BRANCH   7   9
ATOM      9  O   UNL     1       5.099  -4.445  49.508  1.00  0.00    -0.465 OA
ATOM     10  C   UNL     1       5.456  -5.040  50.749  1.00  0.00     0.282 C 
ENDBRANCH   7   9
ENDBRANCH   1   7
BRANCH   6  11
ATOM     11  C   UNL     1       7.852  -2.189  49.474  1.00  0.00     0.338 C 
ATOM     12  O   UNL     1       7.379  -2.073  50.638  1.00  0.00    -0.246 OA
BRANCH  11  13
ATOM     13  O   UNL     1       9.216  -2.444  49.294  1.00  0.00    -0.465 OA
ATOM     14  C   UNL     1       9.697  -3.578  48.581  1.00  0.00     0.282 C 
ENDBRANCH  11  13
ENDBRANCH   6  11
TORSDOF 4
ENDMDL
