MODEL 1
REMARK VINA RESULT:    -2.750      0.000      0.000
REMARK INTER + INTRA:          -4.185
REMARK INTER:                  -4.036
REMARK INTRA:                  -0.149
REMARK UNBOUND:                -0.149
REMARK SMILES O=C([O-])CCCCCCCC(=O)[O-]
REMARK SMILES IDX 7 1 6 2 5 3 4 4 2 5 1 6 3 7 8 8 9 9 10 10 11 11 12 12 13 13
REMARK H PARENT
REMARK Flexibility Score: inf
ROOT
ATOM      1  C   UNL     1     -27.868   7.954  -2.356  1.00  0.00     0.000 C 
ENDROOT
BRANCH   1   2
ATOM      2  C   UNL     1     -28.568   7.913  -3.726  1.00  0.00     0.000 C 
BRANCH   2   3
ATOM      3  C   UNL     1     -27.820   8.708  -4.807  1.00  0.00     0.006 C 
BRANCH   3   4
ATOM      4  C   UNL     1     -26.631   7.911  -5.350  1.00  0.00     0.053 C 
BRANCH   4   5
ATOM      5  C   UNL     1     -26.028   8.607  -6.529  1.00  0.00     0.041 C 
ATOM      6  O   UNL     1     -24.894   8.265  -6.956  1.00  0.00    -0.550 OA
ATOM      7  O   UNL     1     -26.696   9.670  -7.125  1.00  0.00    -0.550 OA
ENDBRANCH   4   5
ENDBRANCH   3   4
ENDBRANCH   2   3
ENDBRANCH   1   2
BRANCH   1   8
ATOM      8  C   UNL     1     -28.734   7.498  -1.167  1.00  0.00     0.000 C 
BRANCH   8   9
ATOM      9  C   UNL     1     -30.125   7.003  -1.595  1.00  0.00     0.006 C 
BRANCH   9  10
ATOM     10  C   UNL     1     -30.856   6.275  -0.458  1.00  0.00     0.053 C 
BRANCH  10  11
ATOM     11  C   UNL     1     -31.134   7.185   0.700  1.00  0.00     0.041 C 
ATOM     12  O   UNL     1     -30.304   7.280   1.643  1.00  0.00    -0.550 OA
ATOM     13  O   UNL     1     -32.295   7.948   0.724  1.00  0.00    -0.550 OA
ENDBRANCH  10  11
ENDBRANCH   9  10
ENDBRANCH   8   9
ENDBRANCH   1   8
TORSDOF 8
ENDMDL
MODEL 2
REMARK VINA RESULT:    -2.465      1.075      7.207
REMARK INTER + INTRA:          -3.767
REMARK INTER:                  -3.527
REMARK INTRA:                  -0.240
REMARK UNBOUND:                -0.149
REMARK SMILES O=C([O-])CCCCCCCC(=O)[O-]
REMARK SMILES IDX 7 1 6 2 5 3 4 4 2 5 1 6 3 7 8 8 9 9 10 10 11 11 12 12 13 13
REMARK H PARENT
REMARK Flexibility Score: inf
ROOT
ATOM      1  C   UNL     1     -27.584   7.922  -2.427  1.00  0.00     0.000 C 
ENDROOT
BRANCH   1   2
ATOM      2  C   UNL     1     -28.137   8.399  -1.073  1.00  0.00     0.000 C 
BRANCH   2   3
ATOM      3  C   UNL     1     -28.274   7.264  -0.046  1.00  0.00     0.006 C 
BRANCH   3   4
ATOM      4  C   UNL     1     -29.510   7.470   0.835  1.00  0.00     0.053 C 
BRANCH   4   5
ATOM      5  C   UNL     1     -30.748   7.051   0.107  1.00  0.00     0.041 C 
ATOM      6  O   UNL     1     -31.883   7.361   0.555  1.00  0.00    -0.550 OA
ATOM      7  O   UNL     1     -30.649   6.274  -1.041  1.00  0.00    -0.550 OA
ENDBRANCH   4   5
ENDBRANCH   3   4
ENDBRANCH   2   3
ENDBRANCH   1   2
BRANCH   1   8
ATOM      8  C   UNL     1     -28.581   7.991  -3.600  1.00  0.00     0.000 C 
BRANCH   8   9
ATOM      9  C   UNL     1     -27.986   8.654  -4.852  1.00  0.00     0.006 C 
BRANCH   9  10
ATOM     10  C   UNL     1     -26.653   8.017  -5.268  1.00  0.00     0.053 C 
BRANCH  10  11
ATOM     11  C   UNL     1     -26.111   8.627  -6.525  1.00  0.00     0.041 C 
ATOM     12  O   UNL     1     -26.761   9.524  -7.125  1.00  0.00    -0.550 OA
ATOM     13  O   UNL     1     -24.876   8.224  -7.019  1.00  0.00    -0.550 OA
ENDBRANCH  10  11
ENDBRANCH   9  10
ENDBRANCH   8   9
ENDBRANCH   1   8
TORSDOF 8
ENDMDL
MODEL 3
REMARK VINA RESULT:    -2.092      1.302      7.282
REMARK INTER + INTRA:          -3.220
REMARK INTER:                  -2.989
REMARK INTRA:                  -0.231
REMARK UNBOUND:                -0.149
REMARK SMILES O=C([O-])CCCCCCCC(=O)[O-]
REMARK SMILES IDX 7 1 6 2 5 3 4 4 2 5 1 6 3 7 8 8 9 9 10 10 11 11 12 12 13 13
REMARK H PARENT
REMARK Flexibility Score: inf
ROOT
ATOM      1  C   UNL     1     -27.758   7.970  -0.975  1.00  0.00     0.000 C 
ENDROOT
BRANCH   1   2
ATOM      2  C   UNL     1     -28.709   7.504   0.141  1.00  0.00     0.000 C 
BRANCH   2   3
ATOM      3  C   UNL     1     -30.109   7.139  -0.375  1.00  0.00     0.006 C 
BRANCH   3   4
ATOM      4  C   UNL     1     -31.127   7.121   0.768  1.00  0.00     0.053 C 
BRANCH   4   5
ATOM      5  C   UNL     1     -32.323   7.949   0.417  1.00  0.00     0.041 C 
ATOM      6  O   UNL     1     -32.740   7.990  -0.770  1.00  0.00    -0.550 OA
ATOM      7  O   UNL     1     -32.946   8.716   1.394  1.00  0.00    -0.550 OA
ENDBRANCH   4   5
ENDBRANCH   3   4
ENDBRANCH   2   3
ENDBRANCH   1   2
BRANCH   1   8
ATOM      8  C   UNL     1     -28.342   7.908  -2.399  1.00  0.00     0.000 C 
BRANCH   8   9
ATOM      9  C   UNL     1     -27.295   8.191  -3.488  1.00  0.00     0.006 C 
BRANCH   9  10
ATOM     10  C   UNL     1     -27.941   8.509  -4.844  1.00  0.00     0.053 C 
BRANCH  10  11
ATOM     11  C   UNL     1     -26.918   8.633  -5.934  1.00  0.00     0.041 C 
ATOM     12  O   UNL     1     -27.281   8.852  -7.120  1.00  0.00    -0.550 OA
ATOM     13  O   UNL     1     -25.565   8.535  -5.634  1.00  0.00    -0.550 OA
ENDBRANCH  10  11
ENDBRANCH   9  10
ENDBRANCH   8   9
ENDBRANCH   1   8
TORSDOF 8
ENDMDL
