MODEL 1
REMARK VINA RESULT:    -4.679      0.000      0.000
REMARK INTER + INTRA:         -17.613
REMARK INTER:                 -12.339
REMARK INTRA:                  -5.274
REMARK UNBOUND:                -5.274
REMARK SMILES CCCCCCCCCCCCCCCCCCCCCCCCCCCCCC(=O)[O-]
REMARK SMILES IDX 16 1 17 2 18 3 19 4 20 5 21 6 22 7 23 8 24 9 25 10 26 11
REMARK SMILES IDX 27 12 28 13 29 14 30 15 31 16 32 17 15 18 14 19 13 20 12 21
REMARK SMILES IDX 11 22 10 23 9 24 8 25 7 26 6 27 5 28 4 29 3 30 2 31 1 32
REMARK H PARENT
REMARK Flexibility Score: inf
ROOT
ATOM      1  C   UNL     1      -9.225   1.109  19.288  1.00  0.00     0.000 C 
ENDROOT
BRANCH   1   2
ATOM      2  C   UNL     1      -9.993   1.839  20.401  1.00  0.00     0.000 C 
BRANCH   2   3
ATOM      3  C   UNL     1     -11.486   1.937  20.063  1.00  0.00     0.000 C 
BRANCH   3   4
ATOM      4  C   UNL     1     -12.340   1.938  21.340  1.00  0.00     0.000 C 
BRANCH   4   5
ATOM      5  C   UNL     1     -13.210   3.200  21.473  1.00  0.00     0.000 C 
BRANCH   5   6
ATOM      6  C   UNL     1     -13.682   3.813  20.138  1.00  0.00     0.000 C 
BRANCH   6   7
ATOM      7  C   UNL     1     -13.505   5.339  20.018  1.00  0.00     0.000 C 
BRANCH   7   8
ATOM      8  C   UNL     1     -12.059   5.746  19.688  1.00  0.00     0.000 C 
BRANCH   8   9
ATOM      9  C   UNL     1     -11.800   5.839  18.176  1.00  0.00     0.000 C 
BRANCH   9  10
ATOM     10  C   UNL     1     -10.799   4.783  17.682  1.00  0.00     0.000 C 
BRANCH  10  11
ATOM     11  C   UNL     1     -11.288   4.125  16.382  1.00  0.00     0.000 C 
BRANCH  11  12
ATOM     12  C   UNL     1     -12.416   3.107  16.619  1.00  0.00     0.000 C 
BRANCH  12  13
ATOM     13  C   UNL     1     -11.947   1.652  16.454  1.00  0.00     0.006 C 
BRANCH  13  14
ATOM     14  C   UNL     1     -12.580   0.973  15.232  1.00  0.00     0.053 C 
BRANCH  14  15
ATOM     15  C   UNL     1     -11.549   0.337  14.349  1.00  0.00     0.041 C 
ATOM     16  O   UNL     1     -10.404   0.851  14.238  1.00  0.00    -0.550 OA
ATOM     17  O   UNL     1     -11.861  -0.812  13.634  1.00  0.00    -0.550 OA
ENDBRANCH  14  15
ENDBRANCH  13  14
ENDBRANCH  12  13
ENDBRANCH  11  12
ENDBRANCH  10  11
ENDBRANCH   9  10
ENDBRANCH   8   9
ENDBRANCH   7   8
ENDBRANCH   6   7
ENDBRANCH   5   6
ENDBRANCH   4   5
ENDBRANCH   3   4
ENDBRANCH   2   3
ENDBRANCH   1   2
BRANCH   1  18
ATOM     18  C   UNL     1      -8.889  -0.346  19.655  1.00  0.00     0.000 C 
BRANCH  18  19
ATOM     19  C   UNL     1      -9.485  -0.772  21.007  1.00  0.00     0.000 C 
BRANCH  19  20
ATOM     20  C   UNL     1      -8.408  -1.170  22.032  1.00  0.00     0.000 C 
BRANCH  20  21
ATOM     21  C   UNL     1      -8.558  -0.520  23.424  1.00  0.00     0.000 C 
BRANCH  21  22
ATOM     22  C   UNL     1      -9.907   0.178  23.676  1.00  0.00     0.000 C 
BRANCH  22  23
ATOM     23  C   UNL     1      -9.830   1.507  24.451  1.00  0.00     0.000 C 
BRANCH  23  24
ATOM     24  C   UNL     1      -9.286   2.691  23.622  1.00  0.00    -0.000 C 
BRANCH  24  25
ATOM     25  C   UNL     1     -10.204   3.926  23.674  1.00  0.00    -0.000 C 
BRANCH  25  26
ATOM     26  C   UNL     1      -9.966   4.881  22.494  1.00  0.00    -0.000 C 
BRANCH  26  27
ATOM     27  C   UNL     1      -8.525   4.809  21.967  1.00  0.00    -0.000 C 
BRANCH  27  28
ATOM     28  C   UNL     1      -8.432   5.372  20.544  1.00  0.00    -0.000 C 
BRANCH  28  29
ATOM     29  C   UNL     1      -7.309   4.685  19.752  1.00  0.00    -0.000 C 
BRANCH  29  30
ATOM     30  C   UNL     1      -6.096   5.612  19.537  1.00  0.00    -0.000 C 
BRANCH  30  31
ATOM     31  C   UNL     1      -4.753   4.865  19.492  1.00  0.00    -0.003 C 
ATOM     32  C   UNL     1      -4.631   3.924  18.295  1.00  0.00     0.004 C 
ENDBRANCH  30  31
ENDBRANCH  29  30
ENDBRANCH  28  29
ENDBRANCH  27  28
ENDBRANCH  26  27
ENDBRANCH  25  26
ENDBRANCH  24  25
ENDBRANCH  23  24
ENDBRANCH  22  23
ENDBRANCH  21  22
ENDBRANCH  20  21
ENDBRANCH  19  20
ENDBRANCH  18  19
ENDBRANCH   1  18
TORSDOF 28
ENDMDL
MODEL 2
REMARK VINA RESULT:    -4.433      2.521      7.127
REMARK INTER + INTRA:         -16.963
REMARK INTER:                 -12.613
REMARK INTRA:                  -4.350
REMARK UNBOUND:                -5.274
REMARK SMILES CCCCCCCCCCCCCCCCCCCCCCCCCCCCCC(=O)[O-]
REMARK SMILES IDX 16 1 17 2 18 3 19 4 20 5 21 6 22 7 23 8 24 9 25 10 26 11
REMARK SMILES IDX 27 12 28 13 29 14 30 15 31 16 32 17 15 18 14 19 13 20 12 21
REMARK SMILES IDX 11 22 10 23 9 24 8 25 7 26 6 27 5 28 4 29 3 30 2 31 1 32
REMARK H PARENT
REMARK Flexibility Score: inf
ROOT
ATOM      1  C   UNL     1     -12.393   0.622  22.690  1.00  0.00     0.000 C 
ENDROOT
BRANCH   1   2
ATOM      2  C   UNL     1     -12.259   0.064  24.116  1.00  0.00     0.000 C 
BRANCH   2   3
ATOM      3  C   UNL     1     -10.864   0.344  24.687  1.00  0.00     0.000 C 
BRANCH   3   4
ATOM      4  C   UNL     1      -9.845   0.575  23.561  1.00  0.00     0.000 C 
BRANCH   4   5
ATOM      5  C   UNL     1      -8.750  -0.506  23.519  1.00  0.00     0.000 C 
BRANCH   5   6
ATOM      6  C   UNL     1      -8.417  -1.046  22.113  1.00  0.00     0.000 C 
BRANCH   6   7
ATOM      7  C   UNL     1      -9.543  -0.904  21.072  1.00  0.00     0.000 C 
BRANCH   7   8
ATOM      8  C   UNL     1      -9.162   0.028  19.909  1.00  0.00     0.000 C 
BRANCH   8   9
ATOM      9  C   UNL     1     -10.074   1.263  19.816  1.00  0.00     0.000 C 
BRANCH   9  10
ATOM     10  C   UNL     1      -9.477   2.492  20.517  1.00  0.00     0.000 C 
BRANCH  10  11
ATOM     11  C   UNL     1      -9.334   3.669  19.539  1.00  0.00     0.000 C 
BRANCH  11  12
ATOM     12  C   UNL     1      -8.886   4.967  20.232  1.00  0.00     0.000 C 
BRANCH  12  13
ATOM     13  C   UNL     1      -7.405   5.295  19.978  1.00  0.00     0.006 C 
BRANCH  13  14
ATOM     14  C   UNL     1      -6.741   4.286  19.031  1.00  0.00     0.053 C 
BRANCH  14  15
ATOM     15  C   UNL     1      -5.246   4.390  19.063  1.00  0.00     0.041 C 
ATOM     16  O   UNL     1      -4.675   5.061  19.964  1.00  0.00    -0.550 OA
ATOM     17  O   UNL     1      -4.486   3.760  18.087  1.00  0.00    -0.550 OA
ENDBRANCH  14  15
ENDBRANCH  13  14
ENDBRANCH  12  13
ENDBRANCH  11  12
ENDBRANCH  10  11
ENDBRANCH   9  10
ENDBRANCH   8   9
ENDBRANCH   7   8
ENDBRANCH   6   7
ENDBRANCH   5   6
ENDBRANCH   4   5
ENDBRANCH   3   4
ENDBRANCH   2   3
ENDBRANCH   1   2
BRANCH   1  18
ATOM     18  C   UNL     1     -13.328   1.840  22.615  1.00  0.00     0.000 C 
BRANCH  18  19
ATOM     19  C   UNL     1     -12.682   3.121  23.168  1.00  0.00     0.000 C 
BRANCH  19  20
ATOM     20  C   UNL     1     -12.765   4.302  22.184  1.00  0.00     0.000 C 
BRANCH  20  21
ATOM     21  C   UNL     1     -12.938   3.907  20.702  1.00  0.00     0.000 C 
BRANCH  21  22
ATOM     22  C   UNL     1     -13.155   5.083  19.734  1.00  0.00     0.000 C 
BRANCH  22  23
ATOM     23  C   UNL     1     -12.519   4.918  18.340  1.00  0.00     0.000 C 
BRANCH  23  24
ATOM     24  C   UNL     1     -12.608   3.486  17.770  1.00  0.00    -0.000 C 
BRANCH  24  25
ATOM     25  C   UNL     1     -12.013   3.371  16.354  1.00  0.00    -0.000 C 
BRANCH  25  26
ATOM     26  C   UNL     1     -10.516   3.024  16.376  1.00  0.00    -0.000 C 
BRANCH  26  27
ATOM     27  C   UNL     1     -10.265   1.518  16.200  1.00  0.00    -0.000 C 
BRANCH  27  28
ATOM     28  C   UNL     1      -9.517   1.235  14.892  1.00  0.00    -0.000 C 
BRANCH  28  29
ATOM     29  C   UNL     1     -10.409   0.472  13.902  1.00  0.00    -0.000 C 
BRANCH  29  30
ATOM     30  C   UNL     1     -11.810   0.185  14.481  1.00  0.00    -0.000 C 
BRANCH  30  31
ATOM     31  C   UNL     1     -12.773  -0.454  13.467  1.00  0.00    -0.003 C 
ATOM     32  C   UNL     1     -12.550  -1.955  13.293  1.00  0.00     0.004 C 
ENDBRANCH  30  31
ENDBRANCH  29  30
ENDBRANCH  28  29
ENDBRANCH  27  28
ENDBRANCH  26  27
ENDBRANCH  25  26
ENDBRANCH  24  25
ENDBRANCH  23  24
ENDBRANCH  22  23
ENDBRANCH  21  22
ENDBRANCH  20  21
ENDBRANCH  19  20
ENDBRANCH  18  19
ENDBRANCH   1  18
TORSDOF 28
ENDMDL
MODEL 3
REMARK VINA RESULT:    -4.401      1.082      2.018
REMARK INTER + INTRA:         -16.879
REMARK INTER:                 -11.318
REMARK INTRA:                  -5.561
REMARK UNBOUND:                -5.274
REMARK SMILES CCCCCCCCCCCCCCCCCCCCCCCCCCCCCC(=O)[O-]
REMARK SMILES IDX 16 1 17 2 18 3 19 4 20 5 21 6 22 7 23 8 24 9 25 10 26 11
REMARK SMILES IDX 27 12 28 13 29 14 30 15 31 16 32 17 15 18 14 19 13 20 12 21
REMARK SMILES IDX 11 22 10 23 9 24 8 25 7 26 6 27 5 28 4 29 3 30 2 31 1 32
REMARK H PARENT
REMARK Flexibility Score: inf
ROOT
ATOM      1  C   UNL     1      -9.722   0.062  21.315  1.00  0.00     0.000 C 
ENDROOT
BRANCH   1   2
ATOM      2  C   UNL     1     -11.182  -0.392  21.160  1.00  0.00     0.000 C 
BRANCH   2   3
ATOM      3  C   UNL     1     -12.144   0.631  21.775  1.00  0.00     0.000 C 
BRANCH   3   4
ATOM      4  C   UNL     1     -11.909   2.030  21.186  1.00  0.00     0.000 C 
BRANCH   4   5
ATOM      5  C   UNL     1     -13.162   2.921  21.251  1.00  0.00     0.000 C 
BRANCH   5   6
ATOM      6  C   UNL     1     -13.056   4.133  22.200  1.00  0.00     0.000 C 
BRANCH   6   7
ATOM      7  C   UNL     1     -13.423   5.491  21.573  1.00  0.00     0.000 C 
BRANCH   7   8
ATOM      8  C   UNL     1     -13.476   5.441  20.037  1.00  0.00     0.000 C 
BRANCH   8   9
ATOM      9  C   UNL     1     -12.403   6.323  19.378  1.00  0.00     0.000 C 
BRANCH   9  10
ATOM     10  C   UNL     1     -11.988   5.811  17.990  1.00  0.00     0.000 C 
BRANCH  10  11
ATOM     11  C   UNL     1     -12.422   4.351  17.789  1.00  0.00     0.000 C 
BRANCH  11  12
ATOM     12  C   UNL     1     -11.383   3.523  17.015  1.00  0.00     0.000 C 
BRANCH  12  13
ATOM     13  C   UNL     1     -11.641   2.009  17.109  1.00  0.00     0.006 C 
BRANCH  13  14
ATOM     14  C   UNL     1     -12.287   1.451  15.834  1.00  0.00     0.053 C 
BRANCH  14  15
ATOM     15  C   UNL     1     -11.274   0.829  14.920  1.00  0.00     0.041 C 
ATOM     16  O   UNL     1     -11.639   0.284  13.844  1.00  0.00    -0.550 OA
ATOM     17  O   UNL     1      -9.930   0.835  15.267  1.00  0.00    -0.550 OA
ENDBRANCH  14  15
ENDBRANCH  13  14
ENDBRANCH  12  13
ENDBRANCH  11  12
ENDBRANCH  10  11
ENDBRANCH   9  10
ENDBRANCH   8   9
ENDBRANCH   7   8
ENDBRANCH   6   7
ENDBRANCH   5   6
ENDBRANCH   4   5
ENDBRANCH   3   4
ENDBRANCH   2   3
ENDBRANCH   1   2
BRANCH   1  18
ATOM     18  C   UNL     1      -8.858  -0.962  22.069  1.00  0.00     0.000 C 
BRANCH  18  19
ATOM     19  C   UNL     1      -8.391  -0.452  23.442  1.00  0.00     0.000 C 
BRANCH  19  20
ATOM     20  C   UNL     1      -9.541  -0.339  24.458  1.00  0.00     0.000 C 
BRANCH  20  21
ATOM     21  C   UNL     1      -9.721   1.057  25.090  1.00  0.00     0.000 C 
BRANCH  21  22
ATOM     22  C   UNL     1      -8.877   2.175  24.453  1.00  0.00     0.000 C 
BRANCH  22  23
ATOM     23  C   UNL     1      -9.661   3.195  23.605  1.00  0.00     0.000 C 
BRANCH  23  24
ATOM     24  C   UNL     1      -8.786   4.016  22.634  1.00  0.00    -0.000 C 
BRANCH  24  25
ATOM     25  C   UNL     1      -9.609   4.985  21.765  1.00  0.00    -0.000 C 
BRANCH  25  26
ATOM     26  C   UNL     1      -9.303   4.832  20.267  1.00  0.00    -0.000 C 
BRANCH  26  27
ATOM     27  C   UNL     1      -9.019   3.373  19.876  1.00  0.00    -0.000 C 
BRANCH  27  28
ATOM     28  C   UNL     1      -8.026   3.300  18.711  1.00  0.00    -0.000 C 
BRANCH  28  29
ATOM     29  C   UNL     1      -7.131   4.547  18.671  1.00  0.00    -0.000 C 
BRANCH  29  30
ATOM     30  C   UNL     1      -5.639   4.201  18.857  1.00  0.00    -0.000 C 
BRANCH  30  31
ATOM     31  C   UNL     1      -4.916   5.118  19.856  1.00  0.00    -0.003 C 
ATOM     32  C   UNL     1      -5.856   6.094  20.562  1.00  0.00     0.004 C 
ENDBRANCH  30  31
ENDBRANCH  29  30
ENDBRANCH  28  29
ENDBRANCH  27  28
ENDBRANCH  26  27
ENDBRANCH  25  26
ENDBRANCH  24  25
ENDBRANCH  23  24
ENDBRANCH  22  23
ENDBRANCH  21  22
ENDBRANCH  20  21
ENDBRANCH  19  20
ENDBRANCH  18  19
ENDBRANCH   1  18
TORSDOF 28
ENDMDL
MODEL 4
REMARK VINA RESULT:    -4.332      3.150      4.666
REMARK INTER + INTRA:         -16.696
REMARK INTER:                 -11.676
REMARK INTRA:                  -5.020
REMARK UNBOUND:                -5.274
REMARK SMILES CCCCCCCCCCCCCCCCCCCCCCCCCCCCCC(=O)[O-]
REMARK SMILES IDX 16 1 17 2 18 3 19 4 20 5 21 6 22 7 23 8 24 9 25 10 26 11
REMARK SMILES IDX 27 12 28 13 29 14 30 15 31 16 32 17 15 18 14 19 13 20 12 21
REMARK SMILES IDX 11 22 10 23 9 24 8 25 7 26 6 27 5 28 4 29 3 30 2 31 1 32
REMARK H PARENT
REMARK Flexibility Score: inf
ROOT
ATOM      1  C   UNL     1      -9.637   0.998  19.665  1.00  0.00     0.000 C 
ENDROOT
BRANCH   1   2
ATOM      2  C   UNL     1      -9.139   1.933  18.551  1.00  0.00     0.000 C 
BRANCH   2   3
ATOM      3  C   UNL     1      -9.884   1.667  17.238  1.00  0.00     0.000 C 
BRANCH   3   4
ATOM      4  C   UNL     1      -9.806   2.884  16.304  1.00  0.00     0.000 C 
BRANCH   4   5
ATOM      5  C   UNL     1     -11.188   3.485  15.994  1.00  0.00     0.000 C 
BRANCH   5   6
ATOM      6  C   UNL     1     -12.363   2.862  16.776  1.00  0.00     0.000 C 
BRANCH   6   7
ATOM      7  C   UNL     1     -13.160   3.843  17.657  1.00  0.00     0.000 C 
BRANCH   7   8
ATOM      8  C   UNL     1     -12.272   4.588  18.668  1.00  0.00     0.000 C 
BRANCH   8   9
ATOM      9  C   UNL     1     -12.949   4.758  20.038  1.00  0.00     0.000 C 
BRANCH   9  10
ATOM     10  C   UNL     1     -13.588   3.457  20.547  1.00  0.00     0.000 C 
BRANCH  10  11
ATOM     11  C   UNL     1     -12.514   2.448  20.983  1.00  0.00     0.000 C 
BRANCH  11  12
ATOM     12  C   UNL     1     -12.492   2.223  22.503  1.00  0.00     0.000 C 
BRANCH  12  13
ATOM     13  C   UNL     1     -13.093   0.866  22.911  1.00  0.00     0.006 C 
BRANCH  13  14
ATOM     14  C   UNL     1     -13.927   0.964  24.195  1.00  0.00     0.053 C 
BRANCH  14  15
ATOM     15  C   UNL     1     -15.142   0.089  24.139  1.00  0.00     0.041 C 
ATOM     16  O   UNL     1     -15.173  -0.907  23.368  1.00  0.00    -0.550 OA
ATOM     17  O   UNL     1     -16.248   0.385  24.926  1.00  0.00    -0.550 OA
ENDBRANCH  14  15
ENDBRANCH  13  14
ENDBRANCH  12  13
ENDBRANCH  11  12
ENDBRANCH  10  11
ENDBRANCH   9  10
ENDBRANCH   8   9
ENDBRANCH   7   8
ENDBRANCH   6   7
ENDBRANCH   5   6
ENDBRANCH   4   5
ENDBRANCH   3   4
ENDBRANCH   2   3
ENDBRANCH   1   2
BRANCH   1  18
ATOM     18  C   UNL     1      -8.870  -0.334  19.708  1.00  0.00     0.000 C 
BRANCH  18  19
ATOM     19  C   UNL     1      -9.052  -1.084  21.038  1.00  0.00     0.000 C 
BRANCH  19  20
ATOM     20  C   UNL     1      -9.665  -0.200  22.139  1.00  0.00     0.000 C 
BRANCH  20  21
ATOM     21  C   UNL     1      -8.893  -0.192  23.476  1.00  0.00     0.000 C 
BRANCH  21  22
ATOM     22  C   UNL     1      -9.753   0.077  24.724  1.00  0.00     0.000 C 
BRANCH  22  23
ATOM     23  C   UNL     1      -9.908   1.559  25.113  1.00  0.00     0.000 C 
BRANCH  23  24
ATOM     24  C   UNL     1      -8.769   2.469  24.606  1.00  0.00    -0.000 C 
BRANCH  24  25
ATOM     25  C   UNL     1      -9.287   3.718  23.870  1.00  0.00    -0.000 C 
BRANCH  25  26
ATOM     26  C   UNL     1      -9.102   3.618  22.347  1.00  0.00    -0.000 C 
BRANCH  26  27
ATOM     27  C   UNL     1      -9.714   4.818  21.607  1.00  0.00    -0.000 C 
BRANCH  27  28
ATOM     28  C   UNL     1      -9.012   5.050  20.264  1.00  0.00    -0.000 C 
BRANCH  28  29
ATOM     29  C   UNL     1      -7.490   5.135  20.446  1.00  0.00    -0.000 C 
BRANCH  29  30
ATOM     30  C   UNL     1      -6.725   4.590  19.222  1.00  0.00    -0.000 C 
BRANCH  30  31
ATOM     31  C   UNL     1      -5.197   4.694  19.357  1.00  0.00    -0.003 C 
ATOM     32  C   UNL     1      -4.446   3.934  18.265  1.00  0.00     0.004 C 
ENDBRANCH  30  31
ENDBRANCH  29  30
ENDBRANCH  28  29
ENDBRANCH  27  28
ENDBRANCH  26  27
ENDBRANCH  25  26
ENDBRANCH  24  25
ENDBRANCH  23  24
ENDBRANCH  22  23
ENDBRANCH  21  22
ENDBRANCH  20  21
ENDBRANCH  19  20
ENDBRANCH  18  19
ENDBRANCH   1  18
TORSDOF 28
ENDMDL
MODEL 5
REMARK VINA RESULT:    -4.275      1.366      4.587
REMARK INTER + INTRA:         -16.546
REMARK INTER:                 -11.399
REMARK INTRA:                  -5.146
REMARK UNBOUND:                -5.274
REMARK SMILES CCCCCCCCCCCCCCCCCCCCCCCCCCCCCC(=O)[O-]
REMARK SMILES IDX 16 1 17 2 18 3 19 4 20 5 21 6 22 7 23 8 24 9 25 10 26 11
REMARK SMILES IDX 27 12 28 13 29 14 30 15 31 16 32 17 15 18 14 19 13 20 12 21
REMARK SMILES IDX 11 22 10 23 9 24 8 25 7 26 6 27 5 28 4 29 3 30 2 31 1 32
REMARK H PARENT
REMARK Flexibility Score: inf
ROOT
ATOM      1  C   UNL     1      -7.986   3.335  18.539  1.00  0.00     0.000 C 
ENDROOT
BRANCH   1   2
ATOM      2  C   UNL     1      -9.077   3.015  19.572  1.00  0.00     0.000 C 
BRANCH   2   3
ATOM      3  C   UNL     1      -9.587   1.578  19.404  1.00  0.00     0.000 C 
BRANCH   3   4
ATOM      4  C   UNL     1     -10.169   1.043  20.721  1.00  0.00     0.000 C 
BRANCH   4   5
ATOM      5  C   UNL     1     -11.690   1.249  20.826  1.00  0.00     0.000 C 
BRANCH   5   6
ATOM      6  C   UNL     1     -12.131   2.659  21.272  1.00  0.00     0.000 C 
BRANCH   6   7
ATOM      7  C   UNL     1     -13.592   3.024  20.946  1.00  0.00     0.000 C 
BRANCH   7   8
ATOM      8  C   UNL     1     -13.709   4.030  19.789  1.00  0.00     0.000 C 
BRANCH   8   9
ATOM      9  C   UNL     1     -12.373   4.719  19.465  1.00  0.00     0.000 C 
BRANCH   9  10
ATOM     10  C   UNL     1     -12.081   4.765  17.958  1.00  0.00     0.000 C 
BRANCH  10  11
ATOM     11  C   UNL     1     -12.865   3.674  17.211  1.00  0.00     0.000 C 
BRANCH  11  12
ATOM     12  C   UNL     1     -12.032   2.405  16.966  1.00  0.00     0.000 C 
BRANCH  12  13
ATOM     13  C   UNL     1     -10.991   2.586  15.848  1.00  0.00     0.006 C 
BRANCH  13  14
ATOM     14  C   UNL     1     -10.042   1.385  15.739  1.00  0.00     0.053 C 
BRANCH  14  15
ATOM     15  C   UNL     1     -10.231   0.639  14.453  1.00  0.00     0.041 C 
ATOM     16  O   UNL     1     -11.385   0.299  14.078  1.00  0.00    -0.550 OA
ATOM     17  O   UNL     1      -9.129   0.302  13.678  1.00  0.00    -0.550 OA
ENDBRANCH  14  15
ENDBRANCH  13  14
ENDBRANCH  12  13
ENDBRANCH  11  12
ENDBRANCH  10  11
ENDBRANCH   9  10
ENDBRANCH   8   9
ENDBRANCH   7   8
ENDBRANCH   6   7
ENDBRANCH   5   6
ENDBRANCH   4   5
ENDBRANCH   3   4
ENDBRANCH   2   3
ENDBRANCH   1   2
BRANCH   1  18
ATOM     18  C   UNL     1      -6.962   4.360  19.056  1.00  0.00     0.000 C 
BRANCH  18  19
ATOM     19  C   UNL     1      -5.527   4.051  18.600  1.00  0.00     0.000 C 
BRANCH  19  20
ATOM     20  C   UNL     1      -4.467   4.816  19.412  1.00  0.00     0.000 C 
BRANCH  20  21
ATOM     21  C   UNL     1      -4.980   6.084  20.126  1.00  0.00     0.000 C 
BRANCH  21  22
ATOM     22  C   UNL     1      -4.774   6.104  21.651  1.00  0.00     0.000 C 
BRANCH  22  23
ATOM     23  C   UNL     1      -6.026   6.442  22.483  1.00  0.00     0.000 C 
BRANCH  23  24
ATOM     24  C   UNL     1      -7.303   6.660  21.643  1.00  0.00    -0.000 C 
BRANCH  24  25
ATOM     25  C   UNL     1      -8.582   6.680  22.499  1.00  0.00    -0.000 C 
BRANCH  25  26
ATOM     26  C   UNL     1      -9.611   5.634  22.040  1.00  0.00    -0.000 C 
BRANCH  26  27
ATOM     27  C   UNL     1      -9.997   4.663  23.166  1.00  0.00    -0.000 C 
BRANCH  27  28
ATOM     28  C   UNL     1      -9.004   3.498  23.252  1.00  0.00    -0.000 C 
BRANCH  28  29
ATOM     29  C   UNL     1      -9.404   2.515  24.362  1.00  0.00    -0.000 C 
BRANCH  29  30
ATOM     30  C   UNL     1      -8.790   1.116  24.150  1.00  0.00    -0.000 C 
BRANCH  30  31
ATOM     31  C   UNL     1      -9.824  -0.021  24.196  1.00  0.00    -0.003 C 
ATOM     32  C   UNL     1     -11.248   0.474  24.442  1.00  0.00     0.004 C 
ENDBRANCH  30  31
ENDBRANCH  29  30
ENDBRANCH  28  29
ENDBRANCH  27  28
ENDBRANCH  26  27
ENDBRANCH  25  26
ENDBRANCH  24  25
ENDBRANCH  23  24
ENDBRANCH  22  23
ENDBRANCH  21  22
ENDBRANCH  20  21
ENDBRANCH  19  20
ENDBRANCH  18  19
ENDBRANCH   1  18
TORSDOF 28
ENDMDL
MODEL 6
REMARK VINA RESULT:    -4.255      1.524      4.237
REMARK INTER + INTRA:         -16.493
REMARK INTER:                 -10.645
REMARK INTRA:                  -5.848
REMARK UNBOUND:                -5.274
REMARK SMILES CCCCCCCCCCCCCCCCCCCCCCCCCCCCCC(=O)[O-]
REMARK SMILES IDX 16 1 17 2 18 3 19 4 20 5 21 6 22 7 23 8 24 9 25 10 26 11
REMARK SMILES IDX 27 12 28 13 29 14 30 15 31 16 32 17 15 18 14 19 13 20 12 21
REMARK SMILES IDX 11 22 10 23 9 24 8 25 7 26 6 27 5 28 4 29 3 30 2 31 1 32
REMARK H PARENT
REMARK Flexibility Score: inf
ROOT
ATOM      1  C   UNL     1      -8.764  -1.015  21.364  1.00  0.00     0.000 C 
ENDROOT
BRANCH   1   2
ATOM      2  C   UNL     1      -9.766  -0.126  20.611  1.00  0.00     0.000 C 
BRANCH   2   3
ATOM      3  C   UNL     1      -9.111   0.522  19.385  1.00  0.00     0.000 C 
BRANCH   3   4
ATOM      4  C   UNL     1      -9.483   2.009  19.283  1.00  0.00     0.000 C 
BRANCH   4   5
ATOM      5  C   UNL     1      -8.391   2.850  18.599  1.00  0.00     0.000 C 
BRANCH   5   6
ATOM      6  C   UNL     1      -7.993   4.140  19.347  1.00  0.00     0.000 C 
BRANCH   6   7
ATOM      7  C   UNL     1      -8.429   5.452  18.669  1.00  0.00     0.000 C 
BRANCH   7   8
ATOM      8  C   UNL     1      -9.516   5.237  17.602  1.00  0.00     0.000 C 
BRANCH   8   9
ATOM      9  C   UNL     1     -10.938   5.303  18.182  1.00  0.00     0.000 C 
BRANCH   9  10
ATOM     10  C   UNL     1     -11.993   4.722  17.228  1.00  0.00     0.000 C 
BRANCH  10  11
ATOM     11  C   UNL     1     -12.468   3.341  17.708  1.00  0.00     0.000 C 
BRANCH  11  12
ATOM     12  C   UNL     1     -12.256   2.240  16.656  1.00  0.00     0.000 C 
BRANCH  12  13
ATOM     13  C   UNL     1     -11.094   2.551  15.697  1.00  0.00     0.006 C 
BRANCH  13  14
ATOM     14  C   UNL     1     -10.093   1.392  15.603  1.00  0.00     0.053 C 
BRANCH  14  15
ATOM     15  C   UNL     1     -10.326   0.550  14.385  1.00  0.00     0.041 C 
ATOM     16  O   UNL     1     -11.488   0.422  13.913  1.00  0.00    -0.550 OA
ATOM     17  O   UNL     1      -9.263  -0.109  13.783  1.00  0.00    -0.550 OA
ENDBRANCH  14  15
ENDBRANCH  13  14
ENDBRANCH  12  13
ENDBRANCH  11  12
ENDBRANCH  10  11
ENDBRANCH   9  10
ENDBRANCH   8   9
ENDBRANCH   7   8
ENDBRANCH   6   7
ENDBRANCH   5   6
ENDBRANCH   4   5
ENDBRANCH   3   4
ENDBRANCH   2   3
ENDBRANCH   1   2
BRANCH   1  18
ATOM     18  C   UNL     1      -8.698  -0.694  22.866  1.00  0.00     0.000 C 
BRANCH  18  19
ATOM     19  C   UNL     1      -9.630   0.461  23.270  1.00  0.00     0.000 C 
BRANCH  19  20
ATOM     20  C   UNL     1     -10.389   0.182  24.580  1.00  0.00     0.000 C 
BRANCH  20  21
ATOM     21  C   UNL     1     -11.925   0.124  24.445  1.00  0.00     0.000 C 
BRANCH  21  22
ATOM     22  C   UNL     1     -12.458   0.217  23.004  1.00  0.00     0.000 C 
BRANCH  22  23
ATOM     23  C   UNL     1     -13.187   1.527  22.652  1.00  0.00     0.000 C 
BRANCH  23  24
ATOM     24  C   UNL     1     -12.641   2.236  21.394  1.00  0.00    -0.000 C 
BRANCH  24  25
ATOM     25  C   UNL     1     -13.121   3.694  21.276  1.00  0.00    -0.000 C 
BRANCH  25  26
ATOM     26  C   UNL     1     -12.157   4.684  21.951  1.00  0.00    -0.000 C 
BRANCH  26  27
ATOM     27  C   UNL     1     -10.685   4.335  21.686  1.00  0.00    -0.000 C 
BRANCH  27  28
ATOM     28  C   UNL     1      -9.938   4.069  22.998  1.00  0.00    -0.000 C 
BRANCH  28  29
ATOM     29  C   UNL     1     -10.359   5.071  24.084  1.00  0.00    -0.000 C 
BRANCH  29  30
ATOM     30  C   UNL     1     -10.548   4.397  25.458  1.00  0.00    -0.000 C 
BRANCH  30  31
ATOM     31  C   UNL     1     -11.805   3.516  25.541  1.00  0.00    -0.003 C 
ATOM     32  C   UNL     1     -13.103   4.323  25.538  1.00  0.00     0.004 C 
ENDBRANCH  30  31
ENDBRANCH  29  30
ENDBRANCH  28  29
ENDBRANCH  27  28
ENDBRANCH  26  27
ENDBRANCH  25  26
ENDBRANCH  24  25
ENDBRANCH  23  24
ENDBRANCH  22  23
ENDBRANCH  21  22
ENDBRANCH  20  21
ENDBRANCH  19  20
ENDBRANCH  18  19
ENDBRANCH   1  18
TORSDOF 28
ENDMDL
MODEL 7
REMARK VINA RESULT:    -4.235      1.777      4.107
REMARK INTER + INTRA:         -16.442
REMARK INTER:                 -11.873
REMARK INTRA:                  -4.569
REMARK UNBOUND:                -5.274
REMARK SMILES CCCCCCCCCCCCCCCCCCCCCCCCCCCCCC(=O)[O-]
REMARK SMILES IDX 16 1 17 2 18 3 19 4 20 5 21 6 22 7 23 8 24 9 25 10 26 11
REMARK SMILES IDX 27 12 28 13 29 14 30 15 31 16 32 17 15 18 14 19 13 20 12 21
REMARK SMILES IDX 11 22 10 23 9 24 8 25 7 26 6 27 5 28 4 29 3 30 2 31 1 32
REMARK H PARENT
REMARK Flexibility Score: inf
ROOT
ATOM      1  C   UNL     1      -8.896  -0.494  22.721  1.00  0.00     0.000 C 
ENDROOT
BRANCH   1   2
ATOM      2  C   UNL     1      -9.780   0.404  23.601  1.00  0.00     0.000 C 
BRANCH   2   3
ATOM      3  C   UNL     1      -8.934   1.434  24.359  1.00  0.00     0.000 C 
BRANCH   3   4
ATOM      4  C   UNL     1      -9.500   2.851  24.178  1.00  0.00     0.000 C 
BRANCH   4   5
ATOM      5  C   UNL     1      -9.684   3.232  22.698  1.00  0.00     0.000 C 
BRANCH   5   6
ATOM      6  C   UNL     1     -10.986   3.995  22.376  1.00  0.00     0.000 C 
BRANCH   6   7
ATOM      7  C   UNL     1     -12.276   3.158  22.465  1.00  0.00     0.000 C 
BRANCH   7   8
ATOM      8  C   UNL     1     -13.187   3.336  21.238  1.00  0.00     0.000 C 
BRANCH   8   9
ATOM      9  C   UNL     1     -12.555   4.227  20.156  1.00  0.00     0.000 C 
BRANCH   9  10
ATOM     10  C   UNL     1     -13.093   3.921  18.750  1.00  0.00     0.000 C 
BRANCH  10  11
ATOM     11  C   UNL     1     -11.974   4.006  17.701  1.00  0.00     0.000 C 
BRANCH  11  12
ATOM     12  C   UNL     1     -11.979   2.815  16.729  1.00  0.00     0.000 C 
BRANCH  12  13
ATOM     13  C   UNL     1     -10.839   2.887  15.697  1.00  0.00     0.006 C 
BRANCH  13  14
ATOM     14  C   UNL     1      -9.967   1.624  15.707  1.00  0.00     0.053 C 
BRANCH  14  15
ATOM     15  C   UNL     1     -10.226   0.757  14.513  1.00  0.00     0.041 C 
ATOM     16  O   UNL     1     -11.403   0.419  14.216  1.00  0.00    -0.550 OA
ATOM     17  O   UNL     1      -9.164   0.305  13.740  1.00  0.00    -0.550 OA
ENDBRANCH  14  15
ENDBRANCH  13  14
ENDBRANCH  12  13
ENDBRANCH  11  12
ENDBRANCH  10  11
ENDBRANCH   9  10
ENDBRANCH   8   9
ENDBRANCH   7   8
ENDBRANCH   6   7
ENDBRANCH   5   6
ENDBRANCH   4   5
ENDBRANCH   3   4
ENDBRANCH   2   3
ENDBRANCH   1   2
BRANCH   1  18
ATOM     18  C   UNL     1      -9.390  -0.572  21.267  1.00  0.00     0.000 C 
BRANCH  18  19
ATOM     19  C   UNL     1     -10.731   0.150  21.055  1.00  0.00     0.000 C 
BRANCH  19  20
ATOM     20  C   UNL     1     -10.739   1.029  19.791  1.00  0.00     0.000 C 
BRANCH  20  21
ATOM     21  C   UNL     1      -9.345   1.424  19.261  1.00  0.00     0.000 C 
BRANCH  21  22
ATOM     22  C   UNL     1      -8.988   2.914  19.410  1.00  0.00     0.000 C 
BRANCH  22  23
ATOM     23  C   UNL     1      -7.955   3.451  18.401  1.00  0.00     0.000 C 
BRANCH  23  24
ATOM     24  C   UNL     1      -6.831   4.297  19.036  1.00  0.00    -0.000 C 
BRANCH  24  25
ATOM     25  C   UNL     1      -5.435   3.929  18.501  1.00  0.00    -0.000 C 
BRANCH  25  26
ATOM     26  C   UNL     1      -4.316   4.731  19.185  1.00  0.00    -0.000 C 
BRANCH  26  27
ATOM     27  C   UNL     1      -4.821   5.504  20.413  1.00  0.00    -0.000 C 
BRANCH  27  28
ATOM     28  C   UNL     1      -3.818   6.586  20.831  1.00  0.00    -0.000 C 
BRANCH  28  29
ATOM     29  C   UNL     1      -3.757   6.718  22.360  1.00  0.00    -0.000 C 
BRANCH  29  30
ATOM     30  C   UNL     1      -5.143   6.553  23.016  1.00  0.00    -0.000 C 
BRANCH  30  31
ATOM     31  C   UNL     1      -5.147   5.576  24.203  1.00  0.00    -0.003 C 
ATOM     32  C   UNL     1      -6.515   5.453  24.872  1.00  0.00     0.004 C 
ENDBRANCH  30  31
ENDBRANCH  29  30
ENDBRANCH  28  29
ENDBRANCH  27  28
ENDBRANCH  26  27
ENDBRANCH  25  26
ENDBRANCH  24  25
ENDBRANCH  23  24
ENDBRANCH  22  23
ENDBRANCH  21  22
ENDBRANCH  20  21
ENDBRANCH  19  20
ENDBRANCH  18  19
ENDBRANCH   1  18
TORSDOF 28
ENDMDL
MODEL 8
REMARK VINA RESULT:    -4.208      1.795      3.807
REMARK INTER + INTRA:         -16.369
REMARK INTER:                  -9.988
REMARK INTRA:                  -6.381
REMARK UNBOUND:                -5.274
REMARK SMILES CCCCCCCCCCCCCCCCCCCCCCCCCCCCCC(=O)[O-]
REMARK SMILES IDX 16 1 17 2 18 3 19 4 20 5 21 6 22 7 23 8 24 9 25 10 26 11
REMARK SMILES IDX 27 12 28 13 29 14 30 15 31 16 32 17 15 18 14 19 13 20 12 21
REMARK SMILES IDX 11 22 10 23 9 24 8 25 7 26 6 27 5 28 4 29 3 30 2 31 1 32
REMARK H PARENT
REMARK Flexibility Score: inf
ROOT
ATOM      1  C   UNL     1     -10.354   0.851  20.226  1.00  0.00     0.000 C 
ENDROOT
BRANCH   1   2
ATOM      2  C   UNL     1      -9.833   2.291  20.355  1.00  0.00     0.000 C 
BRANCH   2   3
ATOM      3  C   UNL     1      -9.087   2.720  19.086  1.00  0.00     0.000 C 
BRANCH   3   4
ATOM      4  C   UNL     1      -8.642   4.187  19.179  1.00  0.00     0.000 C 
BRANCH   4   5
ATOM      5  C   UNL     1      -8.585   4.879  17.806  1.00  0.00     0.000 C 
BRANCH   5   6
ATOM      6  C   UNL     1      -9.813   5.747  17.458  1.00  0.00     0.000 C 
BRANCH   6   7
ATOM      7  C   UNL     1     -10.555   6.348  18.667  1.00  0.00     0.000 C 
BRANCH   7   8
ATOM      8  C   UNL     1     -12.053   5.998  18.678  1.00  0.00     0.000 C 
BRANCH   8   9
ATOM      9  C   UNL     1     -12.351   4.693  19.434  1.00  0.00     0.000 C 
BRANCH   9  10
ATOM     10  C   UNL     1     -13.336   3.786  18.681  1.00  0.00     0.000 C 
BRANCH  10  11
ATOM     11  C   UNL     1     -12.914   3.611  17.214  1.00  0.00     0.000 C 
BRANCH  11  12
ATOM     12  C   UNL     1     -12.033   2.371  16.992  1.00  0.00     0.000 C 
BRANCH  12  13
ATOM     13  C   UNL     1     -11.002   2.568  15.867  1.00  0.00     0.006 C 
BRANCH  13  14
ATOM     14  C   UNL     1     -10.047   1.374  15.739  1.00  0.00     0.053 C 
BRANCH  14  15
ATOM     15  C   UNL     1     -10.250   0.630  14.454  1.00  0.00     0.041 C 
ATOM     16  O   UNL     1     -11.414   0.420  14.019  1.00  0.00    -0.550 OA
ATOM     17  O   UNL     1      -9.154   0.152  13.748  1.00  0.00    -0.550 OA
ENDBRANCH  14  15
ENDBRANCH  13  14
ENDBRANCH  12  13
ENDBRANCH  11  12
ENDBRANCH  10  11
ENDBRANCH   9  10
ENDBRANCH   8   9
ENDBRANCH   7   8
ENDBRANCH   6   7
ENDBRANCH   5   6
ENDBRANCH   4   5
ENDBRANCH   3   4
ENDBRANCH   2   3
ENDBRANCH   1   2
BRANCH   1  18
ATOM     18  C   UNL     1     -11.692   0.637  20.954  1.00  0.00     0.000 C 
BRANCH  18  19
ATOM     19  C   UNL     1     -12.133   1.867  21.763  1.00  0.00     0.000 C 
BRANCH  19  20
ATOM     20  C   UNL     1     -13.343   1.579  22.671  1.00  0.00     0.000 C 
BRANCH  20  21
ATOM     21  C   UNL     1     -13.007   1.383  24.165  1.00  0.00     0.000 C 
BRANCH  21  22
ATOM     22  C   UNL     1     -12.835  -0.080  24.609  1.00  0.00     0.000 C 
BRANCH  22  23
ATOM     23  C   UNL     1     -11.946  -0.295  25.849  1.00  0.00     0.000 C 
BRANCH  23  24
ATOM     24  C   UNL     1     -10.540   0.332  25.735  1.00  0.00    -0.000 C 
BRANCH  24  25
ATOM     25  C   UNL     1      -9.748  -0.197  24.525  1.00  0.00    -0.000 C 
BRANCH  25  26
ATOM     26  C   UNL     1      -9.066   0.930  23.734  1.00  0.00    -0.000 C 
BRANCH  26  27
ATOM     27  C   UNL     1      -8.806   2.174  24.598  1.00  0.00    -0.000 C 
BRANCH  27  28
ATOM     28  C   UNL     1      -8.942   3.457  23.770  1.00  0.00    -0.000 C 
BRANCH  28  29
ATOM     29  C   UNL     1     -10.339   4.073  23.934  1.00  0.00    -0.000 C 
BRANCH  29  30
ATOM     30  C   UNL     1     -10.700   5.017  22.769  1.00  0.00    -0.000 C 
BRANCH  30  31
ATOM     31  C   UNL     1     -10.107   6.427  22.916  1.00  0.00    -0.003 C 
ATOM     32  C   UNL     1      -8.984   6.712  21.919  1.00  0.00     0.004 C 
ENDBRANCH  30  31
ENDBRANCH  29  30
ENDBRANCH  28  29
ENDBRANCH  27  28
ENDBRANCH  26  27
ENDBRANCH  25  26
ENDBRANCH  24  25
ENDBRANCH  23  24
ENDBRANCH  22  23
ENDBRANCH  21  22
ENDBRANCH  20  21
ENDBRANCH  19  20
ENDBRANCH  18  19
ENDBRANCH   1  18
TORSDOF 28
ENDMDL
MODEL 9
REMARK VINA RESULT:    -4.168      1.962      4.423
REMARK INTER + INTRA:         -16.263
REMARK INTER:                 -10.264
REMARK INTRA:                  -6.000
REMARK UNBOUND:                -5.274
REMARK SMILES CCCCCCCCCCCCCCCCCCCCCCCCCCCCCC(=O)[O-]
REMARK SMILES IDX 16 1 17 2 18 3 19 4 20 5 21 6 22 7 23 8 24 9 25 10 26 11
REMARK SMILES IDX 27 12 28 13 29 14 30 15 31 16 32 17 15 18 14 19 13 20 12 21
REMARK SMILES IDX 11 22 10 23 9 24 8 25 7 26 6 27 5 28 4 29 3 30 2 31 1 32
REMARK H PARENT
REMARK Flexibility Score: inf
ROOT
ATOM      1  C   UNL     1      -8.744  -1.252  21.814  1.00  0.00     0.000 C 
ENDROOT
BRANCH   1   2
ATOM      2  C   UNL     1      -9.770  -0.438  21.010  1.00  0.00     0.000 C 
BRANCH   2   3
ATOM      3  C   UNL     1      -9.133   0.152  19.746  1.00  0.00     0.000 C 
BRANCH   3   4
ATOM      4  C   UNL     1      -9.615   1.591  19.508  1.00  0.00     0.000 C 
BRANCH   4   5
ATOM      5  C   UNL     1     -11.149   1.709  19.487  1.00  0.00     0.000 C 
BRANCH   5   6
ATOM      6  C   UNL     1     -11.722   2.942  20.217  1.00  0.00     0.000 C 
BRANCH   6   7
ATOM      7  C   UNL     1     -13.073   3.452  19.681  1.00  0.00     0.000 C 
BRANCH   7   8
ATOM      8  C   UNL     1     -12.951   4.121  18.301  1.00  0.00     0.000 C 
BRANCH   8   9
ATOM      9  C   UNL     1     -11.853   5.195  18.259  1.00  0.00     0.000 C 
BRANCH   9  10
ATOM     10  C   UNL     1     -11.037   5.155  16.957  1.00  0.00     0.000 C 
BRANCH  10  11
ATOM     11  C   UNL     1      -9.705   4.417  17.164  1.00  0.00     0.000 C 
BRANCH  11  12
ATOM     12  C   UNL     1      -9.574   3.167  16.278  1.00  0.00     0.000 C 
BRANCH  12  13
ATOM     13  C   UNL     1     -10.884   2.813  15.554  1.00  0.00     0.006 C 
BRANCH  13  14
ATOM     14  C   UNL     1     -11.231   1.323  15.678  1.00  0.00     0.053 C 
BRANCH  14  15
ATOM     15  C   UNL     1     -10.962   0.579  14.405  1.00  0.00     0.041 C 
ATOM     16  O   UNL     1     -11.913   0.071  13.753  1.00  0.00    -0.550 OA
ATOM     17  O   UNL     1      -9.658   0.430  13.951  1.00  0.00    -0.550 OA
ENDBRANCH  14  15
ENDBRANCH  13  14
ENDBRANCH  12  13
ENDBRANCH  11  12
ENDBRANCH  10  11
ENDBRANCH   9  10
ENDBRANCH   8   9
ENDBRANCH   7   8
ENDBRANCH   6   7
ENDBRANCH   5   6
ENDBRANCH   4   5
ENDBRANCH   3   4
ENDBRANCH   2   3
ENDBRANCH   1   2
BRANCH   1  18
ATOM     18  C   UNL     1      -8.318  -0.551  23.115  1.00  0.00     0.000 C 
BRANCH  18  19
ATOM     19  C   UNL     1      -9.515  -0.062  23.947  1.00  0.00     0.000 C 
BRANCH  19  20
ATOM     20  C   UNL     1      -9.409   1.426  24.325  1.00  0.00     0.000 C 
BRANCH  20  21
ATOM     21  C   UNL     1      -9.584   2.412  23.151  1.00  0.00     0.000 C 
BRANCH  21  22
ATOM     22  C   UNL     1      -9.121   3.853  23.434  1.00  0.00     0.000 C 
BRANCH  22  23
ATOM     23  C   UNL     1      -9.443   4.879  22.331  1.00  0.00     0.000 C 
BRANCH  23  24
ATOM     24  C   UNL     1     -10.374   6.024  22.785  1.00  0.00    -0.000 C 
BRANCH  24  25
ATOM     25  C   UNL     1     -11.784   5.922  22.177  1.00  0.00    -0.000 C 
BRANCH  25  26
ATOM     26  C   UNL     1     -12.749   5.124  23.068  1.00  0.00    -0.000 C 
BRANCH  26  27
ATOM     27  C   UNL     1     -12.432   5.287  24.563  1.00  0.00    -0.000 C 
BRANCH  27  28
ATOM     28  C   UNL     1     -12.686   3.980  25.324  1.00  0.00    -0.000 C 
BRANCH  28  29
ATOM     29  C   UNL     1     -12.917   2.814  24.352  1.00  0.00    -0.000 C 
BRANCH  29  30
ATOM     30  C   UNL     1     -13.127   1.475  25.088  1.00  0.00    -0.000 C 
BRANCH  30  31
ATOM     31  C   UNL     1     -13.252   0.269  24.143  1.00  0.00    -0.003 C 
ATOM     32  C   UNL     1     -12.884   0.599  22.698  1.00  0.00     0.004 C 
ENDBRANCH  30  31
ENDBRANCH  29  30
ENDBRANCH  28  29
ENDBRANCH  27  28
ENDBRANCH  26  27
ENDBRANCH  25  26
ENDBRANCH  24  25
ENDBRANCH  23  24
ENDBRANCH  22  23
ENDBRANCH  21  22
ENDBRANCH  20  21
ENDBRANCH  19  20
ENDBRANCH  18  19
ENDBRANCH   1  18
TORSDOF 28
ENDMDL
