MODEL 1
REMARK VINA RESULT:    -7.473      0.000      0.000
REMARK INTER + INTRA:          -9.385
REMARK INTER:                  -9.002
REMARK INTRA:                  -0.383
REMARK UNBOUND:                -0.383
REMARK SMILES O=c1c(O)c(-c2ccc(O)cc2O)oc2cc(O)cc(O)c12
REMARK SMILES IDX 5 1 3 2 2 3 1 4 22 5 20 6 19 7 17 8 16 9 15 10 14 11 6 12
REMARK SMILES IDX 8 13 7 14 9 15 11 16 12 17 10 18 13 20 4 22 21 24 18 26
REMARK H PARENT 10 19 13 21 4 23 21 25 18 27
REMARK Flexibility Score: inf
ROOT
ATOM      1  C   UNL     1      -6.539  48.171 -15.633  1.00  0.00     0.184 A 
ATOM      2  C   UNL     1      -7.225  49.398 -15.615  1.00  0.00     0.208 A 
ATOM      3  C   UNL     1      -6.571  50.533 -15.109  1.00  0.00     0.238 A 
ATOM      4  O   UNL     1      -7.179  51.637 -15.077  1.00  0.00    -0.285 OA
ATOM      5  C   UNL     1      -5.241  50.423 -14.650  1.00  0.00     0.111 A 
ATOM      6  C   UNL     1      -4.509  51.517 -14.128  1.00  0.00     0.134 A 
ATOM      7  C   UNL     1      -3.187  51.329 -13.700  1.00  0.00     0.093 A 
ATOM      8  C   UNL     1      -2.582  50.069 -13.785  1.00  0.00     0.123 A 
ATOM      9  C   UNL     1      -3.300  48.987 -14.298  1.00  0.00     0.094 A 
ATOM     10  C   UNL     1      -4.620  49.153 -14.728  1.00  0.00     0.146 A 
ATOM     11  O   UNL     1      -5.281  48.106 -15.208  1.00  0.00    -0.451 OA
ENDROOT
BRANCH   1  12
ATOM     12  C   UNL     1      -7.172  46.936 -16.142  1.00  0.00     0.063 A 
ATOM     13  C   UNL     1      -7.428  45.325 -17.944  1.00  0.00     0.047 A 
ATOM     14  C   UNL     1      -6.852  46.491 -17.434  1.00  0.00     0.020 A 
ATOM     15  C   UNL     1      -8.320  44.582 -17.166  1.00  0.00     0.119 A 
ATOM     16  C   UNL     1      -8.628  45.005 -15.866  1.00  0.00     0.093 A 
ATOM     17  C   UNL     1      -8.048  46.172 -15.345  1.00  0.00     0.130 A 
BRANCH  15  18
ATOM     18  O   UNL     1      -8.889  43.424 -17.690  1.00  0.00    -0.508 OA
ATOM     19  H   UNL     1      -8.619  42.505 -17.359  1.00  0.00     0.293 HD
ENDBRANCH  15  18
BRANCH  17  20
ATOM     20  O   UNL     1      -8.325  46.557 -14.032  1.00  0.00    -0.507 OA
ATOM     21  H   UNL     1      -7.808  47.299 -13.576  1.00  0.00     0.293 HD
ENDBRANCH  17  20
ENDBRANCH   1  12
BRANCH   2  22
ATOM     22  O   UNL     1      -8.525  49.484 -16.119  1.00  0.00    -0.502 OA
ATOM     23  H   UNL     1      -9.341  49.463 -15.519  1.00  0.00     0.293 HD
ENDBRANCH   2  22
BRANCH   6  24
ATOM     24  O   UNL     1      -5.084  52.785 -14.032  1.00  0.00    -0.507 OA
ATOM     25  H   UNL     1      -4.523  53.628 -14.058  1.00  0.00     0.293 HD
ENDBRANCH   6  24
BRANCH   8  26
ATOM     26  O   UNL     1      -1.269  49.883 -13.361  1.00  0.00    -0.508 OA
ATOM     27  H   UNL     1      -0.957  50.193 -12.449  1.00  0.00     0.293 HD
ENDBRANCH   8  26
TORSDOF 6
ENDMDL
MODEL 2
REMARK VINA RESULT:    -7.145      1.201      2.850
REMARK INTER + INTRA:          -8.990
REMARK INTER:                  -8.598
REMARK INTRA:                  -0.392
REMARK UNBOUND:                -0.383
REMARK SMILES O=c1c(O)c(-c2ccc(O)cc2O)oc2cc(O)cc(O)c12
REMARK SMILES IDX 5 1 3 2 2 3 1 4 22 5 20 6 19 7 17 8 16 9 15 10 14 11 6 12
REMARK SMILES IDX 8 13 7 14 9 15 11 16 12 17 10 18 13 20 4 22 21 24 18 26
REMARK H PARENT 10 19 13 21 4 23 21 25 18 27
REMARK Flexibility Score: inf
ROOT
ATOM      1  C   UNL     1      -5.943  48.004 -15.398  1.00  0.00     0.184 A 
ATOM      2  C   UNL     1      -4.606  47.808 -15.007  1.00  0.00     0.208 A 
ATOM      3  C   UNL     1      -3.890  48.891 -14.473  1.00  0.00     0.238 A 
ATOM      4  O   UNL     1      -2.687  48.731 -14.130  1.00  0.00    -0.285 OA
ATOM      5  C   UNL     1      -4.527  50.140 -14.323  1.00  0.00     0.111 A 
ATOM      6  C   UNL     1      -3.880  51.281 -13.791  1.00  0.00     0.134 A 
ATOM      7  C   UNL     1      -4.584  52.486 -13.665  1.00  0.00     0.093 A 
ATOM      8  C   UNL     1      -5.925  52.573 -14.058  1.00  0.00     0.123 A 
ATOM      9  C   UNL     1      -6.568  51.451 -14.584  1.00  0.00     0.094 A 
ATOM     10  C   UNL     1      -5.882  50.240 -14.720  1.00  0.00     0.146 A 
ATOM     11  O   UNL     1      -6.518  49.190 -15.227  1.00  0.00    -0.451 OA
ENDROOT
BRANCH   1  12
ATOM     12  C   UNL     1      -6.750  46.910 -15.977  1.00  0.00     0.063 A 
ATOM     13  C   UNL     1      -7.137  45.359 -17.809  1.00  0.00     0.047 A 
ATOM     14  C   UNL     1      -6.399  46.397 -17.236  1.00  0.00     0.020 A 
ATOM     15  C   UNL     1      -8.225  44.810 -17.126  1.00  0.00     0.119 A 
ATOM     16  C   UNL     1      -8.570  45.298 -15.859  1.00  0.00     0.093 A 
ATOM     17  C   UNL     1      -7.829  46.336 -15.274  1.00  0.00     0.130 A 
BRANCH  15  18
ATOM     18  O   UNL     1      -8.954  43.778 -17.713  1.00  0.00    -0.508 OA
ATOM     19  H   UNL     1      -8.950  43.630 -18.715  1.00  0.00     0.293 HD
ENDBRANCH  15  18
BRANCH  17  20
ATOM     20  O   UNL     1      -8.152  46.781 -13.991  1.00  0.00    -0.507 OA
ATOM     21  H   UNL     1      -7.457  46.830 -13.256  1.00  0.00     0.293 HD
ENDBRANCH  17  20
ENDBRANCH   1  12
BRANCH   2  22
ATOM     22  O   UNL     1      -4.017  46.547 -15.127  1.00  0.00    -0.502 OA
ATOM     23  H   UNL     1      -4.163  45.814 -14.443  1.00  0.00     0.293 HD
ENDBRANCH   2  22
BRANCH   6  24
ATOM     24  O   UNL     1      -2.544  51.226 -13.389  1.00  0.00    -0.507 OA
ATOM     25  H   UNL     1      -1.807  51.670 -13.924  1.00  0.00     0.293 HD
ENDBRANCH   6  24
BRANCH   8  26
ATOM     26  O   UNL     1      -6.626  53.770 -13.932  1.00  0.00    -0.508 OA
ATOM     27  H   UNL     1      -7.434  53.974 -14.507  1.00  0.00     0.293 HD
ENDBRANCH   8  26
TORSDOF 6
ENDMDL
MODEL 3
REMARK VINA RESULT:    -7.013      2.585      5.474
REMARK INTER + INTRA:          -8.831
REMARK INTER:                  -8.508
REMARK INTRA:                  -0.322
REMARK UNBOUND:                -0.383
REMARK SMILES O=c1c(O)c(-c2ccc(O)cc2O)oc2cc(O)cc(O)c12
REMARK SMILES IDX 5 1 3 2 2 3 1 4 22 5 20 6 19 7 17 8 16 9 15 10 14 11 6 12
REMARK SMILES IDX 8 13 7 14 9 15 11 16 12 17 10 18 13 20 4 22 21 24 18 26
REMARK H PARENT 10 19 13 21 4 23 21 25 18 27
REMARK Flexibility Score: inf
ROOT
ATOM      1  C   UNL     1      -6.888  50.795 -15.963  1.00  0.00     0.184 A 
ATOM      2  C   UNL     1      -7.368  49.474 -15.943  1.00  0.00     0.208 A 
ATOM      3  C   UNL     1      -6.545  48.461 -15.425  1.00  0.00     0.238 A 
ATOM      4  O   UNL     1      -6.960  47.270 -15.412  1.00  0.00    -0.285 OA
ATOM      5  C   UNL     1      -5.268  48.791 -14.923  1.00  0.00     0.111 A 
ATOM      6  C   UNL     1      -4.378  47.833 -14.382  1.00  0.00     0.134 A 
ATOM      7  C   UNL     1      -3.129  48.241 -13.894  1.00  0.00     0.093 A 
ATOM      8  C   UNL     1      -2.753  49.589 -13.934  1.00  0.00     0.123 A 
ATOM      9  C   UNL     1      -3.627  50.537 -14.467  1.00  0.00     0.094 A 
ATOM     10  C   UNL     1      -4.877  50.150 -14.961  1.00  0.00     0.146 A 
ATOM     11  O   UNL     1      -5.687  51.074 -15.467  1.00  0.00    -0.451 OA
ENDROOT
BRANCH   1  12
ATOM     12  C   UNL     1      -7.698  51.906 -16.504  1.00  0.00     0.063 A 
ATOM     13  C   UNL     1      -9.726  53.244 -16.391  1.00  0.00     0.047 A 
ATOM     14  C   UNL     1      -8.937  52.197 -15.909  1.00  0.00     0.020 A 
ATOM     15  C   UNL     1      -9.282  54.023 -17.463  1.00  0.00     0.119 A 
ATOM     16  C   UNL     1      -8.037  53.757 -18.048  1.00  0.00     0.093 A 
ATOM     17  C   UNL     1      -7.236  52.711 -17.566  1.00  0.00     0.130 A 
BRANCH  15  18
ATOM     18  O   UNL     1     -10.082  55.061 -17.936  1.00  0.00    -0.508 OA
ATOM     19  H   UNL     1     -10.256  55.890 -17.379  1.00  0.00     0.293 HD
ENDBRANCH  15  18
BRANCH  17  20
ATOM     20  O   UNL     1      -5.977  52.486 -18.125  1.00  0.00    -0.507 OA
ATOM     21  H   UNL     1      -5.845  51.838 -18.891  1.00  0.00     0.293 HD
ENDBRANCH  17  20
ENDBRANCH   1  12
BRANCH   2  22
ATOM     22  O   UNL     1      -8.654  49.187 -16.406  1.00  0.00    -0.502 OA
ATOM     23  H   UNL     1      -8.932  49.346 -17.367  1.00  0.00     0.293 HD
ENDBRANCH   2  22
BRANCH   6  24
ATOM     24  O   UNL     1      -4.724  46.482 -14.326  1.00  0.00    -0.507 OA
ATOM     25  H   UNL     1      -5.510  46.111 -14.848  1.00  0.00     0.293 HD
ENDBRANCH   6  24
BRANCH   8  26
ATOM     26  O   UNL     1      -1.512  49.994 -13.448  1.00  0.00    -0.508 OA
ATOM     27  H   UNL     1      -1.022  49.463 -12.739  1.00  0.00     0.293 HD
ENDBRANCH   8  26
TORSDOF 6
ENDMDL
MODEL 4
REMARK VINA RESULT:    -6.815      3.012      6.163
REMARK INTER + INTRA:          -8.593
REMARK INTER:                  -8.173
REMARK INTRA:                  -0.420
REMARK UNBOUND:                -0.383
REMARK SMILES O=c1c(O)c(-c2ccc(O)cc2O)oc2cc(O)cc(O)c12
REMARK SMILES IDX 5 1 3 2 2 3 1 4 22 5 20 6 19 7 17 8 16 9 15 10 14 11 6 12
REMARK SMILES IDX 8 13 7 14 9 15 11 16 12 17 10 18 13 20 4 22 21 24 18 26
REMARK H PARENT 10 19 13 21 4 23 21 25 18 27
REMARK Flexibility Score: inf
ROOT
ATOM      1  C   UNL     1      -7.169  51.537 -16.493  1.00  0.00     0.184 A 
ATOM      2  C   UNL     1      -7.922  50.459 -16.991  1.00  0.00     0.208 A 
ATOM      3  C   UNL     1      -7.438  49.154 -16.811  1.00  0.00     0.238 A 
ATOM      4  O   UNL     1      -8.099  48.179 -17.263  1.00  0.00    -0.285 OA
ATOM      5  C   UNL     1      -6.223  48.950 -16.124  1.00  0.00     0.111 A 
ATOM      6  C   UNL     1      -5.667  47.668 -15.897  1.00  0.00     0.134 A 
ATOM      7  C   UNL     1      -4.458  47.548 -15.196  1.00  0.00     0.093 A 
ATOM      8  C   UNL     1      -3.796  48.685 -14.716  1.00  0.00     0.123 A 
ATOM      9  C   UNL     1      -4.341  49.951 -14.937  1.00  0.00     0.094 A 
ATOM     10  C   UNL     1      -5.544  50.092 -15.635  1.00  0.00     0.146 A 
ATOM     11  O   UNL     1      -6.037  51.309 -15.835  1.00  0.00    -0.451 OA
ENDROOT
BRANCH   1  12
ATOM     12  C   UNL     1      -7.616  52.936 -16.656  1.00  0.00     0.063 A 
ATOM     13  C   UNL     1      -7.941  54.856 -18.112  1.00  0.00     0.047 A 
ATOM     14  C   UNL     1      -7.522  53.537 -17.922  1.00  0.00     0.020 A 
ATOM     15  C   UNL     1      -8.472  55.586 -17.046  1.00  0.00     0.119 A 
ATOM     16  C   UNL     1      -8.592  54.988 -15.785  1.00  0.00     0.093 A 
ATOM     17  C   UNL     1      -8.179  53.662 -15.587  1.00  0.00     0.130 A 
BRANCH  15  18
ATOM     18  O   UNL     1      -8.881  56.902 -17.250  1.00  0.00    -0.508 OA
ATOM     19  H   UNL     1      -8.385  57.681 -16.834  1.00  0.00     0.293 HD
ENDBRANCH  15  18
BRANCH  17  20
ATOM     20  O   UNL     1      -8.349  53.061 -14.339  1.00  0.00    -0.507 OA
ATOM     21  H   UNL     1      -9.254  53.028 -13.884  1.00  0.00     0.293 HD
ENDBRANCH  17  20
ENDBRANCH   1  12
BRANCH   2  22
ATOM     22  O   UNL     1      -9.144  50.691 -17.627  1.00  0.00    -0.502 OA
ATOM     23  H   UNL     1      -9.282  51.461 -18.271  1.00  0.00     0.293 HD
ENDBRANCH   2  22
BRANCH   6  24
ATOM     24  O   UNL     1      -6.303  46.517 -16.363  1.00  0.00    -0.507 OA
ATOM     25  H   UNL     1      -6.018  45.592 -16.064  1.00  0.00     0.293 HD
ENDBRANCH   6  24
BRANCH   8  26
ATOM     26  O   UNL     1      -2.597  48.565 -14.018  1.00  0.00    -0.508 OA
ATOM     27  H   UNL     1      -1.735  48.310 -14.485  1.00  0.00     0.293 HD
ENDBRANCH   8  26
TORSDOF 6
ENDMDL
MODEL 5
REMARK VINA RESULT:    -6.626      2.816      7.337
REMARK INTER + INTRA:          -8.364
REMARK INTER:                  -7.946
REMARK INTRA:                  -0.418
REMARK UNBOUND:                -0.383
REMARK SMILES O=c1c(O)c(-c2ccc(O)cc2O)oc2cc(O)cc(O)c12
REMARK SMILES IDX 5 1 3 2 2 3 1 4 22 5 20 6 19 7 17 8 16 9 15 10 14 11 6 12
REMARK SMILES IDX 8 13 7 14 9 15 11 16 12 17 10 18 13 20 4 22 21 24 18 26
REMARK H PARENT 10 19 13 21 4 23 21 25 18 27
REMARK Flexibility Score: inf
ROOT
ATOM      1  C   UNL     1      -4.863  51.830 -13.040  1.00  0.00     0.184 A 
ATOM      2  C   UNL     1      -3.478  51.638 -13.195  1.00  0.00     0.208 A 
ATOM      3  C   UNL     1      -3.015  50.402 -13.673  1.00  0.00     0.238 A 
ATOM      4  O   UNL     1      -1.775  50.213 -13.805  1.00  0.00    -0.285 OA
ATOM      5  C   UNL     1      -3.942  49.392 -14.004  1.00  0.00     0.111 A 
ATOM      6  C   UNL     1      -3.559  48.120 -14.496  1.00  0.00     0.134 A 
ATOM      7  C   UNL     1      -4.542  47.171 -14.811  1.00  0.00     0.093 A 
ATOM      8  C   UNL     1      -5.900  47.470 -14.647  1.00  0.00     0.123 A 
ATOM      9  C   UNL     1      -6.282  48.722 -14.163  1.00  0.00     0.094 A 
ATOM     10  C   UNL     1      -5.317  49.681 -13.840  1.00  0.00     0.146 A 
ATOM     11  O   UNL     1      -5.710  50.863 -13.377  1.00  0.00    -0.451 OA
ENDROOT
BRANCH   1  12
ATOM     12  C   UNL     1      -5.417  53.102 -12.532  1.00  0.00     0.063 A 
ATOM     13  C   UNL     1      -5.921  55.449 -12.917  1.00  0.00     0.047 A 
ATOM     14  C   UNL     1      -5.400  54.232 -13.364  1.00  0.00     0.020 A 
ATOM     15  C   UNL     1      -6.478  55.549 -11.639  1.00  0.00     0.119 A 
ATOM     16  C   UNL     1      -6.521  54.421 -10.809  1.00  0.00     0.093 A 
ATOM     17  C   UNL     1      -6.005  53.194 -11.254  1.00  0.00     0.130 A 
BRANCH  15  18
ATOM     18  O   UNL     1      -6.989  56.770 -11.206  1.00  0.00    -0.508 OA
ATOM     19  H   UNL     1      -6.477  57.359 -10.559  1.00  0.00     0.293 HD
ENDBRANCH  15  18
BRANCH  17  20
ATOM     20  O   UNL     1      -6.097  52.066 -10.437  1.00  0.00    -0.507 OA
ATOM     21  H   UNL     1      -6.822  51.371 -10.570  1.00  0.00     0.293 HD
ENDBRANCH  17  20
ENDBRANCH   1  12
BRANCH   2  22
ATOM     22  O   UNL     1      -2.589  52.674 -12.901  1.00  0.00    -0.502 OA
ATOM     23  H   UNL     1      -2.904  53.595 -12.622  1.00  0.00     0.293 HD
ENDBRANCH   2  22
BRANCH   6  24
ATOM     24  O   UNL     1      -2.214  47.794 -14.671  1.00  0.00    -0.507 OA
ATOM     25  H   UNL     1      -1.476  48.474 -14.525  1.00  0.00     0.293 HD
ENDBRANCH   6  24
BRANCH   8  26
ATOM     26  O   UNL     1      -6.876  46.528 -14.962  1.00  0.00    -0.508 OA
ATOM     27  H   UNL     1      -6.768  45.894 -15.745  1.00  0.00     0.293 HD
ENDBRANCH   8  26
TORSDOF 6
ENDMDL
MODEL 6
REMARK VINA RESULT:    -6.602      3.092      5.320
REMARK INTER + INTRA:          -8.335
REMARK INTER:                  -7.920
REMARK INTRA:                  -0.415
REMARK UNBOUND:                -0.383
REMARK SMILES O=c1c(O)c(-c2ccc(O)cc2O)oc2cc(O)cc(O)c12
REMARK SMILES IDX 5 1 3 2 2 3 1 4 22 5 20 6 19 7 17 8 16 9 15 10 14 11 6 12
REMARK SMILES IDX 8 13 7 14 9 15 11 16 12 17 10 18 13 20 4 22 21 24 18 26
REMARK H PARENT 10 19 13 21 4 23 21 25 18 27
REMARK Flexibility Score: inf
ROOT
ATOM      1  C   UNL     1      -6.048  51.264 -15.336  1.00  0.00     0.184 A 
ATOM      2  C   UNL     1      -6.363  51.592 -16.666  1.00  0.00     0.208 A 
ATOM      3  C   UNL     1      -6.951  52.837 -16.937  1.00  0.00     0.238 A 
ATOM      4  O   UNL     1      -7.249  53.139 -18.125  1.00  0.00    -0.285 OA
ATOM      5  C   UNL     1      -7.195  53.737 -15.877  1.00  0.00     0.111 A 
ATOM      6  C   UNL     1      -7.781  55.012 -16.063  1.00  0.00     0.134 A 
ATOM      7  C   UNL     1      -7.984  55.852 -14.960  1.00  0.00     0.093 A 
ATOM      8  C   UNL     1      -7.610  55.444 -13.673  1.00  0.00     0.123 A 
ATOM      9  C   UNL     1      -7.032  54.187 -13.485  1.00  0.00     0.094 A 
ATOM     10  C   UNL     1      -6.824  53.333 -14.573  1.00  0.00     0.146 A 
ATOM     11  O   UNL     1      -6.276  52.141 -14.363  1.00  0.00    -0.451 OA
ENDROOT
BRANCH   1  12
ATOM     12  C   UNL     1      -5.437  49.966 -14.981  1.00  0.00     0.063 A 
ATOM     13  C   UNL     1      -5.674  47.561 -14.721  1.00  0.00     0.047 A 
ATOM     14  C   UNL     1      -6.222  48.804 -15.045  1.00  0.00     0.020 A 
ATOM     15  C   UNL     1      -4.332  47.460 -14.344  1.00  0.00     0.119 A 
ATOM     16  C   UNL     1      -3.534  48.610 -14.300  1.00  0.00     0.093 A 
ATOM     17  C   UNL     1      -4.075  49.862 -14.629  1.00  0.00     0.130 A 
BRANCH  15  18
ATOM     18  O   UNL     1      -3.802  46.213 -14.020  1.00  0.00    -0.508 OA
ATOM     19  H   UNL     1      -3.340  45.638 -14.716  1.00  0.00     0.293 HD
ENDBRANCH  15  18
BRANCH  17  20
ATOM     20  O   UNL     1      -3.258  50.993 -14.628  1.00  0.00    -0.507 OA
ATOM     21  H   UNL     1      -2.924  51.407 -15.490  1.00  0.00     0.293 HD
ENDBRANCH  17  20
ENDBRANCH   1  12
BRANCH   2  22
ATOM     22  O   UNL     1      -6.067  50.698 -17.698  1.00  0.00    -0.502 OA
ATOM     23  H   UNL     1      -6.680  50.568 -18.495  1.00  0.00     0.293 HD
ENDBRANCH   2  22
BRANCH   6  24
ATOM     24  O   UNL     1      -8.164  55.448 -17.332  1.00  0.00    -0.507 OA
ATOM     25  H   UNL     1      -8.569  56.365 -17.482  1.00  0.00     0.293 HD
ENDBRANCH   6  24
BRANCH   8  26
ATOM     26  O   UNL     1      -7.809  56.280 -12.578  1.00  0.00    -0.508 OA
ATOM     27  H   UNL     1      -7.491  57.241 -12.580  1.00  0.00     0.293 HD
ENDBRANCH   8  26
TORSDOF 6
ENDMDL
MODEL 7
REMARK VINA RESULT:    -6.595      8.519     10.981
REMARK INTER + INTRA:          -8.327
REMARK INTER:                  -7.910
REMARK INTRA:                  -0.416
REMARK UNBOUND:                -0.383
REMARK SMILES O=c1c(O)c(-c2ccc(O)cc2O)oc2cc(O)cc(O)c12
REMARK SMILES IDX 5 1 3 2 2 3 1 4 22 5 20 6 19 7 17 8 16 9 15 10 14 11 6 12
REMARK SMILES IDX 8 13 7 14 9 15 11 16 12 17 10 18 13 20 4 22 21 24 18 26
REMARK H PARENT 10 19 13 21 4 23 21 25 18 27
REMARK Flexibility Score: inf
ROOT
ATOM      1  C   UNL     1      -7.375  53.837  -7.372  1.00  0.00     0.184 A 
ATOM      2  C   UNL     1      -6.536  54.056  -6.264  1.00  0.00     0.208 A 
ATOM      3  C   UNL     1      -5.970  52.949  -5.613  1.00  0.00     0.238 A 
ATOM      4  O   UNL     1      -5.225  53.131  -4.612  1.00  0.00    -0.285 OA
ATOM      5  C   UNL     1      -6.238  51.648  -6.091  1.00  0.00     0.111 A 
ATOM      6  C   UNL     1      -5.706  50.479  -5.496  1.00  0.00     0.134 A 
ATOM      7  C   UNL     1      -6.011  49.222  -6.035  1.00  0.00     0.093 A 
ATOM      8  C   UNL     1      -6.838  49.111  -7.160  1.00  0.00     0.123 A 
ATOM      9  C   UNL     1      -7.365  50.260  -7.751  1.00  0.00     0.094 A 
ATOM     10  C   UNL     1      -7.074  51.523  -7.227  1.00  0.00     0.146 A 
ATOM     11  O   UNL     1      -7.593  52.600  -7.806  1.00  0.00    -0.451 OA
ENDROOT
BRANCH   1  12
ATOM     12  C   UNL     1      -8.011  54.957  -8.096  1.00  0.00     0.063 A 
ATOM     13  C   UNL     1      -7.968  56.514  -9.963  1.00  0.00     0.047 A 
ATOM     14  C   UNL     1      -7.391  55.460  -9.251  1.00  0.00     0.020 A 
ATOM     15  C   UNL     1      -9.178  57.070  -9.538  1.00  0.00     0.119 A 
ATOM     16  C   UNL     1      -9.817  56.560  -8.401  1.00  0.00     0.093 A 
ATOM     17  C   UNL     1      -9.246  55.497  -7.684  1.00  0.00     0.130 A 
BRANCH  15  18
ATOM     18  O   UNL     1      -9.739  58.124 -10.256  1.00  0.00    -0.508 OA
ATOM     19  H   UNL     1      -9.324  58.456 -11.119  1.00  0.00     0.293 HD
ENDBRANCH  15  18
BRANCH  17  20
ATOM     20  O   UNL     1      -9.916  54.966  -6.581  1.00  0.00    -0.507 OA
ATOM     21  H   UNL     1     -10.084  55.515  -5.747  1.00  0.00     0.293 HD
ENDBRANCH  17  20
ENDBRANCH   1  12
BRANCH   2  22
ATOM     22  O   UNL     1      -6.254  55.358  -5.844  1.00  0.00    -0.502 OA
ATOM     23  H   UNL     1      -5.562  55.559  -5.133  1.00  0.00     0.293 HD
ENDBRANCH   2  22
BRANCH   6  24
ATOM     24  O   UNL     1      -4.879  50.558  -4.375  1.00  0.00    -0.507 OA
ATOM     25  H   UNL     1      -5.099  50.071  -3.514  1.00  0.00     0.293 HD
ENDBRANCH   6  24
BRANCH   8  26
ATOM     26  O   UNL     1      -7.140  47.862  -7.697  1.00  0.00    -0.508 OA
ATOM     27  H   UNL     1      -6.477  47.097  -7.667  1.00  0.00     0.293 HD
ENDBRANCH   8  26
TORSDOF 6
ENDMDL
MODEL 8
REMARK VINA RESULT:    -6.391      8.715     12.251
REMARK INTER + INTRA:          -8.081
REMARK INTER:                  -7.659
REMARK INTRA:                  -0.423
REMARK UNBOUND:                -0.383
REMARK SMILES O=c1c(O)c(-c2ccc(O)cc2O)oc2cc(O)cc(O)c12
REMARK SMILES IDX 5 1 3 2 2 3 1 4 22 5 20 6 19 7 17 8 16 9 15 10 14 11 6 12
REMARK SMILES IDX 8 13 7 14 9 15 11 16 12 17 10 18 13 20 4 22 21 24 18 26
REMARK H PARENT 10 19 13 21 4 23 21 25 18 27
REMARK Flexibility Score: inf
ROOT
ATOM      1  C   UNL     1      -7.134  56.402  -7.237  1.00  0.00     0.184 A 
ATOM      2  C   UNL     1      -8.009  57.154  -8.041  1.00  0.00     0.208 A 
ATOM      3  C   UNL     1      -8.058  56.891  -9.419  1.00  0.00     0.238 A 
ATOM      4  O   UNL     1      -8.831  57.567 -10.153  1.00  0.00    -0.285 OA
ATOM      5  C   UNL     1      -7.248  55.872  -9.963  1.00  0.00     0.111 A 
ATOM      6  C   UNL     1      -7.239  55.542 -11.339  1.00  0.00     0.134 A 
ATOM      7  C   UNL     1      -6.411  54.509 -11.802  1.00  0.00     0.093 A 
ATOM      8  C   UNL     1      -5.593  53.799 -10.915  1.00  0.00     0.123 A 
ATOM      9  C   UNL     1      -5.599  54.121  -9.557  1.00  0.00     0.094 A 
ATOM     10  C   UNL     1      -6.415  55.149  -9.076  1.00  0.00     0.146 A 
ATOM     11  O   UNL     1      -6.397  55.438  -7.779  1.00  0.00    -0.451 OA
ENDROOT
BRANCH   1  12
ATOM     12  C   UNL     1      -7.026  56.634  -5.782  1.00  0.00     0.063 A 
ATOM     13  C   UNL     1      -7.918  56.273  -3.549  1.00  0.00     0.047 A 
ATOM     14  C   UNL     1      -7.993  56.078  -4.930  1.00  0.00     0.020 A 
ATOM     15  C   UNL     1      -6.867  57.013  -3.000  1.00  0.00     0.119 A 
ATOM     16  C   UNL     1      -5.883  57.552  -3.839  1.00  0.00     0.093 A 
ATOM     17  C   UNL     1      -5.949  57.355  -5.227  1.00  0.00     0.130 A 
BRANCH  15  18
ATOM     18  O   UNL     1      -6.807  57.203  -1.621  1.00  0.00    -0.508 OA
ATOM     19  H   UNL     1      -6.216  57.916  -1.210  1.00  0.00     0.293 HD
ENDBRANCH  15  18
BRANCH  17  20
ATOM     20  O   UNL     1      -4.937  57.856  -6.047  1.00  0.00    -0.507 OA
ATOM     21  H   UNL     1      -4.041  58.142  -5.671  1.00  0.00     0.293 HD
ENDBRANCH  17  20
ENDBRANCH   1  12
BRANCH   2  22
ATOM     22  O   UNL     1      -8.832  58.125  -7.465  1.00  0.00    -0.502 OA
ATOM     23  H   UNL     1      -8.615  59.113  -7.508  1.00  0.00     0.293 HD
ENDBRANCH   2  22
BRANCH   6  24
ATOM     24  O   UNL     1      -8.044  56.230 -12.248  1.00  0.00    -0.507 OA
ATOM     25  H   UNL     1      -8.900  55.829 -12.614  1.00  0.00     0.293 HD
ENDBRANCH   6  24
BRANCH   8  26
ATOM     26  O   UNL     1      -4.773  52.772 -11.374  1.00  0.00    -0.508 OA
ATOM     27  H   UNL     1      -4.212  52.217 -10.738  1.00  0.00     0.293 HD
ENDBRANCH   8  26
TORSDOF 6
ENDMDL
MODEL 9
REMARK VINA RESULT:    -6.263      8.634     10.255
REMARK INTER + INTRA:          -7.927
REMARK INTER:                  -7.565
REMARK INTRA:                  -0.362
REMARK UNBOUND:                -0.383
REMARK SMILES O=c1c(O)c(-c2ccc(O)cc2O)oc2cc(O)cc(O)c12
REMARK SMILES IDX 5 1 3 2 2 3 1 4 22 5 20 6 19 7 17 8 16 9 15 10 14 11 6 12
REMARK SMILES IDX 8 13 7 14 9 15 11 16 12 17 10 18 13 20 4 22 21 24 18 26
REMARK H PARENT 10 19 13 21 4 23 21 25 18 27
REMARK Flexibility Score: inf
ROOT
ATOM      1  C   UNL     1      -7.701  52.723  -6.782  1.00  0.00     0.184 A 
ATOM      2  C   UNL     1      -8.927  53.261  -6.352  1.00  0.00     0.208 A 
ATOM      3  C   UNL     1      -9.034  54.650  -6.180  1.00  0.00     0.238 A 
ATOM      4  O   UNL     1     -10.125  55.144  -5.784  1.00  0.00    -0.285 OA
ATOM      5  C   UNL     1      -7.923  55.474  -6.457  1.00  0.00     0.111 A 
ATOM      6  C   UNL     1      -7.947  56.882  -6.312  1.00  0.00     0.134 A 
ATOM      7  C   UNL     1      -6.803  57.632  -6.616  1.00  0.00     0.093 A 
ATOM      8  C   UNL     1      -5.635  57.003  -7.065  1.00  0.00     0.123 A 
ATOM      9  C   UNL     1      -5.606  55.615  -7.209  1.00  0.00     0.094 A 
ATOM     10  C   UNL     1      -6.736  54.848  -6.908  1.00  0.00     0.146 A 
ATOM     11  O   UNL     1      -6.679  53.529  -7.050  1.00  0.00    -0.451 OA
ENDROOT
BRANCH   1  12
ATOM     12  C   UNL     1      -7.518  51.269  -6.974  1.00  0.00     0.063 A 
ATOM     13  C   UNL     1      -8.113  49.241  -8.176  1.00  0.00     0.047 A 
ATOM     14  C   UNL     1      -8.266  50.613  -7.965  1.00  0.00     0.020 A 
ATOM     15  C   UNL     1      -7.200  48.509  -7.411  1.00  0.00     0.119 A 
ATOM     16  C   UNL     1      -6.432  49.158  -6.436  1.00  0.00     0.093 A 
ATOM     17  C   UNL     1      -6.576  50.537  -6.222  1.00  0.00     0.130 A 
BRANCH  15  18
ATOM     18  O   UNL     1      -7.062  47.141  -7.631  1.00  0.00    -0.508 OA
ATOM     19  H   UNL     1      -7.665  46.645  -8.277  1.00  0.00     0.293 HD
ENDBRANCH  15  18
BRANCH  17  20
ATOM     20  O   UNL     1      -5.770  51.181  -5.282  1.00  0.00    -0.507 OA
ATOM     21  H   UNL     1      -5.593  50.778  -4.370  1.00  0.00     0.293 HD
ENDBRANCH  17  20
ENDBRANCH   1  12
BRANCH   2  22
ATOM     22  O   UNL     1     -10.022  52.423  -6.130  1.00  0.00    -0.502 OA
ATOM     23  H   UNL     1     -10.746  52.645  -5.457  1.00  0.00     0.293 HD
ENDBRANCH   2  22
BRANCH   6  24
ATOM     24  O   UNL     1      -9.096  57.538  -5.868  1.00  0.00    -0.507 OA
ATOM     25  H   UNL     1      -9.065  58.218  -5.118  1.00  0.00     0.293 HD
ENDBRANCH   6  24
BRANCH   8  26
ATOM     26  O   UNL     1      -4.499  57.749  -7.369  1.00  0.00    -0.508 OA
ATOM     27  H   UNL     1      -3.587  57.498  -7.005  1.00  0.00     0.293 HD
ENDBRANCH   8  26
TORSDOF 6
ENDMDL
