MODEL 1
REMARK VINA RESULT:    17.346      0.000      0.000
REMARK INTER + INTRA:          26.689
REMARK INTER:                  26.473
REMARK INTRA:                   0.216
REMARK UNBOUND:                 0.216
REMARK SMILES CC1=CCC[C@@H](C)C(=O)C[C@@H](C(C)C)C(=O)C1
REMARK SMILES IDX 8 1 9 2 6 3 7 4 5 5 4 6 3 7 2 8 1 9 10 11 11 12 15 13 16 14
REMARK SMILES IDX 17 15 12 17 13 18 14 19
REMARK H PARENT
REMARK Flexibility Score: 70.00
ROOT
ATOM      1  C   UNL     1      36.254  10.601  40.053  1.00  0.00     0.136 C 
ATOM      2  O   UNL     1      36.976  10.229  39.139  1.00  0.00    -0.299 OA
ENDROOT
BRANCH   1   3
ATOM      3  C   UNL     1      35.203   9.663  40.599  1.00  0.00     0.053 C 
ATOM      4  C   UNL     1      35.851   8.417  41.213  1.00  0.00     0.016 C 
BRANCH   3   5
ATOM      5  C   UNL     1      34.212   9.286  39.470  1.00  0.00     0.015 C 
BRANCH   5   6
ATOM      6  C   UNL     1      32.727   9.613  39.731  1.00  0.00     0.028 C 
BRANCH   6   7
ATOM      7  C   UNL     1      32.386  10.322  41.025  1.00  0.00    -0.028 C 
ATOM      8  C   UNL     1      32.328  11.660  41.231  1.00  0.00    -0.070 CG0
ATOM      9  C   UNL     1      31.813  12.134  42.569  1.00  0.00     0.039 C 
ATOM     10  G   UNL     1      32.778  12.706  40.223  1.00  0.00     0.000 G0
ENDBRANCH   6   7
ENDBRANCH   5   6
ENDBRANCH   3   5
ENDBRANCH   1   3
BRANCH   1  11
ATOM     11  C   UNL     1      36.418  11.995  40.610  1.00  0.00     0.087 C 
BRANCH  11  12
ATOM     12  C   UNL     1      35.193  12.529  41.407  1.00  0.00     0.066 C 
BRANCH  12  13
ATOM     13  C   UNL     1      34.185  13.194  40.466  1.00  0.00     0.140 C 
ATOM     14  O   UNL     1      34.572  14.172  39.842  1.00  0.00    -0.299 OA
BRANCH  13  15
ATOM     15  C   UNL     1      32.761  12.710  40.220  1.00  0.00     0.106 CG0
ATOM     16  G   UNL     1      32.339  11.667  41.242  1.00  0.00     0.000 G0
ENDBRANCH  13  15
ENDBRANCH  12  13
BRANCH  12  17
ATOM     17  C   UNL     1      35.542  13.325  42.709  1.00  0.00    -0.006 C 
ATOM     18  C   UNL     1      37.040  13.678  42.764  1.00  0.00     0.008 C 
ATOM     19  C   UNL     1      34.741  14.637  42.809  1.00  0.00     0.008 C 
ENDBRANCH  12  17
ENDBRANCH  11  12
ENDBRANCH   1  11
TORSDOF 1
ENDMDL
MODEL 2
REMARK VINA RESULT:    18.037      1.789      2.799
REMARK INTER + INTRA:          27.743
REMARK INTER:                  26.418
REMARK INTRA:                   1.325
REMARK UNBOUND:                 0.216
REMARK SMILES CC1=CCC[C@@H](C)C(=O)C[C@@H](C(C)C)C(=O)C1
REMARK SMILES IDX 8 1 9 2 6 3 7 4 5 5 4 6 3 7 2 8 1 9 10 11 11 12 15 13 16 14
REMARK SMILES IDX 17 15 12 17 13 18 14 19
REMARK H PARENT
REMARK Flexibility Score: 70.00
ROOT
ATOM      1  C   UNL     1      33.299  11.013  41.972  1.00  0.00     0.136 C 
ATOM      2  O   UNL     1      32.227  11.425  42.392  1.00  0.00    -0.299 OA
ENDROOT
BRANCH   1   3
ATOM      3  C   UNL     1      33.317   9.997  40.853  1.00  0.00     0.053 C 
ATOM      4  C   UNL     1      34.717   9.885  40.241  1.00  0.00     0.016 C 
BRANCH   3   5
ATOM      5  C   UNL     1      32.264  10.386  39.786  1.00  0.00     0.015 C 
BRANCH   5   6
ATOM      6  C   UNL     1      32.687  11.474  38.778  1.00  0.00     0.028 C 
BRANCH   6   7
ATOM      7  C   UNL     1      32.739  12.903  39.275  1.00  0.00    -0.028 C 
ATOM      8  C   UNL     1      33.847  13.646  39.510  1.00  0.00    -0.070 CG0
ATOM      9  C   UNL     1      33.646  15.103  39.855  1.00  0.00     0.039 C 
ATOM     10  G   UNL     1      35.267  13.103  39.485  1.00  0.00     0.000 G0
ENDBRANCH   6   7
ENDBRANCH   5   6
ENDBRANCH   3   5
ENDBRANCH   1   3
BRANCH   1  11
ATOM     11  C   UNL     1      34.582  11.517  42.586  1.00  0.00     0.087 C 
BRANCH  11  12
ATOM     12  C   UNL     1      34.976  12.967  42.180  1.00  0.00     0.066 C 
BRANCH  12  13
ATOM     13  C   UNL     1      35.815  12.960  40.900  1.00  0.00     0.140 C 
ATOM     14  O   UNL     1      37.014  12.753  41.026  1.00  0.00    -0.299 OA
BRANCH  13  15
ATOM     15  C   UNL     1      35.270  13.149  39.490  1.00  0.00     0.106 CG0
ATOM     16  G   UNL     1      33.836  13.655  39.506  1.00  0.00     0.000 G0
ENDBRANCH  13  15
ENDBRANCH  12  13
BRANCH  12  17
ATOM     17  C   UNL     1      35.512  13.862  43.346  1.00  0.00    -0.006 C 
ATOM     18  C   UNL     1      37.049  13.959  43.315  1.00  0.00     0.008 C 
ATOM     19  C   UNL     1      34.945  15.292  43.278  1.00  0.00     0.008 C 
ENDBRANCH  12  17
ENDBRANCH  11  12
ENDBRANCH   1  11
TORSDOF 1
ENDMDL
MODEL 3
REMARK VINA RESULT:    18.671      2.066      4.622
REMARK INTER + INTRA:          28.711
REMARK INTER:                  27.838
REMARK INTRA:                   0.873
REMARK UNBOUND:                 0.216
REMARK SMILES CC1=CCC[C@@H](C)C(=O)C[C@@H](C(C)C)C(=O)C1
REMARK SMILES IDX 8 1 9 2 6 3 7 4 5 5 4 6 3 7 2 8 1 9 10 11 11 12 15 13 16 14
REMARK SMILES IDX 17 15 12 17 13 18 14 19
REMARK H PARENT
REMARK Flexibility Score: 70.00
ROOT
ATOM      1  C   UNL     1      36.111  13.141  42.094  1.00  0.00     0.136 C 
ATOM      2  O   UNL     1      36.888  12.937  41.172  1.00  0.00    -0.299 OA
ENDROOT
BRANCH   1   3
ATOM      3  C   UNL     1      36.579  13.917  43.302  1.00  0.00     0.053 C 
ATOM      4  C   UNL     1      36.226  13.177  44.597  1.00  0.00     0.016 C 
BRANCH   3   5
ATOM      5  C   UNL     1      35.958  15.336  43.276  1.00  0.00     0.015 C 
BRANCH   5   6
ATOM      6  C   UNL     1      34.464  15.417  42.903  1.00  0.00     0.028 C 
BRANCH   6   7
ATOM      7  C   UNL     1      34.072  16.374  41.796  1.00  0.00    -0.028 C 
ATOM      8  C   UNL     1      34.087  16.130  40.463  1.00  0.00    -0.070 CG0
ATOM      9  C   UNL     1      33.503  17.188  39.557  1.00  0.00     0.039 C 
ATOM     10  G   UNL     1      34.683  14.885  39.824  1.00  0.00     0.000 G0
ENDBRANCH   6   7
ENDBRANCH   5   6
ENDBRANCH   3   5
ENDBRANCH   1   3
BRANCH   1  11
ATOM     11  C   UNL     1      34.703  12.603  42.011  1.00  0.00     0.087 C 
BRANCH  11  12
ATOM     12  C   UNL     1      34.187  12.340  40.567  1.00  0.00     0.066 C 
BRANCH  12  13
ATOM     13  C   UNL     1      33.828  13.656  39.874  1.00  0.00     0.140 C 
ATOM     14  O   UNL     1      32.720  13.729  39.363  1.00  0.00    -0.299 OA
BRANCH  13  15
ATOM     15  C   UNL     1      34.724  14.887  39.807  1.00  0.00     0.106 CG0
ATOM     16  G   UNL     1      34.057  16.100  40.438  1.00  0.00     0.000 G0
ENDBRANCH  13  15
ENDBRANCH  12  13
BRANCH  12  17
ATOM     17  C   UNL     1      33.135  11.189  40.436  1.00  0.00    -0.006 C 
ATOM     18  C   UNL     1      33.810   9.852  40.077  1.00  0.00     0.008 C 
ATOM     19  C   UNL     1      32.344  10.985  41.743  1.00  0.00     0.008 C 
ENDBRANCH  12  17
ENDBRANCH  11  12
ENDBRANCH   1  11
TORSDOF 1
ENDMDL
MODEL 4
REMARK VINA RESULT:    18.960      1.637      2.135
REMARK INTER + INTRA:          29.152
REMARK INTER:                  27.217
REMARK INTRA:                   1.935
REMARK UNBOUND:                 0.216
REMARK SMILES CC1=CCC[C@@H](C)C(=O)C[C@@H](C(C)C)C(=O)C1
REMARK SMILES IDX 8 1 9 2 6 3 7 4 5 5 4 6 3 7 2 8 1 9 10 11 11 12 15 13 16 14
REMARK SMILES IDX 17 15 12 17 13 18 14 19
REMARK H PARENT
REMARK Flexibility Score: 70.00
ROOT
ATOM      1  C   UNL     1      34.978  12.400  40.231  1.00  0.00     0.136 C 
ATOM      2  O   UNL     1      33.990  12.725  39.588  1.00  0.00    -0.299 OA
ENDROOT
BRANCH   1   3
ATOM      3  C   UNL     1      35.546  11.010  40.068  1.00  0.00     0.053 C 
ATOM      4  C   UNL     1      36.912  11.056  39.374  1.00  0.00     0.016 C 
BRANCH   3   5
ATOM      5  C   UNL     1      34.542  10.132  39.279  1.00  0.00     0.015 C 
BRANCH   5   6
ATOM      6  C   UNL     1      33.548   9.310  40.124  1.00  0.00     0.028 C 
BRANCH   6   7
ATOM      7  C   UNL     1      32.348  10.038  40.693  1.00  0.00    -0.028 C 
ATOM      8  C   UNL     1      32.332  10.883  41.753  1.00  0.00    -0.070 CG0
ATOM      9  C   UNL     1      31.042  11.613  42.039  1.00  0.00     0.039 C 
ATOM     10  G   UNL     1      33.511  11.113  42.686  1.00  0.00     0.000 G0
ENDBRANCH   6   7
ENDBRANCH   5   6
ENDBRANCH   3   5
ENDBRANCH   1   3
BRANCH   1  11
ATOM     11  C   UNL     1      35.605  13.390  41.183  1.00  0.00     0.087 C 
BRANCH  11  12
ATOM     12  C   UNL     1      35.263  13.161  42.683  1.00  0.00     0.066 C 
BRANCH  12  13
ATOM     13  C   UNL     1      33.857  12.576  42.833  1.00  0.00     0.140 C 
ATOM     14  O   UNL     1      32.950  13.364  43.058  1.00  0.00    -0.299 OA
BRANCH  13  15
ATOM     15  C   UNL     1      33.498  11.102  42.685  1.00  0.00     0.106 CG0
ATOM     16  G   UNL     1      32.322  10.904  41.741  1.00  0.00     0.000 G0
ENDBRANCH  13  15
ENDBRANCH  12  13
BRANCH  12  17
ATOM     17  C   UNL     1      35.613  14.353  43.635  1.00  0.00    -0.006 C 
ATOM     18  C   UNL     1      37.125  14.649  43.629  1.00  0.00     0.008 C 
ATOM     19  C   UNL     1      34.876  15.644  43.230  1.00  0.00     0.008 C 
ENDBRANCH  12  17
ENDBRANCH  11  12
ENDBRANCH   1  11
TORSDOF 1
ENDMDL
MODEL 5
REMARK VINA RESULT:    19.026      1.852      3.302
REMARK INTER + INTRA:          29.252
REMARK INTER:                  26.303
REMARK INTRA:                   2.949
REMARK UNBOUND:                 0.216
REMARK SMILES CC1=CCC[C@@H](C)C(=O)C[C@@H](C(C)C)C(=O)C1
REMARK SMILES IDX 8 1 9 2 6 3 7 4 5 5 4 6 3 7 2 8 1 9 10 11 11 12 15 13 16 14
REMARK SMILES IDX 17 15 12 17 13 18 14 19
REMARK H PARENT
REMARK Flexibility Score: 70.00
ROOT
ATOM      1  C   UNL     1      33.719  11.354  42.451  1.00  0.00     0.136 C 
ATOM      2  O   UNL     1      34.313  10.348  42.813  1.00  0.00    -0.299 OA
ENDROOT
BRANCH   1   3
ATOM      3  C   UNL     1      32.608  11.236  41.435  1.00  0.00     0.053 C 
ATOM      4  C   UNL     1      31.283  11.746  42.013  1.00  0.00     0.016 C 
BRANCH   3   5
ATOM      5  C   UNL     1      32.490   9.763  40.968  1.00  0.00     0.015 C 
BRANCH   5   6
ATOM      6  C   UNL     1      33.192   9.413  39.640  1.00  0.00     0.028 C 
BRANCH   6   7
ATOM      7  C   UNL     1      34.706   9.432  39.624  1.00  0.00    -0.028 C 
ATOM      8  C   UNL     1      35.511  10.505  39.817  1.00  0.00    -0.070 CG0
ATOM      9  C   UNL     1      36.996  10.249  39.911  1.00  0.00     0.039 C 
ATOM     10  G   UNL     1      35.022  11.941  39.907  1.00  0.00     0.000 G0
ENDBRANCH   6   7
ENDBRANCH   5   6
ENDBRANCH   3   5
ENDBRANCH   1   3
BRANCH   1  11
ATOM     11  C   UNL     1      34.116  12.695  43.019  1.00  0.00     0.087 C 
BRANCH  11  12
ATOM     12  C   UNL     1      34.928  13.601  42.049  1.00  0.00     0.066 C 
BRANCH  12  13
ATOM     13  C   UNL     1      35.670  12.754  41.013  1.00  0.00     0.140 C 
ATOM     14  O   UNL     1      36.886  12.681  41.126  1.00  0.00    -0.299 OA
BRANCH  13  15
ATOM     15  C   UNL     1      35.012  11.969  39.885  1.00  0.00     0.106 CG0
ATOM     16  G   UNL     1      35.496  10.528  39.849  1.00  0.00     0.000 G0
ENDBRANCH  13  15
ENDBRANCH  12  13
BRANCH  12  17
ATOM     17  C   UNL     1      35.765  14.730  42.738  1.00  0.00    -0.006 C 
ATOM     18  C   UNL     1      34.853  15.783  43.394  1.00  0.00     0.008 C 
ATOM     19  C   UNL     1      36.699  14.166  43.826  1.00  0.00     0.008 C 
ENDBRANCH  12  17
ENDBRANCH  11  12
ENDBRANCH   1  11
TORSDOF 1
ENDMDL
MODEL 6
REMARK VINA RESULT:    19.393      1.897      4.354
REMARK INTER + INTRA:          29.813
REMARK INTER:                  30.195
REMARK INTRA:                  -0.382
REMARK UNBOUND:                 0.216
REMARK SMILES CC1=CCC[C@@H](C)C(=O)C[C@@H](C(C)C)C(=O)C1
REMARK SMILES IDX 8 1 9 2 6 3 7 4 5 5 4 6 3 7 2 8 1 9 10 11 11 12 15 13 16 14
REMARK SMILES IDX 17 15 12 17 13 18 14 19
REMARK H PARENT
REMARK Flexibility Score: 70.00
ROOT
ATOM      1  C   UNL     1      34.453  13.228  40.509  1.00  0.00     0.136 C 
ATOM      2  O   UNL     1      34.450  14.400  40.160  1.00  0.00    -0.299 OA
ENDROOT
BRANCH   1   3
ATOM      3  C   UNL     1      35.545  12.730  41.428  1.00  0.00     0.053 C 
ATOM      4  C   UNL     1      35.809  13.734  42.556  1.00  0.00     0.016 C 
BRANCH   3   5
ATOM      5  C   UNL     1      36.827  12.456  40.604  1.00  0.00     0.015 C 
BRANCH   5   6
ATOM      6  C   UNL     1      36.887  11.102  39.868  1.00  0.00     0.028 C 
BRANCH   6   7
ATOM      7  C   UNL     1      36.556   9.859  40.666  1.00  0.00    -0.028 C 
ATOM      8  C   UNL     1      35.586   8.951  40.399  1.00  0.00    -0.070 CG0
ATOM      9  C   UNL     1      35.546   7.707  41.253  1.00  0.00     0.039 C 
ATOM     10  G   UNL     1      34.521   9.121  39.326  1.00  0.00     0.000 G0
ENDBRANCH   6   7
ENDBRANCH   5   6
ENDBRANCH   3   5
ENDBRANCH   1   3
BRANCH   1  11
ATOM     11  C   UNL     1      33.375  12.300  40.007  1.00  0.00     0.087 C 
BRANCH  11  12
ATOM     12  C   UNL     1      33.220  10.979  40.814  1.00  0.00     0.066 C 
BRANCH  12  13
ATOM     13  C   UNL     1      33.251   9.768  39.879  1.00  0.00     0.140 C 
ATOM     14  O   UNL     1      32.172   9.315  39.524  1.00  0.00    -0.299 OA
BRANCH  13  15
ATOM     15  C   UNL     1      34.512   9.114  39.329  1.00  0.00     0.106 CG0
ATOM     16  G   UNL     1      35.581   8.968  40.400  1.00  0.00     0.000 G0
ENDBRANCH  13  15
ENDBRANCH  12  13
BRANCH  12  17
ATOM     17  C   UNL     1      32.082  10.985  41.888  1.00  0.00    -0.006 C 
ATOM     18  C   UNL     1      32.660  10.990  43.316  1.00  0.00     0.008 C 
ATOM     19  C   UNL     1      31.165  12.216  41.744  1.00  0.00     0.008 C 
ENDBRANCH  12  17
ENDBRANCH  11  12
ENDBRANCH   1  11
TORSDOF 1
ENDMDL
MODEL 7
REMARK VINA RESULT:    20.266      1.831      2.348
REMARK INTER + INTRA:          31.146
REMARK INTER:                  29.903
REMARK INTRA:                   1.243
REMARK UNBOUND:                 0.216
REMARK SMILES CC1=CCC[C@@H](C)C(=O)C[C@@H](C(C)C)C(=O)C1
REMARK SMILES IDX 8 1 9 2 6 3 7 4 5 5 4 6 3 7 2 8 1 9 10 11 11 12 15 13 16 14
REMARK SMILES IDX 17 15 12 17 13 18 14 19
REMARK H PARENT
REMARK Flexibility Score: 70.00
ROOT
ATOM      1  C   UNL     1      33.935  11.053  41.824  1.00  0.00     0.136 C 
ATOM      2  O   UNL     1      32.776  11.286  42.135  1.00  0.00    -0.299 OA
ENDROOT
BRANCH   1   3
ATOM      3  C   UNL     1      34.264   9.778  41.083  1.00  0.00     0.053 C 
ATOM      4  C   UNL     1      35.511   9.960  40.211  1.00  0.00     0.016 C 
BRANCH   3   5
ATOM      5  C   UNL     1      33.041   9.343  40.237  1.00  0.00     0.015 C 
BRANCH   5   6
ATOM      6  C   UNL     1      32.828  10.101  38.911  1.00  0.00     0.028 C 
BRANCH   6   7
ATOM      7  C   UNL     1      32.129  11.443  38.979  1.00  0.00    -0.028 C 
ATOM      8  C   UNL     1      32.708  12.657  39.141  1.00  0.00    -0.070 CG0
ATOM      9  C   UNL     1      31.819  13.871  39.021  1.00  0.00     0.039 C 
ATOM     10  G   UNL     1      34.178  12.872  39.468  1.00  0.00     0.000 G0
ENDBRANCH   6   7
ENDBRANCH   5   6
ENDBRANCH   3   5
ENDBRANCH   1   3
BRANCH   1  11
ATOM     11  C   UNL     1      35.017  12.038  42.196  1.00  0.00     0.087 C 
BRANCH  11  12
ATOM     12  C   UNL     1      34.624  13.535  42.028  1.00  0.00     0.066 C 
BRANCH  12  13
ATOM     13  C   UNL     1      34.411  13.874  40.551  1.00  0.00     0.140 C 
ATOM     14  O   UNL     1      34.468  15.056  40.241  1.00  0.00    -0.299 OA
BRANCH  13  15
ATOM     15  C   UNL     1      34.176  12.859  39.440  1.00  0.00     0.106 CG0
ATOM     16  G   UNL     1      32.694  12.679  39.150  1.00  0.00     0.000 G0
ENDBRANCH  13  15
ENDBRANCH  12  13
BRANCH  12  17
ATOM     17  C   UNL     1      35.495  14.546  42.845  1.00  0.00    -0.006 C 
ATOM     18  C   UNL     1      34.693  15.167  44.004  1.00  0.00     0.008 C 
ATOM     19  C   UNL     1      36.746  13.872  43.441  1.00  0.00     0.008 C 
ENDBRANCH  12  17
ENDBRANCH  11  12
ENDBRANCH   1  11
TORSDOF 1
ENDMDL
