MODEL 1
REMARK VINA RESULT:    -5.412      0.000      0.000
REMARK INTER + INTRA:          -8.466
REMARK INTER:                  -7.626
REMARK INTRA:                  -0.840
REMARK UNBOUND:                -0.840
REMARK SMILES COc1ccc(-c2cc(=O)c3c(OC)c(OC)c(OC)c(OC)c3o2)cc1OC
REMARK SMILES IDX 7 1 8 2 9 3 10 4 11 5 24 6 25 7 21 8 18 9 15 10 12 11 6 12
REMARK SMILES IDX 3 13 27 14 4 15 26 16 5 17 2 18 1 19 28 20 29 21 22 22 23 23
REMARK SMILES IDX 13 24 14 25 19 26 20 27 16 28 17 29
REMARK H PARENT
REMARK Flexibility Score: inf
ROOT
ATOM      1  C   UNL     1      -9.220   5.083   7.919  1.00  0.00     0.138 A 
ATOM      2  C   UNL     1      -9.728   6.389   7.944  1.00  0.00     0.100 A 
ATOM      3  C   UNL     1      -9.491   7.239   6.865  1.00  0.00     0.197 A 
ATOM      4  O   UNL     1      -9.961   8.408   6.902  1.00  0.00    -0.289 OA
ATOM      5  C   UNL     1      -8.739   6.778   5.760  1.00  0.00     0.115 A 
ATOM      6  C   UNL     1      -8.231   5.458   5.827  1.00  0.00     0.188 A 
ATOM      7  O   UNL     1      -8.492   4.687   6.879  1.00  0.00    -0.452 OA
ATOM      8  C   UNL     1      -7.453   4.950   4.780  1.00  0.00     0.209 A 
ATOM      9  C   UNL     1      -7.209   5.721   3.643  1.00  0.00     0.211 A 
ATOM     10  C   UNL     1      -7.773   7.009   3.523  1.00  0.00     0.208 A 
ATOM     11  C   UNL     1      -8.495   7.571   4.608  1.00  0.00     0.179 A 
ENDROOT
BRANCH   1  12
ATOM     12  C   UNL     1      -9.464   4.131   9.032  1.00  0.00     0.021 A 
ATOM     13  C   UNL     1      -9.909   2.360  11.186  1.00  0.00     0.160 A 
ATOM     14  C   UNL     1      -9.506   1.857   9.940  1.00  0.00     0.161 A 
ATOM     15  C   UNL     1     -10.079   3.745  11.353  1.00  0.00     0.051 A 
ATOM     16  C   UNL     1      -9.281   2.745   8.869  1.00  0.00     0.062 A 
ATOM     17  C   UNL     1      -9.854   4.619  10.288  1.00  0.00     0.016 A 
BRANCH  13  18
ATOM     18  O   UNL     1     -10.125   1.451  12.234  1.00  0.00    -0.493 OA
ATOM     19  C   UNL     1      -9.195   1.192  13.282  1.00  0.00     0.278 C 
ENDBRANCH  13  18
BRANCH  14  20
ATOM     20  O   UNL     1      -9.336   0.469   9.807  1.00  0.00    -0.493 OA
ATOM     21  C   UNL     1      -8.093  -0.170   9.532  1.00  0.00     0.278 C 
ENDBRANCH  14  20
ENDBRANCH   1  12
BRANCH   8  22
ATOM     22  O   UNL     1      -6.906   3.665   4.852  1.00  0.00    -0.490 OA
ATOM     23  C   UNL     1      -5.707   3.395   5.568  1.00  0.00     0.278 C 
ENDBRANCH   8  22
BRANCH  11  24
ATOM     24  O   UNL     1      -9.005   8.885   4.583  1.00  0.00    -0.492 OA
ATOM     25  C   UNL     1      -8.254  10.094   4.528  1.00  0.00     0.278 C 
ENDBRANCH  11  24
BRANCH   9  26
ATOM     26  O   UNL     1      -6.383   5.186   2.649  1.00  0.00    -0.490 OA
ATOM     27  C   UNL     1      -5.000   5.509   2.549  1.00  0.00     0.279 C 
ENDBRANCH   9  26
BRANCH  10  28
ATOM     28  O   UNL     1      -7.635   7.719   2.328  1.00  0.00    -0.490 OA
ATOM     29  C   UNL     1      -8.577   7.612   1.265  1.00  0.00     0.278 C 
ENDBRANCH  10  28
TORSDOF 7
ENDMDL
MODEL 2
REMARK VINA RESULT:    -5.339     17.529     20.513
REMARK INTER + INTRA:          -8.364
REMARK INTER:                  -7.530
REMARK INTRA:                  -0.834
REMARK UNBOUND:                -0.840
REMARK SMILES COc1ccc(-c2cc(=O)c3c(OC)c(OC)c(OC)c(OC)c3o2)cc1OC
REMARK SMILES IDX 7 1 8 2 9 3 10 4 11 5 24 6 25 7 21 8 18 9 15 10 12 11 6 12
REMARK SMILES IDX 3 13 27 14 4 15 26 16 5 17 2 18 1 19 28 20 29 21 22 22 23 23
REMARK SMILES IDX 13 24 14 25 19 26 20 27 16 28 17 29
REMARK H PARENT
REMARK Flexibility Score: inf
ROOT
ATOM      1  C   UNL     1       9.182  -5.006   7.616  1.00  0.00     0.138 A 
ATOM      2  C   UNL     1       9.606  -6.339   7.702  1.00  0.00     0.100 A 
ATOM      3  C   UNL     1       9.375  -7.203   6.633  1.00  0.00     0.197 A 
ATOM      4  O   UNL     1       9.770  -8.397   6.726  1.00  0.00    -0.289 OA
ATOM      5  C   UNL     1       8.713  -6.730   5.477  1.00  0.00     0.115 A 
ATOM      6  C   UNL     1       8.284  -5.380   5.482  1.00  0.00     0.188 A 
ATOM      7  O   UNL     1       8.536  -4.596   6.527  1.00  0.00    -0.452 OA
ATOM      8  C   UNL     1       7.596  -4.856   4.382  1.00  0.00     0.209 A 
ATOM      9  C   UNL     1       7.366  -5.644   3.253  1.00  0.00     0.211 A 
ATOM     10  C   UNL     1       7.855  -6.967   3.198  1.00  0.00     0.208 A 
ATOM     11  C   UNL     1       8.482  -7.539   4.334  1.00  0.00     0.179 A 
ENDROOT
BRANCH   1  12
ATOM     12  C   UNL     1       9.425  -4.039   8.715  1.00  0.00     0.021 A 
ATOM     13  C   UNL     1       9.871  -2.240  10.846  1.00  0.00     0.160 A 
ATOM     14  C   UNL     1       9.384  -1.764   9.620  1.00  0.00     0.161 A 
ATOM     15  C   UNL     1      10.125  -3.613  11.005  1.00  0.00     0.051 A 
ATOM     16  C   UNL     1       9.159  -2.666   8.561  1.00  0.00     0.062 A 
ATOM     17  C   UNL     1       9.900  -4.501   9.952  1.00  0.00     0.016 A 
BRANCH  13  18
ATOM     18  O   UNL     1      10.086  -1.318  11.883  1.00  0.00    -0.493 OA
ATOM     19  C   UNL     1       9.290  -1.229  13.061  1.00  0.00     0.278 C 
ENDBRANCH  13  18
BRANCH  14  20
ATOM     20  O   UNL     1       9.132  -0.388   9.495  1.00  0.00    -0.493 OA
ATOM     21  C   UNL     1       7.851   0.217   9.650  1.00  0.00     0.278 C 
ENDBRANCH  14  20
ENDBRANCH   1  12
BRANCH   8  22
ATOM     22  O   UNL     1       7.126  -3.539   4.392  1.00  0.00    -0.490 OA
ATOM     23  C   UNL     1       5.873  -3.190   4.964  1.00  0.00     0.278 C 
ENDBRANCH   8  22
BRANCH  11  24
ATOM     24  O   UNL     1       8.910  -8.882   4.371  1.00  0.00    -0.492 OA
ATOM     25  C   UNL     1       8.086 -10.043   4.411  1.00  0.00     0.278 C 
ENDBRANCH  11  24
BRANCH   9  26
ATOM     26  O   UNL     1       6.628  -5.089   2.202  1.00  0.00    -0.490 OA
ATOM     27  C   UNL     1       5.249  -5.377   2.000  1.00  0.00     0.279 C 
ENDBRANCH   9  26
BRANCH  10  28
ATOM     28  O   UNL     1       7.737  -7.700   2.015  1.00  0.00    -0.490 OA
ATOM     29  C   UNL     1       8.744  -7.690   1.007  1.00  0.00     0.278 C 
ENDBRANCH  10  28
TORSDOF 7
ENDMDL
MODEL 3
REMARK VINA RESULT:    -5.163     17.587     20.271
REMARK INTER + INTRA:          -8.116
REMARK INTER:                  -7.560
REMARK INTRA:                  -0.555
REMARK UNBOUND:                -0.840
REMARK SMILES COc1ccc(-c2cc(=O)c3c(OC)c(OC)c(OC)c(OC)c3o2)cc1OC
REMARK SMILES IDX 7 1 8 2 9 3 10 4 11 5 24 6 25 7 21 8 18 9 15 10 12 11 6 12
REMARK SMILES IDX 3 13 27 14 4 15 26 16 5 17 2 18 1 19 28 20 29 21 22 22 23 23
REMARK SMILES IDX 13 24 14 25 19 26 20 27 16 28 17 29
REMARK H PARENT
REMARK Flexibility Score: inf
ROOT
ATOM      1  C   UNL     1       8.650  -5.750   5.943  1.00  0.00     0.138 A 
ATOM      2  C   UNL     1       8.781  -7.127   5.715  1.00  0.00     0.100 A 
ATOM      3  C   UNL     1       8.478  -7.647   4.458  1.00  0.00     0.197 A 
ATOM      4  O   UNL     1       8.608  -8.886   4.270  1.00  0.00    -0.289 OA
ATOM      5  C   UNL     1       8.039  -6.783   3.428  1.00  0.00     0.115 A 
ATOM      6  C   UNL     1       7.899  -5.411   3.748  1.00  0.00     0.188 A 
ATOM      7  O   UNL     1       8.208  -4.966   4.963  1.00  0.00    -0.452 OA
ATOM      8  C   UNL     1       7.439  -4.507   2.784  1.00  0.00     0.209 A 
ATOM      9  C   UNL     1       7.159  -4.940   1.487  1.00  0.00     0.211 A 
ATOM     10  C   UNL     1       7.368  -6.289   1.127  1.00  0.00     0.208 A 
ATOM     11  C   UNL     1       7.755  -7.233   2.112  1.00  0.00     0.179 A 
ENDROOT
BRANCH   1  12
ATOM     12  C   UNL     1       8.983  -5.143   7.256  1.00  0.00     0.021 A 
ATOM     13  C   UNL     1       9.615  -4.042   9.779  1.00  0.00     0.160 A 
ATOM     14  C   UNL     1       8.823  -3.316   8.878  1.00  0.00     0.161 A 
ATOM     15  C   UNL     1      10.081  -5.319   9.419  1.00  0.00     0.051 A 
ATOM     16  C   UNL     1       8.507  -3.871   7.622  1.00  0.00     0.062 A 
ATOM     17  C   UNL     1       9.763  -5.862   8.174  1.00  0.00     0.016 A 
BRANCH  13  18
ATOM     18  O   UNL     1       9.913  -3.463  11.022  1.00  0.00    -0.493 OA
ATOM     19  C   UNL     1       9.036  -3.467  12.145  1.00  0.00     0.278 C 
ENDBRANCH  13  18
BRANCH  14  20
ATOM     20  O   UNL     1       8.365  -2.047   9.269  1.00  0.00    -0.493 OA
ATOM     21  C   UNL     1       7.930  -1.031   8.370  1.00  0.00     0.278 C 
ENDBRANCH  14  20
ENDBRANCH   1  12
BRANCH   8  22
ATOM     22  O   UNL     1       7.252  -3.157   3.098  1.00  0.00    -0.490 OA
ATOM     23  C   UNL     1       6.040  -2.676   3.666  1.00  0.00     0.278 C 
ENDBRANCH   8  22
BRANCH  11  24
ATOM     24  O   UNL     1       7.891  -8.609   1.834  1.00  0.00    -0.492 OA
ATOM     25  C   UNL     1       8.840  -9.217   0.964  1.00  0.00     0.278 C 
ENDBRANCH  11  24
BRANCH   9  26
ATOM     26  O   UNL     1       6.653  -4.007   0.576  1.00  0.00    -0.490 OA
ATOM     27  C   UNL     1       5.273  -3.943   0.233  1.00  0.00     0.279 C 
ENDBRANCH   9  26
BRANCH  10  28
ATOM     28  O   UNL     1       7.213  -6.683  -0.204  1.00  0.00    -0.490 OA
ATOM     29  C   UNL     1       6.075  -7.412  -0.655  1.00  0.00     0.278 C 
ENDBRANCH  10  28
TORSDOF 7
ENDMDL
MODEL 4
REMARK VINA RESULT:    -5.128      7.745     12.088
REMARK INTER + INTRA:          -8.066
REMARK INTER:                  -7.336
REMARK INTRA:                  -0.730
REMARK UNBOUND:                -0.840
REMARK SMILES COc1ccc(-c2cc(=O)c3c(OC)c(OC)c(OC)c(OC)c3o2)cc1OC
REMARK SMILES IDX 7 1 8 2 9 3 10 4 11 5 24 6 25 7 21 8 18 9 15 10 12 11 6 12
REMARK SMILES IDX 3 13 27 14 4 15 26 16 5 17 2 18 1 19 28 20 29 21 22 22 23 23
REMARK SMILES IDX 13 24 14 25 19 26 20 27 16 28 17 29
REMARK H PARENT
REMARK Flexibility Score: inf
ROOT
ATOM      1  C   UNL     1       0.047   1.112   2.709  1.00  0.00     0.138 A 
ATOM      2  C   UNL     1      -0.751   2.200   3.090  1.00  0.00     0.100 A 
ATOM      3  C   UNL     1      -2.123   2.021   3.254  1.00  0.00     0.197 A 
ATOM      4  O   UNL     1      -2.823   3.010   3.604  1.00  0.00    -0.289 OA
ATOM      5  C   UNL     1      -2.697   0.749   3.030  1.00  0.00     0.115 A 
ATOM      6  C   UNL     1      -1.830  -0.290   2.612  1.00  0.00     0.188 A 
ATOM      7  O   UNL     1      -0.525  -0.066   2.478  1.00  0.00    -0.452 OA
ATOM      8  C   UNL     1      -2.338  -1.566   2.344  1.00  0.00     0.209 A 
ATOM      9  C   UNL     1      -3.694  -1.838   2.529  1.00  0.00     0.211 A 
ATOM     10  C   UNL     1      -4.561  -0.838   3.020  1.00  0.00     0.208 A 
ATOM     11  C   UNL     1      -4.079   0.482   3.219  1.00  0.00     0.179 A 
ENDROOT
BRANCH   1  12
ATOM     12  C   UNL     1       1.517   1.243   2.545  1.00  0.00     0.021 A 
ATOM     13  C   UNL     1       4.320   1.477   2.291  1.00  0.00     0.160 A 
ATOM     14  C   UNL     1       3.479   2.351   1.587  1.00  0.00     0.161 A 
ATOM     15  C   UNL     1       3.757   0.496   3.126  1.00  0.00     0.051 A 
ATOM     16  C   UNL     1       2.080   2.234   1.720  1.00  0.00     0.062 A 
ATOM     17  C   UNL     1       2.371   0.385   3.253  1.00  0.00     0.016 A 
BRANCH  13  18
ATOM     18  O   UNL     1       5.708   1.619   2.139  1.00  0.00    -0.493 OA
ATOM     19  C   UNL     1       6.677   1.087   3.038  1.00  0.00     0.278 C 
ENDBRANCH  13  18
BRANCH  14  20
ATOM     20  O   UNL     1       4.071   3.327   0.768  1.00  0.00    -0.493 OA
ATOM     21  C   UNL     1       4.179   3.235  -0.649  1.00  0.00     0.278 C 
ENDBRANCH  14  20
ENDBRANCH   1  12
BRANCH   8  22
ATOM     22  O   UNL     1      -1.502  -2.589   1.887  1.00  0.00    -0.490 OA
ATOM     23  C   UNL     1      -0.773  -3.422   2.780  1.00  0.00     0.278 C 
ENDBRANCH   8  22
BRANCH  11  24
ATOM     24  O   UNL     1      -4.914   1.544   3.621  1.00  0.00    -0.492 OA
ATOM     25  C   UNL     1      -5.974   2.130   2.872  1.00  0.00     0.278 C 
ENDBRANCH  11  24
BRANCH   9  26
ATOM     26  O   UNL     1      -4.161  -3.115   2.197  1.00  0.00    -0.490 OA
ATOM     27  C   UNL     1      -4.753  -3.408   0.936  1.00  0.00     0.279 C 
ENDBRANCH   9  26
BRANCH  10  28
ATOM     28  O   UNL     1      -5.885  -1.157   3.327  1.00  0.00    -0.490 OA
ATOM     29  C   UNL     1      -6.288  -1.565   4.632  1.00  0.00     0.278 C 
ENDBRANCH  10  28
TORSDOF 7
ENDMDL
MODEL 5
REMARK VINA RESULT:    -5.109      7.715     12.296
REMARK INTER + INTRA:          -8.039
REMARK INTER:                  -7.335
REMARK INTRA:                  -0.705
REMARK UNBOUND:                -0.840
REMARK SMILES COc1ccc(-c2cc(=O)c3c(OC)c(OC)c(OC)c(OC)c3o2)cc1OC
REMARK SMILES IDX 7 1 8 2 9 3 10 4 11 5 24 6 25 7 21 8 18 9 15 10 12 11 6 12
REMARK SMILES IDX 3 13 27 14 4 15 26 16 5 17 2 18 1 19 28 20 29 21 22 22 23 23
REMARK SMILES IDX 13 24 14 25 19 26 20 27 16 28 17 29
REMARK H PARENT
REMARK Flexibility Score: inf
ROOT
ATOM      1  C   UNL     1       0.370  -0.028   2.682  1.00  0.00     0.138 A 
ATOM      2  C   UNL     1       0.046  -1.320   2.245  1.00  0.00     0.100 A 
ATOM      3  C   UNL     1      -1.290  -1.710   2.188  1.00  0.00     0.197 A 
ATOM      4  O   UNL     1      -1.563  -2.874   1.785  1.00  0.00    -0.289 OA
ATOM      5  C   UNL     1      -2.304  -0.804   2.574  1.00  0.00     0.115 A 
ATOM      6  C   UNL     1      -1.893   0.469   3.038  1.00  0.00     0.188 A 
ATOM      7  O   UNL     1      -0.603   0.793   3.066  1.00  0.00    -0.452 OA
ATOM      8  C   UNL     1      -2.844   1.403   3.465  1.00  0.00     0.209 A 
ATOM      9  C   UNL     1      -4.206   1.106   3.395  1.00  0.00     0.211 A 
ATOM     10  C   UNL     1      -4.638  -0.127   2.862  1.00  0.00     0.208 A 
ATOM     11  C   UNL     1      -3.687  -1.116   2.501  1.00  0.00     0.179 A 
ENDROOT
BRANCH   1  12
ATOM     12  C   UNL     1       1.776   0.446   2.738  1.00  0.00     0.021 A 
ATOM     13  C   UNL     1       4.454   1.329   2.901  1.00  0.00     0.160 A 
ATOM     14  C   UNL     1       3.526   2.049   2.135  1.00  0.00     0.161 A 
ATOM     15  C   UNL     1       4.038   0.176   3.590  1.00  0.00     0.051 A 
ATOM     16  C   UNL     1       2.189   1.607   2.060  1.00  0.00     0.062 A 
ATOM     17  C   UNL     1       2.713  -0.256   3.511  1.00  0.00     0.016 A 
BRANCH  13  18
ATOM     18  O   UNL     1       5.777   1.793   2.957  1.00  0.00    -0.493 OA
ATOM     19  C   UNL     1       6.929   0.958   2.892  1.00  0.00     0.278 C 
ENDBRANCH  13  18
BRANCH  14  20
ATOM     20  O   UNL     1       3.969   3.202   1.465  1.00  0.00    -0.493 OA
ATOM     21  C   UNL     1       4.313   3.252   0.084  1.00  0.00     0.278 C 
ENDBRANCH  14  20
ENDBRANCH   1  12
BRANCH   8  22
ATOM     22  O   UNL     1      -2.451   2.647   3.968  1.00  0.00    -0.490 OA
ATOM     23  C   UNL     1      -2.261   3.776   3.125  1.00  0.00     0.278 C 
ENDBRANCH   8  22
BRANCH  11  24
ATOM     24  O   UNL     1      -4.058  -2.399   2.048  1.00  0.00    -0.492 OA
ATOM     25  C   UNL     1      -4.689  -2.722   0.813  1.00  0.00     0.278 C 
ENDBRANCH  11  24
BRANCH   9  26
ATOM     26  O   UNL     1      -5.113   2.053   3.883  1.00  0.00    -0.490 OA
ATOM     27  C   UNL     1      -5.570   2.051   5.231  1.00  0.00     0.279 C 
ENDBRANCH   9  26
BRANCH  10  28
ATOM     28  O   UNL     1      -6.002  -0.361   2.673  1.00  0.00    -0.490 OA
ATOM     29  C   UNL     1      -6.796  -1.060   3.628  1.00  0.00     0.278 C 
ENDBRANCH  10  28
TORSDOF 7
ENDMDL
MODEL 6
REMARK VINA RESULT:    -5.107      9.116     12.480
REMARK INTER + INTRA:          -8.036
REMARK INTER:                  -7.337
REMARK INTRA:                  -0.699
REMARK UNBOUND:                -0.840
REMARK SMILES COc1ccc(-c2cc(=O)c3c(OC)c(OC)c(OC)c(OC)c3o2)cc1OC
REMARK SMILES IDX 7 1 8 2 9 3 10 4 11 5 24 6 25 7 21 8 18 9 15 10 12 11 6 12
REMARK SMILES IDX 3 13 27 14 4 15 26 16 5 17 2 18 1 19 28 20 29 21 22 22 23 23
REMARK SMILES IDX 13 24 14 25 19 26 20 27 16 28 17 29
REMARK H PARENT
REMARK Flexibility Score: inf
ROOT
ATOM      1  C   UNL     1      -0.344   0.187   2.675  1.00  0.00     0.138 A 
ATOM      2  C   UNL     1      -0.007   1.475   2.238  1.00  0.00     0.100 A 
ATOM      3  C   UNL     1       1.331   1.866   2.222  1.00  0.00     0.197 A 
ATOM      4  O   UNL     1       1.616   3.026   1.820  1.00  0.00    -0.289 OA
ATOM      5  C   UNL     1       2.332   0.963   2.649  1.00  0.00     0.115 A 
ATOM      6  C   UNL     1       1.906  -0.307   3.109  1.00  0.00     0.188 A 
ATOM      7  O   UNL     1       0.616  -0.631   3.097  1.00  0.00    -0.452 OA
ATOM      8  C   UNL     1       2.843  -1.237   3.574  1.00  0.00     0.209 A 
ATOM      9  C   UNL     1       4.206  -0.939   3.547  1.00  0.00     0.211 A 
ATOM     10  C   UNL     1       4.655   0.290   3.019  1.00  0.00     0.208 A 
ATOM     11  C   UNL     1       3.716   1.275   2.619  1.00  0.00     0.179 A 
ENDROOT
BRANCH   1  12
ATOM     12  C   UNL     1      -1.751  -0.288   2.688  1.00  0.00     0.021 A 
ATOM     13  C   UNL     1      -4.431  -1.174   2.770  1.00  0.00     0.160 A 
ATOM     14  C   UNL     1      -3.493  -1.857   1.982  1.00  0.00     0.161 A 
ATOM     15  C   UNL     1      -4.024  -0.058   3.521  1.00  0.00     0.051 A 
ATOM     16  C   UNL     1      -2.156  -1.413   1.947  1.00  0.00     0.062 A 
ATOM     17  C   UNL     1      -2.698   0.376   3.482  1.00  0.00     0.016 A 
BRANCH  13  18
ATOM     18  O   UNL     1      -5.755  -1.640   2.785  1.00  0.00    -0.493 OA
ATOM     19  C   UNL     1      -6.905  -0.800   2.845  1.00  0.00     0.278 C 
ENDBRANCH  13  18
BRANCH  14  20
ATOM     20  O   UNL     1      -3.928  -2.974   1.250  1.00  0.00    -0.493 OA
ATOM     21  C   UNL     1      -4.239  -2.959  -0.141  1.00  0.00     0.278 C 
ENDBRANCH  14  20
ENDBRANCH   1  12
BRANCH   8  22
ATOM     22  O   UNL     1       2.434  -2.477   4.074  1.00  0.00    -0.490 OA
ATOM     23  C   UNL     1       2.274  -3.613   3.234  1.00  0.00     0.278 C 
ENDBRANCH   8  22
BRANCH  11  24
ATOM     24  O   UNL     1       4.101   2.555   2.169  1.00  0.00    -0.492 OA
ATOM     25  C   UNL     1       4.773   2.869   0.953  1.00  0.00     0.278 C 
ENDBRANCH  11  24
BRANCH   9  26
ATOM     26  O   UNL     1       5.097  -1.882   4.072  1.00  0.00    -0.490 OA
ATOM     27  C   UNL     1       5.517  -1.863   5.432  1.00  0.00     0.279 C 
ENDBRANCH   9  26
BRANCH  10  28
ATOM     28  O   UNL     1       6.025   0.523   2.873  1.00  0.00    -0.490 OA
ATOM     29  C   UNL     1       6.777   1.267   3.827  1.00  0.00     0.278 C 
ENDBRANCH  10  28
TORSDOF 7
ENDMDL
MODEL 7
REMARK VINA RESULT:    -5.080      9.016     12.648
REMARK INTER + INTRA:          -7.999
REMARK INTER:                  -7.274
REMARK INTRA:                  -0.725
REMARK UNBOUND:                -0.840
REMARK SMILES COc1ccc(-c2cc(=O)c3c(OC)c(OC)c(OC)c(OC)c3o2)cc1OC
REMARK SMILES IDX 7 1 8 2 9 3 10 4 11 5 24 6 25 7 21 8 18 9 15 10 12 11 6 12
REMARK SMILES IDX 3 13 27 14 4 15 26 16 5 17 2 18 1 19 28 20 29 21 22 22 23 23
REMARK SMILES IDX 13 24 14 25 19 26 20 27 16 28 17 29
REMARK H PARENT
REMARK Flexibility Score: inf
ROOT
ATOM      1  C   UNL     1      -0.094  -0.786   2.785  1.00  0.00     0.138 A 
ATOM      2  C   UNL     1       0.701  -1.864   3.197  1.00  0.00     0.100 A 
ATOM      3  C   UNL     1       2.073  -1.682   3.363  1.00  0.00     0.197 A 
ATOM      4  O   UNL     1       2.771  -2.662   3.740  1.00  0.00    -0.289 OA
ATOM      5  C   UNL     1       2.649  -0.415   3.112  1.00  0.00     0.115 A 
ATOM      6  C   UNL     1       1.784   0.613   2.665  1.00  0.00     0.188 A 
ATOM      7  O   UNL     1       0.480   0.387   2.529  1.00  0.00    -0.452 OA
ATOM      8  C   UNL     1       2.294   1.882   2.369  1.00  0.00     0.209 A 
ATOM      9  C   UNL     1       3.649   2.159   2.554  1.00  0.00     0.211 A 
ATOM     10  C   UNL     1       4.513   1.170   3.073  1.00  0.00     0.208 A 
ATOM     11  C   UNL     1       4.029  -0.144   3.301  1.00  0.00     0.179 A 
ENDROOT
BRANCH   1  12
ATOM     12  C   UNL     1      -1.563  -0.920   2.617  1.00  0.00     0.021 A 
ATOM     13  C   UNL     1      -4.365  -1.158   2.354  1.00  0.00     0.160 A 
ATOM     14  C   UNL     1      -3.521  -2.065   1.696  1.00  0.00     0.161 A 
ATOM     15  C   UNL     1      -3.805  -0.142   3.149  1.00  0.00     0.051 A 
ATOM     16  C   UNL     1      -2.124  -1.945   1.833  1.00  0.00     0.062 A 
ATOM     17  C   UNL     1      -2.420  -0.030   3.280  1.00  0.00     0.016 A 
BRANCH  13  18
ATOM     18  O   UNL     1      -5.752  -1.303   2.199  1.00  0.00    -0.493 OA
ATOM     19  C   UNL     1      -6.723  -0.807   3.115  1.00  0.00     0.278 C 
ENDBRANCH  13  18
BRANCH  14  20
ATOM     20  O   UNL     1      -4.110  -3.075   0.917  1.00  0.00    -0.493 OA
ATOM     21  C   UNL     1      -4.238  -3.031  -0.501  1.00  0.00     0.278 C 
ENDBRANCH  14  20
ENDBRANCH   1  12
BRANCH   8  22
ATOM     22  O   UNL     1       1.460   2.894   1.884  1.00  0.00    -0.490 OA
ATOM     23  C   UNL     1       0.705   3.730   2.752  1.00  0.00     0.278 C 
ENDBRANCH   8  22
BRANCH  11  24
ATOM     24  O   UNL     1       4.862  -1.197   3.733  1.00  0.00    -0.492 OA
ATOM     25  C   UNL     1       5.924  -1.803   3.003  1.00  0.00     0.278 C 
ENDBRANCH  11  24
BRANCH   9  26
ATOM     26  O   UNL     1       4.118   3.427   2.194  1.00  0.00    -0.490 OA
ATOM     27  C   UNL     1       4.727   3.688   0.934  1.00  0.00     0.279 C 
ENDBRANCH   9  26
BRANCH  10  28
ATOM     28  O   UNL     1       5.835   1.496   3.380  1.00  0.00    -0.490 OA
ATOM     29  C   UNL     1       6.234   1.924   4.679  1.00  0.00     0.278 C 
ENDBRANCH  10  28
TORSDOF 7
ENDMDL
MODEL 8
REMARK VINA RESULT:    -5.068      1.495      2.088
REMARK INTER + INTRA:          -7.981
REMARK INTER:                  -7.285
REMARK INTRA:                  -0.695
REMARK UNBOUND:                -0.840
REMARK SMILES COc1ccc(-c2cc(=O)c3c(OC)c(OC)c(OC)c(OC)c3o2)cc1OC
REMARK SMILES IDX 7 1 8 2 9 3 10 4 11 5 24 6 25 7 21 8 18 9 15 10 12 11 6 12
REMARK SMILES IDX 3 13 27 14 4 15 26 16 5 17 2 18 1 19 28 20 29 21 22 22 23 23
REMARK SMILES IDX 13 24 14 25 19 26 20 27 16 28 17 29
REMARK H PARENT
REMARK Flexibility Score: inf
ROOT
ATOM      1  C   UNL     1      -8.736   5.618   6.297  1.00  0.00     0.138 A 
ATOM      2  C   UNL     1      -8.990   6.982   6.097  1.00  0.00     0.100 A 
ATOM      3  C   UNL     1      -8.748   7.550   4.848  1.00  0.00     0.197 A 
ATOM      4  O   UNL     1      -8.989   8.777   4.685  1.00  0.00    -0.289 OA
ATOM      5  C   UNL     1      -8.245   6.748   3.797  1.00  0.00     0.115 A 
ATOM      6  C   UNL     1      -7.981   5.389   4.089  1.00  0.00     0.188 A 
ATOM      7  O   UNL     1      -8.237   4.896   5.298  1.00  0.00    -0.452 OA
ATOM      8  C   UNL     1      -7.453   4.547   3.103  1.00  0.00     0.209 A 
ATOM      9  C   UNL     1      -7.226   5.028   1.813  1.00  0.00     0.211 A 
ATOM     10  C   UNL     1      -7.557   6.359   1.481  1.00  0.00     0.208 A 
ATOM     11  C   UNL     1      -8.016   7.247   2.488  1.00  0.00     0.179 A 
ENDROOT
BRANCH   1  12
ATOM     12  C   UNL     1      -9.001   4.959   7.600  1.00  0.00     0.021 A 
ATOM     13  C   UNL     1      -9.508   3.759  10.106  1.00  0.00     0.160 A 
ATOM     14  C   UNL     1      -8.627   3.146   9.203  1.00  0.00     0.161 A 
ATOM     15  C   UNL     1     -10.125   4.973   9.757  1.00  0.00     0.051 A 
ATOM     16  C   UNL     1      -8.373   3.751   7.955  1.00  0.00     0.062 A 
ATOM     17  C   UNL     1      -9.869   5.566   8.520  1.00  0.00     0.016 A 
BRANCH  13  18
ATOM     18  O   UNL     1      -9.741   3.133  11.340  1.00  0.00    -0.493 OA
ATOM     19  C   UNL     1      -9.188   3.564  12.581  1.00  0.00     0.278 C 
ENDBRANCH  13  18
BRANCH  14  20
ATOM     20  O   UNL     1      -8.019   1.938   9.584  1.00  0.00    -0.493 OA
ATOM     21  C   UNL     1      -7.903   0.792   8.745  1.00  0.00     0.278 C 
ENDBRANCH  14  20
ENDBRANCH   1  12
BRANCH   8  22
ATOM     22  O   UNL     1      -7.144   3.214   3.389  1.00  0.00    -0.490 OA
ATOM     23  C   UNL     1      -5.937   2.843   4.041  1.00  0.00     0.278 C 
ENDBRANCH   8  22
BRANCH  11  24
ATOM     24  O   UNL     1      -8.276   8.611   2.239  1.00  0.00    -0.492 OA
ATOM     25  C   UNL     1      -9.208   9.147   1.306  1.00  0.00     0.278 C 
ENDBRANCH  11  24
BRANCH   9  26
ATOM     26  O   UNL     1      -6.649   4.161   0.878  1.00  0.00    -0.490 OA
ATOM     27  C   UNL     1      -5.248   4.125   0.632  1.00  0.00     0.279 C 
ENDBRANCH   9  26
BRANCH  10  28
ATOM     28  O   UNL     1      -7.451   6.791   0.157  1.00  0.00    -0.490 OA
ATOM     29  C   UNL     1      -6.283   7.435  -0.344  1.00  0.00     0.278 C 
ENDBRANCH  10  28
TORSDOF 7
ENDMDL
MODEL 9
REMARK VINA RESULT:    -5.042      9.158     12.921
REMARK INTER + INTRA:          -7.945
REMARK INTER:                  -7.198
REMARK INTRA:                  -0.747
REMARK UNBOUND:                -0.840
REMARK SMILES COc1ccc(-c2cc(=O)c3c(OC)c(OC)c(OC)c(OC)c3o2)cc1OC
REMARK SMILES IDX 7 1 8 2 9 3 10 4 11 5 24 6 25 7 21 8 18 9 15 10 12 11 6 12
REMARK SMILES IDX 3 13 27 14 4 15 26 16 5 17 2 18 1 19 28 20 29 21 22 22 23 23
REMARK SMILES IDX 13 24 14 25 19 26 20 27 16 28 17 29
REMARK H PARENT
REMARK Flexibility Score: inf
ROOT
ATOM      1  C   UNL     1       0.337  -0.983   2.700  1.00  0.00     0.138 A 
ATOM      2  C   UNL     1       1.187  -2.005   3.146  1.00  0.00     0.100 A 
ATOM      3  C   UNL     1       2.534  -1.727   3.374  1.00  0.00     0.197 A 
ATOM      4  O   UNL     1       3.281  -2.657   3.781  1.00  0.00    -0.289 OA
ATOM      5  C   UNL     1       3.029  -0.422   3.151  1.00  0.00     0.115 A 
ATOM      6  C   UNL     1       2.115   0.545   2.667  1.00  0.00     0.188 A 
ATOM      7  O   UNL     1       0.838   0.228   2.472  1.00  0.00    -0.452 OA
ATOM      8  C   UNL     1       2.548   1.848   2.396  1.00  0.00     0.209 A 
ATOM      9  C   UNL     1       3.870   2.218   2.642  1.00  0.00     0.211 A 
ATOM     10  C   UNL     1       4.777   1.291   3.199  1.00  0.00     0.208 A 
ATOM     11  C   UNL     1       4.377  -0.055   3.403  1.00  0.00     0.179 A 
ENDROOT
BRANCH   1  12
ATOM     12  C   UNL     1      -1.109  -1.220   2.466  1.00  0.00     0.021 A 
ATOM     13  C   UNL     1      -3.849  -1.688   1.964  1.00  0.00     0.160 A 
ATOM     14  C   UNL     1      -3.462  -0.627   2.797  1.00  0.00     0.161 A 
ATOM     15  C   UNL     1      -2.866  -2.504   1.379  1.00  0.00     0.051 A 
ATOM     16  C   UNL     1      -2.093  -0.395   3.041  1.00  0.00     0.062 A 
ATOM     17  C   UNL     1      -1.512  -2.268   1.625  1.00  0.00     0.016 A 
BRANCH  13  18
ATOM     18  O   UNL     1      -5.219  -1.894   1.740  1.00  0.00    -0.493 OA
ATOM     19  C   UNL     1      -5.793  -2.195   0.471  1.00  0.00     0.278 C 
ENDBRANCH  13  18
BRANCH  14  20
ATOM     20  O   UNL     1      -4.467   0.176   3.360  1.00  0.00    -0.493 OA
ATOM     21  C   UNL     1      -4.245   1.454   3.950  1.00  0.00     0.278 C 
ENDBRANCH  14  20
ENDBRANCH   1  12
BRANCH   8  22
ATOM     22  O   UNL     1       1.667   2.801   1.875  1.00  0.00    -0.490 OA
ATOM     23  C   UNL     1       0.840   3.601   2.711  1.00  0.00     0.278 C 
ENDBRANCH   8  22
BRANCH  11  24
ATOM     24  O   UNL     1       5.262  -1.049   3.870  1.00  0.00    -0.492 OA
ATOM     25  C   UNL     1       6.398  -1.573   3.190  1.00  0.00     0.278 C 
ENDBRANCH  11  24
BRANCH   9  26
ATOM     26  O   UNL     1       4.264   3.518   2.306  1.00  0.00    -0.490 OA
ATOM     27  C   UNL     1       4.806   3.847   1.031  1.00  0.00     0.279 C 
ENDBRANCH   9  26
BRANCH  10  28
ATOM     28  O   UNL     1       6.058   1.708   3.565  1.00  0.00    -0.490 OA
ATOM     29  C   UNL     1       6.379   2.109   4.894  1.00  0.00     0.278 C 
ENDBRANCH  10  28
TORSDOF 7
ENDMDL
