MODEL 1
REMARK VINA RESULT:    -3.861      0.000      0.000
REMARK INTER + INTRA:          -8.472
REMARK INTER:                  -7.021
REMARK INTRA:                  -1.451
REMARK UNBOUND:                -1.451
REMARK SMILES CCCCCCCCCCCCCCCC(=O)[O-]
REMARK SMILES IDX 9 1 10 2 11 3 12 4 13 5 14 6 15 7 16 8 17 9 18 10 8 11 7 12
REMARK SMILES IDX 6 13 5 14 4 15 3 16 2 17 1 18
REMARK H PARENT
REMARK Flexibility Score: inf
ROOT
ATOM      1  C   UNL     1     -92.544 146.606 239.118  1.00  0.00     0.000 C 
ENDROOT
BRANCH   1   2
ATOM      2  C   UNL     1     -93.350 145.784 240.141  1.00  0.00     0.000 C 
BRANCH   2   3
ATOM      3  C   UNL     1     -94.625 146.471 240.671  1.00  0.00     0.000 C 
BRANCH   3   4
ATOM      4  C   UNL     1     -95.548 147.059 239.588  1.00  0.00     0.000 C 
BRANCH   4   5
ATOM      5  C   UNL     1     -95.526 148.597 239.559  1.00  0.00     0.000 C 
BRANCH   5   6
ATOM      6  C   UNL     1     -95.502 149.221 240.967  1.00  0.00     0.006 C 
BRANCH   6   7
ATOM      7  C   UNL     1     -96.839 149.855 241.389  1.00  0.00     0.053 C 
BRANCH   7   8
ATOM      8  C   UNL     1     -97.487 149.128 242.526  1.00  0.00     0.041 C 
ATOM      9  O   UNL     1     -97.586 147.873 242.503  1.00  0.00    -0.550 OA
ATOM     10  O   UNL     1     -97.970 149.834 243.621  1.00  0.00    -0.550 OA
ENDBRANCH   7   8
ENDBRANCH   6   7
ENDBRANCH   5   6
ENDBRANCH   4   5
ENDBRANCH   3   4
ENDBRANCH   2   3
ENDBRANCH   1   2
BRANCH   1  11
ATOM     11  C   UNL     1     -91.664 145.728 238.212  1.00  0.00     0.000 C 
BRANCH  11  12
ATOM     12  C   UNL     1     -92.138 145.732 236.750  1.00  0.00    -0.000 C 
BRANCH  12  13
ATOM     13  C   UNL     1     -93.664 145.885 236.627  1.00  0.00    -0.000 C 
BRANCH  13  14
ATOM     14  C   UNL     1     -94.071 147.097 235.757  1.00  0.00    -0.000 C 
BRANCH  14  15
ATOM     15  C   UNL     1     -93.947 146.838 234.245  1.00  0.00    -0.000 C 
BRANCH  15  16
ATOM     16  C   UNL     1     -93.092 147.871 233.488  1.00  0.00    -0.000 C 
BRANCH  16  17
ATOM     17  C   UNL     1     -91.604 147.473 233.366  1.00  0.00    -0.003 C 
ATOM     18  C   UNL     1     -91.407 145.992 233.048  1.00  0.00     0.004 C 
ENDBRANCH  16  17
ENDBRANCH  15  16
ENDBRANCH  14  15
ENDBRANCH  13  14
ENDBRANCH  12  13
ENDBRANCH  11  12
ENDBRANCH   1  11
TORSDOF 14
ENDMDL
MODEL 2
REMARK VINA RESULT:    -3.838      2.269      3.824
REMARK INTER + INTRA:          -8.430
REMARK INTER:                  -6.081
REMARK INTRA:                  -2.349
REMARK UNBOUND:                -1.451
REMARK SMILES CCCCCCCCCCCCCCCC(=O)[O-]
REMARK SMILES IDX 9 1 10 2 11 3 12 4 13 5 14 6 15 7 16 8 17 9 18 10 8 11 7 12
REMARK SMILES IDX 6 13 5 14 4 15 3 16 2 17 1 18
REMARK H PARENT
REMARK Flexibility Score: inf
ROOT
ATOM      1  C   UNL     1     -94.824 146.072 240.854  1.00  0.00     0.000 C 
ENDROOT
BRANCH   1   2
ATOM      2  C   UNL     1     -94.758 147.566 241.220  1.00  0.00     0.000 C 
BRANCH   2   3
ATOM      3  C   UNL     1     -96.119 148.221 241.536  1.00  0.00     0.000 C 
BRANCH   3   4
ATOM      4  C   UNL     1     -96.200 149.731 241.243  1.00  0.00     0.000 C 
BRANCH   4   5
ATOM      5  C   UNL     1     -97.633 150.280 241.340  1.00  0.00     0.000 C 
BRANCH   5   6
ATOM      6  C   UNL     1     -98.642 149.231 241.846  1.00  0.00     0.006 C 
BRANCH   6   7
ATOM      7  C   UNL     1     -99.353 149.632 243.151  1.00  0.00     0.053 C 
BRANCH   7   8
ATOM      8  C   UNL     1     -98.579 149.242 244.371  1.00  0.00     0.041 C 
ATOM      9  O   UNL     1     -98.024 148.113 244.436  1.00  0.00    -0.550 OA
ATOM     10  O   UNL     1     -98.458 150.128 245.434  1.00  0.00    -0.550 OA
ENDBRANCH   7   8
ENDBRANCH   6   7
ENDBRANCH   5   6
ENDBRANCH   4   5
ENDBRANCH   3   4
ENDBRANCH   2   3
ENDBRANCH   1   2
BRANCH   1  11
ATOM     11  C   UNL     1     -93.596 145.602 240.055  1.00  0.00     0.000 C 
BRANCH  11  12
ATOM     12  C   UNL     1     -92.980 146.726 239.208  1.00  0.00    -0.000 C 
BRANCH  12  13
ATOM     13  C   UNL     1     -93.017 146.416 237.701  1.00  0.00    -0.000 C 
BRANCH  13  14
ATOM     14  C   UNL     1     -94.246 147.036 236.997  1.00  0.00    -0.000 C 
BRANCH  14  15
ATOM     15  C   UNL     1     -94.655 148.406 237.567  1.00  0.00    -0.000 C 
BRANCH  15  16
ATOM     16  C   UNL     1     -96.165 148.568 237.819  1.00  0.00    -0.000 C 
BRANCH  16  17
ATOM     17  C   UNL     1     -96.936 147.229 237.843  1.00  0.00    -0.003 C 
ATOM     18  C   UNL     1     -98.225 147.298 238.659  1.00  0.00     0.004 C 
ENDBRANCH  16  17
ENDBRANCH  15  16
ENDBRANCH  14  15
ENDBRANCH  13  14
ENDBRANCH  12  13
ENDBRANCH  11  12
ENDBRANCH   1  11
TORSDOF 14
ENDMDL
MODEL 3
REMARK VINA RESULT:    -3.804      1.169      2.326
REMARK INTER + INTRA:          -8.368
REMARK INTER:                  -6.886
REMARK INTRA:                  -1.481
REMARK UNBOUND:                -1.451
REMARK SMILES CCCCCCCCCCCCCCCC(=O)[O-]
REMARK SMILES IDX 9 1 10 2 11 3 12 4 13 5 14 6 15 7 16 8 17 9 18 10 8 11 7 12
REMARK SMILES IDX 6 13 5 14 4 15 3 16 2 17 1 18
REMARK H PARENT
REMARK Flexibility Score: inf
ROOT
ATOM      1  C   UNL     1     -91.613 145.637 237.806  1.00  0.00     0.000 C 
ENDROOT
BRANCH   1   2
ATOM      2  C   UNL     1     -92.283 146.014 239.140  1.00  0.00     0.000 C 
BRANCH   2   3
ATOM      3  C   UNL     1     -93.684 146.647 239.012  1.00  0.00     0.000 C 
BRANCH   3   4
ATOM      4  C   UNL     1     -93.751 148.152 239.330  1.00  0.00     0.000 C 
BRANCH   4   5
ATOM      5  C   UNL     1     -95.186 148.640 239.596  1.00  0.00     0.000 C 
BRANCH   5   6
ATOM      6  C   UNL     1     -95.331 149.358 240.952  1.00  0.00     0.006 C 
BRANCH   6   7
ATOM      7  C   UNL     1     -96.791 149.595 241.375  1.00  0.00     0.053 C 
BRANCH   7   8
ATOM      8  C   UNL     1     -97.283 148.566 242.345  1.00  0.00     0.041 C 
ATOM      9  O   UNL     1     -97.737 148.918 243.466  1.00  0.00    -0.550 OA
ATOM     10  O   UNL     1     -97.255 147.219 242.008  1.00  0.00    -0.550 OA
ENDBRANCH   7   8
ENDBRANCH   6   7
ENDBRANCH   5   6
ENDBRANCH   4   5
ENDBRANCH   3   4
ENDBRANCH   2   3
ENDBRANCH   1   2
BRANCH   1  11
ATOM     11  C   UNL     1     -92.469 146.011 236.584  1.00  0.00     0.000 C 
BRANCH  11  12
ATOM     12  C   UNL     1     -92.357 144.981 235.450  1.00  0.00    -0.000 C 
BRANCH  12  13
ATOM     13  C   UNL     1     -92.564 145.610 234.061  1.00  0.00    -0.000 C 
BRANCH  13  14
ATOM     14  C   UNL     1     -92.636 147.153 234.112  1.00  0.00    -0.000 C 
BRANCH  14  15
ATOM     15  C   UNL     1     -93.942 147.728 233.533  1.00  0.00    -0.000 C 
BRANCH  15  16
ATOM     16  C   UNL     1     -94.553 148.878 234.353  1.00  0.00    -0.000 C 
BRANCH  16  17
ATOM     17  C   UNL     1     -95.045 148.448 235.753  1.00  0.00    -0.003 C 
ATOM     18  C   UNL     1     -95.918 147.194 235.718  1.00  0.00     0.004 C 
ENDBRANCH  16  17
ENDBRANCH  15  16
ENDBRANCH  14  15
ENDBRANCH  13  14
ENDBRANCH  12  13
ENDBRANCH  11  12
ENDBRANCH   1  11
TORSDOF 14
ENDMDL
MODEL 4
REMARK VINA RESULT:    -3.760      1.415      2.449
REMARK INTER + INTRA:          -8.288
REMARK INTER:                  -7.036
REMARK INTRA:                  -1.253
REMARK UNBOUND:                -1.451
REMARK SMILES CCCCCCCCCCCCCCCC(=O)[O-]
REMARK SMILES IDX 9 1 10 2 11 3 12 4 13 5 14 6 15 7 16 8 17 9 18 10 8 11 7 12
REMARK SMILES IDX 6 13 5 14 4 15 3 16 2 17 1 18
REMARK H PARENT
REMARK Flexibility Score: inf
ROOT
ATOM      1  C   UNL     1     -93.103 146.725 239.099  1.00  0.00     0.000 C 
ENDROOT
BRANCH   1   2
ATOM      2  C   UNL     1     -93.822 146.014 240.260  1.00  0.00     0.000 C 
BRANCH   2   3
ATOM      3  C   UNL     1     -94.622 146.941 241.199  1.00  0.00     0.000 C 
BRANCH   3   4
ATOM      4  C   UNL     1     -94.534 148.441 240.865  1.00  0.00     0.000 C 
BRANCH   4   5
ATOM      5  C   UNL     1     -95.886 149.035 240.435  1.00  0.00     0.000 C 
BRANCH   5   6
ATOM      6  C   UNL     1     -96.558 149.859 241.549  1.00  0.00     0.006 C 
BRANCH   6   7
ATOM      7  C   UNL     1     -98.096 149.815 241.513  1.00  0.00     0.053 C 
BRANCH   7   8
ATOM      8  C   UNL     1     -98.703 149.796 242.881  1.00  0.00     0.041 C 
ATOM      9  O   UNL     1     -97.984 149.576 243.891  1.00  0.00    -0.550 OA
ATOM     10  O   UNL     1    -100.062 150.033 243.045  1.00  0.00    -0.550 OA
ENDBRANCH   7   8
ENDBRANCH   6   7
ENDBRANCH   5   6
ENDBRANCH   4   5
ENDBRANCH   3   4
ENDBRANCH   2   3
ENDBRANCH   1   2
BRANCH   1  11
ATOM     11  C   UNL     1     -91.873 145.951 238.598  1.00  0.00     0.000 C 
BRANCH  11  12
ATOM     12  C   UNL     1     -91.899 145.725 237.078  1.00  0.00    -0.000 C 
BRANCH  12  13
ATOM     13  C   UNL     1     -93.296 145.951 236.473  1.00  0.00    -0.000 C 
BRANCH  13  14
ATOM     14  C   UNL     1     -93.249 146.750 235.150  1.00  0.00    -0.000 C 
BRANCH  14  15
ATOM     15  C   UNL     1     -94.517 147.582 234.889  1.00  0.00    -0.000 C 
BRANCH  15  16
ATOM     16  C   UNL     1     -95.434 147.750 236.114  1.00  0.00    -0.000 C 
BRANCH  16  17
ATOM     17  C   UNL     1     -95.350 149.150 236.763  1.00  0.00    -0.003 C 
ATOM     18  C   UNL     1     -95.455 150.286 235.747  1.00  0.00     0.004 C 
ENDBRANCH  16  17
ENDBRANCH  15  16
ENDBRANCH  14  15
ENDBRANCH  13  14
ENDBRANCH  12  13
ENDBRANCH  11  12
ENDBRANCH   1  11
TORSDOF 14
ENDMDL
MODEL 5
REMARK VINA RESULT:    -3.756      2.245      3.147
REMARK INTER + INTRA:          -8.282
REMARK INTER:                  -7.040
REMARK INTRA:                  -1.242
REMARK UNBOUND:                -1.451
REMARK SMILES CCCCCCCCCCCCCCCC(=O)[O-]
REMARK SMILES IDX 9 1 10 2 11 3 12 4 13 5 14 6 15 7 16 8 17 9 18 10 8 11 7 12
REMARK SMILES IDX 6 13 5 14 4 15 3 16 2 17 1 18
REMARK H PARENT
REMARK Flexibility Score: inf
ROOT
ATOM      1  C   UNL     1     -91.785 145.663 237.436  1.00  0.00     0.000 C 
ENDROOT
BRANCH   1   2
ATOM      2  C   UNL     1     -91.998 146.034 238.916  1.00  0.00     0.000 C 
BRANCH   2   3
ATOM      3  C   UNL     1     -93.421 146.512 239.271  1.00  0.00     0.000 C 
BRANCH   3   4
ATOM      4  C   UNL     1     -93.561 148.027 239.508  1.00  0.00     0.000 C 
BRANCH   4   5
ATOM      5  C   UNL     1     -94.737 148.645 238.734  1.00  0.00     0.000 C 
BRANCH   5   6
ATOM      6  C   UNL     1     -96.060 148.603 239.523  1.00  0.00     0.006 C 
BRANCH   6   7
ATOM      7  C   UNL     1     -95.919 149.035 240.993  1.00  0.00     0.053 C 
BRANCH   7   8
ATOM      8  C   UNL     1     -97.180 149.627 241.542  1.00  0.00     0.041 C 
ATOM      9  O   UNL     1     -97.924 150.327 240.806  1.00  0.00    -0.550 OA
ATOM     10  O   UNL     1     -97.542 149.396 242.863  1.00  0.00    -0.550 OA
ENDBRANCH   7   8
ENDBRANCH   6   7
ENDBRANCH   5   6
ENDBRANCH   4   5
ENDBRANCH   3   4
ENDBRANCH   2   3
ENDBRANCH   1   2
BRANCH   1  11
ATOM     11  C   UNL     1     -92.976 146.060 236.547  1.00  0.00     0.000 C 
BRANCH  11  12
ATOM     12  C   UNL     1     -92.571 146.262 235.078  1.00  0.00    -0.000 C 
BRANCH  12  13
ATOM     13  C   UNL     1     -93.471 147.278 234.354  1.00  0.00    -0.000 C 
BRANCH  13  14
ATOM     14  C   UNL     1     -94.620 147.797 235.248  1.00  0.00    -0.000 C 
BRANCH  14  15
ATOM     15  C   UNL     1     -95.147 149.183 234.831  1.00  0.00    -0.000 C 
BRANCH  15  16
ATOM     16  C   UNL     1     -96.536 149.534 235.394  1.00  0.00    -0.000 C 
BRANCH  16  17
ATOM     17  C   UNL     1     -97.006 150.962 235.034  1.00  0.00    -0.003 C 
ATOM     18  C   UNL     1     -95.863 151.975 234.997  1.00  0.00     0.004 C 
ENDBRANCH  16  17
ENDBRANCH  15  16
ENDBRANCH  14  15
ENDBRANCH  13  14
ENDBRANCH  12  13
ENDBRANCH  11  12
ENDBRANCH   1  11
TORSDOF 14
ENDMDL
MODEL 6
REMARK VINA RESULT:    -3.733      2.270      3.742
REMARK INTER + INTRA:          -8.240
REMARK INTER:                  -5.938
REMARK INTRA:                  -2.301
REMARK UNBOUND:                -1.451
REMARK SMILES CCCCCCCCCCCCCCCC(=O)[O-]
REMARK SMILES IDX 9 1 10 2 11 3 12 4 13 5 14 6 15 7 16 8 17 9 18 10 8 11 7 12
REMARK SMILES IDX 6 13 5 14 4 15 3 16 2 17 1 18
REMARK H PARENT
REMARK Flexibility Score: inf
ROOT
ATOM      1  C   UNL     1     -94.410 146.651 240.961  1.00  0.00     0.000 C 
ENDROOT
BRANCH   1   2
ATOM      2  C   UNL     1     -94.392 148.141 240.569  1.00  0.00     0.000 C 
BRANCH   2   3
ATOM      3  C   UNL     1     -95.780 148.771 240.334  1.00  0.00     0.000 C 
BRANCH   3   4
ATOM      4  C   UNL     1     -96.193 149.840 241.361  1.00  0.00     0.000 C 
BRANCH   4   5
ATOM      5  C   UNL     1     -97.612 149.619 241.913  1.00  0.00     0.000 C 
BRANCH   5   6
ATOM      6  C   UNL     1     -98.005 148.130 241.971  1.00  0.00     0.006 C 
BRANCH   6   7
ATOM      7  C   UNL     1     -97.726 147.468 243.332  1.00  0.00     0.053 C 
BRANCH   7   8
ATOM      8  C   UNL     1     -97.314 146.035 243.201  1.00  0.00     0.041 C 
ATOM      9  O   UNL     1     -97.478 145.425 242.111  1.00  0.00    -0.550 OA
ATOM     10  O   UNL     1     -96.736 145.373 244.277  1.00  0.00    -0.550 OA
ENDBRANCH   7   8
ENDBRANCH   6   7
ENDBRANCH   5   6
ENDBRANCH   4   5
ENDBRANCH   3   4
ENDBRANCH   2   3
ENDBRANCH   1   2
BRANCH   1  11
ATOM     11  C   UNL     1     -93.480 145.795 240.085  1.00  0.00     0.000 C 
BRANCH  11  12
ATOM     12  C   UNL     1     -92.567 146.646 239.190  1.00  0.00    -0.000 C 
BRANCH  12  13
ATOM     13  C   UNL     1     -92.242 145.954 237.854  1.00  0.00    -0.000 C 
BRANCH  13  14
ATOM     14  C   UNL     1     -93.410 146.032 236.844  1.00  0.00    -0.000 C 
BRANCH  14  15
ATOM     15  C   UNL     1     -94.135 147.391 236.846  1.00  0.00    -0.000 C 
BRANCH  15  16
ATOM     16  C   UNL     1     -95.653 147.305 237.087  1.00  0.00    -0.000 C 
BRANCH  16  17
ATOM     17  C   UNL     1     -96.123 145.920 237.587  1.00  0.00    -0.003 C 
ATOM     18  C   UNL     1     -97.355 145.997 238.487  1.00  0.00     0.004 C 
ENDBRANCH  16  17
ENDBRANCH  15  16
ENDBRANCH  14  15
ENDBRANCH  13  14
ENDBRANCH  12  13
ENDBRANCH  11  12
ENDBRANCH   1  11
TORSDOF 14
ENDMDL
MODEL 7
REMARK VINA RESULT:    -3.708      3.487      7.138
REMARK INTER + INTRA:          -8.193
REMARK INTER:                  -6.156
REMARK INTRA:                  -2.038
REMARK UNBOUND:                -1.451
REMARK SMILES CCCCCCCCCCCCCCCC(=O)[O-]
REMARK SMILES IDX 9 1 10 2 11 3 12 4 13 5 14 6 15 7 16 8 17 9 18 10 8 11 7 12
REMARK SMILES IDX 6 13 5 14 4 15 3 16 2 17 1 18
REMARK H PARENT
REMARK Flexibility Score: inf
ROOT
ATOM      1  C   UNL     1     -94.403 148.645 238.311  1.00  0.00     0.000 C 
ENDROOT
BRANCH   1   2
ATOM      2  C   UNL     1     -93.601 147.913 239.403  1.00  0.00     0.000 C 
BRANCH   2   3
ATOM      3  C   UNL     1     -93.366 146.410 239.146  1.00  0.00     0.000 C 
BRANCH   3   4
ATOM      4  C   UNL     1     -91.902 146.014 238.883  1.00  0.00     0.000 C 
BRANCH   4   5
ATOM      5  C   UNL     1     -91.642 145.632 237.416  1.00  0.00     0.000 C 
BRANCH   5   6
ATOM      6  C   UNL     1     -92.873 145.849 236.515  1.00  0.00     0.006 C 
BRANCH   6   7
ATOM      7  C   UNL     1     -92.528 146.373 235.110  1.00  0.00     0.053 C 
BRANCH   7   8
ATOM      8  C   UNL     1     -93.727 146.893 234.380  1.00  0.00     0.041 C 
ATOM      9  O   UNL     1     -93.941 148.132 234.314  1.00  0.00    -0.550 OA
ATOM     10  O   UNL     1     -94.603 146.012 233.759  1.00  0.00    -0.550 OA
ENDBRANCH   7   8
ENDBRANCH   6   7
ENDBRANCH   5   6
ENDBRANCH   4   5
ENDBRANCH   3   4
ENDBRANCH   2   3
ENDBRANCH   1   2
BRANCH   1  11
ATOM     11  C   UNL     1     -95.700 147.909 237.933  1.00  0.00     0.000 C 
BRANCH  11  12
ATOM     12  C   UNL     1     -96.927 148.834 237.954  1.00  0.00    -0.000 C 
BRANCH  12  13
ATOM     13  C   UNL     1     -97.885 148.514 239.115  1.00  0.00    -0.000 C 
BRANCH  13  14
ATOM     14  C   UNL     1     -97.721 149.485 240.306  1.00  0.00    -0.000 C 
BRANCH  14  15
ATOM     15  C   UNL     1     -96.582 149.094 241.266  1.00  0.00    -0.000 C 
BRANCH  15  16
ATOM     16  C   UNL     1     -96.899 147.895 242.178  1.00  0.00    -0.000 C 
BRANCH  16  17
ATOM     17  C   UNL     1     -95.969 146.682 241.953  1.00  0.00    -0.003 C 
ATOM     18  C   UNL     1     -96.526 145.684 240.940  1.00  0.00     0.004 C 
ENDBRANCH  16  17
ENDBRANCH  15  16
ENDBRANCH  14  15
ENDBRANCH  13  14
ENDBRANCH  12  13
ENDBRANCH  11  12
ENDBRANCH   1  11
TORSDOF 14
ENDMDL
MODEL 8
REMARK VINA RESULT:    -3.690      3.527      7.170
REMARK INTER + INTRA:          -8.161
REMARK INTER:                  -5.803
REMARK INTRA:                  -2.357
REMARK UNBOUND:                -1.451
REMARK SMILES CCCCCCCCCCCCCCCC(=O)[O-]
REMARK SMILES IDX 9 1 10 2 11 3 12 4 13 5 14 6 15 7 16 8 17 9 18 10 8 11 7 12
REMARK SMILES IDX 6 13 5 14 4 15 3 16 2 17 1 18
REMARK H PARENT
REMARK Flexibility Score: inf
ROOT
ATOM      1  C   UNL     1     -95.327 145.881 240.530  1.00  0.00     0.000 C 
ENDROOT
BRANCH   1   2
ATOM      2  C   UNL     1     -95.225 147.152 241.394  1.00  0.00     0.000 C 
BRANCH   2   3
ATOM      3  C   UNL     1     -94.454 148.321 240.746  1.00  0.00     0.000 C 
BRANCH   3   4
ATOM      4  C   UNL     1     -93.794 147.998 239.394  1.00  0.00     0.000 C 
BRANCH   4   5
ATOM      5  C   UNL     1     -94.524 148.646 238.205  1.00  0.00     0.000 C 
BRANCH   5   6
ATOM      6  C   UNL     1     -95.074 147.611 237.206  1.00  0.00     0.006 C 
BRANCH   6   7
ATOM      7  C   UNL     1     -94.131 147.327 236.023  1.00  0.00     0.053 C 
BRANCH   7   8
ATOM      8  C   UNL     1     -93.463 145.992 236.128  1.00  0.00     0.041 C 
ATOM      9  O   UNL     1     -93.956 144.989 235.547  1.00  0.00    -0.550 OA
ATOM     10  O   UNL     1     -92.288 145.854 236.856  1.00  0.00    -0.550 OA
ENDBRANCH   7   8
ENDBRANCH   6   7
ENDBRANCH   5   6
ENDBRANCH   4   5
ENDBRANCH   3   4
ENDBRANCH   2   3
ENDBRANCH   1   2
BRANCH   1  11
ATOM     11  C   UNL     1     -96.753 145.631 240.009  1.00  0.00     0.000 C 
BRANCH  11  12
ATOM     12  C   UNL     1     -97.750 146.697 240.489  1.00  0.00    -0.000 C 
BRANCH  12  13
ATOM     13  C   UNL     1     -98.303 147.549 239.333  1.00  0.00    -0.000 C 
BRANCH  13  14
ATOM     14  C   UNL     1     -97.856 149.026 239.418  1.00  0.00    -0.000 C 
BRANCH  14  15
ATOM     15  C   UNL     1     -98.503 149.799 240.582  1.00  0.00    -0.000 C 
BRANCH  15  16
ATOM     16  C   UNL     1     -97.562 150.067 241.771  1.00  0.00    -0.000 C 
BRANCH  16  17
ATOM     17  C   UNL     1     -98.211 149.797 243.147  1.00  0.00    -0.003 C 
ATOM     18  C   UNL     1     -97.861 148.420 243.711  1.00  0.00     0.004 C 
ENDBRANCH  16  17
ENDBRANCH  15  16
ENDBRANCH  14  15
ENDBRANCH  13  14
ENDBRANCH  12  13
ENDBRANCH  11  12
ENDBRANCH   1  11
TORSDOF 14
ENDMDL
MODEL 9
REMARK VINA RESULT:    -3.674      1.563      3.485
REMARK INTER + INTRA:          -8.132
REMARK INTER:                  -6.138
REMARK INTRA:                  -1.994
REMARK UNBOUND:                -1.451
REMARK SMILES CCCCCCCCCCCCCCCC(=O)[O-]
REMARK SMILES IDX 9 1 10 2 11 3 12 4 13 5 14 6 15 7 16 8 17 9 18 10 8 11 7 12
REMARK SMILES IDX 6 13 5 14 4 15 3 16 2 17 1 18
REMARK H PARENT
REMARK Flexibility Score: inf
ROOT
ATOM      1  C   UNL     1     -92.023 145.983 238.457  1.00  0.00     0.000 C 
ENDROOT
BRANCH   1   2
ATOM      2  C   UNL     1     -92.975 146.883 239.267  1.00  0.00     0.000 C 
BRANCH   2   3
ATOM      3  C   UNL     1     -93.826 146.149 240.324  1.00  0.00     0.000 C 
BRANCH   3   4
ATOM      4  C   UNL     1     -94.830 147.035 241.084  1.00  0.00     0.000 C 
BRANCH   4   5
ATOM      5  C   UNL     1     -94.662 148.531 240.767  1.00  0.00     0.000 C 
BRANCH   5   6
ATOM      6  C   UNL     1     -95.923 149.355 241.088  1.00  0.00     0.006 C 
BRANCH   6   7
ATOM      7  C   UNL     1     -97.121 148.504 241.544  1.00  0.00     0.053 C 
BRANCH   7   8
ATOM      8  C   UNL     1     -97.699 148.972 242.843  1.00  0.00     0.041 C 
ATOM      9  O   UNL     1     -98.210 150.120 242.932  1.00  0.00    -0.550 OA
ATOM     10  O   UNL     1     -97.685 148.139 243.954  1.00  0.00    -0.550 OA
ENDBRANCH   7   8
ENDBRANCH   6   7
ENDBRANCH   5   6
ENDBRANCH   4   5
ENDBRANCH   3   4
ENDBRANCH   2   3
ENDBRANCH   1   2
BRANCH   1  11
ATOM     11  C   UNL     1     -92.419 145.883 236.974  1.00  0.00     0.000 C 
BRANCH  11  12
ATOM     12  C   UNL     1     -93.879 146.294 236.726  1.00  0.00    -0.000 C 
BRANCH  12  13
ATOM     13  C   UNL     1     -94.023 147.272 235.547  1.00  0.00    -0.000 C 
BRANCH  13  14
ATOM     14  C   UNL     1     -95.019 148.417 235.842  1.00  0.00    -0.000 C 
BRANCH  14  15
ATOM     15  C   UNL     1     -95.651 148.336 237.243  1.00  0.00    -0.000 C 
BRANCH  15  16
ATOM     16  C   UNL     1     -97.054 147.702 237.275  1.00  0.00    -0.000 C 
BRANCH  16  17
ATOM     17  C   UNL     1     -97.194 146.558 238.305  1.00  0.00    -0.003 C 
ATOM     18  C   UNL     1     -98.578 146.502 238.948  1.00  0.00     0.004 C 
ENDBRANCH  16  17
ENDBRANCH  15  16
ENDBRANCH  14  15
ENDBRANCH  13  14
ENDBRANCH  12  13
ENDBRANCH  11  12
ENDBRANCH   1  11
TORSDOF 14
ENDMDL
