MODEL 1
REMARK VINA RESULT:    -3.492      0.000      0.000
REMARK INTER + INTRA:          -4.903
REMARK INTER:                  -4.920
REMARK INTRA:                   0.017
REMARK UNBOUND:                 0.017
REMARK SMILES CC1=CCC(=C(C)C)C(=O)CC(C)=CCC1
REMARK SMILES IDX 12 1 14 2 13 3 15 4 16 5 2 6 1 7 3 8 11 10 9 11 10 12 5 13
REMARK SMILES IDX 6 14 7 15 8 16 4 17
REMARK H PARENT
REMARK Flexibility Score: 60.00
ROOT
ATOM      1  C   UNL     1     -13.700  26.784  15.133  1.00  0.00    -0.070 C 
ATOM      2  C   UNL     1     -14.103  25.487  15.008  1.00  0.00    -0.027 C 
ATOM      3  C   UNL     1     -13.574  27.580  13.855  1.00  0.00     0.039 C 
ENDROOT
BRANCH   2   4
ATOM      4  C   UNL     1     -14.287  24.382  16.042  1.00  0.00     0.032 C 
BRANCH   4   5
ATOM      5  C   UNL     1     -15.521  24.466  16.949  1.00  0.00     0.034 C 
BRANCH   5   6
ATOM      6  C   UNL     1     -15.313  24.815  18.430  1.00  0.00    -0.077 C 
ATOM      7  C   UNL     1     -14.833  23.675  19.303  1.00  0.00     0.039 C 
ATOM      8  C   UNL     1     -15.582  25.984  19.084  1.00  0.00    -0.023 CG0
ATOM      9  G   UNL     1     -16.124  27.305  18.576  1.00  0.00     0.000 G0
ENDBRANCH   5   6
ENDBRANCH   4   5
ENDBRANCH   2   4
BRANCH   1  10
ATOM     10  C   UNL     1     -13.372  27.516  16.425  1.00  0.00     0.111 C 
BRANCH  10  11
ATOM     11  C   UNL     1     -14.514  28.367  16.890  1.00  0.00     0.163 C 
ATOM     12  O   UNL     1     -15.053  29.165  16.075  1.00  0.00    -0.294 OA
BRANCH  11  13
ATOM     13  C   UNL     1     -14.984  28.305  18.298  1.00  0.00    -0.002 C 
ATOM     14  C   UNL     1     -14.423  29.080  19.272  1.00  0.00    -0.069 C 
ATOM     15  C   UNL     1     -14.825  28.943  20.723  1.00  0.00     0.039 C 
ATOM     16  C   UNL     1     -13.382  30.124  18.936  1.00  0.00     0.039 C 
BRANCH  13  17
ATOM     17  C   UNL     1     -16.103  27.325  18.583  1.00  0.00     0.066 CG0
ATOM     18  G   UNL     1     -15.577  25.986  19.063  1.00  0.00     0.000 G0
ENDBRANCH  13  17
ENDBRANCH  11  13
ENDBRANCH  10  11
ENDBRANCH   1  10
TORSDOF 0
ENDMDL
MODEL 2
REMARK VINA RESULT:    -3.469      2.158      4.673
REMARK INTER + INTRA:          -4.871
REMARK INTER:                  -5.036
REMARK INTRA:                   0.165
REMARK UNBOUND:                 0.017
REMARK SMILES CC1=CCC(=C(C)C)C(=O)CC(C)=CCC1
REMARK SMILES IDX 12 1 14 2 13 3 15 4 16 5 2 6 1 7 3 8 11 10 9 11 10 12 5 13
REMARK SMILES IDX 6 14 7 15 8 16 4 17
REMARK H PARENT
REMARK Flexibility Score: 60.00
ROOT
ATOM      1  C   UNL     1     -14.878  31.264  19.168  1.00  0.00    -0.070 C 
ATOM      2  C   UNL     1     -13.657  30.657  19.196  1.00  0.00    -0.027 C 
ATOM      3  C   UNL     1     -14.959  32.650  19.763  1.00  0.00     0.039 C 
ENDROOT
BRANCH   2   4
ATOM      4  C   UNL     1     -13.208  29.269  18.751  1.00  0.00     0.032 C 
BRANCH   4   5
ATOM      5  C   UNL     1     -13.372  28.919  17.267  1.00  0.00     0.034 C 
BRANCH   5   6
ATOM      6  C   UNL     1     -14.183  27.668  16.900  1.00  0.00    -0.077 C 
ATOM      7  C   UNL     1     -13.933  27.117  15.513  1.00  0.00     0.039 C 
ATOM      8  C   UNL     1     -15.158  27.034  17.618  1.00  0.00    -0.023 CG0
ATOM      9  G   UNL     1     -15.725  27.322  18.994  1.00  0.00     0.000 G0
ENDBRANCH   5   6
ENDBRANCH   4   5
ENDBRANCH   2   4
BRANCH   1  10
ATOM     10  C   UNL     1     -16.166  30.694  18.593  1.00  0.00     0.111 C 
BRANCH  10  11
ATOM     11  C   UNL     1     -16.733  29.612  19.460  1.00  0.00     0.163 C 
ATOM     12  O   UNL     1     -16.996  29.872  20.666  1.00  0.00    -0.294 OA
BRANCH  11  13
ATOM     13  C   UNL     1     -16.946  28.243  18.927  1.00  0.00    -0.002 C 
ATOM     14  C   UNL     1     -18.154  27.852  18.426  1.00  0.00    -0.069 C 
ATOM     15  C   UNL     1     -18.405  26.429  17.981  1.00  0.00     0.039 C 
ATOM     16  C   UNL     1     -19.293  28.836  18.277  1.00  0.00     0.039 C 
BRANCH  13  17
ATOM     17  C   UNL     1     -15.754  27.311  18.990  1.00  0.00     0.066 CG0
ATOM     18  G   UNL     1     -15.164  27.048  17.619  1.00  0.00     0.000 G0
ENDBRANCH  13  17
ENDBRANCH  11  13
ENDBRANCH  10  11
ENDBRANCH   1  10
TORSDOF 0
ENDMDL
MODEL 3
REMARK VINA RESULT:    -3.464      1.916      3.879
REMARK INTER + INTRA:          -4.864
REMARK INTER:                  -4.905
REMARK INTRA:                   0.041
REMARK UNBOUND:                 0.017
REMARK SMILES CC1=CCC(=C(C)C)C(=O)CC(C)=CCC1
REMARK SMILES IDX 12 1 14 2 13 3 15 4 16 5 2 6 1 7 3 8 11 10 9 11 10 12 5 13
REMARK SMILES IDX 6 14 7 15 8 16 4 17
REMARK H PARENT
REMARK Flexibility Score: 60.00
ROOT
ATOM      1  C   UNL     1     -15.275  24.852  19.031  1.00  0.00    -0.070 C 
ATOM      2  C   UNL     1     -14.841  24.089  17.988  1.00  0.00    -0.027 C 
ATOM      3  C   UNL     1     -15.105  24.269  20.415  1.00  0.00     0.039 C 
ENDROOT
BRANCH   2   4
ATOM      4  C   UNL     1     -14.895  24.312  16.481  1.00  0.00     0.032 C 
BRANCH   4   5
ATOM      5  C   UNL     1     -13.816  25.212  15.865  1.00  0.00     0.034 C 
BRANCH   5   6
ATOM      6  C   UNL     1     -14.256  26.528  15.207  1.00  0.00    -0.077 C 
ATOM      7  C   UNL     1     -14.729  26.410  13.774  1.00  0.00     0.039 C 
ATOM      8  C   UNL     1     -14.200  27.799  15.705  1.00  0.00    -0.023 CG0
ATOM      9  G   UNL     1     -13.734  28.319  17.051  1.00  0.00     0.000 G0
ENDBRANCH   5   6
ENDBRANCH   4   5
ENDBRANCH   2   4
BRANCH   1  10
ATOM     10  C   UNL     1     -15.907  26.234  18.949  1.00  0.00     0.111 C 
BRANCH  10  11
ATOM     11  C   UNL     1     -14.884  27.322  19.060  1.00  0.00     0.163 C 
ATOM     12  O   UNL     1     -14.081  27.308  20.033  1.00  0.00    -0.294 OA
BRANCH  11  13
ATOM     13  C   UNL     1     -14.837  28.426  18.068  1.00  0.00    -0.002 C 
ATOM     14  C   UNL     1     -15.752  29.438  18.082  1.00  0.00    -0.069 C 
ATOM     15  C   UNL     1     -15.772  30.504  17.009  1.00  0.00     0.039 C 
ATOM     16  C   UNL     1     -16.781  29.546  19.185  1.00  0.00     0.039 C 
BRANCH  13  17
ATOM     17  C   UNL     1     -13.728  28.347  17.038  1.00  0.00     0.066 CG0
ATOM     18  G   UNL     1     -14.221  27.798  15.714  1.00  0.00     0.000 G0
ENDBRANCH  13  17
ENDBRANCH  11  13
ENDBRANCH  10  11
ENDBRANCH   1  10
TORSDOF 0
ENDMDL
MODEL 4
REMARK VINA RESULT:    -3.456      3.254      5.049
REMARK INTER + INTRA:          -4.853
REMARK INTER:                  -4.793
REMARK INTRA:                  -0.059
REMARK UNBOUND:                 0.017
REMARK SMILES CC1=CCC(=C(C)C)C(=O)CC(C)=CCC1
REMARK SMILES IDX 12 1 14 2 13 3 15 4 16 5 2 6 1 7 3 8 11 10 9 11 10 12 5 13
REMARK SMILES IDX 6 14 7 15 8 16 4 17
REMARK H PARENT
REMARK Flexibility Score: 60.00
ROOT
ATOM      1  C   UNL     1     -13.753  28.853  18.618  1.00  0.00    -0.070 C 
ATOM      2  C   UNL     1     -13.738  28.227  17.407  1.00  0.00    -0.027 C 
ATOM      3  C   UNL     1     -13.384  28.014  19.819  1.00  0.00     0.039 C 
ENDROOT
BRANCH   2   4
ATOM      4  C   UNL     1     -14.098  28.720  16.010  1.00  0.00     0.032 C 
BRANCH   4   5
ATOM      5  C   UNL     1     -15.582  28.971  15.713  1.00  0.00     0.034 C 
BRANCH   5   6
ATOM      6  C   UNL     1     -16.037  30.413  15.447  1.00  0.00    -0.077 C 
ATOM      7  C   UNL     1     -15.574  31.007  14.134  1.00  0.00     0.039 C 
ATOM      8  C   UNL     1     -16.729  31.261  16.264  1.00  0.00    -0.023 CG0
ATOM      9  G   UNL     1     -17.296  31.058  17.655  1.00  0.00     0.000 G0
ENDBRANCH   5   6
ENDBRANCH   4   5
ENDBRANCH   2   4
BRANCH   1  10
ATOM     10  C   UNL     1     -14.097  30.310  18.887  1.00  0.00     0.111 C 
BRANCH  10  11
ATOM     11  C   UNL     1     -15.509  30.472  19.362  1.00  0.00     0.163 C 
ATOM     12  O   UNL     1     -15.950  29.684  20.244  1.00  0.00    -0.294 OA
BRANCH  11  13
ATOM     13  C   UNL     1     -16.393  31.513  18.780  1.00  0.00    -0.002 C 
ATOM     14  C   UNL     1     -16.374  32.800  19.234  1.00  0.00    -0.069 C 
ATOM     15  C   UNL     1     -17.347  33.836  18.718  1.00  0.00     0.039 C 
ATOM     16  C   UNL     1     -15.364  33.250  20.265  1.00  0.00     0.039 C 
BRANCH  13  17
ATOM     17  C   UNL     1     -17.320  31.055  17.673  1.00  0.00     0.066 CG0
ATOM     18  G   UNL     1     -16.715  31.269  16.300  1.00  0.00     0.000 G0
ENDBRANCH  13  17
ENDBRANCH  11  13
ENDBRANCH  10  11
ENDBRANCH   1  10
TORSDOF 0
ENDMDL
MODEL 5
REMARK VINA RESULT:    -3.398      1.449      4.113
REMARK INTER + INTRA:          -4.771
REMARK INTER:                  -5.011
REMARK INTRA:                   0.240
REMARK UNBOUND:                 0.017
REMARK SMILES CC1=CCC(=C(C)C)C(=O)CC(C)=CCC1
REMARK SMILES IDX 12 1 14 2 13 3 15 4 16 5 2 6 1 7 3 8 11 10 9 11 10 12 5 13
REMARK SMILES IDX 6 14 7 15 8 16 4 17
REMARK H PARENT
REMARK Flexibility Score: 60.00
ROOT
ATOM      1  C   UNL     1     -13.802  28.767  16.240  1.00  0.00    -0.070 C 
ATOM      2  C   UNL     1     -13.447  29.802  17.054  1.00  0.00    -0.027 C 
ATOM      3  C   UNL     1     -14.242  29.127  14.840  1.00  0.00     0.039 C 
ENDROOT
BRANCH   2   4
ATOM      4  C   UNL     1     -13.013  29.834  18.516  1.00  0.00     0.032 C 
BRANCH   4   5
ATOM      5  C   UNL     1     -14.057  30.275  19.549  1.00  0.00     0.034 C 
BRANCH   5   6
ATOM      6  C   UNL     1     -15.464  29.663  19.470  1.00  0.00    -0.077 C 
ATOM      7  C   UNL     1     -16.597  30.657  19.336  1.00  0.00     0.039 C 
ATOM      8  C   UNL     1     -15.840  28.355  19.586  1.00  0.00    -0.023 CG0
ATOM      9  G   UNL     1     -15.016  27.099  19.791  1.00  0.00     0.000 G0
ENDBRANCH   5   6
ENDBRANCH   4   5
ENDBRANCH   2   4
BRANCH   1  10
ATOM     10  C   UNL     1     -13.795  27.287  16.591  1.00  0.00     0.111 C 
BRANCH  10  11
ATOM     11  C   UNL     1     -15.066  26.868  17.265  1.00  0.00     0.163 C 
ATOM     12  O   UNL     1     -16.167  27.126  16.707  1.00  0.00    -0.294 OA
BRANCH  11  13
ATOM     13  C   UNL     1     -15.038  26.197  18.590  1.00  0.00    -0.002 C 
ATOM     14  C   UNL     1     -15.055  24.836  18.700  1.00  0.00    -0.069 C 
ATOM     15  C   UNL     1     -15.135  24.152  20.046  1.00  0.00     0.039 C 
ATOM     16  C   UNL     1     -14.976  23.952  17.476  1.00  0.00     0.039 C 
BRANCH  13  17
ATOM     17  C   UNL     1     -15.010  27.110  19.798  1.00  0.00     0.066 CG0
ATOM     18  G   UNL     1     -15.833  28.364  19.582  1.00  0.00     0.000 G0
ENDBRANCH  13  17
ENDBRANCH  11  13
ENDBRANCH  10  11
ENDBRANCH   1  10
TORSDOF 0
ENDMDL
MODEL 6
REMARK VINA RESULT:    -3.395      1.499      3.904
REMARK INTER + INTRA:          -4.767
REMARK INTER:                  -4.855
REMARK INTRA:                   0.088
REMARK UNBOUND:                 0.017
REMARK SMILES CC1=CCC(=C(C)C)C(=O)CC(C)=CCC1
REMARK SMILES IDX 12 1 14 2 13 3 15 4 16 5 2 6 1 7 3 8 11 10 9 11 10 12 5 13
REMARK SMILES IDX 6 14 7 15 8 16 4 17
REMARK H PARENT
REMARK Flexibility Score: 60.00
ROOT
ATOM      1  C   UNL     1     -13.723  28.694  18.577  1.00  0.00    -0.070 C 
ATOM      2  C   UNL     1     -14.152  28.009  19.674  1.00  0.00    -0.027 C 
ATOM      3  C   UNL     1     -13.328  30.137  18.790  1.00  0.00     0.039 C 
ENDROOT
BRANCH   2   4
ATOM      4  C   UNL     1     -14.676  26.586  19.836  1.00  0.00     0.032 C 
BRANCH   4   5
ATOM      5  C   UNL     1     -15.830  26.153  18.924  1.00  0.00     0.034 C 
BRANCH   5   6
ATOM      6  C   UNL     1     -15.540  25.126  17.820  1.00  0.00    -0.077 C 
ATOM      7  C   UNL     1     -14.871  23.850  18.281  1.00  0.00     0.039 C 
ATOM      8  C   UNL     1     -15.725  25.239  16.471  1.00  0.00    -0.023 CG0
ATOM      9  G   UNL     1     -16.296  26.369  15.637  1.00  0.00     0.000 G0
ENDBRANCH   5   6
ENDBRANCH   4   5
ENDBRANCH   2   4
BRANCH   1  10
ATOM     10  C   UNL     1     -13.593  28.157  17.159  1.00  0.00     0.111 C 
BRANCH  10  11
ATOM     11  C   UNL     1     -14.853  28.350  16.372  1.00  0.00     0.163 C 
ATOM     12  O   UNL     1     -15.619  29.307  16.671  1.00  0.00    -0.294 OA
BRANCH  11  13
ATOM     13  C   UNL     1     -15.222  27.409  15.284  1.00  0.00    -0.002 C 
ATOM     14  C   UNL     1     -14.649  27.488  14.048  1.00  0.00    -0.069 C 
ATOM     15  C   UNL     1     -15.098  26.603  12.907  1.00  0.00     0.039 C 
ATOM     16  C   UNL     1     -13.523  28.459  13.769  1.00  0.00     0.039 C 
BRANCH  13  17
ATOM     17  C   UNL     1     -16.277  26.378  15.625  1.00  0.00     0.066 CG0
ATOM     18  G   UNL     1     -15.720  25.256  16.479  1.00  0.00     0.000 G0
ENDBRANCH  13  17
ENDBRANCH  11  13
ENDBRANCH  10  11
ENDBRANCH   1  10
TORSDOF 0
ENDMDL
MODEL 7
REMARK VINA RESULT:    -3.289      2.619      5.431
REMARK INTER + INTRA:          -4.617
REMARK INTER:                  -4.781
REMARK INTRA:                   0.164
REMARK UNBOUND:                 0.017
REMARK SMILES CC1=CCC(=C(C)C)C(=O)CC(C)=CCC1
REMARK SMILES IDX 12 1 14 2 13 3 15 4 16 5 2 6 1 7 3 8 11 10 9 11 10 12 5 13
REMARK SMILES IDX 6 14 7 15 8 16 4 17
REMARK H PARENT
REMARK Flexibility Score: 60.00
ROOT
ATOM      1  C   UNL     1     -14.070  29.107  19.419  1.00  0.00    -0.070 C 
ATOM      2  C   UNL     1     -14.639  30.306  19.734  1.00  0.00    -0.027 C 
ATOM      3  C   UNL     1     -14.158  28.020  20.464  1.00  0.00     0.039 C 
ENDROOT
BRANCH   2   4
ATOM      4  C   UNL     1     -14.700  31.626  18.975  1.00  0.00     0.032 C 
BRANCH   4   5
ATOM      5  C   UNL     1     -15.999  31.947  18.226  1.00  0.00     0.034 C 
BRANCH   5   6
ATOM      6  C   UNL     1     -16.793  30.784  17.614  1.00  0.00    -0.077 C 
ATOM      7  C   UNL     1     -18.075  30.424  18.335  1.00  0.00     0.039 C 
ATOM      8  C   UNL     1     -16.463  29.976  16.563  1.00  0.00    -0.023 CG0
ATOM      9  G   UNL     1     -15.253  29.980  15.649  1.00  0.00     0.000 G0
ENDBRANCH   5   6
ENDBRANCH   4   5
ENDBRANCH   2   4
BRANCH   1  10
ATOM     10  C   UNL     1     -13.360  28.748  18.122  1.00  0.00     0.111 C 
BRANCH  10  11
ATOM     11  C   UNL     1     -14.296  28.133  17.127  1.00  0.00     0.163 C 
ATOM     12  O   UNL     1     -14.946  27.103  17.455  1.00  0.00    -0.294 OA
BRANCH  11  13
ATOM     13  C   UNL     1     -14.432  28.699  15.760  1.00  0.00    -0.002 C 
ATOM     14  C   UNL     1     -13.829  28.115  14.684  1.00  0.00    -0.069 C 
ATOM     15  C   UNL     1     -13.876  28.747  13.311  1.00  0.00     0.039 C 
ATOM     16  C   UNL     1     -13.100  26.797  14.816  1.00  0.00     0.039 C 
BRANCH  13  17
ATOM     17  C   UNL     1     -15.259  29.962  15.643  1.00  0.00     0.066 CG0
ATOM     18  G   UNL     1     -16.451  29.951  16.579  1.00  0.00     0.000 G0
ENDBRANCH  13  17
ENDBRANCH  11  13
ENDBRANCH  10  11
ENDBRANCH   1  10
TORSDOF 0
ENDMDL
MODEL 8
REMARK VINA RESULT:    -3.236      1.949      3.873
REMARK INTER + INTRA:          -4.542
REMARK INTER:                  -4.484
REMARK INTRA:                  -0.058
REMARK UNBOUND:                 0.017
REMARK SMILES CC1=CCC(=C(C)C)C(=O)CC(C)=CCC1
REMARK SMILES IDX 12 1 14 2 13 3 15 4 16 5 2 6 1 7 3 8 11 10 9 11 10 12 5 13
REMARK SMILES IDX 6 14 7 15 8 16 4 17
REMARK H PARENT
REMARK Flexibility Score: 60.00
ROOT
ATOM      1  C   UNL     1     -15.807  25.185  17.128  1.00  0.00    -0.070 C 
ATOM      2  C   UNL     1     -15.022  24.752  16.100  1.00  0.00    -0.027 C 
ATOM      3  C   UNL     1     -16.268  24.138  18.115  1.00  0.00     0.039 C 
ENDROOT
BRANCH   2   4
ATOM      4  C   UNL     1     -14.425  25.488  14.906  1.00  0.00     0.032 C 
BRANCH   4   5
ATOM      5  C   UNL     1     -13.392  26.583  15.199  1.00  0.00     0.034 C 
BRANCH   5   6
ATOM      6  C   UNL     1     -13.804  28.048  14.990  1.00  0.00    -0.077 C 
ATOM      7  C   UNL     1     -14.018  28.462  13.550  1.00  0.00     0.039 C 
ATOM      8  C   UNL     1     -13.923  29.048  15.913  1.00  0.00    -0.023 CG0
ATOM      9  G   UNL     1     -13.729  29.040  17.417  1.00  0.00     0.000 G0
ENDBRANCH   5   6
ENDBRANCH   4   5
ENDBRANCH   2   4
BRANCH   1  10
ATOM     10  C   UNL     1     -16.262  26.613  17.390  1.00  0.00     0.111 C 
BRANCH  10  11
ATOM     11  C   UNL     1     -15.363  27.315  18.360  1.00  0.00     0.163 C 
ATOM     12  O   UNL     1     -14.928  26.680  19.359  1.00  0.00    -0.294 OA
BRANCH  11  13
ATOM     13  C   UNL     1     -15.019  28.748  18.177  1.00  0.00    -0.002 C 
ATOM     14  C   UNL     1     -15.825  29.742  18.652  1.00  0.00    -0.069 C 
ATOM     15  C   UNL     1     -15.533  31.200  18.374  1.00  0.00     0.039 C 
ATOM     16  C   UNL     1     -17.041  29.427  19.493  1.00  0.00     0.039 C 
BRANCH  13  17
ATOM     17  C   UNL     1     -13.737  29.033  17.422  1.00  0.00     0.066 CG0
ATOM     18  G   UNL     1     -13.952  29.047  15.922  1.00  0.00     0.000 G0
ENDBRANCH  13  17
ENDBRANCH  11  13
ENDBRANCH  10  11
ENDBRANCH   1  10
TORSDOF 0
ENDMDL
MODEL 9
REMARK VINA RESULT:    -3.235      1.949      4.668
REMARK INTER + INTRA:          -4.541
REMARK INTER:                  -4.662
REMARK INTRA:                   0.121
REMARK UNBOUND:                 0.017
REMARK SMILES CC1=CCC(=C(C)C)C(=O)CC(C)=CCC1
REMARK SMILES IDX 12 1 14 2 13 3 15 4 16 5 2 6 1 7 3 8 11 10 9 11 10 12 5 13
REMARK SMILES IDX 6 14 7 15 8 16 4 17
REMARK H PARENT
REMARK Flexibility Score: 60.00
ROOT
ATOM      1  C   UNL     1     -15.767  25.592  18.834  1.00  0.00    -0.070 C 
ATOM      2  C   UNL     1     -14.992  26.010  19.875  1.00  0.00    -0.027 C 
ATOM      3  C   UNL     1     -16.435  24.245  18.985  1.00  0.00     0.039 C 
ENDROOT
BRANCH   2   4
ATOM      4  C   UNL     1     -14.135  27.257  20.060  1.00  0.00     0.032 C 
BRANCH   4   5
ATOM      5  C   UNL     1     -14.859  28.561  20.419  1.00  0.00     0.034 C 
BRANCH   5   6
ATOM      6  C   UNL     1     -15.298  29.488  19.276  1.00  0.00    -0.077 C 
ATOM      7  C   UNL     1     -16.455  30.409  19.597  1.00  0.00     0.039 C 
ATOM      8  C   UNL     1     -14.846  29.538  17.987  1.00  0.00    -0.023 CG0
ATOM      9  G   UNL     1     -13.765  28.743  17.282  1.00  0.00     0.000 G0
ENDBRANCH   5   6
ENDBRANCH   4   5
ENDBRANCH   2   4
BRANCH   1  10
ATOM     10  C   UNL     1     -16.037  26.343  17.539  1.00  0.00     0.111 C 
BRANCH  10  11
ATOM     11  C   UNL     1     -14.799  26.479  16.706  1.00  0.00     0.163 C 
ATOM     12  O   UNL     1     -14.118  25.448  16.451  1.00  0.00    -0.294 OA
BRANCH  11  13
ATOM     13  C   UNL     1     -14.352  27.809  16.219  1.00  0.00    -0.002 C 
ATOM     14  C   UNL     1     -14.447  28.156  14.902  1.00  0.00    -0.069 C 
ATOM     15  C   UNL     1     -13.895  29.466  14.386  1.00  0.00     0.039 C 
ATOM     16  C   UNL     1     -15.126  27.248  13.902  1.00  0.00     0.039 C 
BRANCH  13  17
ATOM     17  C   UNL     1     -13.774  28.740  17.265  1.00  0.00     0.066 CG0
ATOM     18  G   UNL     1     -14.851  29.525  17.986  1.00  0.00     0.000 G0
ENDBRANCH  13  17
ENDBRANCH  11  13
ENDBRANCH  10  11
ENDBRANCH   1  10
TORSDOF 0
ENDMDL
