MODEL 1
REMARK VINA RESULT:    -4.535      0.000      0.000
REMARK INTER + INTRA:          -9.848
REMARK INTER:                  -7.716
REMARK INTRA:                  -2.132
REMARK UNBOUND:                -2.132
REMARK SMILES CCCCCCCCCCCCCC(=O)[O-]
REMARK SMILES IDX 8 1 9 2 10 3 11 4 12 5 13 6 14 7 15 8 16 9 7 10 6 11 5 12
REMARK SMILES IDX 4 13 3 14 2 15 1 16
REMARK H PARENT
REMARK Flexibility Score: inf
ROOT
ATOM      1  C   UNL     1      20.237  19.929  49.204  1.00  0.00     0.000 C 
ENDROOT
BRANCH   1   2
ATOM      2  C   UNL     1      19.940  20.582  47.841  1.00  0.00     0.000 C 
BRANCH   2   3
ATOM      3  C   UNL     1      18.449  20.834  47.551  1.00  0.00     0.000 C 
BRANCH   3   4
ATOM      4  C   UNL     1      18.131  20.894  46.050  1.00  0.00     0.000 C 
BRANCH   4   5
ATOM      5  C   UNL     1      19.352  20.494  45.213  1.00  0.00     0.006 C 
BRANCH   5   6
ATOM      6  C   UNL     1      18.926  19.898  43.869  1.00  0.00     0.053 C 
BRANCH   6   7
ATOM      7  C   UNL     1      18.105  20.881  43.096  1.00  0.00     0.041 C 
ATOM      8  O   UNL     1      16.961  20.560  42.678  1.00  0.00    -0.550 OA
ATOM      9  O   UNL     1      18.622  22.134  42.794  1.00  0.00    -0.550 OA
ENDBRANCH   6   7
ENDBRANCH   5   6
ENDBRANCH   4   5
ENDBRANCH   3   4
ENDBRANCH   2   3
ENDBRANCH   1   2
BRANCH   1  10
ATOM     10  C   UNL     1      20.799  18.504  49.078  1.00  0.00     0.000 C 
BRANCH  10  11
ATOM     11  C   UNL     1      21.128  18.172  47.614  1.00  0.00    -0.000 C 
BRANCH  11  12
ATOM     12  C   UNL     1      20.377  16.931  47.105  1.00  0.00    -0.000 C 
BRANCH  12  13
ATOM     13  C   UNL     1      18.872  16.983  47.410  1.00  0.00    -0.000 C 
BRANCH  13  14
ATOM     14  C   UNL     1      18.056  17.132  46.117  1.00  0.00    -0.000 C 
BRANCH  14  15
ATOM     15  C   UNL     1      16.588  17.498  46.384  1.00  0.00    -0.003 C 
ATOM     16  C   UNL     1      15.892  18.090  45.159  1.00  0.00     0.004 C 
ENDBRANCH  14  15
ENDBRANCH  13  14
ENDBRANCH  12  13
ENDBRANCH  11  12
ENDBRANCH  10  11
ENDBRANCH   1  10
TORSDOF 12
ENDMDL
MODEL 2
REMARK VINA RESULT:    -4.391      2.010      4.178
REMARK INTER + INTRA:          -9.603
REMARK INTER:                  -7.681
REMARK INTRA:                  -1.923
REMARK UNBOUND:                -2.132
REMARK SMILES CCCCCCCCCCCCCC(=O)[O-]
REMARK SMILES IDX 8 1 9 2 10 3 11 4 12 5 13 6 14 7 15 8 16 9 7 10 6 11 5 12
REMARK SMILES IDX 4 13 3 14 2 15 1 16
REMARK H PARENT
REMARK Flexibility Score: inf
ROOT
ATOM      1  C   UNL     1      20.954  17.494  48.907  1.00  0.00     0.000 C 
ENDROOT
BRANCH   1   2
ATOM      2  C   UNL     1      20.804  17.353  47.381  1.00  0.00     0.000 C 
BRANCH   2   3
ATOM      3  C   UNL     1      20.056  16.090  46.914  1.00  0.00     0.000 C 
BRANCH   3   4
ATOM      4  C   UNL     1      18.714  16.403  46.236  1.00  0.00     0.000 C 
BRANCH   4   5
ATOM      5  C   UNL     1      17.779  17.157  47.190  1.00  0.00     0.006 C 
BRANCH   5   6
ATOM      6  C   UNL     1      16.679  17.889  46.417  1.00  0.00     0.053 C 
BRANCH   6   7
ATOM      7  C   UNL     1      15.846  16.917  45.643  1.00  0.00     0.041 C 
ATOM      8  O   UNL     1      15.322  15.930  46.224  1.00  0.00    -0.550 OA
ATOM      9  O   UNL     1      15.689  17.072  44.272  1.00  0.00    -0.550 OA
ENDBRANCH   6   7
ENDBRANCH   5   6
ENDBRANCH   4   5
ENDBRANCH   3   4
ENDBRANCH   2   3
ENDBRANCH   1   2
BRANCH   1  10
ATOM     10  C   UNL     1      20.642  18.911  49.413  1.00  0.00     0.000 C 
BRANCH  10  11
ATOM     11  C   UNL     1      20.408  19.874  48.239  1.00  0.00    -0.000 C 
BRANCH  11  12
ATOM     12  C   UNL     1      19.058  20.602  48.331  1.00  0.00    -0.000 C 
BRANCH  12  13
ATOM     13  C   UNL     1      18.501  20.993  46.953  1.00  0.00    -0.000 C 
BRANCH  13  14
ATOM     14  C   UNL     1      19.451  20.547  45.831  1.00  0.00    -0.000 C 
BRANCH  14  15
ATOM     15  C   UNL     1      18.858  20.769  44.431  1.00  0.00    -0.003 C 
ATOM     16  C   UNL     1      18.564  19.461  43.698  1.00  0.00     0.004 C 
ENDBRANCH  14  15
ENDBRANCH  13  14
ENDBRANCH  12  13
ENDBRANCH  11  12
ENDBRANCH  10  11
ENDBRANCH   1  10
TORSDOF 12
ENDMDL
MODEL 3
REMARK VINA RESULT:    -4.363      1.261      3.460
REMARK INTER + INTRA:          -9.557
REMARK INTER:                  -7.975
REMARK INTRA:                  -1.582
REMARK UNBOUND:                -2.132
REMARK SMILES CCCCCCCCCCCCCC(=O)[O-]
REMARK SMILES IDX 8 1 9 2 10 3 11 4 12 5 13 6 14 7 15 8 16 9 7 10 6 11 5 12
REMARK SMILES IDX 4 13 3 14 2 15 1 16
REMARK H PARENT
REMARK Flexibility Score: inf
ROOT
ATOM      1  C   UNL     1      18.121  16.985  47.374  1.00  0.00     0.000 C 
ENDROOT
BRANCH   1   2
ATOM      2  C   UNL     1      17.096  17.840  46.607  1.00  0.00     0.000 C 
BRANCH   2   3
ATOM      3  C   UNL     1      17.139  17.689  45.074  1.00  0.00     0.000 C 
BRANCH   3   4
ATOM      4  C   UNL     1      16.717  18.966  44.333  1.00  0.00     0.000 C 
BRANCH   4   5
ATOM      5  C   UNL     1      17.834  19.457  43.405  1.00  0.00     0.006 C 
BRANCH   5   6
ATOM      6  C   UNL     1      18.758  20.440  44.130  1.00  0.00     0.053 C 
BRANCH   6   7
ATOM      7  C   UNL     1      18.040  21.720  44.418  1.00  0.00     0.041 C 
ATOM      8  O   UNL     1      17.865  22.093  45.609  1.00  0.00    -0.550 OA
ATOM      9  O   UNL     1      17.518  22.475  43.376  1.00  0.00    -0.550 OA
ENDBRANCH   6   7
ENDBRANCH   5   6
ENDBRANCH   4   5
ENDBRANCH   3   4
ENDBRANCH   2   3
ENDBRANCH   1   2
BRANCH   1  10
ATOM     10  C   UNL     1      19.387  16.686  46.557  1.00  0.00     0.000 C 
BRANCH  10  11
ATOM     11  C   UNL     1      20.625  16.627  47.464  1.00  0.00    -0.000 C 
BRANCH  11  12
ATOM     12  C   UNL     1      21.073  18.016  47.946  1.00  0.00    -0.000 C 
BRANCH  12  13
ATOM     13  C   UNL     1      21.013  19.076  46.835  1.00  0.00    -0.000 C 
BRANCH  13  14
ATOM     14  C   UNL     1      20.289  20.340  47.321  1.00  0.00    -0.000 C 
BRANCH  14  15
ATOM     15  C   UNL     1      19.486  20.103  48.609  1.00  0.00    -0.003 C 
ATOM     16  C   UNL     1      19.893  21.042  49.743  1.00  0.00     0.004 C 
ENDBRANCH  14  15
ENDBRANCH  13  14
ENDBRANCH  12  13
ENDBRANCH  11  12
ENDBRANCH  10  11
ENDBRANCH   1  10
TORSDOF 12
ENDMDL
MODEL 4
REMARK VINA RESULT:    -4.337      4.144      6.373
REMARK INTER + INTRA:          -9.513
REMARK INTER:                  -7.747
REMARK INTRA:                  -1.765
REMARK UNBOUND:                -2.132
REMARK SMILES CCCCCCCCCCCCCC(=O)[O-]
REMARK SMILES IDX 8 1 9 2 10 3 11 4 12 5 13 6 14 7 15 8 16 9 7 10 6 11 5 12
REMARK SMILES IDX 4 13 3 14 2 15 1 16
REMARK H PARENT
REMARK Flexibility Score: inf
ROOT
ATOM      1  C   UNL     1      17.648  17.143  47.254  1.00  0.00     0.000 C 
ENDROOT
BRANCH   1   2
ATOM      2  C   UNL     1      18.502  16.160  46.432  1.00  0.00     0.000 C 
BRANCH   2   3
ATOM      3  C   UNL     1      19.988  16.095  46.833  1.00  0.00     0.000 C 
BRANCH   3   4
ATOM      4  C   UNL     1      20.336  17.028  48.001  1.00  0.00     0.000 C 
BRANCH   4   5
ATOM      5  C   UNL     1      21.853  17.224  48.115  1.00  0.00     0.006 C 
BRANCH   5   6
ATOM      6  C   UNL     1      22.576  15.878  48.200  1.00  0.00     0.053 C 
BRANCH   6   7
ATOM      7  C   UNL     1      23.002  15.600  49.607  1.00  0.00     0.041 C 
ATOM      8  O   UNL     1      24.227  15.521  49.894  1.00  0.00    -0.550 OA
ATOM      9  O   UNL     1      22.049  15.377  50.592  1.00  0.00    -0.550 OA
ENDBRANCH   6   7
ENDBRANCH   5   6
ENDBRANCH   4   5
ENDBRANCH   3   4
ENDBRANCH   2   3
ENDBRANCH   1   2
BRANCH   1  10
ATOM     10  C   UNL     1      16.835  18.109  46.379  1.00  0.00     0.000 C 
BRANCH  10  11
ATOM     11  C   UNL     1      17.342  18.095  44.929  1.00  0.00    -0.000 C 
BRANCH  11  12
ATOM     12  C   UNL     1      17.972  19.433  44.509  1.00  0.00    -0.000 C 
BRANCH  12  13
ATOM     13  C   UNL     1      19.388  19.624  45.075  1.00  0.00    -0.000 C 
BRANCH  13  14
ATOM     14  C   UNL     1      19.463  20.882  45.954  1.00  0.00    -0.000 C 
BRANCH  14  15
ATOM     15  C   UNL     1      20.167  20.624  47.294  1.00  0.00    -0.003 C 
ATOM     16  C   UNL     1      19.187  20.409  48.447  1.00  0.00     0.004 C 
ENDBRANCH  14  15
ENDBRANCH  13  14
ENDBRANCH  12  13
ENDBRANCH  11  12
ENDBRANCH  10  11
ENDBRANCH   1  10
TORSDOF 12
ENDMDL
MODEL 5
REMARK VINA RESULT:    -4.257      1.284      3.538
REMARK INTER + INTRA:          -9.376
REMARK INTER:                  -7.391
REMARK INTRA:                  -1.985
REMARK UNBOUND:                -2.132
REMARK SMILES CCCCCCCCCCCCCC(=O)[O-]
REMARK SMILES IDX 8 1 9 2 10 3 11 4 12 5 13 6 14 7 15 8 16 9 7 10 6 11 5 12
REMARK SMILES IDX 4 13 3 14 2 15 1 16
REMARK H PARENT
REMARK Flexibility Score: inf
ROOT
ATOM      1  C   UNL     1      20.368  16.343  47.232  1.00  0.00     0.000 C 
ENDROOT
BRANCH   1   2
ATOM      2  C   UNL     1      19.105  16.730  46.440  1.00  0.00     0.000 C 
BRANCH   2   3
ATOM      3  C   UNL     1      17.841  16.946  47.293  1.00  0.00     0.000 C 
BRANCH   3   4
ATOM      4  C   UNL     1      16.809  17.860  46.617  1.00  0.00     0.000 C 
BRANCH   4   5
ATOM      5  C   UNL     1      16.262  17.219  45.337  1.00  0.00     0.006 C 
BRANCH   5   6
ATOM      6  C   UNL     1      16.566  18.088  44.113  1.00  0.00     0.053 C 
BRANCH   6   7
ATOM      7  C   UNL     1      15.607  19.233  44.033  1.00  0.00     0.041 C 
ATOM      8  O   UNL     1      14.377  19.045  44.229  1.00  0.00    -0.550 OA
ATOM      9  O   UNL     1      16.064  20.500  43.692  1.00  0.00    -0.550 OA
ENDBRANCH   6   7
ENDBRANCH   5   6
ENDBRANCH   4   5
ENDBRANCH   3   4
ENDBRANCH   2   3
ENDBRANCH   1   2
BRANCH   1  10
ATOM     10  C   UNL     1      21.224  17.556  47.627  1.00  0.00     0.000 C 
BRANCH  10  11
ATOM     11  C   UNL     1      20.954  17.968  49.082  1.00  0.00    -0.000 C 
BRANCH  11  12
ATOM     12  C   UNL     1      20.361  19.381  49.198  1.00  0.00    -0.000 C 
BRANCH  12  13
ATOM     13  C   UNL     1      20.308  20.113  47.847  1.00  0.00    -0.000 C 
BRANCH  13  14
ATOM     14  C   UNL     1      18.910  20.699  47.595  1.00  0.00    -0.000 C 
BRANCH  14  15
ATOM     15  C   UNL     1      18.706  21.133  46.136  1.00  0.00    -0.003 C 
ATOM     16  C   UNL     1      19.474  20.260  45.145  1.00  0.00     0.004 C 
ENDBRANCH  14  15
ENDBRANCH  13  14
ENDBRANCH  12  13
ENDBRANCH  11  12
ENDBRANCH  10  11
ENDBRANCH   1  10
TORSDOF 12
ENDMDL
MODEL 6
REMARK VINA RESULT:    -4.233      1.299      2.557
REMARK INTER + INTRA:          -9.334
REMARK INTER:                  -7.303
REMARK INTRA:                  -2.031
REMARK UNBOUND:                -2.132
REMARK SMILES CCCCCCCCCCCCCC(=O)[O-]
REMARK SMILES IDX 8 1 9 2 10 3 11 4 12 5 13 6 14 7 15 8 16 9 7 10 6 11 5 12
REMARK SMILES IDX 4 13 3 14 2 15 1 16
REMARK H PARENT
REMARK Flexibility Score: inf
ROOT
ATOM      1  C   UNL     1      18.374  20.364  47.442  1.00  0.00     0.000 C 
ENDROOT
BRANCH   1   2
ATOM      2  C   UNL     1      18.396  21.439  46.339  1.00  0.00     0.000 C 
BRANCH   2   3
ATOM      3  C   UNL     1      19.161  21.046  45.062  1.00  0.00     0.000 C 
BRANCH   3   4
ATOM      4  C   UNL     1      19.038  19.553  44.724  1.00  0.00     0.000 C 
BRANCH   4   5
ATOM      5  C   UNL     1      18.041  19.329  43.580  1.00  0.00     0.006 C 
BRANCH   5   6
ATOM      6  C   UNL     1      16.650  18.988  44.122  1.00  0.00     0.053 C 
BRANCH   6   7
ATOM      7  C   UNL     1      15.670  20.060  43.763  1.00  0.00     0.041 C 
ATOM      8  O   UNL     1      16.078  21.207  43.437  1.00  0.00    -0.550 OA
ATOM      9  O   UNL     1      14.306  19.809  43.836  1.00  0.00    -0.550 OA
ENDBRANCH   6   7
ENDBRANCH   5   6
ENDBRANCH   4   5
ENDBRANCH   3   4
ENDBRANCH   2   3
ENDBRANCH   1   2
BRANCH   1  10
ATOM     10  C   UNL     1      19.421  20.607  48.539  1.00  0.00     0.000 C 
BRANCH  10  11
ATOM     11  C   UNL     1      20.224  19.329  48.825  1.00  0.00    -0.000 C 
BRANCH  11  12
ATOM     12  C   UNL     1      21.079  18.886  47.628  1.00  0.00    -0.000 C 
BRANCH  12  13
ATOM     13  C   UNL     1      20.850  17.415  47.248  1.00  0.00    -0.000 C 
BRANCH  13  14
ATOM     14  C   UNL     1      19.529  16.896  47.836  1.00  0.00    -0.000 C 
BRANCH  14  15
ATOM     15  C   UNL     1      18.493  16.556  46.754  1.00  0.00    -0.003 C 
ATOM     16  C   UNL     1      17.065  16.910  47.167  1.00  0.00     0.004 C 
ENDBRANCH  14  15
ENDBRANCH  13  14
ENDBRANCH  12  13
ENDBRANCH  11  12
ENDBRANCH  10  11
ENDBRANCH   1  10
TORSDOF 12
ENDMDL
MODEL 7
REMARK VINA RESULT:    -4.228      4.269      5.876
REMARK INTER + INTRA:          -9.326
REMARK INTER:                  -7.686
REMARK INTRA:                  -1.640
REMARK UNBOUND:                -2.132
REMARK SMILES CCCCCCCCCCCCCC(=O)[O-]
REMARK SMILES IDX 8 1 9 2 10 3 11 4 12 5 13 6 14 7 15 8 16 9 7 10 6 11 5 12
REMARK SMILES IDX 4 13 3 14 2 15 1 16
REMARK H PARENT
REMARK Flexibility Score: inf
ROOT
ATOM      1  C   UNL     1      20.380  20.176  46.900  1.00  0.00     0.000 C 
ENDROOT
BRANCH   1   2
ATOM      2  C   UNL     1      20.137  19.781  48.369  1.00  0.00     0.000 C 
BRANCH   2   3
ATOM      3  C   UNL     1      20.741  18.427  48.787  1.00  0.00     0.000 C 
BRANCH   3   4
ATOM      4  C   UNL     1      21.415  17.685  47.623  1.00  0.00     0.000 C 
BRANCH   4   5
ATOM      5  C   UNL     1      21.644  16.209  47.971  1.00  0.00     0.006 C 
BRANCH   5   6
ATOM      6  C   UNL     1      23.068  15.981  48.486  1.00  0.00     0.053 C 
BRANCH   6   7
ATOM      7  C   UNL     1      23.047  15.605  49.934  1.00  0.00     0.041 C 
ATOM      8  O   UNL     1      24.097  15.691  50.625  1.00  0.00    -0.550 OA
ATOM      9  O   UNL     1      21.883  15.112  50.509  1.00  0.00    -0.550 OA
ENDBRANCH   6   7
ENDBRANCH   5   6
ENDBRANCH   4   5
ENDBRANCH   3   4
ENDBRANCH   2   3
ENDBRANCH   1   2
BRANCH   1  10
ATOM     10  C   UNL     1      19.139  20.786  46.230  1.00  0.00     0.000 C 
BRANCH  10  11
ATOM     11  C   UNL     1      18.720  19.965  45.001  1.00  0.00    -0.000 C 
BRANCH  11  12
ATOM     12  C   UNL     1      18.459  18.488  45.335  1.00  0.00    -0.000 C 
BRANCH  12  13
ATOM     13  C   UNL     1      17.357  18.305  46.390  1.00  0.00    -0.000 C 
BRANCH  13  14
ATOM     14  C   UNL     1      17.535  16.980  47.147  1.00  0.00    -0.000 C 
BRANCH  14  15
ATOM     15  C   UNL     1      18.375  15.961  46.362  1.00  0.00    -0.003 C 
ATOM     16  C   UNL     1      17.618  14.665  46.074  1.00  0.00     0.004 C 
ENDBRANCH  14  15
ENDBRANCH  13  14
ENDBRANCH  12  13
ENDBRANCH  11  12
ENDBRANCH  10  11
ENDBRANCH   1  10
TORSDOF 12
ENDMDL
MODEL 8
REMARK VINA RESULT:    -4.166      1.593      3.824
REMARK INTER + INTRA:          -9.222
REMARK INTER:                  -7.500
REMARK INTRA:                  -1.722
REMARK UNBOUND:                -2.132
REMARK SMILES CCCCCCCCCCCCCC(=O)[O-]
REMARK SMILES IDX 8 1 9 2 10 3 11 4 12 5 13 6 14 7 15 8 16 9 7 10 6 11 5 12
REMARK SMILES IDX 4 13 3 14 2 15 1 16
REMARK H PARENT
REMARK Flexibility Score: inf
ROOT
ATOM      1  C   UNL     1      21.154  17.927  47.666  1.00  0.00     0.000 C 
ENDROOT
BRANCH   1   2
ATOM      2  C   UNL     1      20.522  16.545  47.413  1.00  0.00     0.000 C 
BRANCH   2   3
ATOM      3  C   UNL     1      19.268  16.556  46.519  1.00  0.00     0.000 C 
BRANCH   3   4
ATOM      4  C   UNL     1      17.970  16.779  47.309  1.00  0.00     0.000 C 
BRANCH   4   5
ATOM      5  C   UNL     1      16.743  16.625  46.403  1.00  0.00     0.006 C 
BRANCH   5   6
ATOM      6  C   UNL     1      16.364  17.960  45.757  1.00  0.00     0.053 C 
BRANCH   6   7
ATOM      7  C   UNL     1      16.365  17.841  44.266  1.00  0.00     0.041 C 
ATOM      8  O   UNL     1      17.253  17.161  43.686  1.00  0.00    -0.550 OA
ATOM      9  O   UNL     1      15.416  18.519  43.513  1.00  0.00    -0.550 OA
ENDBRANCH   6   7
ENDBRANCH   5   6
ENDBRANCH   4   5
ENDBRANCH   3   4
ENDBRANCH   2   3
ENDBRANCH   1   2
BRANCH   1  10
ATOM     10  C   UNL     1      20.571  18.637  48.898  1.00  0.00     0.000 C 
BRANCH  10  11
ATOM     11  C   UNL     1      20.150  20.074  48.555  1.00  0.00    -0.000 C 
BRANCH  11  12
ATOM     12  C   UNL     1      18.966  20.127  47.576  1.00  0.00    -0.000 C 
BRANCH  12  13
ATOM     13  C   UNL     1      19.283  20.930  46.305  1.00  0.00    -0.000 C 
BRANCH  13  14
ATOM     14  C   UNL     1      19.602  19.994  45.130  1.00  0.00    -0.000 C 
BRANCH  14  15
ATOM     15  C   UNL     1      18.900  20.416  43.831  1.00  0.00    -0.003 C 
ATOM     16  C   UNL     1      17.890  21.544  44.042  1.00  0.00     0.004 C 
ENDBRANCH  14  15
ENDBRANCH  13  14
ENDBRANCH  12  13
ENDBRANCH  11  12
ENDBRANCH  10  11
ENDBRANCH   1  10
TORSDOF 12
ENDMDL
MODEL 9
REMARK VINA RESULT:    -4.157      2.312      3.601
REMARK INTER + INTRA:          -9.205
REMARK INTER:                  -7.574
REMARK INTRA:                  -1.631
REMARK UNBOUND:                -2.132
REMARK SMILES CCCCCCCCCCCCCC(=O)[O-]
REMARK SMILES IDX 8 1 9 2 10 3 11 4 12 5 13 6 14 7 15 8 16 9 7 10 6 11 5 12
REMARK SMILES IDX 4 13 3 14 2 15 1 16
REMARK H PARENT
REMARK Flexibility Score: inf
ROOT
ATOM      1  C   UNL     1      19.187  20.742  45.931  1.00  0.00     0.000 C 
ENDROOT
BRANCH   1   2
ATOM      2  C   UNL     1      19.220  19.868  44.662  1.00  0.00     0.000 C 
BRANCH   2   3
ATOM      3  C   UNL     1      18.560  20.498  43.421  1.00  0.00     0.000 C 
BRANCH   3   4
ATOM      4  C   UNL     1      17.218  19.845  43.059  1.00  0.00     0.000 C 
BRANCH   4   5
ATOM      5  C   UNL     1      17.040  18.511  43.792  1.00  0.00     0.006 C 
BRANCH   5   6
ATOM      6  C   UNL     1      17.253  17.329  42.843  1.00  0.00     0.053 C 
BRANCH   6   7
ATOM      7  C   UNL     1      16.195  16.292  43.049  1.00  0.00     0.041 C 
ATOM      8  O   UNL     1      15.116  16.595  43.626  1.00  0.00    -0.550 OA
ATOM      9  O   UNL     1      16.417  14.981  42.650  1.00  0.00    -0.550 OA
ENDBRANCH   6   7
ENDBRANCH   5   6
ENDBRANCH   4   5
ENDBRANCH   3   4
ENDBRANCH   2   3
ENDBRANCH   1   2
BRANCH   1  10
ATOM     10  C   UNL     1      19.849  20.067  47.142  1.00  0.00     0.000 C 
BRANCH  10  11
ATOM     11  C   UNL     1      21.072  19.244  46.711  1.00  0.00    -0.000 C 
BRANCH  11  12
ATOM     12  C   UNL     1      21.434  18.146  47.724  1.00  0.00    -0.000 C 
BRANCH  12  13
ATOM     13  C   UNL     1      20.248  17.224  48.047  1.00  0.00    -0.000 C 
BRANCH  13  14
ATOM     14  C   UNL     1      20.006  16.221  46.909  1.00  0.00    -0.000 C 
BRANCH  14  15
ATOM     15  C   UNL     1      18.595  16.334  46.313  1.00  0.00    -0.003 C 
ATOM     16  C   UNL     1      17.626  17.089  47.220  1.00  0.00     0.004 C 
ENDBRANCH  14  15
ENDBRANCH  13  14
ENDBRANCH  12  13
ENDBRANCH  11  12
ENDBRANCH  10  11
ENDBRANCH   1  10
TORSDOF 12
ENDMDL
