MODEL 1
REMARK VINA RESULT:    -5.496      0.000      0.000
REMARK INTER + INTRA:          -6.906
REMARK INTER:                  -6.620
REMARK INTRA:                  -0.286
REMARK UNBOUND:                -0.286
REMARK SMILES O=c1c(O)c(-c2ccc(O)cc2O)oc2cc(O)cc(O)c12
REMARK SMILES IDX 5 1 3 2 2 3 1 4 22 5 20 6 19 7 17 8 16 9 15 10 14 11 6 12
REMARK SMILES IDX 8 13 7 14 9 15 11 16 12 17 10 18 13 20 4 22 21 24 18 26
REMARK H PARENT 10 19 13 21 4 23 21 25 18 27
REMARK Flexibility Score: inf
ROOT
ATOM      1  C   UNL     1       9.797  -1.093  17.006  1.00  0.00     0.184 A 
ATOM      2  C   UNL     1      11.129  -1.078  17.447  1.00  0.00     0.208 A 
ATOM      3  C   UNL     1      11.537  -0.081  18.348  1.00  0.00     0.238 A 
ATOM      4  O   UNL     1      12.716  -0.109  18.786  1.00  0.00    -0.285 OA
ATOM      5  C   UNL     1      10.613   0.904  18.773  1.00  0.00     0.111 A 
ATOM      6  C   UNL     1      10.926   1.984  19.652  1.00  0.00     0.134 A 
ATOM      7  C   UNL     1       9.902   2.828  20.101  1.00  0.00     0.093 A 
ATOM      8  C   UNL     1       8.591   2.672  19.653  1.00  0.00     0.123 A 
ATOM      9  C   UNL     1       8.284   1.656  18.747  1.00  0.00     0.094 A 
ATOM     10  C   UNL     1       9.276   0.775  18.310  1.00  0.00     0.146 A 
ATOM     11  O   UNL     1       8.939  -0.187  17.459  1.00  0.00    -0.451 OA
ENDROOT
BRANCH   1  12
ATOM     12  C   UNL     1       9.317  -2.103  16.039  1.00  0.00     0.063 A 
ATOM     13  C   UNL     1       7.975  -4.083  15.587  1.00  0.00     0.047 A 
ATOM     14  C   UNL     1       8.403  -3.083  16.463  1.00  0.00     0.020 A 
ATOM     15  C   UNL     1       8.460  -4.124  14.279  1.00  0.00     0.119 A 
ATOM     16  C   UNL     1       9.373  -3.154  13.845  1.00  0.00     0.093 A 
ATOM     17  C   UNL     1       9.800  -2.141  14.710  1.00  0.00     0.130 A 
BRANCH  15  18
ATOM     18  O   UNL     1       8.028  -5.131  13.417  1.00  0.00    -0.508 OA
ATOM     19  H   UNL     1       7.558  -5.959  13.763  1.00  0.00     0.293 HD
ENDBRANCH  15  18
BRANCH  17  20
ATOM     20  O   UNL     1      10.683  -1.179  14.214  1.00  0.00    -0.507 OA
ATOM     21  H   UNL     1      11.206  -0.550  14.810  1.00  0.00     0.293 HD
ENDBRANCH  17  20
ENDBRANCH   1  12
BRANCH   2  22
ATOM     22  O   UNL     1      12.021  -2.061  17.008  1.00  0.00    -0.502 OA
ATOM     23  H   UNL     1      12.816  -2.358  17.561  1.00  0.00     0.293 HD
ENDBRANCH   2  22
BRANCH   6  24
ATOM     24  O   UNL     1      12.218   2.285  20.090  1.00  0.00    -0.507 OA
ATOM     25  H   UNL     1      12.715   3.138  19.878  1.00  0.00     0.293 HD
ENDBRANCH   6  24
BRANCH   8  26
ATOM     26  O   UNL     1       7.602   3.540  20.108  1.00  0.00    -0.508 OA
ATOM     27  H   UNL     1       7.275   4.315  19.542  1.00  0.00     0.293 HD
ENDBRANCH   8  26
TORSDOF 6
ENDMDL
MODEL 2
REMARK VINA RESULT:    -4.766      3.285      6.241
REMARK INTER + INTRA:          -6.027
REMARK INTER:                  -6.119
REMARK INTRA:                   0.092
REMARK UNBOUND:                -0.286
REMARK SMILES O=c1c(O)c(-c2ccc(O)cc2O)oc2cc(O)cc(O)c12
REMARK SMILES IDX 5 1 3 2 2 3 1 4 22 5 20 6 19 7 17 8 16 9 15 10 14 11 6 12
REMARK SMILES IDX 8 13 7 14 9 15 11 16 12 17 10 18 13 20 4 22 21 24 18 26
REMARK H PARENT 10 19 13 21 4 23 21 25 18 27
REMARK Flexibility Score: inf
ROOT
ATOM      1  C   UNL     1      10.805  -1.698  19.030  1.00  0.00     0.184 A 
ATOM      2  C   UNL     1      10.157  -0.658  18.347  1.00  0.00     0.208 A 
ATOM      3  C   UNL     1       8.778  -0.759  18.104  1.00  0.00     0.238 A 
ATOM      4  O   UNL     1       8.191   0.204  17.544  1.00  0.00    -0.285 OA
ATOM      5  C   UNL     1       8.072  -1.913  18.522  1.00  0.00     0.111 A 
ATOM      6  C   UNL     1       6.682  -2.141  18.294  1.00  0.00     0.134 A 
ATOM      7  C   UNL     1       6.063  -3.263  18.860  1.00  0.00     0.093 A 
ATOM      8  C   UNL     1       6.796  -4.198  19.590  1.00  0.00     0.123 A 
ATOM      9  C   UNL     1       8.168  -4.016  19.770  1.00  0.00     0.094 A 
ATOM     10  C   UNL     1       8.806  -2.888  19.249  1.00  0.00     0.146 A 
ATOM     11  O   UNL     1      10.110  -2.746  19.456  1.00  0.00    -0.451 OA
ENDROOT
BRANCH   1  12
ATOM     12  C   UNL     1      12.260  -1.657  19.293  1.00  0.00     0.063 A 
ATOM     13  C   UNL     1      14.258  -0.348  19.758  1.00  0.00     0.047 A 
ATOM     14  C   UNL     1      12.878  -0.423  19.560  1.00  0.00     0.020 A 
ATOM     15  C   UNL     1      15.042  -1.500  19.685  1.00  0.00     0.119 A 
ATOM     16  C   UNL     1      14.438  -2.736  19.417  1.00  0.00     0.093 A 
ATOM     17  C   UNL     1      13.054  -2.826  19.228  1.00  0.00     0.130 A 
BRANCH  15  18
ATOM     18  O   UNL     1      16.419  -1.409  19.879  1.00  0.00    -0.508 OA
ATOM     19  H   UNL     1      17.022  -2.217  19.781  1.00  0.00     0.293 HD
ENDBRANCH  15  18
BRANCH  17  20
ATOM     20  O   UNL     1      12.501  -4.088  19.001  1.00  0.00    -0.507 OA
ATOM     21  H   UNL     1      12.352  -4.767  19.736  1.00  0.00     0.293 HD
ENDBRANCH  17  20
ENDBRANCH   1  12
BRANCH   2  22
ATOM     22  O   UNL     1      10.880   0.468  17.942  1.00  0.00    -0.502 OA
ATOM     23  H   UNL     1      11.465   0.468  17.116  1.00  0.00     0.293 HD
ENDBRANCH   2  22
BRANCH   6  24
ATOM     24  O   UNL     1       5.875  -1.318  17.504  1.00  0.00    -0.507 OA
ATOM     25  H   UNL     1       5.784  -1.390  16.501  1.00  0.00     0.293 HD
ENDBRANCH   6  24
BRANCH   8  26
ATOM     26  O   UNL     1       6.151  -5.310  20.125  1.00  0.00    -0.508 OA
ATOM     27  H   UNL     1       5.589  -5.243  20.966  1.00  0.00     0.293 HD
ENDBRANCH   8  26
TORSDOF 6
ENDMDL
MODEL 3
REMARK VINA RESULT:    -4.041      3.286      5.250
REMARK INTER + INTRA:          -5.154
REMARK INTER:                  -5.613
REMARK INTRA:                   0.459
REMARK UNBOUND:                -0.286
REMARK SMILES O=c1c(O)c(-c2ccc(O)cc2O)oc2cc(O)cc(O)c12
REMARK SMILES IDX 5 1 3 2 2 3 1 4 22 5 20 6 19 7 17 8 16 9 15 10 14 11 6 12
REMARK SMILES IDX 8 13 7 14 9 15 11 16 12 17 10 18 13 20 4 22 21 24 18 26
REMARK H PARENT 10 19 13 21 4 23 21 25 18 27
REMARK Flexibility Score: inf
ROOT
ATOM      1  C   UNL     1      10.998  -0.849  19.201  1.00  0.00     0.184 A 
ATOM      2  C   UNL     1       9.917  -1.743  19.220  1.00  0.00     0.208 A 
ATOM      3  C   UNL     1       8.617  -1.243  19.049  1.00  0.00     0.238 A 
ATOM      4  O   UNL     1       7.657  -2.056  19.007  1.00  0.00    -0.285 OA
ATOM      5  C   UNL     1       8.414   0.149  18.889  1.00  0.00     0.111 A 
ATOM      6  C   UNL     1       7.137   0.772  18.748  1.00  0.00     0.134 A 
ATOM      7  C   UNL     1       7.064   2.144  18.474  1.00  0.00     0.093 A 
ATOM      8  C   UNL     1       8.216   2.926  18.400  1.00  0.00     0.123 A 
ATOM      9  C   UNL     1       9.467   2.339  18.595  1.00  0.00     0.094 A 
ATOM     10  C   UNL     1       9.574   0.966  18.834  1.00  0.00     0.146 A 
ATOM     11  O   UNL     1      10.784   0.445  18.999  1.00  0.00    -0.451 OA
ENDROOT
BRANCH   1  12
ATOM     12  C   UNL     1      12.387  -1.316  19.400  1.00  0.00     0.063 A 
ATOM     13  C   UNL     1      13.964  -3.164  19.551  1.00  0.00     0.047 A 
ATOM     14  C   UNL     1      12.672  -2.690  19.313  1.00  0.00     0.020 A 
ATOM     15  C   UNL     1      14.987  -2.276  19.885  1.00  0.00     0.119 A 
ATOM     16  C   UNL     1      14.716  -0.905  19.977  1.00  0.00     0.093 A 
ATOM     17  C   UNL     1      13.428  -0.416  19.730  1.00  0.00     0.130 A 
BRANCH  15  18
ATOM     18  O   UNL     1      16.270  -2.765  20.125  1.00  0.00    -0.508 OA
ATOM     19  H   UNL     1      16.475  -3.756  20.084  1.00  0.00     0.293 HD
ENDBRANCH  15  18
BRANCH  17  20
ATOM     20  O   UNL     1      13.221   0.963  19.800  1.00  0.00    -0.507 OA
ATOM     21  H   UNL     1      13.900   1.641  19.475  1.00  0.00     0.293 HD
ENDBRANCH  17  20
ENDBRANCH   1  12
BRANCH   2  22
ATOM     22  O   UNL     1      10.147  -3.113  19.384  1.00  0.00    -0.502 OA
ATOM     23  H   UNL     1      10.467  -3.703  18.626  1.00  0.00     0.293 HD
ENDBRANCH   2  22
BRANCH   6  24
ATOM     24  O   UNL     1       5.920   0.100  18.893  1.00  0.00    -0.507 OA
ATOM     25  H   UNL     1       5.227  -0.000  18.167  1.00  0.00     0.293 HD
ENDBRANCH   6  24
BRANCH   8  26
ATOM     26  O   UNL     1       8.104   4.290  18.142  1.00  0.00    -0.508 OA
ATOM     27  H   UNL     1       7.601   4.909  18.768  1.00  0.00     0.293 HD
ENDBRANCH   8  26
TORSDOF 6
ENDMDL
MODEL 4
REMARK VINA RESULT:    -3.763      3.197      5.905
REMARK INTER + INTRA:          -4.819
REMARK INTER:                  -5.303
REMARK INTRA:                   0.484
REMARK UNBOUND:                -0.286
REMARK SMILES O=c1c(O)c(-c2ccc(O)cc2O)oc2cc(O)cc(O)c12
REMARK SMILES IDX 5 1 3 2 2 3 1 4 22 5 20 6 19 7 17 8 16 9 15 10 14 11 6 12
REMARK SMILES IDX 8 13 7 14 9 15 11 16 12 17 10 18 13 20 4 22 21 24 18 26
REMARK H PARENT 10 19 13 21 4 23 21 25 18 27
REMARK Flexibility Score: inf
ROOT
ATOM      1  C   UNL     1      11.026  -0.922  19.155  1.00  0.00     0.184 A 
ATOM      2  C   UNL     1      10.550   0.366  18.864  1.00  0.00     0.208 A 
ATOM      3  C   UNL     1       9.177   0.548  18.634  1.00  0.00     0.238 A 
ATOM      4  O   UNL     1       8.747   1.714  18.433  1.00  0.00    -0.285 OA
ATOM      5  C   UNL     1       8.303  -0.566  18.672  1.00  0.00     0.111 A 
ATOM      6  C   UNL     1       6.900  -0.505  18.415  1.00  0.00     0.134 A 
ATOM      7  C   UNL     1       6.114  -1.649  18.600  1.00  0.00     0.093 A 
ATOM      8  C   UNL     1       6.688  -2.866  18.968  1.00  0.00     0.123 A 
ATOM      9  C   UNL     1       8.066  -2.951  19.164  1.00  0.00     0.094 A 
ATOM     10  C   UNL     1       8.872  -1.818  19.024  1.00  0.00     0.146 A 
ATOM     11  O   UNL     1      10.177  -1.940  19.233  1.00  0.00    -0.451 OA
ENDROOT
BRANCH   1  12
ATOM     12  C   UNL     1      12.464  -1.178  19.382  1.00  0.00     0.063 A 
ATOM     13  C   UNL     1      14.710  -0.301  19.715  1.00  0.00     0.047 A 
ATOM     14  C   UNL     1      13.339  -0.091  19.554  1.00  0.00     0.020 A 
ATOM     15  C   UNL     1      15.228  -1.596  19.699  1.00  0.00     0.119 A 
ATOM     16  C   UNL     1      14.367  -2.688  19.526  1.00  0.00     0.093 A 
ATOM     17  C   UNL     1      12.990  -2.491  19.375  1.00  0.00     0.130 A 
BRANCH  15  18
ATOM     18  O   UNL     1      16.600  -1.791  19.856  1.00  0.00    -0.508 OA
ATOM     19  H   UNL     1      16.990  -2.715  19.999  1.00  0.00     0.293 HD
ENDBRANCH  15  18
BRANCH  17  20
ATOM     20  O   UNL     1      12.173  -3.616  19.243  1.00  0.00    -0.507 OA
ATOM     21  H   UNL     1      11.869  -3.976  18.347  1.00  0.00     0.293 HD
ENDBRANCH  17  20
ENDBRANCH   1  12
BRANCH   2  22
ATOM     22  O   UNL     1      11.436   1.446  18.830  1.00  0.00    -0.502 OA
ATOM     23  H   UNL     1      11.699   1.905  17.966  1.00  0.00     0.293 HD
ENDBRANCH   2  22
BRANCH   6  24
ATOM     24  O   UNL     1       6.239   0.637  17.956  1.00  0.00    -0.507 OA
ATOM     25  H   UNL     1       6.344   1.561  18.347  1.00  0.00     0.293 HD
ENDBRANCH   6  24
BRANCH   8  26
ATOM     26  O   UNL     1       5.877  -3.987  19.127  1.00  0.00    -0.508 OA
ATOM     27  H   UNL     1       5.194  -4.046  19.875  1.00  0.00     0.293 HD
ENDBRANCH   8  26
TORSDOF 6
ENDMDL
MODEL 5
REMARK VINA RESULT:    -3.660      1.509      3.310
REMARK INTER + INTRA:          -4.695
REMARK INTER:                  -4.283
REMARK INTRA:                  -0.412
REMARK UNBOUND:                -0.286
REMARK SMILES O=c1c(O)c(-c2ccc(O)cc2O)oc2cc(O)cc(O)c12
REMARK SMILES IDX 5 1 3 2 2 3 1 4 22 5 20 6 19 7 17 8 16 9 15 10 14 11 6 12
REMARK SMILES IDX 8 13 7 14 9 15 11 16 12 17 10 18 13 20 4 22 21 24 18 26
REMARK H PARENT 10 19 13 21 4 23 21 25 18 27
REMARK Flexibility Score: inf
ROOT
ATOM      1  C   UNL     1      10.204  -1.351  16.941  1.00  0.00     0.184 A 
ATOM      2  C   UNL     1       9.660  -0.104  17.284  1.00  0.00     0.208 A 
ATOM      3  C   UNL     1      10.391   0.750  18.126  1.00  0.00     0.238 A 
ATOM      4  O   UNL     1       9.926   1.891  18.382  1.00  0.00    -0.285 OA
ATOM      5  C   UNL     1      11.645   0.331  18.635  1.00  0.00     0.111 A 
ATOM      6  C   UNL     1      12.454   1.097  19.527  1.00  0.00     0.134 A 
ATOM      7  C   UNL     1      13.732   0.636  19.869  1.00  0.00     0.093 A 
ATOM      8  C   UNL     1      14.203  -0.592  19.404  1.00  0.00     0.123 A 
ATOM      9  C   UNL     1      13.397  -1.376  18.578  1.00  0.00     0.094 A 
ATOM     10  C   UNL     1      12.133  -0.926  18.190  1.00  0.00     0.146 A 
ATOM     11  O   UNL     1      11.404  -1.697  17.392  1.00  0.00    -0.451 OA
ENDROOT
BRANCH   1  12
ATOM     12  C   UNL     1       9.469  -2.300  16.078  1.00  0.00     0.063 A 
ATOM     13  C   UNL     1       7.915  -4.162  15.879  1.00  0.00     0.047 A 
ATOM     14  C   UNL     1       8.580  -3.219  16.664  1.00  0.00     0.020 A 
ATOM     15  C   UNL     1       8.132  -4.209  14.502  1.00  0.00     0.119 A 
ATOM     16  C   UNL     1       9.017  -3.301  13.906  1.00  0.00     0.093 A 
ATOM     17  C   UNL     1       9.681  -2.342  14.680  1.00  0.00     0.130 A 
BRANCH  15  18
ATOM     18  O   UNL     1       7.465  -5.160  13.732  1.00  0.00    -0.508 OA
ATOM     19  H   UNL     1       7.381  -5.063  12.727  1.00  0.00     0.293 HD
ENDBRANCH  15  18
BRANCH  17  20
ATOM     20  O   UNL     1      10.524  -1.438  14.030  1.00  0.00    -0.507 OA
ATOM     21  H   UNL     1      11.190  -0.853  14.519  1.00  0.00     0.293 HD
ENDBRANCH  17  20
ENDBRANCH   1  12
BRANCH   2  22
ATOM     22  O   UNL     1       8.419   0.282  16.770  1.00  0.00    -0.502 OA
ATOM     23  H   UNL     1       8.243   0.356  15.776  1.00  0.00     0.293 HD
ENDBRANCH   2  22
BRANCH   6  24
ATOM     24  O   UNL     1      12.044   2.293  20.122  1.00  0.00    -0.507 OA
ATOM     25  H   UNL     1      12.666   2.984  20.516  1.00  0.00     0.293 HD
ENDBRANCH   6  24
BRANCH   8  26
ATOM     26  O   UNL     1      15.473  -1.025  19.778  1.00  0.00    -0.508 OA
ATOM     27  H   UNL     1      16.306  -0.508  19.521  1.00  0.00     0.293 HD
ENDBRANCH   8  26
TORSDOF 6
ENDMDL
MODEL 6
REMARK VINA RESULT:    -3.011      1.692      6.586
REMARK INTER + INTRA:          -3.913
REMARK INTER:                  -3.594
REMARK INTRA:                  -0.320
REMARK UNBOUND:                -0.286
REMARK SMILES O=c1c(O)c(-c2ccc(O)cc2O)oc2cc(O)cc(O)c12
REMARK SMILES IDX 5 1 3 2 2 3 1 4 22 5 20 6 19 7 17 8 16 9 15 10 14 11 6 12
REMARK SMILES IDX 8 13 7 14 9 15 11 16 12 17 10 18 13 20 4 22 21 24 18 26
REMARK H PARENT 10 19 13 21 4 23 21 25 18 27
REMARK Flexibility Score: inf
ROOT
ATOM      1  C   UNL     1       8.949   1.465  18.608  1.00  0.00     0.184 A 
ATOM      2  C   UNL     1      10.249   1.319  19.113  1.00  0.00     0.208 A 
ATOM      3  C   UNL     1      10.997   0.187  18.750  1.00  0.00     0.238 A 
ATOM      4  O   UNL     1      12.184   0.091  19.158  1.00  0.00    -0.285 OA
ATOM      5  C   UNL     1      10.422  -0.796  17.909  1.00  0.00     0.111 A 
ATOM      6  C   UNL     1      11.072  -2.002  17.509  1.00  0.00     0.134 A 
ATOM      7  C   UNL     1      10.454  -2.844  16.575  1.00  0.00     0.093 A 
ATOM      8  C   UNL     1       9.183  -2.557  16.079  1.00  0.00     0.123 A 
ATOM      9  C   UNL     1       8.513  -1.411  16.508  1.00  0.00     0.094 A 
ATOM     10  C   UNL     1       9.119  -0.533  17.409  1.00  0.00     0.146 A 
ATOM     11  O   UNL     1       8.453   0.553  17.781  1.00  0.00    -0.451 OA
ENDROOT
BRANCH   1  12
ATOM     12  C   UNL     1       8.107   2.624  18.975  1.00  0.00     0.063 A 
ATOM     13  C   UNL     1       7.766   5.034  18.984  1.00  0.00     0.047 A 
ATOM     14  C   UNL     1       8.513   3.917  18.603  1.00  0.00     0.020 A 
ATOM     15  C   UNL     1       6.608   4.877  19.746  1.00  0.00     0.119 A 
ATOM     16  C   UNL     1       6.193   3.594  20.125  1.00  0.00     0.093 A 
ATOM     17  C   UNL     1       6.927   2.466  19.740  1.00  0.00     0.130 A 
BRANCH  15  18
ATOM     18  O   UNL     1       5.875   6.001  20.123  1.00  0.00    -0.508 OA
ATOM     19  H   UNL     1       5.351   6.025  20.991  1.00  0.00     0.293 HD
ENDBRANCH  15  18
BRANCH  17  20
ATOM     20  O   UNL     1       6.449   1.208  20.114  1.00  0.00    -0.507 OA
ATOM     21  H   UNL     1       6.677   0.358  19.614  1.00  0.00     0.293 HD
ENDBRANCH  17  20
ENDBRANCH   1  12
BRANCH   2  22
ATOM     22  O   UNL     1      10.791   2.304  19.945  1.00  0.00    -0.502 OA
ATOM     23  H   UNL     1      10.597   3.289  19.816  1.00  0.00     0.293 HD
ENDBRANCH   2  22
BRANCH   6  24
ATOM     24  O   UNL     1      12.304  -2.430  18.013  1.00  0.00    -0.507 OA
ATOM     25  H   UNL     1      12.514  -3.374  18.298  1.00  0.00     0.293 HD
ENDBRANCH   6  24
BRANCH   8  26
ATOM     26  O   UNL     1       8.592  -3.426  15.164  1.00  0.00    -0.508 OA
ATOM     27  H   UNL     1       8.189  -4.309  15.456  1.00  0.00     0.293 HD
ENDBRANCH   8  26
TORSDOF 6
ENDMDL
