MODEL 1
REMARK VINA RESULT:    -6.136      0.000      0.000
REMARK INTER + INTRA:          -7.605
REMARK INTER:                  -7.391
REMARK INTRA:                  -0.214
REMARK UNBOUND:                -0.214
REMARK SMILES O=c1c(O)c(-c2ccc(O)c(O)c2)oc2cc(O)cc(O)c12
REMARK SMILES IDX 5 1 3 2 2 3 1 4 22 5 20 6 19 7 17 8 16 9 15 10 14 11 6 12
REMARK SMILES IDX 7 13 8 14 9 15 13 16 11 17 10 18 12 20 4 22 21 24 18 26
REMARK H PARENT 10 19 12 21 4 23 21 25 18 27
REMARK Flexibility Score: inf
ROOT
ATOM      1  C   UNL     1      18.819   5.541   8.198  1.00  0.00     0.180 A 
ATOM      2  C   UNL     1      18.208   6.741   8.600  1.00  0.00     0.208 A 
ATOM      3  C   UNL     1      16.818   6.880   8.451  1.00  0.00     0.238 A 
ATOM      4  O   UNL     1      16.269   7.935   8.863  1.00  0.00    -0.285 OA
ATOM      5  C   UNL     1      16.061   5.825   7.889  1.00  0.00     0.111 A 
ATOM      6  C   UNL     1      14.654   5.872   7.654  1.00  0.00     0.134 A 
ATOM      7  C   UNL     1      13.988   4.722   7.212  1.00  0.00     0.093 A 
ATOM      8  C   UNL     1      14.686   3.548   6.935  1.00  0.00     0.123 A 
ATOM      9  C   UNL     1      16.070   3.507   7.105  1.00  0.00     0.094 A 
ATOM     10  C   UNL     1      16.758   4.628   7.578  1.00  0.00     0.146 A 
ATOM     11  O   UNL     1      18.073   4.545   7.735  1.00  0.00    -0.452 OA
ENDROOT
BRANCH   1  12
ATOM     12  C   UNL     1      20.282   5.330   8.300  1.00  0.00     0.025 A 
ATOM     13  C   UNL     1      21.144   6.060   7.466  1.00  0.00     0.016 A 
ATOM     14  C   UNL     1      22.528   5.893   7.560  1.00  0.00     0.051 A 
ATOM     15  C   UNL     1      23.072   5.008   8.496  1.00  0.00     0.157 A 
ATOM     16  C   UNL     1      20.831   4.455   9.255  1.00  0.00     0.062 A 
ATOM     17  C   UNL     1      22.221   4.288   9.351  1.00  0.00     0.158 A 
BRANCH  15  18
ATOM     18  O   UNL     1      24.456   4.860   8.565  1.00  0.00    -0.504 OA
ATOM     19  H   UNL     1      25.052   4.992   7.756  1.00  0.00     0.293 HD
ENDBRANCH  15  18
BRANCH  17  20
ATOM     20  O   UNL     1      22.757   3.414  10.296  1.00  0.00    -0.504 OA
ATOM     21  H   UNL     1      22.227   3.121  11.108  1.00  0.00     0.293 HD
ENDBRANCH  17  20
ENDBRANCH   1  12
BRANCH   2  22
ATOM     22  O   UNL     1      18.971   7.762   9.174  1.00  0.00    -0.502 OA
ATOM     23  H   UNL     1      18.706   8.737   9.116  1.00  0.00     0.293 HD
ENDBRANCH   2  22
BRANCH   6  24
ATOM     24  O   UNL     1      13.875   7.022   7.811  1.00  0.00    -0.507 OA
ATOM     25  H   UNL     1      12.913   7.109   7.519  1.00  0.00     0.293 HD
ENDBRANCH   6  24
BRANCH   8  26
ATOM     26  O   UNL     1      13.993   2.427   6.484  1.00  0.00    -0.508 OA
ATOM     27  H   UNL     1      13.020   2.272   6.724  1.00  0.00     0.293 HD
ENDBRANCH   8  26
TORSDOF 6
ENDMDL
MODEL 2
REMARK VINA RESULT:    -6.054     11.170     13.503
REMARK INTER + INTRA:          -7.507
REMARK INTER:                  -7.177
REMARK INTRA:                  -0.330
REMARK UNBOUND:                -0.214
REMARK SMILES O=c1c(O)c(-c2ccc(O)c(O)c2)oc2cc(O)cc(O)c12
REMARK SMILES IDX 5 1 3 2 2 3 1 4 22 5 20 6 19 7 17 8 16 9 15 10 14 11 6 12
REMARK SMILES IDX 7 13 8 14 9 15 13 16 11 17 10 18 12 20 4 22 21 24 18 26
REMARK H PARENT 10 19 12 21 4 23 21 25 18 27
REMARK Flexibility Score: inf
ROOT
ATOM      1  C   UNL     1      23.770   5.844  -2.936  1.00  0.00     0.180 A 
ATOM      2  C   UNL     1      23.081   6.444  -1.868  1.00  0.00     0.208 A 
ATOM      3  C   UNL     1      23.425   6.092  -0.552  1.00  0.00     0.238 A 
ATOM      4  O   UNL     1      22.842   6.673   0.400  1.00  0.00    -0.285 OA
ATOM      5  C   UNL     1      24.440   5.134  -0.322  1.00  0.00     0.111 A 
ATOM      6  C   UNL     1      24.842   4.672   0.968  1.00  0.00     0.134 A 
ATOM      7  C   UNL     1      25.946   3.818   1.083  1.00  0.00     0.093 A 
ATOM      8  C   UNL     1      26.621   3.358  -0.047  1.00  0.00     0.123 A 
ATOM      9  C   UNL     1      26.200   3.756  -1.316  1.00  0.00     0.094 A 
ATOM     10  C   UNL     1      25.124   4.635  -1.462  1.00  0.00     0.146 A 
ATOM     11  O   UNL     1      24.762   4.997  -2.686  1.00  0.00    -0.452 OA
ENDROOT
BRANCH   1  12
ATOM     12  C   UNL     1      23.448   6.145  -4.349  1.00  0.00     0.025 A 
ATOM     13  C   UNL     1      24.211   7.098  -5.043  1.00  0.00     0.016 A 
ATOM     14  C   UNL     1      23.937   7.383  -6.384  1.00  0.00     0.051 A 
ATOM     15  C   UNL     1      22.910   6.712  -7.055  1.00  0.00     0.157 A 
ATOM     16  C   UNL     1      22.428   5.457  -5.032  1.00  0.00     0.062 A 
ATOM     17  C   UNL     1      22.155   5.741  -6.378  1.00  0.00     0.158 A 
BRANCH  15  18
ATOM     18  O   UNL     1      22.660   7.019  -8.391  1.00  0.00    -0.504 OA
ATOM     19  H   UNL     1      22.266   6.343  -9.034  1.00  0.00     0.293 HD
ENDBRANCH  15  18
BRANCH  17  20
ATOM     20  O   UNL     1      21.138   5.057  -7.044  1.00  0.00    -0.504 OA
ATOM     21  H   UNL     1      21.005   4.060  -6.928  1.00  0.00     0.293 HD
ENDBRANCH  17  20
ENDBRANCH   1  12
BRANCH   2  22
ATOM     22  O   UNL     1      22.098   7.405  -2.117  1.00  0.00    -0.502 OA
ATOM     23  H   UNL     1      21.114   7.232  -1.955  1.00  0.00     0.293 HD
ENDBRANCH   2  22
BRANCH   6  24
ATOM     24  O   UNL     1      24.178   4.997   2.154  1.00  0.00    -0.507 OA
ATOM     25  H   UNL     1      24.485   5.699   2.811  1.00  0.00     0.293 HD
ENDBRANCH   6  24
BRANCH   8  26
ATOM     26  O   UNL     1      27.706   2.497   0.105  1.00  0.00    -0.508 OA
ATOM     27  H   UNL     1      27.890   1.755  -0.560  1.00  0.00     0.293 HD
ENDBRANCH   8  26
TORSDOF 6
ENDMDL
MODEL 3
REMARK VINA RESULT:    -6.039      6.337      9.622
REMARK INTER + INTRA:          -7.489
REMARK INTER:                  -7.160
REMARK INTRA:                  -0.329
REMARK UNBOUND:                -0.214
REMARK SMILES O=c1c(O)c(-c2ccc(O)c(O)c2)oc2cc(O)cc(O)c12
REMARK SMILES IDX 5 1 3 2 2 3 1 4 22 5 20 6 19 7 17 8 16 9 15 10 14 11 6 12
REMARK SMILES IDX 7 13 8 14 9 15 13 16 11 17 10 18 12 20 4 22 21 24 18 26
REMARK H PARENT 10 19 12 21 4 23 21 25 18 27
REMARK Flexibility Score: inf
ROOT
ATOM      1  C   UNL     1      24.726   5.751   3.239  1.00  0.00     0.180 A 
ATOM      2  C   UNL     1      23.469   6.000   3.816  1.00  0.00     0.208 A 
ATOM      3  C   UNL     1      23.346   5.976   5.216  1.00  0.00     0.238 A 
ATOM      4  O   UNL     1      22.231   6.254   5.729  1.00  0.00    -0.285 OA
ATOM      5  C   UNL     1      24.476   5.687   6.017  1.00  0.00     0.111 A 
ATOM      6  C   UNL     1      24.458   5.597   7.441  1.00  0.00     0.134 A 
ATOM      7  C   UNL     1      25.662   5.433   8.138  1.00  0.00     0.093 A 
ATOM      8  C   UNL     1      26.872   5.292   7.461  1.00  0.00     0.123 A 
ATOM      9  C   UNL     1      26.894   5.320   6.067  1.00  0.00     0.094 A 
ATOM     10  C   UNL     1      25.715   5.517   5.344  1.00  0.00     0.146 A 
ATOM     11  O   UNL     1      25.780   5.547   4.020  1.00  0.00    -0.452 OA
ENDROOT
BRANCH   1  12
ATOM     12  C   UNL     1      24.928   5.734   1.772  1.00  0.00     0.025 A 
ATOM     13  C   UNL     1      25.299   6.917   1.113  1.00  0.00     0.016 A 
ATOM     14  C   UNL     1      25.515   6.920  -0.268  1.00  0.00     0.051 A 
ATOM     15  C   UNL     1      25.380   5.741  -1.008  1.00  0.00     0.157 A 
ATOM     16  C   UNL     1      24.812   4.545   1.029  1.00  0.00     0.062 A 
ATOM     17  C   UNL     1      25.031   4.546  -0.357  1.00  0.00     0.158 A 
BRANCH  15  18
ATOM     18  O   UNL     1      25.600   5.775  -2.384  1.00  0.00    -0.504 OA
ATOM     19  H   UNL     1      24.859   5.981  -3.042  1.00  0.00     0.293 HD
ENDBRANCH  15  18
BRANCH  17  20
ATOM     20  O   UNL     1      24.908   3.364  -1.085  1.00  0.00    -0.504 OA
ATOM     21  H   UNL     1      24.069   2.798  -1.041  1.00  0.00     0.293 HD
ENDBRANCH  17  20
ENDBRANCH   1  12
BRANCH   2  22
ATOM     22  O   UNL     1      22.370   6.306   3.008  1.00  0.00    -0.502 OA
ATOM     23  H   UNL     1      21.549   6.779   3.363  1.00  0.00     0.293 HD
ENDBRANCH   2  22
BRANCH   6  24
ATOM     24  O   UNL     1      23.292   5.632   8.211  1.00  0.00    -0.507 OA
ATOM     25  H   UNL     1      22.659   6.417   8.260  1.00  0.00     0.293 HD
ENDBRANCH   6  24
BRANCH   8  26
ATOM     26  O   UNL     1      28.049   5.117   8.187  1.00  0.00    -0.508 OA
ATOM     27  H   UNL     1      28.949   5.396   7.814  1.00  0.00     0.293 HD
ENDBRANCH   8  26
TORSDOF 6
ENDMDL
MODEL 4
REMARK VINA RESULT:    -6.036      8.966     11.870
REMARK INTER + INTRA:          -7.485
REMARK INTER:                  -7.297
REMARK INTRA:                  -0.188
REMARK UNBOUND:                -0.214
REMARK SMILES O=c1c(O)c(-c2ccc(O)c(O)c2)oc2cc(O)cc(O)c12
REMARK SMILES IDX 5 1 3 2 2 3 1 4 22 5 20 6 19 7 17 8 16 9 15 10 14 11 6 12
REMARK SMILES IDX 7 13 8 14 9 15 13 16 11 17 10 18 12 20 4 22 21 24 18 26
REMARK H PARENT 10 19 12 21 4 23 21 25 18 27
REMARK Flexibility Score: inf
ROOT
ATOM      1  C   UNL     1      24.744   5.248  -0.457  1.00  0.00     0.180 A 
ATOM      2  C   UNL     1      23.782   4.268  -0.160  1.00  0.00     0.208 A 
ATOM      3  C   UNL     1      23.628   3.848   1.172  1.00  0.00     0.238 A 
ATOM      4  O   UNL     1      22.727   3.010   1.441  1.00  0.00    -0.285 OA
ATOM      5  C   UNL     1      24.448   4.401   2.184  1.00  0.00     0.111 A 
ATOM      6  C   UNL     1      24.406   4.020   3.559  1.00  0.00     0.134 A 
ATOM      7  C   UNL     1      25.172   4.726   4.495  1.00  0.00     0.093 A 
ATOM      8  C   UNL     1      26.027   5.753   4.098  1.00  0.00     0.123 A 
ATOM      9  C   UNL     1      26.120   6.094   2.748  1.00  0.00     0.094 A 
ATOM     10  C   UNL     1      25.342   5.433   1.795  1.00  0.00     0.146 A 
ATOM     11  O   UNL     1      25.453   5.794   0.524  1.00  0.00    -0.452 OA
ENDROOT
BRANCH   1  12
ATOM     12  C   UNL     1      24.982   5.723  -1.840  1.00  0.00     0.025 A 
ATOM     13  C   UNL     1      24.768   7.075  -2.152  1.00  0.00     0.016 A 
ATOM     14  C   UNL     1      25.006   7.549  -3.445  1.00  0.00     0.051 A 
ATOM     15  C   UNL     1      25.475   6.686  -4.440  1.00  0.00     0.157 A 
ATOM     16  C   UNL     1      25.473   4.861  -2.837  1.00  0.00     0.062 A 
ATOM     17  C   UNL     1      25.715   5.336  -4.135  1.00  0.00     0.158 A 
BRANCH  15  18
ATOM     18  O   UNL     1      25.701   7.187  -5.720  1.00  0.00    -0.504 OA
ATOM     19  H   UNL     1      25.239   8.022  -6.061  1.00  0.00     0.293 HD
ENDBRANCH  15  18
BRANCH  17  20
ATOM     20  O   UNL     1      26.196   4.473  -5.118  1.00  0.00    -0.504 OA
ATOM     21  H   UNL     1      25.584   4.074  -5.819  1.00  0.00     0.293 HD
ENDBRANCH  17  20
ENDBRANCH   1  12
BRANCH   2  22
ATOM     22  O   UNL     1      22.967   3.751  -1.171  1.00  0.00    -0.502 OA
ATOM     23  H   UNL     1      22.934   4.150  -2.100  1.00  0.00     0.293 HD
ENDBRANCH   2  22
BRANCH   6  24
ATOM     24  O   UNL     1      23.656   2.947   4.049  1.00  0.00    -0.507 OA
ATOM     25  H   UNL     1      23.288   2.883   4.987  1.00  0.00     0.293 HD
ENDBRANCH   6  24
BRANCH   8  26
ATOM     26  O   UNL     1      26.786   6.424   5.055  1.00  0.00    -0.508 OA
ATOM     27  H   UNL     1      26.456   7.278   5.490  1.00  0.00     0.293 HD
ENDBRANCH   8  26
TORSDOF 6
ENDMDL
MODEL 5
REMARK VINA RESULT:    -5.908     11.147     12.820
REMARK INTER + INTRA:          -7.331
REMARK INTER:                  -7.014
REMARK INTRA:                  -0.316
REMARK UNBOUND:                -0.214
REMARK SMILES O=c1c(O)c(-c2ccc(O)c(O)c2)oc2cc(O)cc(O)c12
REMARK SMILES IDX 5 1 3 2 2 3 1 4 22 5 20 6 19 7 17 8 16 9 15 10 14 11 6 12
REMARK SMILES IDX 7 13 8 14 9 15 13 16 11 17 10 18 12 20 4 22 21 24 18 26
REMARK H PARENT 10 19 12 21 4 23 21 25 18 27
REMARK Flexibility Score: inf
ROOT
ATOM      1  C   UNL     1      24.062   5.562  -2.241  1.00  0.00     0.180 A 
ATOM      2  C   UNL     1      25.000   6.532  -2.636  1.00  0.00     0.208 A 
ATOM      3  C   UNL     1      24.952   7.031  -3.948  1.00  0.00     0.238 A 
ATOM      4  O   UNL     1      25.758   7.939  -4.279  1.00  0.00    -0.285 OA
ATOM      5  C   UNL     1      23.978   6.543  -4.851  1.00  0.00     0.111 A 
ATOM      6  C   UNL     1      23.862   6.949  -6.215  1.00  0.00     0.134 A 
ATOM      7  C   UNL     1      22.780   6.496  -6.981  1.00  0.00     0.093 A 
ATOM      8  C   UNL     1      21.848   5.605  -6.453  1.00  0.00     0.123 A 
ATOM      9  C   UNL     1      21.984   5.155  -5.140  1.00  0.00     0.094 A 
ATOM     10  C   UNL     1      23.032   5.616  -4.339  1.00  0.00     0.146 A 
ATOM     11  O   UNL     1      23.121   5.172  -3.092  1.00  0.00    -0.452 OA
ENDROOT
BRANCH   1  12
ATOM     12  C   UNL     1      24.067   4.970  -0.883  1.00  0.00     0.025 A 
ATOM     13  C   UNL     1      24.922   3.892  -0.603  1.00  0.00     0.016 A 
ATOM     14  C   UNL     1      24.958   3.332   0.677  1.00  0.00     0.051 A 
ATOM     15  C   UNL     1      24.154   3.848   1.698  1.00  0.00     0.157 A 
ATOM     16  C   UNL     1      23.274   5.501   0.150  1.00  0.00     0.062 A 
ATOM     17  C   UNL     1      23.311   4.940   1.436  1.00  0.00     0.158 A 
BRANCH  15  18
ATOM     18  O   UNL     1      24.209   3.266   2.963  1.00  0.00    -0.504 OA
ATOM     19  H   UNL     1      25.058   3.259   3.515  1.00  0.00     0.293 HD
ENDBRANCH  15  18
BRANCH  17  20
ATOM     20  O   UNL     1      22.516   5.469   2.452  1.00  0.00    -0.504 OA
ATOM     21  H   UNL     1      21.507   5.384   2.436  1.00  0.00     0.293 HD
ENDBRANCH  17  20
ENDBRANCH   1  12
BRANCH   2  22
ATOM     22  O   UNL     1      25.939   7.017  -1.721  1.00  0.00    -0.502 OA
ATOM     23  H   UNL     1      25.707   7.707  -1.018  1.00  0.00     0.293 HD
ENDBRANCH   2  22
BRANCH   6  24
ATOM     24  O   UNL     1      24.791   7.764  -6.868  1.00  0.00    -0.507 OA
ATOM     25  H   UNL     1      24.558   8.593  -7.395  1.00  0.00     0.293 HD
ENDBRANCH   6  24
BRANCH   8  26
ATOM     26  O   UNL     1      20.792   5.164  -7.249  1.00  0.00    -0.508 OA
ATOM     27  H   UNL     1      19.853   5.071  -6.879  1.00  0.00     0.293 HD
ENDBRANCH   8  26
TORSDOF 6
ENDMDL
MODEL 6
REMARK VINA RESULT:    -5.882     11.029     13.478
REMARK INTER + INTRA:          -7.299
REMARK INTER:                  -6.990
REMARK INTRA:                  -0.309
REMARK UNBOUND:                -0.214
REMARK SMILES O=c1c(O)c(-c2ccc(O)c(O)c2)oc2cc(O)cc(O)c12
REMARK SMILES IDX 5 1 3 2 2 3 1 4 22 5 20 6 19 7 17 8 16 9 15 10 14 11 6 12
REMARK SMILES IDX 7 13 8 14 9 15 13 16 11 17 10 18 12 20 4 22 21 24 18 26
REMARK H PARENT 10 19 12 21 4 23 21 25 18 27
REMARK Flexibility Score: inf
ROOT
ATOM      1  C   UNL     1      23.996   5.304  -3.004  1.00  0.00     0.180 A 
ATOM      2  C   UNL     1      25.191   4.565  -2.976  1.00  0.00     0.208 A 
ATOM      3  C   UNL     1      25.658   4.071  -1.747  1.00  0.00     0.238 A 
ATOM      4  O   UNL     1      26.700   3.365  -1.735  1.00  0.00    -0.285 OA
ATOM      5  C   UNL     1      24.933   4.337  -0.560  1.00  0.00     0.111 A 
ATOM      6  C   UNL     1      25.334   3.920   0.745  1.00  0.00     0.134 A 
ATOM      7  C   UNL     1      24.474   4.126   1.831  1.00  0.00     0.093 A 
ATOM      8  C   UNL     1      23.258   4.790   1.670  1.00  0.00     0.123 A 
ATOM      9  C   UNL     1      22.882   5.253   0.409  1.00  0.00     0.094 A 
ATOM     10  C   UNL     1      23.703   5.032  -0.700  1.00  0.00     0.146 A 
ATOM     11  O   UNL     1      23.305   5.479  -1.884  1.00  0.00    -0.452 OA
ENDROOT
BRANCH   1  12
ATOM     12  C   UNL     1      23.454   5.877  -4.257  1.00  0.00     0.025 A 
ATOM     13  C   UNL     1      23.960   7.098  -4.732  1.00  0.00     0.016 A 
ATOM     14  C   UNL     1      23.479   7.647  -5.924  1.00  0.00     0.051 A 
ATOM     15  C   UNL     1      22.499   6.980  -6.665  1.00  0.00     0.157 A 
ATOM     16  C   UNL     1      22.484   5.198  -5.015  1.00  0.00     0.062 A 
ATOM     17  C   UNL     1      22.001   5.748  -6.212  1.00  0.00     0.158 A 
BRANCH  15  18
ATOM     18  O   UNL     1      22.036   7.554  -7.848  1.00  0.00    -0.504 OA
ATOM     19  H   UNL     1      22.269   7.173  -8.757  1.00  0.00     0.293 HD
ENDBRANCH  15  18
BRANCH  17  20
ATOM     20  O   UNL     1      21.034   5.070  -6.954  1.00  0.00    -0.504 OA
ATOM     21  H   UNL     1      21.188   4.820  -7.923  1.00  0.00     0.293 HD
ENDBRANCH  17  20
ENDBRANCH   1  12
BRANCH   2  22
ATOM     22  O   UNL     1      25.880   4.295  -4.162  1.00  0.00    -0.502 OA
ATOM     23  H   UNL     1      26.610   4.899  -4.517  1.00  0.00     0.293 HD
ENDBRANCH   2  22
BRANCH   6  24
ATOM     24  O   UNL     1      26.569   3.331   1.031  1.00  0.00    -0.507 OA
ATOM     25  H   UNL     1      27.463   3.698   0.738  1.00  0.00     0.293 HD
ENDBRANCH   6  24
BRANCH   8  26
ATOM     26  O   UNL     1      22.434   4.990   2.775  1.00  0.00    -0.508 OA
ATOM     27  H   UNL     1      22.535   5.803   3.372  1.00  0.00     0.293 HD
ENDBRANCH   8  26
TORSDOF 6
ENDMDL
MODEL 7
REMARK VINA RESULT:    -5.879      6.870      9.695
REMARK INTER + INTRA:          -7.296
REMARK INTER:                  -7.045
REMARK INTRA:                  -0.251
REMARK UNBOUND:                -0.214
REMARK SMILES O=c1c(O)c(-c2ccc(O)c(O)c2)oc2cc(O)cc(O)c12
REMARK SMILES IDX 5 1 3 2 2 3 1 4 22 5 20 6 19 7 17 8 16 9 15 10 14 11 6 12
REMARK SMILES IDX 7 13 8 14 9 15 13 16 11 17 10 18 12 20 4 22 21 24 18 26
REMARK H PARENT 10 19 12 21 4 23 21 25 18 27
REMARK Flexibility Score: inf
ROOT
ATOM      1  C   UNL     1      24.685   5.256   3.344  1.00  0.00     0.180 A 
ATOM      2  C   UNL     1      24.151   4.042   2.879  1.00  0.00     0.208 A 
ATOM      3  C   UNL     1      24.025   3.840   1.495  1.00  0.00     0.238 A 
ATOM      4  O   UNL     1      23.597   2.730   1.083  1.00  0.00    -0.285 OA
ATOM      5  C   UNL     1      24.420   4.859   0.596  1.00  0.00     0.111 A 
ATOM      6  C   UNL     1      24.301   4.778  -0.824  1.00  0.00     0.134 A 
ATOM      7  C   UNL     1      24.843   5.793  -1.623  1.00  0.00     0.093 A 
ATOM      8  C   UNL     1      25.442   6.915  -1.052  1.00  0.00     0.123 A 
ATOM      9  C   UNL     1      25.512   7.033   0.336  1.00  0.00     0.094 A 
ATOM     10  C   UNL     1      25.012   6.020   1.159  1.00  0.00     0.146 A 
ATOM     11  O   UNL     1      25.107   6.166   2.474  1.00  0.00    -0.452 OA
ENDROOT
BRANCH   1  12
ATOM     12  C   UNL     1      24.825   5.552   4.789  1.00  0.00     0.025 A 
ATOM     13  C   UNL     1      23.678   5.829   5.550  1.00  0.00     0.016 A 
ATOM     14  C   UNL     1      23.784   6.090   6.919  1.00  0.00     0.051 A 
ATOM     15  C   UNL     1      25.032   6.064   7.550  1.00  0.00     0.157 A 
ATOM     16  C   UNL     1      26.076   5.506   5.429  1.00  0.00     0.062 A 
ATOM     17  C   UNL     1      26.183   5.766   6.804  1.00  0.00     0.158 A 
BRANCH  15  18
ATOM     18  O   UNL     1      25.106   6.331   8.916  1.00  0.00    -0.504 OA
ATOM     19  H   UNL     1      25.835   5.941   9.501  1.00  0.00     0.293 HD
ENDBRANCH  15  18
BRANCH  17  20
ATOM     20  O   UNL     1      27.429   5.724   7.429  1.00  0.00    -0.504 OA
ATOM     21  H   UNL     1      28.185   5.155   7.067  1.00  0.00     0.293 HD
ENDBRANCH  17  20
ENDBRANCH   1  12
BRANCH   2  22
ATOM     22  O   UNL     1      23.788   3.040   3.783  1.00  0.00    -0.502 OA
ATOM     23  H   UNL     1      24.469   2.458   4.253  1.00  0.00     0.293 HD
ENDBRANCH   2  22
BRANCH   6  24
ATOM     24  O   UNL     1      23.638   3.745  -1.494  1.00  0.00    -0.507 OA
ATOM     25  H   UNL     1      23.949   2.785  -1.521  1.00  0.00     0.293 HD
ENDBRANCH   6  24
BRANCH   8  26
ATOM     26  O   UNL     1      25.958   7.912  -1.877  1.00  0.00    -0.508 OA
ATOM     27  H   UNL     1      26.403   7.691  -2.760  1.00  0.00     0.293 HD
ENDBRANCH   8  26
TORSDOF 6
ENDMDL
MODEL 8
REMARK VINA RESULT:    -5.826      9.396     11.351
REMARK INTER + INTRA:          -7.231
REMARK INTER:                  -6.955
REMARK INTRA:                  -0.277
REMARK UNBOUND:                -0.214
REMARK SMILES O=c1c(O)c(-c2ccc(O)c(O)c2)oc2cc(O)cc(O)c12
REMARK SMILES IDX 5 1 3 2 2 3 1 4 22 5 20 6 19 7 17 8 16 9 15 10 14 11 6 12
REMARK SMILES IDX 7 13 8 14 9 15 13 16 11 17 10 18 12 20 4 22 21 24 18 26
REMARK H PARENT 10 19 12 21 4 23 21 25 18 27
REMARK Flexibility Score: inf
ROOT
ATOM      1  C   UNL     1      23.566   6.114  -1.122  1.00  0.00     0.180 A 
ATOM      2  C   UNL     1      23.206   7.365  -0.590  1.00  0.00     0.208 A 
ATOM      3  C   UNL     1      22.966   7.474   0.789  1.00  0.00     0.238 A 
ATOM      4  O   UNL     1      22.698   8.607   1.268  1.00  0.00    -0.285 OA
ATOM      5  C   UNL     1      23.073   6.330   1.616  1.00  0.00     0.111 A 
ATOM      6  C   UNL     1      22.813   6.316   3.019  1.00  0.00     0.134 A 
ATOM      7  C   UNL     1      23.075   5.157   3.759  1.00  0.00     0.093 A 
ATOM      8  C   UNL     1      23.526   3.993   3.138  1.00  0.00     0.123 A 
ATOM      9  C   UNL     1      23.727   3.977   1.758  1.00  0.00     0.094 A 
ATOM     10  C   UNL     1      23.508   5.128   0.997  1.00  0.00     0.146 A 
ATOM     11  O   UNL     1      23.721   5.074  -0.311  1.00  0.00    -0.452 OA
ENDROOT
BRANCH   1  12
ATOM     12  C   UNL     1      23.810   5.916  -2.569  1.00  0.00     0.025 A 
ATOM     13  C   UNL     1      22.718   5.845  -3.450  1.00  0.00     0.016 A 
ATOM     14  C   UNL     1      22.926   5.679  -4.822  1.00  0.00     0.051 A 
ATOM     15  C   UNL     1      24.224   5.596  -5.336  1.00  0.00     0.157 A 
ATOM     16  C   UNL     1      25.115   5.853  -3.091  1.00  0.00     0.062 A 
ATOM     17  C   UNL     1      25.324   5.689  -4.469  1.00  0.00     0.158 A 
BRANCH  15  18
ATOM     18  O   UNL     1      24.399   5.428  -6.709  1.00  0.00    -0.504 OA
ATOM     19  H   UNL     1      24.115   4.583  -7.188  1.00  0.00     0.293 HD
ENDBRANCH  15  18
BRANCH  17  20
ATOM     20  O   UNL     1      26.621   5.622  -4.976  1.00  0.00    -0.504 OA
ATOM     21  H   UNL     1      27.244   6.419  -4.945  1.00  0.00     0.293 HD
ENDBRANCH  17  20
ENDBRANCH   1  12
BRANCH   2  22
ATOM     22  O   UNL     1      23.129   8.487  -1.420  1.00  0.00    -0.502 OA
ATOM     23  H   UNL     1      22.985   9.421  -1.059  1.00  0.00     0.293 HD
ENDBRANCH   2  22
BRANCH   6  24
ATOM     24  O   UNL     1      22.274   7.397   3.723  1.00  0.00    -0.507 OA
ATOM     25  H   UNL     1      22.239   7.468   4.729  1.00  0.00     0.293 HD
ENDBRANCH   6  24
BRANCH   8  26
ATOM     26  O   UNL     1      23.763   2.853   3.904  1.00  0.00    -0.508 OA
ATOM     27  H   UNL     1      23.004   2.263   4.224  1.00  0.00     0.293 HD
ENDBRANCH   8  26
TORSDOF 6
ENDMDL
MODEL 9
REMARK VINA RESULT:    -5.642     10.174     12.295
REMARK INTER + INTRA:          -7.010
REMARK INTER:                  -6.747
REMARK INTRA:                  -0.263
REMARK UNBOUND:                -0.214
REMARK SMILES O=c1c(O)c(-c2ccc(O)c(O)c2)oc2cc(O)cc(O)c12
REMARK SMILES IDX 5 1 3 2 2 3 1 4 22 5 20 6 19 7 17 8 16 9 15 10 14 11 6 12
REMARK SMILES IDX 7 13 8 14 9 15 13 16 11 17 10 18 12 20 4 22 21 24 18 26
REMARK H PARENT 10 19 12 21 4 23 21 25 18 27
REMARK Flexibility Score: inf
ROOT
ATOM      1  C   UNL     1      23.654   5.728  -1.968  1.00  0.00     0.180 A 
ATOM      2  C   UNL     1      23.966   4.642  -1.132  1.00  0.00     0.208 A 
ATOM      3  C   UNL     1      23.778   4.774   0.254  1.00  0.00     0.238 A 
ATOM      4  O   UNL     1      24.008   3.780   0.992  1.00  0.00    -0.285 OA
ATOM      5  C   UNL     1      23.296   5.994   0.786  1.00  0.00     0.111 A 
ATOM      6  C   UNL     1      23.107   6.252   2.177  1.00  0.00     0.134 A 
ATOM      7  C   UNL     1      22.502   7.450   2.581  1.00  0.00     0.093 A 
ATOM      8  C   UNL     1      22.141   8.423   1.651  1.00  0.00     0.123 A 
ATOM      9  C   UNL     1      22.376   8.206   0.293  1.00  0.00     0.094 A 
ATOM     10  C   UNL     1      22.945   7.007  -0.144  1.00  0.00     0.146 A 
ATOM     11  O   UNL     1      23.142   6.835  -1.445  1.00  0.00    -0.452 OA
ENDROOT
BRANCH   1  12
ATOM     12  C   UNL     1      23.849   5.672  -3.435  1.00  0.00     0.025 A 
ATOM     13  C   UNL     1      22.728   5.639  -4.279  1.00  0.00     0.016 A 
ATOM     14  C   UNL     1      22.888   5.608  -5.667  1.00  0.00     0.051 A 
ATOM     15  C   UNL     1      24.167   5.625  -6.232  1.00  0.00     0.157 A 
ATOM     16  C   UNL     1      25.134   5.711  -4.005  1.00  0.00     0.062 A 
ATOM     17  C   UNL     1      25.296   5.682  -5.399  1.00  0.00     0.158 A 
BRANCH  15  18
ATOM     18  O   UNL     1      24.296   5.591  -7.620  1.00  0.00    -0.504 OA
ATOM     19  H   UNL     1      23.608   5.144  -8.213  1.00  0.00     0.293 HD
ENDBRANCH  15  18
BRANCH  17  20
ATOM     20  O   UNL     1      26.574   5.714  -5.955  1.00  0.00    -0.504 OA
ATOM     21  H   UNL     1      27.379   6.016  -5.419  1.00  0.00     0.293 HD
ENDBRANCH  17  20
ENDBRANCH   1  12
BRANCH   2  22
ATOM     22  O   UNL     1      24.419   3.439  -1.680  1.00  0.00    -0.502 OA
ATOM     23  H   UNL     1      25.277   2.994  -1.381  1.00  0.00     0.293 HD
ENDBRANCH   2  22
BRANCH   6  24
ATOM     24  O   UNL     1      23.516   5.386   3.195  1.00  0.00    -0.507 OA
ATOM     25  H   UNL     1      23.045   5.275   4.080  1.00  0.00     0.293 HD
ENDBRANCH   6  24
BRANCH   8  26
ATOM     26  O   UNL     1      21.555   9.609   2.090  1.00  0.00    -0.508 OA
ATOM     27  H   UNL     1      21.810  10.029   2.976  1.00  0.00     0.293 HD
ENDBRANCH   8  26
TORSDOF 6
ENDMDL
