MODEL 1
REMARK VINA RESULT:    -3.418      0.000      0.000
REMARK INTER + INTRA:          -3.454
REMARK INTER:                  -4.217
REMARK INTRA:                   0.764
REMARK UNBOUND:                 0.764
REMARK SMILES CC1=CC=CC(C)(C)CC1=O
REMARK SMILES IDX 1 1 2 2 3 3 10 4 11 5 9 6 4 8 5 9 6 10 7 11 8 12
REMARK H PARENT
REMARK Flexibility Score: 80.00
ROOT
ATOM      1  C   UNL     1       7.610 -11.131 -45.839  1.00  0.00     0.048 C 
ATOM      2  C   UNL     1       9.060 -11.166 -45.418  1.00  0.00    -0.008 C 
ATOM      3  C   UNL     1       9.605 -10.023 -44.950  1.00  0.00     0.007 C 
ENDROOT
BRANCH   2   4
ATOM      4  C   UNL     1       9.750 -12.479 -45.483  1.00  0.00     0.159 C 
ATOM      5  O   UNL     1       9.064 -13.518 -45.691  1.00  0.00    -0.295 OA
BRANCH   4   6
ATOM      6  C   UNL     1      11.231 -12.644 -45.326  1.00  0.00     0.091 CG0
ATOM      7  G   UNL     1      11.758 -12.142 -43.964  1.00  0.00     0.000 G0
ENDBRANCH   4   6
ENDBRANCH   2   4
BRANCH   3   8
ATOM      8  C   UNL     1      10.972  -9.757 -44.444  1.00  0.00    -0.003 C 
ATOM      9  C   UNL     1      11.896 -10.625 -44.013  1.00  0.00    -0.020 C 
BRANCH   9  10
ATOM     10  C   UNL     1      11.762 -12.129 -43.966  1.00  0.00    -0.010 CG0
ATOM     11  C   UNL     1      10.867 -12.542 -42.774  1.00  0.00     0.016 C 
ATOM     12  C   UNL     1      13.167 -12.734 -43.739  1.00  0.00     0.016 C 
ATOM     13  G   UNL     1      11.228 -12.648 -45.319  1.00  0.00     0.000 G0
ENDBRANCH   9  10
ENDBRANCH   3   8
TORSDOF 0
ENDMDL
MODEL 2
REMARK VINA RESULT:    -3.389      1.476      2.466
REMARK INTER + INTRA:          -3.417
REMARK INTER:                  -4.159
REMARK INTRA:                   0.741
REMARK UNBOUND:                 0.764
REMARK SMILES CC1=CC=CC(C)(C)CC1=O
REMARK SMILES IDX 1 1 2 2 3 3 10 4 11 5 9 6 4 8 5 9 6 10 7 11 8 12
REMARK H PARENT
REMARK Flexibility Score: 80.00
ROOT
ATOM      1  C   UNL     1      10.115  -8.195 -43.684  1.00  0.00     0.048 C 
ATOM      2  C   UNL     1      10.658  -9.505 -44.205  1.00  0.00    -0.008 C 
ATOM      3  C   UNL     1      11.924  -9.836 -43.869  1.00  0.00     0.007 C 
ENDROOT
BRANCH   2   4
ATOM      4  C   UNL     1       9.728 -10.359 -44.984  1.00  0.00     0.159 C 
ATOM      5  O   UNL     1       8.503 -10.056 -45.014  1.00  0.00    -0.295 OA
BRANCH   4   6
ATOM      6  C   UNL     1      10.164 -11.567 -45.756  1.00  0.00     0.091 CG0
ATOM      7  G   UNL     1      10.842 -12.640 -44.875  1.00  0.00     0.000 G0
ENDBRANCH   4   6
ENDBRANCH   2   4
BRANCH   3   8
ATOM      8  C   UNL     1      12.710 -11.048 -44.200  1.00  0.00    -0.003 C 
ATOM      9  C   UNL     1      12.280 -12.246 -44.617  1.00  0.00    -0.020 C 
BRANCH   9  10
ATOM     10  C   UNL     1      10.846 -12.643 -44.878  1.00  0.00    -0.010 CG0
ATOM     11  C   UNL     1      10.118 -12.904 -43.539  1.00  0.00     0.016 C 
ATOM     12  C   UNL     1      10.849 -13.962 -45.685  1.00  0.00     0.016 C 
ATOM     13  G   UNL     1      10.152 -11.559 -45.732  1.00  0.00     0.000 G0
ENDBRANCH   9  10
ENDBRANCH   3   8
TORSDOF 0
ENDMDL
MODEL 3
REMARK VINA RESULT:    -3.269      1.731      3.118
REMARK INTER + INTRA:          -3.270
REMARK INTER:                  -4.017
REMARK INTRA:                   0.747
REMARK UNBOUND:                 0.764
REMARK SMILES CC1=CC=CC(C)(C)CC1=O
REMARK SMILES IDX 1 1 2 2 3 3 10 4 11 5 9 6 4 8 5 9 6 10 7 11 8 12
REMARK H PARENT
REMARK Flexibility Score: 80.00
ROOT
ATOM      1  C   UNL     1      11.619  -8.687 -44.031  1.00  0.00     0.048 C 
ATOM      2  C   UNL     1      10.805  -9.945 -44.224  1.00  0.00    -0.008 C 
ATOM      3  C   UNL     1       9.711  -9.868 -45.012  1.00  0.00     0.007 C 
ENDROOT
BRANCH   2   4
ATOM      4  C   UNL     1      11.318 -11.185 -43.590  1.00  0.00     0.159 C 
ATOM      5  O   UNL     1      12.492 -11.191 -43.127  1.00  0.00    -0.295 OA
BRANCH   4   6
ATOM      6  C   UNL     1      10.511 -12.440 -43.455  1.00  0.00     0.091 CG0
ATOM      7  G   UNL     1      10.068 -13.027 -44.813  1.00  0.00     0.000 G0
ENDBRANCH   4   6
ENDBRANCH   2   4
BRANCH   3   8
ATOM      8  C   UNL     1       8.746 -10.922 -45.405  1.00  0.00    -0.003 C 
ATOM      9  C   UNL     1       8.878 -12.253 -45.345  1.00  0.00    -0.020 C 
BRANCH   9  10
ATOM     10  C   UNL     1      10.074 -13.013 -44.822  1.00  0.00    -0.010 CG0
ATOM     11  C   UNL     1      11.208 -13.002 -45.873  1.00  0.00     0.016 C 
ATOM     12  C   UNL     1       9.651 -14.483 -44.592  1.00  0.00     0.016 C 
ATOM     13  G   UNL     1      10.514 -12.422 -43.464  1.00  0.00     0.000 G0
ENDBRANCH   9  10
ENDBRANCH   3   8
TORSDOF 0
ENDMDL
MODEL 4
REMARK VINA RESULT:    -3.209      1.598      3.476
REMARK INTER + INTRA:          -3.196
REMARK INTER:                  -3.937
REMARK INTRA:                   0.741
REMARK UNBOUND:                 0.764
REMARK SMILES CC1=CC=CC(C)(C)CC1=O
REMARK SMILES IDX 1 1 2 2 3 3 10 4 11 5 9 6 4 8 5 9 6 10 7 11 8 12
REMARK H PARENT
REMARK Flexibility Score: 80.00
ROOT
ATOM      1  C   UNL     1      14.010 -11.834 -43.382  1.00  0.00     0.048 C 
ATOM      2  C   UNL     1      12.551 -11.762 -43.766  1.00  0.00    -0.008 C 
ATOM      3  C   UNL     1      12.073 -10.573 -44.192  1.00  0.00     0.007 C 
ENDROOT
BRANCH   2   4
ATOM      4  C   UNL     1      11.777 -13.028 -43.716  1.00  0.00     0.159 C 
ATOM      5  O   UNL     1      12.397 -14.114 -43.545  1.00  0.00    -0.295 OA
BRANCH   4   6
ATOM      6  C   UNL     1      10.286 -13.091 -43.845  1.00  0.00     0.091 CG0
ATOM      7  G   UNL     1       9.764 -12.492 -45.170  1.00  0.00     0.000 G0
ENDBRANCH   4   6
ENDBRANCH   2   4
BRANCH   3   8
ATOM      8  C   UNL     1      10.715 -10.205 -44.656  1.00  0.00    -0.003 C 
ATOM      9  C   UNL     1       9.724 -10.999 -45.082  1.00  0.00    -0.020 C 
BRANCH   9  10
ATOM     10  C   UNL     1       9.756 -12.507 -45.167  1.00  0.00    -0.010 CG0
ATOM     11  C   UNL     1      10.570 -12.949 -46.405  1.00  0.00     0.016 C 
ATOM     12  C   UNL     1       8.305 -13.012 -45.345  1.00  0.00     0.016 C 
ATOM     13  G   UNL     1      10.310 -13.092 -43.849  1.00  0.00     0.000 G0
ENDBRANCH   9  10
ENDBRANCH   3   8
TORSDOF 0
ENDMDL
MODEL 5
REMARK VINA RESULT:    -3.155      1.760      3.319
REMARK INTER + INTRA:          -3.129
REMARK INTER:                  -3.903
REMARK INTRA:                   0.774
REMARK UNBOUND:                 0.764
REMARK SMILES CC1=CC=CC(C)(C)CC1=O
REMARK SMILES IDX 1 1 2 2 3 3 10 4 11 5 9 6 4 8 5 9 6 10 7 11 8 12
REMARK H PARENT
REMARK Flexibility Score: 80.00
ROOT
ATOM      1  C   UNL     1      10.838  -9.308 -44.589  1.00  0.00     0.048 C 
ATOM      2  C   UNL     1      10.064 -10.582 -44.832  1.00  0.00    -0.008 C 
ATOM      3  C   UNL     1       8.853 -10.478 -45.421  1.00  0.00     0.007 C 
ENDROOT
BRANCH   2   4
ATOM      4  C   UNL     1      10.732 -11.857 -44.468  1.00  0.00     0.159 C 
ATOM      5  O   UNL     1      11.959 -11.838 -44.172  1.00  0.00    -0.295 OA
BRANCH   4   6
ATOM      6  C   UNL     1      10.025 -13.177 -44.420  1.00  0.00     0.091 CG0
ATOM      7  G   UNL     1       9.392 -13.578 -45.771  1.00  0.00     0.000 G0
ENDBRANCH   4   6
ENDBRANCH   2   4
BRANCH   3   8
ATOM      8  C   UNL     1       7.889 -11.534 -45.807  1.00  0.00    -0.003 C 
ATOM      9  C   UNL     1       8.095 -12.847 -45.973  1.00  0.00    -0.020 C 
BRANCH   9  10
ATOM     10  C   UNL     1       9.400 -13.582 -45.774  1.00  0.00    -0.010 CG0
ATOM     11  C   UNL     1      10.347 -13.308 -46.966  1.00  0.00     0.016 C 
ATOM     12  C   UNL     1       9.101 -15.099 -45.741  1.00  0.00     0.016 C 
ATOM     13  G   UNL     1      10.020 -13.185 -44.416  1.00  0.00     0.000 G0
ENDBRANCH   9  10
ENDBRANCH   3   8
TORSDOF 0
ENDMDL
MODEL 6
REMARK VINA RESULT:    -2.991     11.748     13.001
REMARK INTER + INTRA:          -2.926
REMARK INTER:                  -3.687
REMARK INTRA:                   0.761
REMARK UNBOUND:                 0.764
REMARK SMILES CC1=CC=CC(C)(C)CC1=O
REMARK SMILES IDX 1 1 2 2 3 3 10 4 11 5 9 6 4 8 5 9 6 10 7 11 8 12
REMARK H PARENT
REMARK Flexibility Score: 80.00
ROOT
ATOM      1  C   UNL     1       7.095 -19.744 -36.013  1.00  0.00     0.048 C 
ATOM      2  C   UNL     1       8.262 -20.703 -36.039  1.00  0.00    -0.008 C 
ATOM      3  C   UNL     1       8.236 -21.745 -35.181  1.00  0.00     0.007 C 
ENDROOT
BRANCH   2   4
ATOM      4  C   UNL     1       9.311 -20.462 -37.061  1.00  0.00     0.159 C 
ATOM      5  O   UNL     1       9.093 -19.613 -37.968  1.00  0.00    -0.295 OA
BRANCH   4   6
ATOM      6  C   UNL     1      10.633 -21.168 -37.072  1.00  0.00     0.091 CG0
ATOM      7  G   UNL     1      10.502 -22.704 -37.174  1.00  0.00     0.000 G0
ENDBRANCH   4   6
ENDBRANCH   2   4
BRANCH   3   8
ATOM      8  C   UNL     1       9.207 -22.849 -34.994  1.00  0.00    -0.003 C 
ATOM      9  C   UNL     1      10.163 -23.282 -35.825  1.00  0.00    -0.020 C 
BRANCH   9  10
ATOM     10  C   UNL     1      10.500 -22.709 -37.182  1.00  0.00    -0.010 CG0
ATOM     11  C   UNL     1       9.444 -23.154 -38.220  1.00  0.00     0.016 C 
ATOM     12  C   UNL     1      11.869 -23.277 -37.621  1.00  0.00     0.016 C 
ATOM     13  G   UNL     1      10.626 -21.173 -37.082  1.00  0.00     0.000 G0
ENDBRANCH   9  10
ENDBRANCH   3   8
TORSDOF 0
ENDMDL
MODEL 7
REMARK VINA RESULT:    -2.867     10.790     12.419
REMARK INTER + INTRA:          -2.774
REMARK INTER:                  -3.530
REMARK INTRA:                   0.756
REMARK UNBOUND:                 0.764
REMARK SMILES CC1=CC=CC(C)(C)CC1=O
REMARK SMILES IDX 1 1 2 2 3 3 10 4 11 5 9 6 4 8 5 9 6 10 7 11 8 12
REMARK H PARENT
REMARK Flexibility Score: 80.00
ROOT
ATOM      1  C   UNL     1       9.718 -23.469 -34.862  1.00  0.00     0.048 C 
ATOM      2  C   UNL     1       9.298 -22.367 -35.806  1.00  0.00    -0.008 C 
ATOM      3  C   UNL     1       8.343 -21.510 -35.384  1.00  0.00     0.007 C 
ENDROOT
BRANCH   2   4
ATOM      4  C   UNL     1      10.025 -22.269 -37.096  1.00  0.00     0.159 C 
ATOM      5  O   UNL     1      11.066 -22.964 -37.262  1.00  0.00    -0.295 OA
BRANCH   4   6
ATOM      6  C   UNL     1       9.584 -21.396 -38.231  1.00  0.00     0.091 CG0
ATOM      7  G   UNL     1       9.510 -19.900 -37.853  1.00  0.00     0.000 G0
ENDBRANCH   4   6
ENDBRANCH   2   4
BRANCH   3   8
ATOM      8  C   UNL     1       7.753 -20.333 -36.063  1.00  0.00    -0.003 C 
ATOM      9  C   UNL     1       8.230 -19.627 -37.096  1.00  0.00    -0.020 C 
BRANCH   9  10
ATOM     10  C   UNL     1       9.512 -19.894 -37.849  1.00  0.00    -0.010 CG0
ATOM     11  C   UNL     1      10.724 -19.416 -37.015  1.00  0.00     0.016 C 
ATOM     12  C   UNL     1       9.483 -19.074 -39.160  1.00  0.00     0.016 C 
ATOM     13  G   UNL     1       9.597 -21.391 -38.220  1.00  0.00     0.000 G0
ENDBRANCH   9  10
ENDBRANCH   3   8
TORSDOF 0
ENDMDL
MODEL 8
REMARK VINA RESULT:    -2.777      9.428     10.971
REMARK INTER + INTRA:          -2.662
REMARK INTER:                  -3.413
REMARK INTRA:                   0.751
REMARK UNBOUND:                 0.764
REMARK SMILES CC1=CC=CC(C)(C)CC1=O
REMARK SMILES IDX 1 1 2 2 3 3 10 4 11 5 9 6 4 8 5 9 6 10 7 11 8 12
REMARK H PARENT
REMARK Flexibility Score: 80.00
ROOT
ATOM      1  C   UNL     1       4.950 -15.915 -33.803  1.00  0.00     0.048 C 
ATOM      2  C   UNL     1       5.558 -16.525 -35.043  1.00  0.00    -0.008 C 
ATOM      3  C   UNL     1       5.839 -17.846 -35.020  1.00  0.00     0.007 C 
ENDROOT
BRANCH   2   4
ATOM      4  C   UNL     1       5.729 -15.635 -36.219  1.00  0.00     0.159 C 
ATOM      5  O   UNL     1       5.176 -14.500 -36.208  1.00  0.00    -0.295 OA
BRANCH   4   6
ATOM      6  C   UNL     1       6.537 -16.002 -37.425  1.00  0.00     0.091 CG0
ATOM      7  G   UNL     1       6.023 -17.273 -38.138  1.00  0.00     0.000 G0
ENDBRANCH   4   6
ENDBRANCH   2   4
BRANCH   3   8
ATOM      8  C   UNL     1       6.405 -18.717 -36.076  1.00  0.00    -0.003 C 
ATOM      9  C   UNL     1       6.481 -18.504 -37.396  1.00  0.00    -0.020 C 
BRANCH   9  10
ATOM     10  C   UNL     1       6.013 -17.272 -38.134  1.00  0.00    -0.010 CG0
ATOM     11  C   UNL     1       4.473 -17.293 -38.274  1.00  0.00     0.016 C 
ATOM     12  C   UNL     1       6.621 -17.298 -39.556  1.00  0.00     0.016 C 
ATOM     13  G   UNL     1       6.529 -16.006 -37.415  1.00  0.00     0.000 G0
ENDBRANCH   9  10
ENDBRANCH   3   8
TORSDOF 0
ENDMDL
MODEL 9
REMARK VINA RESULT:    -2.741      1.850      3.855
REMARK INTER + INTRA:          -2.619
REMARK INTER:                  -3.372
REMARK INTRA:                   0.753
REMARK UNBOUND:                 0.764
REMARK SMILES CC1=CC=CC(C)(C)CC1=O
REMARK SMILES IDX 1 1 2 2 3 3 10 4 11 5 9 6 4 8 5 9 6 10 7 11 8 12
REMARK H PARENT
REMARK Flexibility Score: 80.00
ROOT
ATOM      1  C   UNL     1      13.845 -11.887 -43.174  1.00  0.00     0.048 C 
ATOM      2  C   UNL     1      12.712 -12.197 -44.123  1.00  0.00    -0.008 C 
ATOM      3  C   UNL     1      12.913 -13.164 -45.044  1.00  0.00     0.007 C 
ENDROOT
BRANCH   2   4
ATOM      4  C   UNL     1      11.439 -11.462 -43.918  1.00  0.00     0.159 C 
ATOM      5  O   UNL     1      11.299 -10.767 -42.874  1.00  0.00    -0.295 OA
BRANCH   4   6
ATOM      6  C   UNL     1      10.302 -11.489 -44.893  1.00  0.00     0.091 CG0
ATOM      7  G   UNL     1       9.757 -12.911 -45.154  1.00  0.00     0.000 G0
ENDBRANCH   4   6
ENDBRANCH   2   4
BRANCH   3   8
ATOM      8  C   UNL     1      11.995 -13.701 -46.076  1.00  0.00    -0.003 C 
ATOM      9  C   UNL     1      10.660 -13.618 -46.145  1.00  0.00    -0.020 C 
BRANCH   9  10
ATOM     10  C   UNL     1       9.754 -12.912 -45.164  1.00  0.00    -0.010 CG0
ATOM     11  C   UNL     1       9.602 -13.760 -43.880  1.00  0.00     0.016 C 
ATOM     12  C   UNL     1       8.357 -12.771 -45.811  1.00  0.00     0.016 C 
ATOM     13  G   UNL     1      10.297 -11.493 -44.881  1.00  0.00     0.000 G0
ENDBRANCH   9  10
ENDBRANCH   3   8
TORSDOF 0
ENDMDL
