MODEL 1
REMARK VINA RESULT:    -3.775      0.000      0.000
REMARK INTER + INTRA:          -5.612
REMARK INTER:                  -5.099
REMARK INTRA:                  -0.513
REMARK UNBOUND:                -0.513
REMARK SMILES CCCCCCCC(=O)[O-]
REMARK SMILES IDX 5 1 6 2 7 3 8 4 9 5 10 6 4 7 3 8 2 9 1 10
REMARK H PARENT
REMARK Flexibility Score: inf
ROOT
ATOM      1  C   UNL     1     113.287 110.119 120.850  1.00  0.00     0.000 C 
ENDROOT
BRANCH   1   2
ATOM      2  C   UNL     1     111.936 110.290 121.562  1.00  0.00     0.006 C 
BRANCH   2   3
ATOM      3  C   UNL     1     111.950 111.520 122.474  1.00  0.00     0.053 C 
BRANCH   3   4
ATOM      4  C   UNL     1     111.696 112.763 121.680  1.00  0.00     0.041 C 
ATOM      5  O   UNL     1     112.274 113.839 121.986  1.00  0.00    -0.550 OA
ATOM      6  O   UNL     1     110.784 112.744 120.632  1.00  0.00    -0.550 OA
ENDBRANCH   3   4
ENDBRANCH   2   3
ENDBRANCH   1   2
BRANCH   1   7
ATOM      7  C   UNL     1     114.301 109.324 121.687  1.00  0.00     0.000 C 
BRANCH   7   8
ATOM      8  C   UNL     1     115.657 110.040 121.811  1.00  0.00    -0.000 C 
BRANCH   8   9
ATOM      9  C   UNL     1     115.611 111.225 122.787  1.00  0.00    -0.003 C 
ATOM     10  C   UNL     1     115.848 112.567 122.096  1.00  0.00     0.004 C 
ENDBRANCH   8   9
ENDBRANCH   7   8
ENDBRANCH   1   7
TORSDOF 6
ENDMDL
MODEL 2
REMARK VINA RESULT:    -3.653      1.892      3.751
REMARK INTER + INTRA:          -5.447
REMARK INTER:                  -4.923
REMARK INTRA:                  -0.524
REMARK UNBOUND:                -0.513
REMARK SMILES CCCCCCCC(=O)[O-]
REMARK SMILES IDX 5 1 6 2 7 3 8 4 9 5 10 6 4 7 3 8 2 9 1 10
REMARK H PARENT
REMARK Flexibility Score: inf
ROOT
ATOM      1  C   UNL     1     114.467 109.251 121.614  1.00  0.00     0.000 C 
ENDROOT
BRANCH   1   2
ATOM      2  C   UNL     1     115.729 110.076 121.908  1.00  0.00     0.006 C 
BRANCH   2   3
ATOM      3  C   UNL     1     115.392 111.315 122.742  1.00  0.00     0.053 C 
BRANCH   3   4
ATOM      4  C   UNL     1     116.005 112.538 122.135  1.00  0.00     0.041 C 
ATOM      5  O   UNL     1     117.136 112.935 122.516  1.00  0.00    -0.550 OA
ATOM      6  O   UNL     1     115.304 113.266 121.182  1.00  0.00    -0.550 OA
ENDBRANCH   3   4
ENDBRANCH   2   3
ENDBRANCH   1   2
BRANCH   1   7
ATOM      7  C   UNL     1     113.319 110.107 121.055  1.00  0.00     0.000 C 
BRANCH   7   8
ATOM      8  C   UNL     1     112.003 109.910 121.829  1.00  0.00    -0.000 C 
BRANCH   8   9
ATOM      9  C   UNL     1     111.637 111.131 122.686  1.00  0.00    -0.003 C 
ATOM     10  C   UNL     1     111.883 112.454 121.962  1.00  0.00     0.004 C 
ENDBRANCH   8   9
ENDBRANCH   7   8
ENDBRANCH   1   7
TORSDOF 6
ENDMDL
MODEL 3
REMARK VINA RESULT:    -3.604      1.985      3.736
REMARK INTER + INTRA:          -5.382
REMARK INTER:                  -4.852
REMARK INTRA:                  -0.529
REMARK UNBOUND:                -0.513
REMARK SMILES CCCCCCCC(=O)[O-]
REMARK SMILES IDX 5 1 6 2 7 3 8 4 9 5 10 6 4 7 3 8 2 9 1 10
REMARK H PARENT
REMARK Flexibility Score: inf
ROOT
ATOM      1  C   UNL     1     113.138 109.967 120.786  1.00  0.00     0.000 C 
ENDROOT
BRANCH   1   2
ATOM      2  C   UNL     1     114.441 109.342 121.309  1.00  0.00     0.006 C 
BRANCH   2   3
ATOM      3  C   UNL     1     115.631 110.274 121.065  1.00  0.00     0.053 C 
BRANCH   3   4
ATOM      4  C   UNL     1     115.541 111.480 121.945  1.00  0.00     0.041 C 
ATOM      5  O   UNL     1     115.399 111.348 123.189  1.00  0.00    -0.550 OA
ATOM      6  O   UNL     1     115.566 112.752 121.386  1.00  0.00    -0.550 OA
ENDBRANCH   3   4
ENDBRANCH   2   3
ENDBRANCH   1   2
BRANCH   1   7
ATOM      7  C   UNL     1     111.991 109.882 121.806  1.00  0.00     0.000 C 
BRANCH   7   8
ATOM      8  C   UNL     1     111.788 111.197 122.579  1.00  0.00    -0.000 C 
BRANCH   8   9
ATOM      9  C   UNL     1     111.329 112.349 121.673  1.00  0.00    -0.003 C 
ATOM     10  C   UNL     1     112.196 113.599 121.823  1.00  0.00     0.004 C 
ENDBRANCH   8   9
ENDBRANCH   7   8
ENDBRANCH   1   7
TORSDOF 6
ENDMDL
MODEL 4
REMARK VINA RESULT:    -3.390      1.330      2.618
REMARK INTER + INTRA:          -5.093
REMARK INTER:                  -4.538
REMARK INTRA:                  -0.555
REMARK UNBOUND:                -0.513
REMARK SMILES CCCCCCCC(=O)[O-]
REMARK SMILES IDX 5 1 6 2 7 3 8 4 9 5 10 6 4 7 3 8 2 9 1 10
REMARK H PARENT
REMARK Flexibility Score: inf
ROOT
ATOM      1  C   UNL     1     115.287 112.597 121.457  1.00  0.00     0.000 C 
ENDROOT
BRANCH   1   2
ATOM      2  C   UNL     1     114.018 113.453 121.332  1.00  0.00     0.006 C 
BRANCH   2   3
ATOM      3  C   UNL     1     112.887 112.662 120.669  1.00  0.00     0.053 C 
BRANCH   3   4
ATOM      4  C   UNL     1     111.699 112.585 121.575  1.00  0.00     0.041 C 
ATOM      5  O   UNL     1     110.843 113.508 121.578  1.00  0.00    -0.550 OA
ATOM      6  O   UNL     1     111.563 111.516 122.453  1.00  0.00    -0.550 OA
ENDBRANCH   3   4
ENDBRANCH   2   3
ENDBRANCH   1   2
BRANCH   1   7
ATOM      7  C   UNL     1     115.187 111.551 122.579  1.00  0.00     0.000 C 
BRANCH   7   8
ATOM      8  C   UNL     1     115.614 110.146 122.119  1.00  0.00    -0.000 C 
BRANCH   8   9
ATOM      9  C   UNL     1     114.427 109.299 121.634  1.00  0.00    -0.003 C 
ATOM     10  C   UNL     1     114.326 109.244 120.110  1.00  0.00     0.004 C 
ENDBRANCH   8   9
ENDBRANCH   7   8
ENDBRANCH   1   7
TORSDOF 6
ENDMDL
MODEL 5
REMARK VINA RESULT:    -3.336      9.574     11.161
REMARK INTER + INTRA:          -5.019
REMARK INTER:                  -4.801
REMARK INTRA:                  -0.218
REMARK UNBOUND:                -0.513
REMARK SMILES CCCCCCCC(=O)[O-]
REMARK SMILES IDX 5 1 6 2 7 3 8 4 9 5 10 6 4 7 3 8 2 9 1 10
REMARK H PARENT
REMARK Flexibility Score: inf
ROOT
ATOM      1  C   UNL     1     102.920 108.283 116.751  1.00  0.00     0.000 C 
ENDROOT
BRANCH   1   2
ATOM      2  C   UNL     1     103.203 109.791 116.814  1.00  0.00     0.006 C 
BRANCH   2   3
ATOM      3  C   UNL     1     101.899 110.594 116.780  1.00  0.00     0.053 C 
BRANCH   3   4
ATOM      4  C   UNL     1     102.004 111.723 115.804  1.00  0.00     0.041 C 
ATOM      5  O   UNL     1     102.777 111.635 114.814  1.00  0.00    -0.550 OA
ATOM      6  O   UNL     1     101.285 112.893 116.015  1.00  0.00    -0.550 OA
ENDBRANCH   3   4
ENDBRANCH   2   3
ENDBRANCH   1   2
BRANCH   1   7
ATOM      7  C   UNL     1     104.193 107.435 116.909  1.00  0.00     0.000 C 
BRANCH   7   8
ATOM      8  C   UNL     1     105.257 108.122 117.783  1.00  0.00    -0.000 C 
BRANCH   8   9
ATOM      9  C   UNL     1     105.843 107.181 118.846  1.00  0.00    -0.003 C 
ATOM     10  C   UNL     1     106.508 107.934 119.998  1.00  0.00     0.004 C 
ENDBRANCH   8   9
ENDBRANCH   7   8
ENDBRANCH   1   7
TORSDOF 6
ENDMDL
MODEL 6
REMARK VINA RESULT:    -3.316      2.390      4.273
REMARK INTER + INTRA:          -4.992
REMARK INTER:                  -4.340
REMARK INTRA:                  -0.652
REMARK UNBOUND:                -0.513
REMARK SMILES CCCCCCCC(=O)[O-]
REMARK SMILES IDX 5 1 6 2 7 3 8 4 9 5 10 6 4 7 3 8 2 9 1 10
REMARK H PARENT
REMARK Flexibility Score: inf
ROOT
ATOM      1  C   UNL     1     112.713 113.668 121.635  1.00  0.00     0.000 C 
ENDROOT
BRANCH   1   2
ATOM      2  C   UNL     1     113.876 113.260 120.718  1.00  0.00     0.006 C 
BRANCH   2   3
ATOM      3  C   UNL     1     115.163 113.060 121.523  1.00  0.00     0.053 C 
BRANCH   3   4
ATOM      4  C   UNL     1     115.363 111.612 121.841  1.00  0.00     0.041 C 
ATOM      5  O   UNL     1     115.322 110.750 120.925  1.00  0.00    -0.550 OA
ATOM      6  O   UNL     1     115.546 111.209 123.158  1.00  0.00    -0.550 OA
ENDBRANCH   3   4
ENDBRANCH   2   3
ENDBRANCH   1   2
BRANCH   1   7
ATOM      7  C   UNL     1     111.565 112.647 121.624  1.00  0.00     0.000 C 
BRANCH   7   8
ATOM      8  C   UNL     1     111.767 111.516 122.647  1.00  0.00    -0.000 C 
BRANCH   8   9
ATOM      9  C   UNL     1     111.980 110.149 121.980  1.00  0.00    -0.003 C 
ATOM     10  C   UNL     1     111.824 110.205 120.460  1.00  0.00     0.004 C 
ENDBRANCH   8   9
ENDBRANCH   7   8
ENDBRANCH   1   7
TORSDOF 6
ENDMDL
MODEL 7
REMARK VINA RESULT:    -3.253      1.622      2.464
REMARK INTER + INTRA:          -4.907
REMARK INTER:                  -4.486
REMARK INTRA:                  -0.421
REMARK UNBOUND:                -0.513
REMARK SMILES CCCCCCCC(=O)[O-]
REMARK SMILES IDX 5 1 6 2 7 3 8 4 9 5 10 6 4 7 3 8 2 9 1 10
REMARK H PARENT
REMARK Flexibility Score: inf
ROOT
ATOM      1  C   UNL     1     112.624 111.532 122.389  1.00  0.00     0.000 C 
ENDROOT
BRANCH   1   2
ATOM      2  C   UNL     1     111.697 112.505 121.645  1.00  0.00     0.006 C 
BRANCH   2   3
ATOM      3  C   UNL     1     112.104 112.631 120.174  1.00  0.00     0.053 C 
BRANCH   3   4
ATOM      4  C   UNL     1     110.916 112.447 119.284  1.00  0.00     0.041 C 
ATOM      5  O   UNL     1     109.844 111.979 119.747  1.00  0.00    -0.550 OA
ATOM      6  O   UNL     1     111.009 112.747 117.930  1.00  0.00    -0.550 OA
ENDBRANCH   3   4
ENDBRANCH   2   3
ENDBRANCH   1   2
BRANCH   1   7
ATOM      7  C   UNL     1     112.542 110.099 121.840  1.00  0.00     0.000 C 
BRANCH   7   8
ATOM      8  C   UNL     1     113.907 109.565 121.372  1.00  0.00    -0.000 C 
BRANCH   8   9
ATOM      9  C   UNL     1     115.048 110.559 121.632  1.00  0.00    -0.003 C 
ATOM     10  C   UNL     1     116.126 109.991 122.554  1.00  0.00     0.004 C 
ENDBRANCH   8   9
ENDBRANCH   7   8
ENDBRANCH   1   7
TORSDOF 6
ENDMDL
MODEL 8
REMARK VINA RESULT:    -3.243      1.889      3.735
REMARK INTER + INTRA:          -4.893
REMARK INTER:                  -4.259
REMARK INTRA:                  -0.634
REMARK UNBOUND:                -0.513
REMARK SMILES CCCCCCCC(=O)[O-]
REMARK SMILES IDX 5 1 6 2 7 3 8 4 9 5 10 6 4 7 3 8 2 9 1 10
REMARK H PARENT
REMARK Flexibility Score: inf
ROOT
ATOM      1  C   UNL     1     113.509 109.656 121.353  1.00  0.00     0.000 C 
ENDROOT
BRANCH   1   2
ATOM      2  C   UNL     1     114.614 110.454 122.061  1.00  0.00     0.006 C 
BRANCH   2   3
ATOM      3  C   UNL     1     115.641 110.979 121.053  1.00  0.00     0.053 C 
BRANCH   3   4
ATOM      4  C   UNL     1     115.121 112.202 120.365  1.00  0.00     0.041 C 
ATOM      5  O   UNL     1     114.942 112.200 119.119  1.00  0.00    -0.550 OA
ATOM      6  O   UNL     1     114.880 113.360 121.094  1.00  0.00    -0.550 OA
ENDBRANCH   3   4
ENDBRANCH   2   3
ENDBRANCH   1   2
BRANCH   1   7
ATOM      7  C   UNL     1     112.098 110.117 121.752  1.00  0.00     0.000 C 
BRANCH   7   8
ATOM      8  C   UNL     1     112.094 111.505 122.417  1.00  0.00    -0.000 C 
BRANCH   8   9
ATOM      9  C   UNL     1     111.197 112.509 121.678  1.00  0.00    -0.003 C 
ATOM     10  C   UNL     1     111.415 112.492 120.165  1.00  0.00     0.004 C 
ENDBRANCH   8   9
ENDBRANCH   7   8
ENDBRANCH   1   7
TORSDOF 6
ENDMDL
MODEL 9
REMARK VINA RESULT:    -3.239      1.799      2.781
REMARK INTER + INTRA:          -4.888
REMARK INTER:                  -4.378
REMARK INTRA:                  -0.511
REMARK UNBOUND:                -0.513
REMARK SMILES CCCCCCCC(=O)[O-]
REMARK SMILES IDX 5 1 6 2 7 3 8 4 9 5 10 6 4 7 3 8 2 9 1 10
REMARK H PARENT
REMARK Flexibility Score: inf
ROOT
ATOM      1  C   UNL     1     115.690 109.907 122.166  1.00  0.00     0.000 C 
ENDROOT
BRANCH   1   2
ATOM      2  C   UNL     1     114.540 109.221 121.414  1.00  0.00     0.006 C 
BRANCH   2   3
ATOM      3  C   UNL     1     113.202 109.897 121.725  1.00  0.00     0.053 C 
BRANCH   3   4
ATOM      4  C   UNL     1     112.525 110.325 120.462  1.00  0.00     0.041 C 
ATOM      5  O   UNL     1     111.362 110.804 120.497  1.00  0.00    -0.550 OA
ATOM      6  O   UNL     1     113.160 110.148 119.239  1.00  0.00    -0.550 OA
ENDBRANCH   3   4
ENDBRANCH   2   3
ENDBRANCH   1   2
BRANCH   1   7
ATOM      7  C   UNL     1     115.282 111.264 122.760  1.00  0.00     0.000 C 
BRANCH   7   8
ATOM      8  C   UNL     1     116.308 112.373 122.467  1.00  0.00    -0.000 C 
BRANCH   8   9
ATOM      9  C   UNL     1     115.949 113.190 121.217  1.00  0.00    -0.003 C 
ATOM     10  C   UNL     1     114.450 113.470 121.105  1.00  0.00     0.004 C 
ENDBRANCH   8   9
ENDBRANCH   7   8
ENDBRANCH   1   7
TORSDOF 6
ENDMDL
