MODEL 1
REMARK VINA RESULT:    -3.911      0.000      0.000
REMARK INTER + INTRA:          -5.376
REMARK INTER:                  -5.168
REMARK INTRA:                  -0.208
REMARK UNBOUND:                -0.208
REMARK SMILES CCCCCCCO
REMARK SMILES IDX 5 1 4 2 3 3 2 4 1 5 6 6 7 7 8 8
REMARK H PARENT 8 9
REMARK Flexibility Score: inf
ROOT
ATOM      1  C   UNL     1     -20.008  -4.380   0.110  1.00  0.00     0.002 C 
ENDROOT
BRANCH   1   2
ATOM      2  C   UNL     1     -20.530  -5.747  -0.357  1.00  0.00     0.000 C 
BRANCH   2   3
ATOM      3  C   UNL     1     -21.649  -6.250   0.561  1.00  0.00    -0.000 C 
BRANCH   3   4
ATOM      4  C   UNL     1     -21.791  -7.775   0.473  1.00  0.00    -0.003 C 
ATOM      5  C   UNL     1     -20.443  -8.439   0.210  1.00  0.00     0.004 C 
ENDBRANCH   3   4
ENDBRANCH   2   3
ENDBRANCH   1   2
BRANCH   1   6
ATOM      6  C   UNL     1     -19.375  -4.433   1.511  1.00  0.00     0.028 C 
BRANCH   6   7
ATOM      7  C   UNL     1     -17.906  -4.878   1.504  1.00  0.00     0.156 C 
BRANCH   7   8
ATOM      8  O   UNL     1     -17.047  -3.791   1.718  1.00  0.00    -0.396 OA
ATOM      9  H   UNL     1     -17.436  -3.020   1.227  1.00  0.00     0.210 HD
ENDBRANCH   7   8
ENDBRANCH   6   7
ENDBRANCH   1   6
TORSDOF 6
ENDMDL
MODEL 2
REMARK VINA RESULT:    -3.898      1.344      1.945
REMARK INTER + INTRA:          -5.360
REMARK INTER:                  -5.223
REMARK INTRA:                  -0.137
REMARK UNBOUND:                -0.208
REMARK SMILES CCCCCCCO
REMARK SMILES IDX 5 1 4 2 3 3 2 4 1 5 6 6 7 7 8 8
REMARK H PARENT 8 9
REMARK Flexibility Score: inf
ROOT
ATOM      1  C   UNL     1     -18.420  -5.313   1.481  1.00  0.00     0.002 C 
ENDROOT
BRANCH   1   2
ATOM      2  C   UNL     1     -19.761  -4.574   1.369  1.00  0.00     0.000 C 
BRANCH   2   3
ATOM      3  C   UNL     1     -20.820  -5.454   0.696  1.00  0.00    -0.000 C 
BRANCH   3   4
ATOM      4  C   UNL     1     -20.511  -6.942   0.901  1.00  0.00    -0.003 C 
ATOM      5  C   UNL     1     -21.590  -7.821   0.276  1.00  0.00     0.004 C 
ENDBRANCH   3   4
ENDBRANCH   2   3
ENDBRANCH   1   2
BRANCH   1   6
ATOM      6  C   UNL     1     -17.216  -4.357   1.514  1.00  0.00     0.028 C 
BRANCH   6   7
ATOM      7  C   UNL     1     -15.993  -4.934   2.241  1.00  0.00     0.156 C 
BRANCH   7   8
ATOM      8  O   UNL     1     -14.800  -4.526   1.628  1.00  0.00    -0.396 OA
ATOM      9  H   UNL     1     -14.489  -5.290   1.075  1.00  0.00     0.210 HD
ENDBRANCH   7   8
ENDBRANCH   6   7
ENDBRANCH   1   6
TORSDOF 6
ENDMDL
MODEL 3
REMARK VINA RESULT:    -3.677      1.763      3.742
REMARK INTER + INTRA:          -5.067
REMARK INTER:                  -4.887
REMARK INTRA:                  -0.180
REMARK UNBOUND:                -0.208
REMARK SMILES CCCCCCCO
REMARK SMILES IDX 5 1 4 2 3 3 2 4 1 5 6 6 7 7 8 8
REMARK H PARENT 8 9
REMARK Flexibility Score: inf
ROOT
ATOM      1  C   UNL     1     -21.605  -6.369   0.327  1.00  0.00     0.002 C 
ENDROOT
BRANCH   1   2
ATOM      2  C   UNL     1     -20.640  -5.697  -0.661  1.00  0.00     0.000 C 
BRANCH   2   3
ATOM      3  C   UNL     1     -20.201  -4.320  -0.150  1.00  0.00    -0.000 C 
BRANCH   3   4
ATOM      4  C   UNL     1     -19.900  -4.361   1.353  1.00  0.00    -0.003 C 
ATOM      5  C   UNL     1     -18.437  -4.708   1.613  1.00  0.00     0.004 C 
ENDBRANCH   3   4
ENDBRANCH   2   3
ENDBRANCH   1   2
BRANCH   1   6
ATOM      6  C   UNL     1     -21.641  -7.899   0.175  1.00  0.00     0.028 C 
BRANCH   6   7
ATOM      7  C   UNL     1     -20.300  -8.578   0.488  1.00  0.00     0.156 C 
BRANCH   7   8
ATOM      8  O   UNL     1     -19.625  -7.915   1.522  1.00  0.00    -0.396 OA
ATOM      9  H   UNL     1     -19.935  -6.971   1.504  1.00  0.00     0.210 HD
ENDBRANCH   7   8
ENDBRANCH   6   7
ENDBRANCH   1   6
TORSDOF 6
ENDMDL
MODEL 4
REMARK VINA RESULT:    -3.565      2.425      4.421
REMARK INTER + INTRA:          -4.920
REMARK INTER:                  -4.762
REMARK INTRA:                  -0.158
REMARK UNBOUND:                -0.208
REMARK SMILES CCCCCCCO
REMARK SMILES IDX 5 1 4 2 3 3 2 4 1 5 6 6 7 7 8 8
REMARK H PARENT 8 9
REMARK Flexibility Score: inf
ROOT
ATOM      1  C   UNL     1     -20.438  -4.664   0.250  1.00  0.00     0.002 C 
ENDROOT
BRANCH   1   2
ATOM      2  C   UNL     1     -19.636  -4.540   1.554  1.00  0.00     0.000 C 
BRANCH   2   3
ATOM      3  C   UNL     1     -18.268  -5.220   1.424  1.00  0.00    -0.000 C 
BRANCH   3   4
ATOM      4  C   UNL     1     -17.136  -4.258   1.803  1.00  0.00    -0.003 C 
ATOM      5  C   UNL     1     -15.811  -4.999   1.955  1.00  0.00     0.004 C 
ENDBRANCH   3   4
ENDBRANCH   2   3
ENDBRANCH   1   2
BRANCH   1   6
ATOM      6  C   UNL     1     -20.319  -6.057  -0.390  1.00  0.00     0.028 C 
BRANCH   6   7
ATOM      7  C   UNL     1     -21.264  -7.098   0.225  1.00  0.00     0.156 C 
BRANCH   7   8
ATOM      8  O   UNL     1     -22.553  -6.575   0.395  1.00  0.00    -0.396 OA
ATOM      9  H   UNL     1     -23.114  -7.311   0.755  1.00  0.00     0.210 HD
ENDBRANCH   7   8
ENDBRANCH   6   7
ENDBRANCH   1   6
TORSDOF 6
ENDMDL
MODEL 5
REMARK VINA RESULT:    -3.521      5.035      7.973
REMARK INTER + INTRA:          -4.861
REMARK INTER:                  -4.911
REMARK INTRA:                   0.051
REMARK UNBOUND:                -0.208
REMARK SMILES CCCCCCCO
REMARK SMILES IDX 5 1 4 2 3 3 2 4 1 5 6 6 7 7 8 8
REMARK H PARENT 8 9
REMARK Flexibility Score: inf
ROOT
ATOM      1  C   UNL     1     -14.067  -4.744   3.389  1.00  0.00     0.002 C 
ENDROOT
BRANCH   1   2
ATOM      2  C   UNL     1     -12.806  -5.618   3.471  1.00  0.00     0.000 C 
BRANCH   2   3
ATOM      3  C   UNL     1     -11.669  -5.023   2.634  1.00  0.00    -0.000 C 
BRANCH   3   4
ATOM      4  C   UNL     1     -11.797  -3.498   2.537  1.00  0.00    -0.003 C 
ATOM      5  C   UNL     1     -10.441  -2.846   2.282  1.00  0.00     0.004 C 
ENDBRANCH   3   4
ENDBRANCH   2   3
ENDBRANCH   1   2
BRANCH   1   6
ATOM      6  C   UNL     1     -14.776  -4.853   2.029  1.00  0.00     0.028 C 
BRANCH   6   7
ATOM      7  C   UNL     1     -16.308  -4.849   2.133  1.00  0.00     0.156 C 
BRANCH   7   8
ATOM      8  O   UNL     1     -16.844  -3.637   1.677  1.00  0.00    -0.396 OA
ATOM      9  H   UNL     1     -17.625  -3.868   1.109  1.00  0.00     0.210 HD
ENDBRANCH   7   8
ENDBRANCH   6   7
ENDBRANCH   1   6
TORSDOF 6
ENDMDL
MODEL 6
REMARK VINA RESULT:    -3.298     16.910     17.820
REMARK INTER + INTRA:          -4.567
REMARK INTER:                  -4.463
REMARK INTRA:                  -0.104
REMARK UNBOUND:                -0.208
REMARK SMILES CCCCCCCO
REMARK SMILES IDX 5 1 4 2 3 3 2 4 1 5 6 6 7 7 8 8
REMARK H PARENT 8 9
REMARK Flexibility Score: inf
ROOT
ATOM      1  C   UNL     1     -21.618   8.646  10.895  1.00  0.00     0.002 C 
ENDROOT
BRANCH   1   2
ATOM      2  C   UNL     1     -20.202   8.255  10.443  1.00  0.00     0.000 C 
BRANCH   2   3
ATOM      3  C   UNL     1     -19.142   9.073  11.188  1.00  0.00    -0.000 C 
BRANCH   3   4
ATOM      4  C   UNL     1     -17.861   9.202  10.356  1.00  0.00    -0.003 C 
ATOM      5  C   UNL     1     -17.812   8.150   9.252  1.00  0.00     0.004 C 
ENDBRANCH   3   4
ENDBRANCH   2   3
ENDBRANCH   1   2
BRANCH   1   6
ATOM      6  C   UNL     1     -22.560   7.436  11.009  1.00  0.00     0.028 C 
BRANCH   6   7
ATOM      7  C   UNL     1     -24.036   7.782  10.768  1.00  0.00     0.156 C 
BRANCH   7   8
ATOM      8  O   UNL     1     -24.790   7.629  11.940  1.00  0.00    -0.396 OA
ATOM      9  H   UNL     1     -25.745   7.653  11.669  1.00  0.00     0.210 HD
ENDBRANCH   7   8
ENDBRANCH   6   7
ENDBRANCH   1   6
TORSDOF 6
ENDMDL
MODEL 7
REMARK VINA RESULT:    -3.287     16.726     17.248
REMARK INTER + INTRA:          -4.552
REMARK INTER:                  -4.459
REMARK INTRA:                  -0.093
REMARK UNBOUND:                -0.208
REMARK SMILES CCCCCCCO
REMARK SMILES IDX 5 1 4 2 3 3 2 4 1 5 6 6 7 7 8 8
REMARK H PARENT 8 9
REMARK Flexibility Score: inf
ROOT
ATOM      1  C   UNL     1     -19.390   9.008  11.046  1.00  0.00     0.002 C 
ENDROOT
BRANCH   1   2
ATOM      2  C   UNL     1     -20.495   8.230  10.315  1.00  0.00     0.000 C 
BRANCH   2   3
ATOM      3  C   UNL     1     -21.879   8.604  10.857  1.00  0.00    -0.000 C 
BRANCH   3   4
ATOM      4  C   UNL     1     -22.767   7.363  11.004  1.00  0.00    -0.003 C 
ATOM      5  C   UNL     1     -24.241   7.716  10.829  1.00  0.00     0.004 C 
ENDBRANCH   3   4
ENDBRANCH   2   3
ENDBRANCH   1   2
BRANCH   1   6
ATOM      6  C   UNL     1     -17.984   8.679  10.516  1.00  0.00     0.028 C 
BRANCH   6   7
ATOM      7  C   UNL     1     -17.930   8.489   8.993  1.00  0.00     0.156 C 
BRANCH   7   8
ATOM      8  O   UNL     1     -17.597   9.686   8.345  1.00  0.00    -0.396 OA
ATOM      9  H   UNL     1     -17.240  10.298   9.042  1.00  0.00     0.210 HD
ENDBRANCH   7   8
ENDBRANCH   6   7
ENDBRANCH   1   6
TORSDOF 6
ENDMDL
MODEL 8
REMARK VINA RESULT:    -3.245     17.110     17.776
REMARK INTER + INTRA:          -4.497
REMARK INTER:                  -4.377
REMARK INTRA:                  -0.120
REMARK UNBOUND:                -0.208
REMARK SMILES CCCCCCCO
REMARK SMILES IDX 5 1 4 2 3 3 2 4 1 5 6 6 7 7 8 8
REMARK H PARENT 8 9
REMARK Flexibility Score: inf
ROOT
ATOM      1  C   UNL     1     -18.435   8.287  10.201  1.00  0.00     0.002 C 
ENDROOT
BRANCH   1   2
ATOM      2  C   UNL     1     -19.911   8.288   9.777  1.00  0.00     0.000 C 
BRANCH   2   3
ATOM      3  C   UNL     1     -20.834   8.287  11.000  1.00  0.00    -0.000 C 
BRANCH   3   4
ATOM      4  C   UNL     1     -22.308   8.293  10.579  1.00  0.00    -0.003 C 
ATOM      5  C   UNL     1     -23.089   7.191  11.288  1.00  0.00     0.004 C 
ENDBRANCH   3   4
ENDBRANCH   2   3
ENDBRANCH   1   2
BRANCH   1   6
ATOM      6  C   UNL     1     -17.871   9.705  10.393  1.00  0.00     0.028 C 
BRANCH   6   7
ATOM      7  C   UNL     1     -17.334   9.966  11.807  1.00  0.00     0.156 C 
BRANCH   7   8
ATOM      8  O   UNL     1     -18.213   9.475  12.782  1.00  0.00    -0.396 OA
ATOM      9  H   UNL     1     -17.702   9.437  13.632  1.00  0.00     0.210 HD
ENDBRANCH   7   8
ENDBRANCH   6   7
ENDBRANCH   1   6
TORSDOF 6
ENDMDL
