MODEL 1
REMARK VINA RESULT:    -3.660      0.000      0.000
REMARK INTER + INTRA:          -4.819
REMARK INTER:                  -4.943
REMARK INTRA:                   0.124
REMARK UNBOUND:                 0.124
REMARK SMILES C=C(C)[C@@H]1CC[C@@H](C)C2=C(C1)[C@@H](C)CC2
REMARK SMILES IDX 10 1 9 2 15 3 14 4 12 5 13 6 7 7 8 8 6 9 11 11 4 12 5 13
REMARK SMILES IDX 2 15 1 16 3 17
REMARK H PARENT
REMARK Flexibility Score: 80.00
ROOT
ATOM      1  C   UNL     1      13.484  15.134  36.887  1.00  0.00    -0.067 C 
ATOM      2  C   UNL     1      13.787  16.226  36.186  1.00  0.00    -0.068 C 
ATOM      3  C   UNL     1      15.246  16.274  35.857  1.00  0.00     0.032 C 
ATOM      4  C   UNL     1      15.858  15.114  36.643  1.00  0.00     0.012 C 
ATOM      5  C   UNL     1      14.676  14.261  37.125  1.00  0.00     0.012 C 
ATOM      6  C   UNL     1      14.561  12.952  36.336  1.00  0.00     0.012 C 
ENDROOT
BRANCH   2   7
ATOM      7  C   UNL     1      12.763  17.270  35.763  1.00  0.00     0.012 C 
ATOM      8  C   UNL     1      13.359  18.304  34.795  1.00  0.00     0.012 C 
BRANCH   7   9
ATOM      9  C   UNL     1      12.170  17.980  37.000  1.00  0.00     0.008 CG0
ATOM     10  G   UNL     1      11.080  17.154  37.705  1.00  0.00     0.000 G0
ENDBRANCH   7   9
ENDBRANCH   2   7
BRANCH   1  11
ATOM     11  C   UNL     1      12.105  14.804  37.404  1.00  0.00     0.039 C 
BRANCH  11  12
ATOM     12  C   UNL     1      11.604  15.864  38.409  1.00  0.00     0.018 C 
BRANCH  12  13
ATOM     13  C   UNL     1      11.078  17.136  37.708  1.00  0.00     0.009 CG0
ATOM     14  G   UNL     1      12.171  17.954  37.001  1.00  0.00     0.000 G0
ENDBRANCH  12  13
BRANCH  12  15
ATOM     15  C   UNL     1      10.509  15.274  39.291  1.00  0.00    -0.077 C 
ATOM     16  C   UNL     1      10.785  14.259  40.125  1.00  0.00     0.008 C 
ATOM     17  C   UNL     1       9.104  15.821  39.255  1.00  0.00     0.039 C 
ENDBRANCH  12  15
ENDBRANCH  11  12
ENDBRANCH   1  11
TORSDOF 1
ENDMDL
MODEL 2
REMARK VINA RESULT:    -3.655      1.282      4.025
REMARK INTER + INTRA:          -4.812
REMARK INTER:                  -4.973
REMARK INTRA:                   0.160
REMARK UNBOUND:                 0.124
REMARK SMILES C=C(C)[C@@H]1CC[C@@H](C)C2=C(C1)[C@@H](C)CC2
REMARK SMILES IDX 10 1 9 2 15 3 14 4 12 5 13 6 7 7 8 8 6 9 11 11 4 12 5 13
REMARK SMILES IDX 2 15 1 16 3 17
REMARK H PARENT
REMARK Flexibility Score: 80.00
ROOT
ATOM      1  C   UNL     1      14.686  15.692  36.807  1.00  0.00    -0.067 C 
ATOM      2  C   UNL     1      13.688  15.031  37.392  1.00  0.00    -0.068 C 
ATOM      3  C   UNL     1      13.771  13.562  37.112  1.00  0.00     0.032 C 
ATOM      4  C   UNL     1      14.891  13.428  36.080  1.00  0.00     0.012 C 
ATOM      5  C   UNL     1      15.613  14.783  36.062  1.00  0.00     0.012 C 
ATOM      6  C   UNL     1      16.979  14.709  36.752  1.00  0.00     0.012 C 
ENDROOT
BRANCH   2   7
ATOM      7  C   UNL     1      12.622  15.696  38.250  1.00  0.00     0.012 C 
ATOM      8  C   UNL     1      11.718  14.668  38.949  1.00  0.00     0.012 C 
BRANCH   7   9
ATOM      9  C   UNL     1      11.769  16.664  37.401  1.00  0.00     0.008 CG0
ATOM     10  G   UNL     1      12.460  18.015  37.150  1.00  0.00     0.000 G0
ENDBRANCH   7   9
ENDBRANCH   2   7
BRANCH   1  11
ATOM     11  C   UNL     1      14.872  17.188  36.867  1.00  0.00     0.039 C 
BRANCH  11  12
ATOM     12  C   UNL     1      13.685  17.936  36.220  1.00  0.00     0.018 C 
BRANCH  12  13
ATOM     13  C   UNL     1      12.460  18.016  37.157  1.00  0.00     0.009 CG0
ATOM     14  G   UNL     1      11.777  16.661  37.404  1.00  0.00     0.000 G0
ENDBRANCH  12  13
BRANCH  12  15
ATOM     15  C   UNL     1      14.111  19.342  35.811  1.00  0.00    -0.077 C 
ATOM     16  C   UNL     1      14.853  20.093  36.641  1.00  0.00     0.008 C 
ATOM     17  C   UNL     1      13.721  19.912  34.471  1.00  0.00     0.039 C 
ENDBRANCH  12  15
ENDBRANCH  11  12
ENDBRANCH   1  11
TORSDOF 1
ENDMDL
MODEL 3
REMARK VINA RESULT:    -3.652     11.441     14.502
REMARK INTER + INTRA:          -4.809
REMARK INTER:                  -4.951
REMARK INTRA:                   0.142
REMARK UNBOUND:                 0.124
REMARK SMILES C=C(C)[C@@H]1CC[C@@H](C)C2=C(C1)[C@@H](C)CC2
REMARK SMILES IDX 10 1 9 2 15 3 14 4 12 5 13 6 7 7 8 8 6 9 11 11 4 12 5 13
REMARK SMILES IDX 2 15 1 16 3 17
REMARK H PARENT
REMARK Flexibility Score: 80.00
ROOT
ATOM      1  C   UNL     1      10.048  19.413  23.737  1.00  0.00    -0.067 C 
ATOM      2  C   UNL     1       9.792  19.438  25.044  1.00  0.00    -0.068 C 
ATOM      3  C   UNL     1       8.339  19.682  25.310  1.00  0.00     0.032 C 
ATOM      4  C   UNL     1       7.744  20.005  23.938  1.00  0.00     0.012 C 
ATOM      5  C   UNL     1       8.815  19.612  22.911  1.00  0.00     0.012 C 
ATOM      6  C   UNL     1       8.443  18.326  22.166  1.00  0.00     0.012 C 
ENDROOT
BRANCH   2   7
ATOM      7  C   UNL     1      10.849  19.222  26.116  1.00  0.00     0.012 C 
ATOM      8  C   UNL     1      10.235  19.114  27.521  1.00  0.00     0.012 C 
BRANCH   7   9
ATOM      9  C   UNL     1      11.899  20.354  26.080  1.00  0.00     0.008 CG0
ATOM     10  G   UNL     1      12.951  20.167  24.975  1.00  0.00     0.000 G0
ENDBRANCH   7   9
ENDBRANCH   2   7
BRANCH   1  11
ATOM     11  C   UNL     1      11.419  19.221  23.137  1.00  0.00     0.039 C 
BRANCH  11  12
ATOM     12  C   UNL     1      12.384  20.356  23.545  1.00  0.00     0.018 C 
BRANCH  12  13
ATOM     13  C   UNL     1      12.945  20.167  24.970  1.00  0.00     0.009 CG0
ATOM     14  G   UNL     1      11.902  20.368  26.082  1.00  0.00     0.000 G0
ENDBRANCH  12  13
BRANCH  12  15
ATOM     15  C   UNL     1      13.534  20.451  22.549  1.00  0.00    -0.077 C 
ATOM     16  C   UNL     1      13.320  20.922  21.310  1.00  0.00     0.008 C 
ATOM     17  C   UNL     1      14.930  20.030  22.933  1.00  0.00     0.039 C 
ENDBRANCH  12  15
ENDBRANCH  11  12
ENDBRANCH   1  11
TORSDOF 1
ENDMDL
MODEL 4
REMARK VINA RESULT:    -3.598     12.562     14.876
REMARK INTER + INTRA:          -4.735
REMARK INTER:                  -4.884
REMARK INTRA:                   0.148
REMARK UNBOUND:                 0.124
REMARK SMILES C=C(C)[C@@H]1CC[C@@H](C)C2=C(C1)[C@@H](C)CC2
REMARK SMILES IDX 10 1 9 2 15 3 14 4 12 5 13 6 7 7 8 8 6 9 11 11 4 12 5 13
REMARK SMILES IDX 2 15 1 16 3 17
REMARK H PARENT
REMARK Flexibility Score: 80.00
ROOT
ATOM      1  C   UNL     1       8.244  19.405  25.226  1.00  0.00    -0.067 C 
ATOM      2  C   UNL     1       9.543  19.608  25.009  1.00  0.00    -0.068 C 
ATOM      3  C   UNL     1      10.225  20.128  26.237  1.00  0.00     0.032 C 
ATOM      4  C   UNL     1       9.088  20.406  27.221  1.00  0.00     0.012 C 
ATOM      5  C   UNL     1       7.842  19.730  26.630  1.00  0.00     0.012 C 
ATOM      6  C   UNL     1       7.468  18.459  27.400  1.00  0.00     0.012 C 
ENDROOT
BRANCH   2   7
ATOM      7  C   UNL     1      10.234  19.322  23.684  1.00  0.00     0.012 C 
ATOM      8  C   UNL     1      11.762  19.458  23.788  1.00  0.00     0.012 C 
BRANCH   7   9
ATOM      9  C   UNL     1       9.691  20.252  22.577  1.00  0.00     0.008 CG0
ATOM     10  G   UNL     1       8.347  19.780  21.997  1.00  0.00     0.000 G0
ENDBRANCH   7   9
ENDBRANCH   2   7
BRANCH   1  11
ATOM     11  C   UNL     1       7.269  18.917  24.182  1.00  0.00     0.039 C 
BRANCH  11  12
ATOM     12  C   UNL     1       7.155  19.906  23.001  1.00  0.00     0.018 C 
BRANCH  12  13
ATOM     13  C   UNL     1       8.334  19.777  22.012  1.00  0.00     0.009 CG0
ATOM     14  G   UNL     1       9.680  20.253  22.583  1.00  0.00     0.000 G0
ENDBRANCH  12  13
BRANCH  12  15
ATOM     15  C   UNL     1       5.839  19.691  22.262  1.00  0.00    -0.077 C 
ATOM     16  C   UNL     1       5.337  18.454  22.120  1.00  0.00     0.008 C 
ATOM     17  C   UNL     1       5.071  20.855  21.689  1.00  0.00     0.039 C 
ENDBRANCH  12  15
ENDBRANCH  11  12
ENDBRANCH   1  11
TORSDOF 1
ENDMDL
MODEL 5
REMARK VINA RESULT:    -3.534     11.754     13.893
REMARK INTER + INTRA:          -4.650
REMARK INTER:                  -4.773
REMARK INTRA:                   0.123
REMARK UNBOUND:                 0.124
REMARK SMILES C=C(C)[C@@H]1CC[C@@H](C)C2=C(C1)[C@@H](C)CC2
REMARK SMILES IDX 10 1 9 2 15 3 14 4 12 5 13 6 7 7 8 8 6 9 11 11 4 12 5 13
REMARK SMILES IDX 2 15 1 16 3 17
REMARK H PARENT
REMARK Flexibility Score: 80.00
ROOT
ATOM      1  C   UNL     1       9.071  19.794  25.645  1.00  0.00    -0.067 C 
ATOM      2  C   UNL     1       9.181  19.426  24.369  1.00  0.00    -0.068 C 
ATOM      3  C   UNL     1      10.614  19.234  23.979  1.00  0.00     0.032 C 
ATOM      4  C   UNL     1      11.412  19.736  25.183  1.00  0.00     0.012 C 
ATOM      5  C   UNL     1      10.400  19.887  26.328  1.00  0.00     0.012 C 
ATOM      6  C   UNL     1      10.556  18.778  27.374  1.00  0.00     0.012 C 
ENDROOT
BRANCH   2   7
ATOM      7  C   UNL     1       7.991  19.212  23.446  1.00  0.00     0.012 C 
ATOM      8  C   UNL     1       8.408  18.608  22.095  1.00  0.00     0.012 C 
BRANCH   7   9
ATOM      9  C   UNL     1       7.231  20.538  23.224  1.00  0.00     0.008 CG0
ATOM     10  G   UNL     1       6.293  20.898  24.388  1.00  0.00     0.000 G0
ENDBRANCH   7   9
ENDBRANCH   2   7
BRANCH   1  11
ATOM     11  C   UNL     1       7.766  20.099  26.338  1.00  0.00     0.039 C 
BRANCH  11  12
ATOM     12  C   UNL     1       7.039  21.294  25.683  1.00  0.00     0.018 C 
BRANCH  12  13
ATOM     13  C   UNL     1       6.290  20.892  24.394  1.00  0.00     0.009 CG0
ATOM     14  G   UNL     1       7.218  20.521  23.226  1.00  0.00     0.000 G0
ENDBRANCH  12  13
BRANCH  12  15
ATOM     15  C   UNL     1       6.060  21.918  26.672  1.00  0.00    -0.077 C 
ATOM     16  C   UNL     1       4.929  22.493  26.234  1.00  0.00     0.008 C 
ATOM     17  C   UNL     1       6.332  21.893  28.155  1.00  0.00     0.039 C 
ENDBRANCH  12  15
ENDBRANCH  11  12
ENDBRANCH   1  11
TORSDOF 1
ENDMDL
MODEL 6
REMARK VINA RESULT:    -3.470     12.217     14.764
REMARK INTER + INTRA:          -4.564
REMARK INTER:                  -4.709
REMARK INTRA:                   0.145
REMARK UNBOUND:                 0.124
REMARK SMILES C=C(C)[C@@H]1CC[C@@H](C)C2=C(C1)[C@@H](C)CC2
REMARK SMILES IDX 10 1 9 2 15 3 14 4 12 5 13 6 7 7 8 8 6 9 11 11 4 12 5 13
REMARK SMILES IDX 2 15 1 16 3 17
REMARK H PARENT
REMARK Flexibility Score: 80.00
ROOT
ATOM      1  C   UNL     1       6.883  19.944  23.910  1.00  0.00    -0.067 C 
ATOM      2  C   UNL     1       6.130  20.918  24.420  1.00  0.00    -0.068 C 
ATOM      3  C   UNL     1       5.111  21.393  23.431  1.00  0.00     0.032 C 
ATOM      4  C   UNL     1       5.477  20.682  22.128  1.00  0.00     0.012 C 
ATOM      5  C   UNL     1       6.485  19.589  22.512  1.00  0.00     0.012 C 
ATOM      6  C   UNL     1       5.855  18.192  22.461  1.00  0.00     0.012 C 
ENDROOT
BRANCH   2   7
ATOM      7  C   UNL     1       6.284  21.451  25.837  1.00  0.00     0.012 C 
ATOM      8  C   UNL     1       5.160  22.430  26.212  1.00  0.00     0.012 C 
BRANCH   7   9
ATOM      9  C   UNL     1       7.660  22.129  26.014  1.00  0.00     0.008 CG0
ATOM     10  G   UNL     1       8.805  21.125  26.232  1.00  0.00     0.000 G0
ENDBRANCH   7   9
ENDBRANCH   2   7
BRANCH   1  11
ATOM     11  C   UNL     1       8.022  19.273  24.637  1.00  0.00     0.039 C 
BRANCH  11  12
ATOM     12  C   UNL     1       9.143  20.275  24.989  1.00  0.00     0.018 C 
BRANCH  12  13
ATOM     13  C   UNL     1       8.807  21.118  26.238  1.00  0.00     0.009 CG0
ATOM     14  G   UNL     1       7.670  22.130  26.018  1.00  0.00     0.000 G0
ENDBRANCH  12  13
BRANCH  12  15
ATOM     15  C   UNL     1      10.458  19.535  25.208  1.00  0.00    -0.077 C 
ATOM     16  C   UNL     1      11.233  19.207  24.163  1.00  0.00     0.008 C 
ATOM     17  C   UNL     1      10.920  19.168  26.596  1.00  0.00     0.039 C 
ENDBRANCH  12  15
ENDBRANCH  11  12
ENDBRANCH   1  11
TORSDOF 1
ENDMDL
MODEL 7
REMARK VINA RESULT:    -3.451     10.880     13.317
REMARK INTER + INTRA:          -4.538
REMARK INTER:                  -4.665
REMARK INTRA:                   0.127
REMARK UNBOUND:                 0.124
REMARK SMILES C=C(C)[C@@H]1CC[C@@H](C)C2=C(C1)[C@@H](C)CC2
REMARK SMILES IDX 10 1 9 2 15 3 14 4 12 5 13 6 7 7 8 8 6 9 11 11 4 12 5 13
REMARK SMILES IDX 2 15 1 16 3 17
REMARK H PARENT
REMARK Flexibility Score: 80.00
ROOT
ATOM      1  C   UNL     1      11.897  19.980  25.991  1.00  0.00    -0.067 C 
ATOM      2  C   UNL     1      12.772  20.260  25.026  1.00  0.00    -0.068 C 
ATOM      3  C   UNL     1      13.937  21.037  25.557  1.00  0.00     0.032 C 
ATOM      4  C   UNL     1      13.552  21.373  26.998  1.00  0.00     0.012 C 
ATOM      5  C   UNL     1      12.334  20.497  27.325  1.00  0.00     0.012 C 
ATOM      6  C   UNL     1      12.700  19.344  28.266  1.00  0.00     0.012 C 
ENDROOT
BRANCH   2   7
ATOM      7  C   UNL     1      12.605  19.820  23.579  1.00  0.00     0.012 C 
ATOM      8  C   UNL     1      13.857  20.114  22.737  1.00  0.00     0.012 C 
BRANCH   7   9
ATOM      9  C   UNL     1      11.368  20.493  22.947  1.00  0.00     0.008 CG0
ATOM     10  G   UNL     1      10.044  19.816  23.341  1.00  0.00     0.000 G0
ENDBRANCH   7   9
ENDBRANCH   2   7
BRANCH   1  11
ATOM     11  C   UNL     1      10.600  19.237  25.780  1.00  0.00     0.039 C 
BRANCH  11  12
ATOM     12  C   UNL     1       9.656  20.000  24.825  1.00  0.00     0.018 C 
BRANCH  12  13
ATOM     13  C   UNL     1      10.044  19.813  23.342  1.00  0.00     0.009 CG0
ATOM     14  G   UNL     1      11.367  20.494  22.954  1.00  0.00     0.000 G0
ENDBRANCH  12  13
BRANCH  12  15
ATOM     15  C   UNL     1       8.216  19.547  25.039  1.00  0.00    -0.077 C 
ATOM     16  C   UNL     1       7.699  19.495  26.277  1.00  0.00     0.008 C 
ATOM     17  C   UNL     1       7.341  19.162  23.873  1.00  0.00     0.039 C 
ENDBRANCH  12  15
ENDBRANCH  11  12
ENDBRANCH   1  11
TORSDOF 1
ENDMDL
MODEL 8
REMARK VINA RESULT:    -3.395     11.282     14.224
REMARK INTER + INTRA:          -4.462
REMARK INTER:                  -4.589
REMARK INTRA:                   0.127
REMARK UNBOUND:                 0.124
REMARK SMILES C=C(C)[C@@H]1CC[C@@H](C)C2=C(C1)[C@@H](C)CC2
REMARK SMILES IDX 10 1 9 2 15 3 14 4 12 5 13 6 7 7 8 8 6 9 11 11 4 12 5 13
REMARK SMILES IDX 2 15 1 16 3 17
REMARK H PARENT
REMARK Flexibility Score: 80.00
ROOT
ATOM      1  C   UNL     1      11.501  20.127  25.704  1.00  0.00    -0.067 C 
ATOM      2  C   UNL     1      10.249  19.679  25.781  1.00  0.00    -0.068 C 
ATOM      3  C   UNL     1      10.016  18.929  27.055  1.00  0.00     0.032 C 
ATOM      4  C   UNL     1      11.402  18.808  27.691  1.00  0.00     0.012 C 
ATOM      5  C   UNL     1      12.308  19.774  26.914  1.00  0.00     0.012 C 
ATOM      6  C   UNL     1      12.639  21.026  27.735  1.00  0.00     0.012 C 
ENDROOT
BRANCH   2   7
ATOM      7  C   UNL     1       9.195  19.928  24.712  1.00  0.00     0.012 C 
ATOM      8  C   UNL     1       7.798  19.471  25.160  1.00  0.00     0.012 C 
BRANCH   7   9
ATOM      9  C   UNL     1       9.586  19.228  23.392  1.00  0.00     0.008 CG0
ATOM     10  G   UNL     1      10.626  20.014  22.576  1.00  0.00     0.000 G0
ENDBRANCH   7   9
ENDBRANCH   2   7
BRANCH   1  11
ATOM     11  C   UNL     1      12.066  20.892  24.532  1.00  0.00     0.039 C 
BRANCH  11  12
ATOM     12  C   UNL     1      12.040  20.052  23.237  1.00  0.00     0.018 C 
BRANCH  12  13
ATOM     13  C   UNL     1      10.640  20.019  22.586  1.00  0.00     0.009 CG0
ATOM     14  G   UNL     1       9.597  19.229  23.393  1.00  0.00     0.000 G0
ENDBRANCH  12  13
BRANCH  12  15
ATOM     15  C   UNL     1      13.057  20.594  22.239  1.00  0.00    -0.077 C 
ATOM     16  C   UNL     1      14.367  20.577  22.531  1.00  0.00     0.008 C 
ATOM     17  C   UNL     1      12.619  21.146  20.906  1.00  0.00     0.039 C 
ENDBRANCH  12  15
ENDBRANCH  11  12
ENDBRANCH   1  11
TORSDOF 1
ENDMDL
MODEL 9
REMARK VINA RESULT:    -3.304     10.922     13.802
REMARK INTER + INTRA:          -4.338
REMARK INTER:                  -4.469
REMARK INTRA:                   0.131
REMARK UNBOUND:                 0.124
REMARK SMILES C=C(C)[C@@H]1CC[C@@H](C)C2=C(C1)[C@@H](C)CC2
REMARK SMILES IDX 10 1 9 2 15 3 14 4 12 5 13 6 7 7 8 8 6 9 11 11 4 12 5 13
REMARK SMILES IDX 2 15 1 16 3 17
REMARK H PARENT
REMARK Flexibility Score: 80.00
ROOT
ATOM      1  C   UNL     1      12.723  20.103  26.128  1.00  0.00    -0.067 C 
ATOM      2  C   UNL     1      11.567  19.788  25.545  1.00  0.00    -0.068 C 
ATOM      3  C   UNL     1      10.633  19.127  26.511  1.00  0.00     0.032 C 
ATOM      4  C   UNL     1      11.474  18.899  27.767  1.00  0.00     0.012 C 
ATOM      5  C   UNL     1      12.751  19.730  27.577  1.00  0.00     0.012 C 
ATOM      6  C   UNL     1      12.751  20.980  28.464  1.00  0.00     0.012 C 
ENDROOT
BRANCH   2   7
ATOM      7  C   UNL     1      11.245  20.089  24.089  1.00  0.00     0.012 C 
ATOM      8  C   UNL     1       9.777  19.787  23.747  1.00  0.00     0.012 C 
BRANCH   7   9
ATOM      9  C   UNL     1      12.183  19.299  23.151  1.00  0.00     0.008 CG0
ATOM     10  G   UNL     1      13.574  19.939  23.009  1.00  0.00     0.000 G0
ENDBRANCH   7   9
ENDBRANCH   2   7
BRANCH   1  11
ATOM     11  C   UNL     1      13.889  20.749  25.422  1.00  0.00     0.039 C 
BRANCH  11  12
ATOM     12  C   UNL     1      14.439  19.852  24.291  1.00  0.00     0.018 C 
BRANCH  12  13
ATOM     13  C   UNL     1      13.585  19.935  23.007  1.00  0.00     0.009 CG0
ATOM     14  G   UNL     1      12.191  19.301  23.146  1.00  0.00     0.000 G0
ENDBRANCH  12  13
BRANCH  12  15
ATOM     15  C   UNL     1      15.881  20.234  23.974  1.00  0.00    -0.077 C 
ATOM     16  C   UNL     1      16.456  21.279  24.589  1.00  0.00     0.008 C 
ATOM     17  C   UNL     1      16.691  19.443  22.977  1.00  0.00     0.039 C 
ENDBRANCH  12  15
ENDBRANCH  11  12
ENDBRANCH   1  11
TORSDOF 1
ENDMDL
