MODEL 1
REMARK VINA RESULT:     0.000      0.000      0.000
REMARK INTER + INTRA:          -5.728
REMARK INTER:                   0.000
REMARK INTRA:                  -5.728
REMARK UNBOUND:                -5.728
REMARK SMILES CCCCCCCCCCCCCCCCCCCCCCCC(=O)[O-]
REMARK SMILES IDX 13 1 14 2 15 3 16 4 17 5 18 6 19 7 20 8 21 9 22 10 23 11
REMARK SMILES IDX 24 12 25 13 26 14 12 15 11 16 10 17 9 18 8 19 7 20 6 21 5 22
REMARK SMILES IDX 4 23 3 24 2 25 1 26
REMARK H PARENT
REMARK Flexibility Score: inf
ROOT
ATOM      1  C   UNL     1     179.765 179.966 184.618  1.00  0.00     0.000 C 
ENDROOT
BRANCH   1   2
ATOM      2  C   UNL     1     179.940 178.775 183.655  1.00  0.00     0.000 C 
BRANCH   2   3
ATOM      3  C   UNL     1     178.808 178.599 182.628  1.00  0.00     0.000 C 
BRANCH   3   4
ATOM      4  C   UNL     1     179.256 178.066 181.253  1.00  0.00     0.000 C 
BRANCH   4   5
ATOM      5  C   UNL     1     180.782 177.876 181.127  1.00  0.00     0.000 C 
BRANCH   5   6
ATOM      6  C   UNL     1     181.311 178.292 179.742  1.00  0.00     0.000 C 
BRANCH   6   7
ATOM      7  C   UNL     1     180.198 178.797 178.812  1.00  0.00     0.000 C 
BRANCH   7   8
ATOM      8  C   UNL     1     180.750 179.537 177.579  1.00  0.00     0.000 C 
BRANCH   8   9
ATOM      9  C   UNL     1     180.181 180.959 177.434  1.00  0.00     0.000 C 
BRANCH   9  10
ATOM     10  C   UNL     1     181.230 182.088 177.497  1.00  0.00     0.006 C 
BRANCH  10  11
ATOM     11  C   UNL     1     182.585 181.665 178.083  1.00  0.00     0.053 C 
BRANCH  11  12
ATOM     12  C   UNL     1     183.227 182.766 178.867  1.00  0.00     0.041 C 
ATOM     13  O   UNL     1     184.301 182.560 179.491  1.00  0.00    -0.550 OA
ATOM     14  O   UNL     1     182.630 184.020 178.920  1.00  0.00    -0.550 OA
ENDBRANCH  11  12
ENDBRANCH  10  11
ENDBRANCH   9  10
ENDBRANCH   8   9
ENDBRANCH   7   8
ENDBRANCH   6   7
ENDBRANCH   5   6
ENDBRANCH   4   5
ENDBRANCH   3   4
ENDBRANCH   2   3
ENDBRANCH   1   2
BRANCH   1  15
ATOM     15  C   UNL     1     178.525 180.836 184.315  1.00  0.00     0.000 C 
BRANCH  15  16
ATOM     16  C   UNL     1     178.829 182.342 184.419  1.00  0.00     0.000 C 
BRANCH  16  17
ATOM     17  C   UNL     1     177.694 183.218 183.865  1.00  0.00     0.000 C 
BRANCH  17  18
ATOM     18  C   UNL     1     176.478 182.391 183.411  1.00  0.00    -0.000 C 
BRANCH  18  19
ATOM     19  C   UNL     1     176.213 182.522 181.902  1.00  0.00    -0.000 C 
BRANCH  19  20
ATOM     20  C   UNL     1     176.583 181.243 181.132  1.00  0.00    -0.000 C 
BRANCH  20  21
ATOM     21  C   UNL     1     177.860 181.397 180.285  1.00  0.00    -0.000 C 
BRANCH  21  22
ATOM     22  C   UNL     1     178.421 182.828 180.194  1.00  0.00    -0.000 C 
BRANCH  22  23
ATOM     23  C   UNL     1     179.821 182.965 180.818  1.00  0.00    -0.000 C 
BRANCH  23  24
ATOM     24  C   UNL     1     180.456 181.607 181.169  1.00  0.00    -0.000 C 
BRANCH  24  25
ATOM     25  C   UNL     1     181.738 181.686 182.017  1.00  0.00    -0.003 C 
ATOM     26  C   UNL     1     182.033 183.095 182.531  1.00  0.00     0.004 C 
ENDBRANCH  24  25
ENDBRANCH  23  24
ENDBRANCH  22  23
ENDBRANCH  21  22
ENDBRANCH  20  21
ENDBRANCH  19  20
ENDBRANCH  18  19
ENDBRANCH  17  18
ENDBRANCH  16  17
ENDBRANCH  15  16
ENDBRANCH   1  15
TORSDOF 22
ENDMDL
MODEL 2
REMARK VINA RESULT:     0.015      3.508      6.758
REMARK INTER + INTRA:          -5.693
REMARK INTER:                   0.000
REMARK INTRA:                  -5.693
REMARK UNBOUND:                -5.728
REMARK SMILES CCCCCCCCCCCCCCCCCCCCCCCC(=O)[O-]
REMARK SMILES IDX 13 1 14 2 15 3 16 4 17 5 18 6 19 7 20 8 21 9 22 10 23 11
REMARK SMILES IDX 24 12 25 13 26 14 12 15 11 16 10 17 9 18 8 19 7 20 6 21 5 22
REMARK SMILES IDX 4 23 3 24 2 25 1 26
REMARK H PARENT
REMARK Flexibility Score: inf
ROOT
ATOM      1  C   UNL     1     182.864 185.994 183.440  1.00  0.00     0.000 C 
ENDROOT
BRANCH   1   2
ATOM      2  C   UNL     1     181.728 186.927 183.904  1.00  0.00     0.000 C 
BRANCH   2   3
ATOM      3  C   UNL     1     181.516 186.983 185.428  1.00  0.00     0.000 C 
BRANCH   3   4
ATOM      4  C   UNL     1     180.172 186.408 185.917  1.00  0.00     0.000 C 
BRANCH   4   5
ATOM      5  C   UNL     1     180.315 185.130 186.769  1.00  0.00     0.000 C 
BRANCH   5   6
ATOM      6  C   UNL     1     181.787 184.758 187.024  1.00  0.00     0.000 C 
BRANCH   6   7
ATOM      7  C   UNL     1     181.992 183.247 187.203  1.00  0.00     0.000 C 
BRANCH   7   8
ATOM      8  C   UNL     1     183.193 182.714 186.399  1.00  0.00     0.000 C 
BRANCH   8   9
ATOM      9  C   UNL     1     184.241 183.802 186.104  1.00  0.00     0.000 C 
BRANCH   9  10
ATOM     10  C   UNL     1     185.154 183.514 184.895  1.00  0.00     0.006 C 
BRANCH  10  11
ATOM     11  C   UNL     1     184.808 182.230 184.127  1.00  0.00     0.053 C 
BRANCH  11  12
ATOM     12  C   UNL     1     185.191 182.317 182.684  1.00  0.00     0.041 C 
ATOM     13  O   UNL     1     186.254 182.902 182.342  1.00  0.00    -0.550 OA
ATOM     14  O   UNL     1     184.368 181.763 181.711  1.00  0.00    -0.550 OA
ENDBRANCH  11  12
ENDBRANCH  10  11
ENDBRANCH   9  10
ENDBRANCH   8   9
ENDBRANCH   7   8
ENDBRANCH   6   7
ENDBRANCH   5   6
ENDBRANCH   4   5
ENDBRANCH   3   4
ENDBRANCH   2   3
ENDBRANCH   1   2
BRANCH   1  15
ATOM     15  C   UNL     1     182.379 184.784 182.612  1.00  0.00     0.000 C 
BRANCH  15  16
ATOM     16  C   UNL     1     181.461 183.851 183.422  1.00  0.00     0.000 C 
BRANCH  16  17
ATOM     17  C   UNL     1     181.074 182.579 182.650  1.00  0.00     0.000 C 
BRANCH  17  18
ATOM     18  C   UNL     1     181.272 181.300 183.482  1.00  0.00    -0.000 C 
BRANCH  18  19
ATOM     19  C   UNL     1     179.940 180.721 183.987  1.00  0.00    -0.000 C 
BRANCH  19  20
ATOM     20  C   UNL     1     179.722 180.983 185.487  1.00  0.00    -0.000 C 
BRANCH  20  21
ATOM     21  C   UNL     1     178.608 182.009 185.764  1.00  0.00    -0.000 C 
BRANCH  21  22
ATOM     22  C   UNL     1     177.805 182.459 184.529  1.00  0.00    -0.000 C 
BRANCH  22  23
ATOM     23  C   UNL     1     177.756 183.988 184.369  1.00  0.00    -0.000 C 
BRANCH  23  24
ATOM     24  C   UNL     1     177.829 184.440 182.898  1.00  0.00    -0.000 C 
BRANCH  24  25
ATOM     25  C   UNL     1     178.358 185.869 182.679  1.00  0.00    -0.003 C 
ATOM     26  C   UNL     1     179.101 186.038 181.354  1.00  0.00     0.004 C 
ENDBRANCH  24  25
ENDBRANCH  23  24
ENDBRANCH  22  23
ENDBRANCH  21  22
ENDBRANCH  20  21
ENDBRANCH  19  20
ENDBRANCH  18  19
ENDBRANCH  17  18
ENDBRANCH  16  17
ENDBRANCH  15  16
ENDBRANCH   1  15
TORSDOF 22
ENDMDL
MODEL 3
REMARK VINA RESULT:     0.018      1.734      2.098
REMARK INTER + INTRA:          -5.686
REMARK INTER:                   0.000
REMARK INTRA:                  -5.686
REMARK UNBOUND:                -5.728
REMARK SMILES CCCCCCCCCCCCCCCCCCCCCCCC(=O)[O-]
REMARK SMILES IDX 13 1 14 2 15 3 16 4 17 5 18 6 19 7 20 8 21 9 22 10 23 11
REMARK SMILES IDX 24 12 25 13 26 14 12 15 11 16 10 17 9 18 8 19 7 20 6 21 5 22
REMARK SMILES IDX 4 23 3 24 2 25 1 26
REMARK H PARENT
REMARK Flexibility Score: inf
ROOT
ATOM      1  C   UNL     1     179.765 179.966 184.618  1.00  0.00     0.000 C 
ENDROOT
BRANCH   1   2
ATOM      2  C   UNL     1     180.108 178.509 184.252  1.00  0.00     0.000 C 
BRANCH   2   3
ATOM      3  C   UNL     1     179.042 177.781 183.413  1.00  0.00     0.000 C 
BRANCH   3   4
ATOM      4  C   UNL     1     179.596 176.742 182.419  1.00  0.00     0.000 C 
BRANCH   4   5
ATOM      5  C   UNL     1     181.136 176.645 182.414  1.00  0.00     0.000 C 
BRANCH   5   6
ATOM      6  C   UNL     1     181.708 176.486 180.994  1.00  0.00     0.000 C 
BRANCH   6   7
ATOM      7  C   UNL     1     180.613 176.441 179.918  1.00  0.00     0.000 C 
BRANCH   7   8
ATOM      8  C   UNL     1     181.177 176.597 178.494  1.00  0.00     0.000 C 
BRANCH   8   9
ATOM      9  C   UNL     1     180.501 177.733 177.707  1.00  0.00     0.000 C 
BRANCH   9  10
ATOM     10  C   UNL     1     181.437 178.891 177.304  1.00  0.00     0.006 C 
BRANCH  10  11
ATOM     11  C   UNL     1     182.818 178.857 177.976  1.00  0.00     0.053 C 
BRANCH  11  12
ATOM     12  C   UNL     1     183.343 180.231 178.250  1.00  0.00     0.041 C 
ATOM     13  O   UNL     1     184.333 180.393 179.013  1.00  0.00    -0.550 OA
ATOM     14  O   UNL     1     182.732 181.337 177.672  1.00  0.00    -0.550 OA
ENDBRANCH  11  12
ENDBRANCH  10  11
ENDBRANCH   9  10
ENDBRANCH   8   9
ENDBRANCH   7   8
ENDBRANCH   6   7
ENDBRANCH   5   6
ENDBRANCH   4   5
ENDBRANCH   3   4
ENDBRANCH   2   3
ENDBRANCH   1   2
BRANCH   1  15
ATOM     15  C   UNL     1     178.511 180.511 183.899  1.00  0.00     0.000 C 
BRANCH  15  16
ATOM     16  C   UNL     1     178.722 181.936 183.356  1.00  0.00     0.000 C 
BRANCH  16  17
ATOM     17  C   UNL     1     177.577 182.400 182.441  1.00  0.00     0.000 C 
BRANCH  17  18
ATOM     18  C   UNL     1     176.451 181.356 182.328  1.00  0.00    -0.000 C 
BRANCH  18  19
ATOM     19  C   UNL     1     176.256 180.862 180.886  1.00  0.00    -0.000 C 
BRANCH  19  20
ATOM     20  C   UNL     1     176.714 179.405 180.702  1.00  0.00    -0.000 C 
BRANCH  20  21
ATOM     21  C   UNL     1     178.140 179.289 180.131  1.00  0.00    -0.000 C 
BRANCH  21  22
ATOM     22  C   UNL     1     178.658 180.538 179.393  1.00  0.00    -0.000 C 
BRANCH  22  23
ATOM     23  C   UNL     1     180.012 181.034 179.930  1.00  0.00    -0.000 C 
BRANCH  23  24
ATOM     24  C   UNL     1     180.703 180.010 180.850  1.00  0.00    -0.000 C 
BRANCH  24  25
ATOM     25  C   UNL     1     181.906 180.553 181.643  1.00  0.00    -0.003 C 
ATOM     26  C   UNL     1     182.053 182.072 181.547  1.00  0.00     0.004 C 
ENDBRANCH  24  25
ENDBRANCH  23  24
ENDBRANCH  22  23
ENDBRANCH  21  22
ENDBRANCH  20  21
ENDBRANCH  19  20
ENDBRANCH  18  19
ENDBRANCH  17  18
ENDBRANCH  16  17
ENDBRANCH  15  16
ENDBRANCH   1  15
TORSDOF 22
ENDMDL
MODEL 4
REMARK VINA RESULT:     0.030      6.690      9.291
REMARK INTER + INTRA:          -5.660
REMARK INTER:                   0.000
REMARK INTRA:                  -5.660
REMARK UNBOUND:                -5.728
REMARK SMILES CCCCCCCCCCCCCCCCCCCCCCCC(=O)[O-]
REMARK SMILES IDX 13 1 14 2 15 3 16 4 17 5 18 6 19 7 20 8 21 9 22 10 23 11
REMARK SMILES IDX 24 12 25 13 26 14 12 15 11 16 10 17 9 18 8 19 7 20 6 21 5 22
REMARK SMILES IDX 4 23 3 24 2 25 1 26
REMARK H PARENT
REMARK Flexibility Score: inf
ROOT
ATOM      1  C   UNL     1     173.740 175.148 187.914  1.00  0.00     0.000 C 
ENDROOT
BRANCH   1   2
ATOM      2  C   UNL     1     174.735 174.452 188.863  1.00  0.00     0.000 C 
BRANCH   2   3
ATOM      3  C   UNL     1     175.584 175.405 189.725  1.00  0.00     0.000 C 
BRANCH   3   4
ATOM      4  C   UNL     1     177.108 175.215 189.593  1.00  0.00     0.000 C 
BRANCH   4   5
ATOM      5  C   UNL     1     177.757 176.118 188.524  1.00  0.00     0.000 C 
BRANCH   5   6
ATOM      6  C   UNL     1     178.364 175.308 187.364  1.00  0.00     0.000 C 
BRANCH   6   7
ATOM      7  C   UNL     1     178.199 173.793 187.552  1.00  0.00     0.000 C 
BRANCH   7   8
ATOM      8  C   UNL     1     177.314 173.156 186.465  1.00  0.00     0.000 C 
BRANCH   8   9
ATOM      9  C   UNL     1     177.244 174.004 185.183  1.00  0.00     0.000 C 
BRANCH   9  10
ATOM     10  C   UNL     1     177.144 173.195 183.873  1.00  0.00     0.006 C 
BRANCH  10  11
ATOM     11  C   UNL     1     176.708 174.016 182.650  1.00  0.00     0.053 C 
BRANCH  11  12
ATOM     12  C   UNL     1     175.219 174.074 182.514  1.00  0.00     0.041 C 
ATOM     13  O   UNL     1     174.679 174.976 181.821  1.00  0.00    -0.550 OA
ATOM     14  O   UNL     1     174.425 173.138 183.165  1.00  0.00    -0.550 OA
ENDBRANCH  11  12
ENDBRANCH  10  11
ENDBRANCH   9  10
ENDBRANCH   8   9
ENDBRANCH   7   8
ENDBRANCH   6   7
ENDBRANCH   5   6
ENDBRANCH   4   5
ENDBRANCH   3   4
ENDBRANCH   2   3
ENDBRANCH   1   2
BRANCH   1  15
ATOM     15  C   UNL     1     173.926 174.770 186.428  1.00  0.00     0.000 C 
BRANCH  15  16
ATOM     16  C   UNL     1     174.222 175.997 185.546  1.00  0.00     0.000 C 
BRANCH  16  17
ATOM     17  C   UNL     1     174.969 177.108 186.303  1.00  0.00     0.000 C 
BRANCH  17  18
ATOM     18  C   UNL     1     176.176 177.649 185.517  1.00  0.00    -0.000 C 
BRANCH  18  19
ATOM     19  C   UNL     1     176.018 177.459 184.000  1.00  0.00    -0.000 C 
BRANCH  19  20
ATOM     20  C   UNL     1     177.350 177.623 183.249  1.00  0.00    -0.000 C 
BRANCH  20  21
ATOM     21  C   UNL     1     178.573 177.240 184.102  1.00  0.00    -0.000 C 
BRANCH  21  22
ATOM     22  C   UNL     1     179.603 176.330 183.406  1.00  0.00    -0.000 C 
BRANCH  22  23
ATOM     23  C   UNL     1     180.528 175.602 184.397  1.00  0.00    -0.000 C 
BRANCH  23  24
ATOM     24  C   UNL     1     180.783 174.133 184.010  1.00  0.00    -0.000 C 
BRANCH  24  25
ATOM     25  C   UNL     1     180.995 173.174 185.194  1.00  0.00    -0.003 C 
ATOM     26  C   UNL     1     180.463 171.766 184.930  1.00  0.00     0.004 C 
ENDBRANCH  24  25
ENDBRANCH  23  24
ENDBRANCH  22  23
ENDBRANCH  21  22
ENDBRANCH  20  21
ENDBRANCH  19  20
ENDBRANCH  18  19
ENDBRANCH  17  18
ENDBRANCH  16  17
ENDBRANCH  15  16
ENDBRANCH   1  15
TORSDOF 22
ENDMDL
MODEL 5
REMARK VINA RESULT:     0.038      7.081     10.436
REMARK INTER + INTRA:          -5.642
REMARK INTER:                   0.000
REMARK INTRA:                  -5.642
REMARK UNBOUND:                -5.728
REMARK SMILES CCCCCCCCCCCCCCCCCCCCCCCC(=O)[O-]
REMARK SMILES IDX 13 1 14 2 15 3 16 4 17 5 18 6 19 7 20 8 21 9 22 10 23 11
REMARK SMILES IDX 24 12 25 13 26 14 12 15 11 16 10 17 9 18 8 19 7 20 6 21 5 22
REMARK SMILES IDX 4 23 3 24 2 25 1 26
REMARK H PARENT
REMARK Flexibility Score: inf
ROOT
ATOM      1  C   UNL     1     184.941 189.801 175.376  1.00  0.00     0.000 C 
ENDROOT
BRANCH   1   2
ATOM      2  C   UNL     1     185.918 189.426 176.506  1.00  0.00     0.000 C 
BRANCH   2   3
ATOM      3  C   UNL     1     185.314 188.558 177.626  1.00  0.00     0.000 C 
BRANCH   3   4
ATOM      4  C   UNL     1     185.886 187.130 177.721  1.00  0.00     0.000 C 
BRANCH   4   5
ATOM      5  C   UNL     1     184.816 186.023 177.615  1.00  0.00     0.000 C 
BRANCH   5   6
ATOM      6  C   UNL     1     183.435 186.496 178.103  1.00  0.00     0.000 C 
BRANCH   6   7
ATOM      7  C   UNL     1     182.283 185.686 177.490  1.00  0.00     0.000 C 
BRANCH   7   8
ATOM      8  C   UNL     1     181.065 186.562 177.143  1.00  0.00     0.000 C 
BRANCH   8   9
ATOM      9  C   UNL     1     180.319 186.073 175.889  1.00  0.00     0.000 C 
BRANCH   9  10
ATOM     10  C   UNL     1     180.693 184.651 175.423  1.00  0.00     0.006 C 
BRANCH  10  11
ATOM     11  C   UNL     1     180.123 184.261 174.051  1.00  0.00     0.053 C 
BRANCH  11  12
ATOM     12  C   UNL     1     180.752 183.014 173.516  1.00  0.00     0.041 C 
ATOM     13  O   UNL     1     181.271 182.176 174.301  1.00  0.00    -0.550 OA
ATOM     14  O   UNL     1     180.778 182.780 172.146  1.00  0.00    -0.550 OA
ENDBRANCH  11  12
ENDBRANCH  10  11
ENDBRANCH   9  10
ENDBRANCH   8   9
ENDBRANCH   7   8
ENDBRANCH   6   7
ENDBRANCH   5   6
ENDBRANCH   4   5
ENDBRANCH   3   4
ENDBRANCH   2   3
ENDBRANCH   1   2
BRANCH   1  15
ATOM     15  C   UNL     1     183.474 189.406 175.661  1.00  0.00     0.000 C 
BRANCH  15  16
ATOM     16  C   UNL     1     182.855 188.590 174.512  1.00  0.00     0.000 C 
BRANCH  16  17
ATOM     17  C   UNL     1     183.495 187.201 174.355  1.00  0.00     0.000 C 
BRANCH  17  18
ATOM     18  C   UNL     1     183.022 186.473 173.085  1.00  0.00    -0.000 C 
BRANCH  18  19
ATOM     19  C   UNL     1     183.666 185.085 172.935  1.00  0.00    -0.000 C 
BRANCH  19  20
ATOM     20  C   UNL     1     184.231 184.556 174.264  1.00  0.00    -0.000 C 
BRANCH  20  21
ATOM     21  C   UNL     1     185.601 183.872 174.107  1.00  0.00    -0.000 C 
BRANCH  21  22
ATOM     22  C   UNL     1     186.733 184.775 173.582  1.00  0.00    -0.000 C 
BRANCH  22  23
ATOM     23  C   UNL     1     187.018 185.976 174.500  1.00  0.00    -0.000 C 
BRANCH  23  24
ATOM     24  C   UNL     1     187.177 187.298 173.726  1.00  0.00    -0.000 C 
BRANCH  24  25
ATOM     25  C   UNL     1     186.619 187.286 172.292  1.00  0.00    -0.003 C 
ATOM     26  C   UNL     1     185.922 188.590 171.907  1.00  0.00     0.004 C 
ENDBRANCH  24  25
ENDBRANCH  23  24
ENDBRANCH  22  23
ENDBRANCH  21  22
ENDBRANCH  20  21
ENDBRANCH  19  20
ENDBRANCH  18  19
ENDBRANCH  17  18
ENDBRANCH  16  17
ENDBRANCH  15  16
ENDBRANCH   1  15
TORSDOF 22
ENDMDL
MODEL 6
REMARK VINA RESULT:     0.057      5.786      9.358
REMARK INTER + INTRA:          -5.598
REMARK INTER:                   0.000
REMARK INTRA:                  -5.598
REMARK UNBOUND:                -5.728
REMARK SMILES CCCCCCCCCCCCCCCCCCCCCCCC(=O)[O-]
REMARK SMILES IDX 13 1 14 2 15 3 16 4 17 5 18 6 19 7 20 8 21 9 22 10 23 11
REMARK SMILES IDX 24 12 25 13 26 14 12 15 11 16 10 17 9 18 8 19 7 20 6 21 5 22
REMARK SMILES IDX 4 23 3 24 2 25 1 26
REMARK H PARENT
REMARK Flexibility Score: inf
ROOT
ATOM      1  C   UNL     1     182.394 172.809 178.784  1.00  0.00     0.000 C 
ENDROOT
BRANCH   1   2
ATOM      2  C   UNL     1     182.494 174.325 179.043  1.00  0.00     0.000 C 
BRANCH   2   3
ATOM      3  C   UNL     1     181.144 175.042 179.226  1.00  0.00     0.000 C 
BRANCH   3   4
ATOM      4  C   UNL     1     181.052 176.431 178.564  1.00  0.00     0.000 C 
BRANCH   4   5
ATOM      5  C   UNL     1     179.619 176.833 178.158  1.00  0.00     0.000 C 
BRANCH   5   6
ATOM      6  C   UNL     1     179.577 177.555 176.799  1.00  0.00     0.000 C 
BRANCH   6   7
ATOM      7  C   UNL     1     180.911 178.229 176.447  1.00  0.00     0.000 C 
BRANCH   7   8
ATOM      8  C   UNL     1     181.147 178.314 174.927  1.00  0.00     0.000 C 
BRANCH   8   9
ATOM      9  C   UNL     1     182.492 177.703 174.499  1.00  0.00     0.000 C 
BRANCH   9  10
ATOM     10  C   UNL     1     183.108 176.713 175.509  1.00  0.00     0.006 C 
BRANCH  10  11
ATOM     11  C   UNL     1     184.521 177.084 175.982  1.00  0.00     0.053 C 
BRANCH  11  12
ATOM     12  C   UNL     1     184.522 177.631 177.375  1.00  0.00     0.041 C 
ATOM     13  O   UNL     1     184.863 176.901 178.344  1.00  0.00    -0.550 OA
ATOM     14  O   UNL     1     184.134 178.944 177.605  1.00  0.00    -0.550 OA
ENDBRANCH  11  12
ENDBRANCH  10  11
ENDBRANCH   9  10
ENDBRANCH   8   9
ENDBRANCH   7   8
ENDBRANCH   6   7
ENDBRANCH   5   6
ENDBRANCH   4   5
ENDBRANCH   3   4
ENDBRANCH   2   3
ENDBRANCH   1   2
BRANCH   1  15
ATOM     15  C   UNL     1     183.276 172.315 177.616  1.00  0.00     0.000 C 
BRANCH  15  16
ATOM     16  C   UNL     1     184.046 173.464 176.939  1.00  0.00     0.000 C 
BRANCH  16  17
ATOM     17  C   UNL     1     184.337 173.192 175.454  1.00  0.00     0.000 C 
BRANCH  17  18
ATOM     18  C   UNL     1     183.516 172.015 174.898  1.00  0.00    -0.000 C 
BRANCH  18  19
ATOM     19  C   UNL     1     182.938 172.314 173.505  1.00  0.00    -0.000 C 
BRANCH  19  20
ATOM     20  C   UNL     1     183.285 173.732 173.021  1.00  0.00    -0.000 C 
BRANCH  20  21
ATOM     21  C   UNL     1     182.044 174.553 172.621  1.00  0.00    -0.000 C 
BRANCH  21  22
ATOM     22  C   UNL     1     180.696 173.984 173.100  1.00  0.00    -0.000 C 
BRANCH  22  23
ATOM     23  C   UNL     1     180.114 174.750 174.301  1.00  0.00    -0.000 C 
BRANCH  23  24
ATOM     24  C   UNL     1     180.578 174.183 175.656  1.00  0.00    -0.000 C 
BRANCH  24  25
ATOM     25  C   UNL     1     179.605 173.189 176.315  1.00  0.00    -0.003 C 
ATOM     26  C   UNL     1     179.929 171.729 175.997  1.00  0.00     0.004 C 
ENDBRANCH  24  25
ENDBRANCH  23  24
ENDBRANCH  22  23
ENDBRANCH  21  22
ENDBRANCH  20  21
ENDBRANCH  19  20
ENDBRANCH  18  19
ENDBRANCH  17  18
ENDBRANCH  16  17
ENDBRANCH  15  16
ENDBRANCH   1  15
TORSDOF 22
ENDMDL
MODEL 7
REMARK VINA RESULT:     0.064      3.772      7.361
REMARK INTER + INTRA:          -5.583
REMARK INTER:                   0.000
REMARK INTRA:                  -5.583
REMARK UNBOUND:                -5.728
REMARK SMILES CCCCCCCCCCCCCCCCCCCCCCCC(=O)[O-]
REMARK SMILES IDX 13 1 14 2 15 3 16 4 17 5 18 6 19 7 20 8 21 9 22 10 23 11
REMARK SMILES IDX 24 12 25 13 26 14 12 15 11 16 10 17 9 18 8 19 7 20 6 21 5 22
REMARK SMILES IDX 4 23 3 24 2 25 1 26
REMARK H PARENT
REMARK Flexibility Score: inf
ROOT
ATOM      1  C   UNL     1     179.373 183.330 182.856  1.00  0.00     0.000 C 
ENDROOT
BRANCH   1   2
ATOM      2  C   UNL     1     179.347 184.037 181.488  1.00  0.00     0.000 C 
BRANCH   2   3
ATOM      3  C   UNL     1     180.125 185.364 181.428  1.00  0.00     0.000 C 
BRANCH   3   4
ATOM      4  C   UNL     1     181.295 185.386 180.425  1.00  0.00     0.000 C 
BRANCH   4   5
ATOM      5  C   UNL     1     182.652 185.758 181.060  1.00  0.00     0.000 C 
BRANCH   5   6
ATOM      6  C   UNL     1     182.743 185.332 182.537  1.00  0.00     0.000 C 
BRANCH   6   7
ATOM      7  C   UNL     1     183.337 186.430 183.432  1.00  0.00     0.000 C 
BRANCH   7   8
ATOM      8  C   UNL     1     182.637 186.519 184.801  1.00  0.00     0.000 C 
BRANCH   8   9
ATOM      9  C   UNL     1     181.394 185.617 184.893  1.00  0.00     0.000 C 
BRANCH   9  10
ATOM     10  C   UNL     1     181.459 184.531 185.987  1.00  0.00     0.006 C 
BRANCH  10  11
ATOM     11  C   UNL     1     180.089 184.026 186.463  1.00  0.00     0.053 C 
BRANCH  11  12
ATOM     12  C   UNL     1     180.036 182.532 186.534  1.00  0.00     0.041 C 
ATOM     13  O   UNL     1     178.949 181.924 186.337  1.00  0.00    -0.550 OA
ATOM     14  O   UNL     1     181.184 181.809 186.830  1.00  0.00    -0.550 OA
ENDBRANCH  11  12
ENDBRANCH  10  11
ENDBRANCH   9  10
ENDBRANCH   8   9
ENDBRANCH   7   8
ENDBRANCH   6   7
ENDBRANCH   5   6
ENDBRANCH   4   5
ENDBRANCH   3   4
ENDBRANCH   2   3
ENDBRANCH   1   2
BRANCH   1  15
ATOM     15  C   UNL     1     180.074 181.953 182.835  1.00  0.00     0.000 C 
BRANCH  15  16
ATOM     16  C   UNL     1     181.574 182.056 183.165  1.00  0.00     0.000 C 
BRANCH  16  17
ATOM     17  C   UNL     1     182.458 181.310 182.153  1.00  0.00     0.000 C 
BRANCH  17  18
ATOM     18  C   UNL     1     182.257 181.809 180.711  1.00  0.00    -0.000 C 
BRANCH  18  19
ATOM     19  C   UNL     1     183.559 182.343 180.091  1.00  0.00    -0.000 C 
BRANCH  19  20
ATOM     20  C   UNL     1     184.776 182.115 181.004  1.00  0.00    -0.000 C 
BRANCH  20  21
ATOM     21  C   UNL     1     185.614 183.389 181.218  1.00  0.00    -0.000 C 
BRANCH  21  22
ATOM     22  C   UNL     1     186.029 183.667 182.675  1.00  0.00    -0.000 C 
BRANCH  22  23
ATOM     23  C   UNL     1     185.500 182.612 183.662  1.00  0.00    -0.000 C 
BRANCH  23  24
ATOM     24  C   UNL     1     184.783 183.234 184.876  1.00  0.00    -0.000 C 
BRANCH  24  25
ATOM     25  C   UNL     1     185.567 184.345 185.598  1.00  0.00    -0.003 C 
ATOM     26  C   UNL     1     185.036 184.642 187.000  1.00  0.00     0.004 C 
ENDBRANCH  24  25
ENDBRANCH  23  24
ENDBRANCH  22  23
ENDBRANCH  21  22
ENDBRANCH  20  21
ENDBRANCH  19  20
ENDBRANCH  18  19
ENDBRANCH  17  18
ENDBRANCH  16  17
ENDBRANCH  15  16
ENDBRANCH   1  15
TORSDOF 22
ENDMDL
MODEL 8
REMARK VINA RESULT:     0.069      3.105      6.376
REMARK INTER + INTRA:          -5.570
REMARK INTER:                   0.000
REMARK INTRA:                  -5.570
REMARK UNBOUND:                -5.728
REMARK SMILES CCCCCCCCCCCCCCCCCCCCCCCC(=O)[O-]
REMARK SMILES IDX 13 1 14 2 15 3 16 4 17 5 18 6 19 7 20 8 21 9 22 10 23 11
REMARK SMILES IDX 24 12 25 13 26 14 12 15 11 16 10 17 9 18 8 19 7 20 6 21 5 22
REMARK SMILES IDX 4 23 3 24 2 25 1 26
REMARK H PARENT
REMARK Flexibility Score: inf
ROOT
ATOM      1  C   UNL     1     179.921 179.042 177.247  1.00  0.00     0.000 C 
ENDROOT
BRANCH   1   2
ATOM      2  C   UNL     1     179.253 180.116 176.368  1.00  0.00     0.000 C 
BRANCH   2   3
ATOM      3  C   UNL     1     180.188 180.796 175.351  1.00  0.00     0.000 C 
BRANCH   3   4
ATOM      4  C   UNL     1     179.703 182.167 174.839  1.00  0.00     0.000 C 
BRANCH   4   5
ATOM      5  C   UNL     1     178.396 182.651 175.501  1.00  0.00     0.000 C 
BRANCH   5   6
ATOM      6  C   UNL     1     178.280 184.186 175.511  1.00  0.00     0.000 C 
BRANCH   6   7
ATOM      7  C   UNL     1     179.623 184.879 175.789  1.00  0.00     0.000 C 
BRANCH   7   8
ATOM      8  C   UNL     1     179.539 185.884 176.952  1.00  0.00     0.000 C 
BRANCH   8   9
ATOM      9  C   UNL     1     178.237 185.752 177.760  1.00  0.00     0.000 C 
BRANCH   9  10
ATOM     10  C   UNL     1     178.393 185.951 179.282  1.00  0.00     0.006 C 
BRANCH  10  11
ATOM     11  C   UNL     1     179.820 186.290 179.736  1.00  0.00     0.053 C 
BRANCH  11  12
ATOM     12  C   UNL     1     179.943 187.712 180.187  1.00  0.00     0.041 C 
ATOM     13  O   UNL     1     180.160 188.628 179.349  1.00  0.00    -0.550 OA
ATOM     14  O   UNL     1     179.831 188.026 181.535  1.00  0.00    -0.550 OA
ENDBRANCH  11  12
ENDBRANCH  10  11
ENDBRANCH   9  10
ENDBRANCH   8   9
ENDBRANCH   7   8
ENDBRANCH   6   7
ENDBRANCH   5   6
ENDBRANCH   4   5
ENDBRANCH   3   4
ENDBRANCH   2   3
ENDBRANCH   1   2
BRANCH   1  15
ATOM     15  C   UNL     1     179.456 179.063 178.720  1.00  0.00     0.000 C 
BRANCH  15  16
ATOM     16  C   UNL     1     180.639 179.073 179.706  1.00  0.00     0.000 C 
BRANCH  16  17
ATOM     17  C   UNL     1     181.998 179.229 179.003  1.00  0.00     0.000 C 
BRANCH  17  18
ATOM     18  C   UNL     1     183.028 179.976 179.868  1.00  0.00    -0.000 C 
BRANCH  18  19
ATOM     19  C   UNL     1     183.682 181.147 179.116  1.00  0.00    -0.000 C 
BRANCH  19  20
ATOM     20  C   UNL     1     183.150 181.288 177.680  1.00  0.00    -0.000 C 
BRANCH  20  21
ATOM     21  C   UNL     1     182.524 182.667 177.402  1.00  0.00    -0.000 C 
BRANCH  21  22
ATOM     22  C   UNL     1     181.719 183.272 178.567  1.00  0.00    -0.000 C 
BRANCH  22  23
ATOM     23  C   UNL     1     180.308 182.672 178.697  1.00  0.00    -0.000 C 
BRANCH  23  24
ATOM     24  C   UNL     1     179.845 182.543 180.161  1.00  0.00    -0.000 C 
BRANCH  24  25
ATOM     25  C   UNL     1     178.338 182.291 180.349  1.00  0.00    -0.003 C 
ATOM     26  C   UNL     1     177.564 182.264 179.031  1.00  0.00     0.004 C 
ENDBRANCH  24  25
ENDBRANCH  23  24
ENDBRANCH  22  23
ENDBRANCH  21  22
ENDBRANCH  20  21
ENDBRANCH  19  20
ENDBRANCH  18  19
ENDBRANCH  17  18
ENDBRANCH  16  17
ENDBRANCH  15  16
ENDBRANCH   1  15
TORSDOF 22
ENDMDL
MODEL 9
REMARK VINA RESULT:     0.078      3.386      6.716
REMARK INTER + INTRA:          -5.550
REMARK INTER:                   0.000
REMARK INTRA:                  -5.550
REMARK UNBOUND:                -5.728
REMARK SMILES CCCCCCCCCCCCCCCCCCCCCCCC(=O)[O-]
REMARK SMILES IDX 13 1 14 2 15 3 16 4 17 5 18 6 19 7 20 8 21 9 22 10 23 11
REMARK SMILES IDX 24 12 25 13 26 14 12 15 11 16 10 17 9 18 8 19 7 20 6 21 5 22
REMARK SMILES IDX 4 23 3 24 2 25 1 26
REMARK H PARENT
REMARK Flexibility Score: inf
ROOT
ATOM      1  C   UNL     1     179.871 184.303 177.638  1.00  0.00     0.000 C 
ENDROOT
BRANCH   1   2
ATOM      2  C   UNL     1     181.346 183.925 177.406  1.00  0.00     0.000 C 
BRANCH   2   3
ATOM      3  C   UNL     1     181.585 182.458 177.005  1.00  0.00     0.000 C 
BRANCH   3   4
ATOM      4  C   UNL     1     182.256 181.590 178.088  1.00  0.00     0.000 C 
BRANCH   4   5
ATOM      5  C   UNL     1     181.416 180.367 178.514  1.00  0.00     0.000 C 
BRANCH   5   6
ATOM      6  C   UNL     1     180.455 180.692 179.672  1.00  0.00     0.000 C 
BRANCH   6   7
ATOM      7  C   UNL     1     181.006 181.777 180.610  1.00  0.00     0.000 C 
BRANCH   7   8
ATOM      8  C   UNL     1     179.924 182.782 181.049  1.00  0.00     0.000 C 
BRANCH   8   9
ATOM      9  C   UNL     1     178.506 182.188 181.000  1.00  0.00     0.000 C 
BRANCH   9  10
ATOM     10  C   UNL     1     177.402 183.094 181.583  1.00  0.00     0.006 C 
BRANCH  10  11
ATOM     11  C   UNL     1     175.970 182.622 181.288  1.00  0.00     0.053 C 
BRANCH  11  12
ATOM     12  C   UNL     1     175.208 183.617 180.469  1.00  0.00     0.041 C 
ATOM     13  O   UNL     1     174.163 183.270 179.858  1.00  0.00    -0.550 OA
ATOM     14  O   UNL     1     175.660 184.927 180.371  1.00  0.00    -0.550 OA
ENDBRANCH  11  12
ENDBRANCH  10  11
ENDBRANCH   9  10
ENDBRANCH   8   9
ENDBRANCH   7   8
ENDBRANCH   6   7
ENDBRANCH   5   6
ENDBRANCH   4   5
ENDBRANCH   3   4
ENDBRANCH   2   3
ENDBRANCH   1   2
BRANCH   1  15
ATOM     15  C   UNL     1     178.892 183.117 177.497  1.00  0.00     0.000 C 
BRANCH  15  16
ATOM     16  C   UNL     1     177.420 183.566 177.534  1.00  0.00     0.000 C 
BRANCH  16  17
ATOM     17  C   UNL     1     176.441 182.423 177.222  1.00  0.00     0.000 C 
BRANCH  17  18
ATOM     18  C   UNL     1     176.817 181.112 177.935  1.00  0.00    -0.000 C 
BRANCH  18  19
ATOM     19  C   UNL     1     176.897 179.922 176.964  1.00  0.00    -0.000 C 
BRANCH  19  20
ATOM     20  C   UNL     1     178.344 179.455 176.733  1.00  0.00    -0.000 C 
BRANCH  20  21
ATOM     21  C   UNL     1     179.004 180.121 175.511  1.00  0.00    -0.000 C 
BRANCH  21  22
ATOM     22  C   UNL     1     178.045 180.495 174.366  1.00  0.00    -0.000 C 
BRANCH  22  23
ATOM     23  C   UNL     1     178.151 181.973 173.952  1.00  0.00    -0.000 C 
BRANCH  23  24
ATOM     24  C   UNL     1     179.604 182.481 173.910  1.00  0.00    -0.000 C 
BRANCH  24  25
ATOM     25  C   UNL     1     179.760 184.012 173.906  1.00  0.00    -0.003 C 
ATOM     26  C   UNL     1     178.448 184.751 174.171  1.00  0.00     0.004 C 
ENDBRANCH  24  25
ENDBRANCH  23  24
ENDBRANCH  22  23
ENDBRANCH  21  22
ENDBRANCH  20  21
ENDBRANCH  19  20
ENDBRANCH  18  19
ENDBRANCH  17  18
ENDBRANCH  16  17
ENDBRANCH  15  16
ENDBRANCH   1  15
TORSDOF 22
ENDMDL
