MODEL 1
REMARK VINA RESULT:    -5.428      0.000      0.000
REMARK INTER + INTRA:          -9.424
REMARK INTER:                  -7.807
REMARK INTRA:                  -1.616
REMARK UNBOUND:                -1.616
REMARK SMILES CC(C)=CCCC(C)=CCCC(C)=CCO
REMARK SMILES IDX 10 1 9 2 7 3 8 4 6 5 5 6 4 7 1 8 2 9 3 10 11 11 12 12 14 13
REMARK SMILES IDX 13 14 15 15 16 16
REMARK H PARENT 16 17
REMARK Flexibility Score: inf
ROOT
ATOM      1  C   UNL     1     -42.171  45.476 -22.906  1.00  0.00     0.032 C 
ENDROOT
BRANCH   1   2
ATOM      2  C   UNL     1     -43.622  45.453 -22.490  1.00  0.00    -0.028 C 
ATOM      3  C   UNL     1     -44.064  45.987 -21.330  1.00  0.00    -0.077 C 
ATOM      4  C   UNL     1     -43.124  46.675 -20.370  1.00  0.00     0.039 C 
BRANCH   3   5
ATOM      5  C   UNL     1     -45.538  45.930 -21.001  1.00  0.00     0.034 C 
BRANCH   5   6
ATOM      6  C   UNL     1     -46.021  44.479 -20.941  1.00  0.00     0.032 C 
BRANCH   6   7
ATOM      7  C   UNL     1     -45.406  43.766 -19.763  1.00  0.00    -0.028 C 
ATOM      8  C   UNL     1     -44.002  42.115 -18.599  1.00  0.00     0.039 C 
ATOM      9  C   UNL     1     -44.595  42.689 -19.861  1.00  0.00    -0.080 C 
ATOM     10  C   UNL     1     -44.280  42.046 -21.193  1.00  0.00     0.039 C 
ENDBRANCH   6   7
ENDBRANCH   5   6
ENDBRANCH   3   5
ENDBRANCH   1   2
BRANCH   1  11
ATOM     11  C   UNL     1     -41.417  44.258 -22.364  1.00  0.00     0.034 C 
BRANCH  11  12
ATOM     12  C   UNL     1     -40.269  44.692 -21.474  1.00  0.00    -0.075 C 
ATOM     13  C   UNL     1     -39.868  43.982 -20.395  1.00  0.00    -0.000 C 
ATOM     14  C   UNL     1     -39.502  45.936 -21.839  1.00  0.00     0.039 C 
BRANCH  13  15
ATOM     15  C   UNL     1     -40.528  42.719 -19.917  1.00  0.00     0.183 C 
BRANCH  15  16
ATOM     16  O   UNL     1     -40.505  42.674 -18.519  1.00  0.00    -0.392 OA
ATOM     17  H   UNL     1     -41.396  42.992 -18.218  1.00  0.00     0.210 HD
ENDBRANCH  15  16
ENDBRANCH  13  15
ENDBRANCH  11  12
ENDBRANCH   1  11
TORSDOF 8
ENDMDL
MODEL 2
REMARK VINA RESULT:    -5.206      2.644      5.430
REMARK INTER + INTRA:          -9.105
REMARK INTER:                  -7.341
REMARK INTRA:                  -1.765
REMARK UNBOUND:                -1.616
REMARK SMILES CC(C)=CCCC(C)=CCCC(C)=CCO
REMARK SMILES IDX 10 1 9 2 7 3 8 4 6 5 5 6 4 7 1 8 2 9 3 10 11 11 12 12 14 13
REMARK SMILES IDX 13 14 15 15 16 16
REMARK H PARENT 16 17
REMARK Flexibility Score: inf
ROOT
ATOM      1  C   UNL     1     -45.292  44.188 -21.601  1.00  0.00     0.032 C 
ENDROOT
BRANCH   1   2
ATOM      2  C   UNL     1     -44.067  43.343 -21.850  1.00  0.00    -0.028 C 
ATOM      3  C   UNL     1     -43.334  42.798 -20.854  1.00  0.00    -0.077 C 
ATOM      4  C   UNL     1     -43.711  42.982 -19.404  1.00  0.00     0.039 C 
BRANCH   3   5
ATOM      5  C   UNL     1     -42.128  41.953 -21.198  1.00  0.00     0.034 C 
BRANCH   5   6
ATOM      6  C   UNL     1     -41.263  42.650 -22.249  1.00  0.00     0.032 C 
BRANCH   6   7
ATOM      7  C   UNL     1     -40.507  43.801 -21.633  1.00  0.00    -0.028 C 
ATOM      8  C   UNL     1     -39.780  46.133 -21.343  1.00  0.00     0.039 C 
ATOM      9  C   UNL     1     -40.539  45.070 -22.097  1.00  0.00    -0.080 C 
ATOM     10  C   UNL     1     -41.301  45.443 -23.349  1.00  0.00     0.039 C 
ENDBRANCH   6   7
ENDBRANCH   5   6
ENDBRANCH   3   5
ENDBRANCH   1   2
BRANCH   1  11
ATOM     11  C   UNL     1     -45.031  45.660 -21.937  1.00  0.00     0.034 C 
BRANCH  11  12
ATOM     12  C   UNL     1     -44.756  46.456 -20.677  1.00  0.00    -0.075 C 
ATOM     13  C   UNL     1     -45.733  47.063 -19.966  1.00  0.00    -0.000 C 
ATOM     14  C   UNL     1     -43.344  46.523 -20.157  1.00  0.00     0.039 C 
BRANCH  13  15
ATOM     15  C   UNL     1     -47.186  47.072 -20.354  1.00  0.00     0.183 C 
BRANCH  15  16
ATOM     16  O   UNL     1     -47.528  48.325 -20.875  1.00  0.00    -0.392 OA
ATOM     17  H   UNL     1     -47.929  48.153 -21.766  1.00  0.00     0.210 HD
ENDBRANCH  15  16
ENDBRANCH  13  15
ENDBRANCH  11  12
ENDBRANCH   1  11
TORSDOF 8
ENDMDL
MODEL 3
REMARK VINA RESULT:    -5.162      1.419      2.711
REMARK INTER + INTRA:          -9.041
REMARK INTER:                  -7.523
REMARK INTRA:                  -1.518
REMARK UNBOUND:                -1.616
REMARK SMILES CC(C)=CCCC(C)=CCCC(C)=CCO
REMARK SMILES IDX 10 1 9 2 7 3 8 4 6 5 5 6 4 7 1 8 2 9 3 10 11 11 12 12 14 13
REMARK SMILES IDX 13 14 15 15 16 16
REMARK H PARENT 16 17
REMARK Flexibility Score: inf
ROOT
ATOM      1  C   UNL     1     -42.036  43.441 -24.047  1.00  0.00     0.032 C 
ENDROOT
BRANCH   1   2
ATOM      2  C   UNL     1     -43.304  43.149 -23.282  1.00  0.00    -0.028 C 
ATOM      3  C   UNL     1     -44.226  44.094 -22.996  1.00  0.00    -0.077 C 
ATOM      4  C   UNL     1     -44.058  45.524 -23.451  1.00  0.00     0.039 C 
BRANCH   3   5
ATOM      5  C   UNL     1     -45.474  43.708 -22.236  1.00  0.00     0.034 C 
BRANCH   5   6
ATOM      6  C   UNL     1     -45.286  43.943 -20.736  1.00  0.00     0.032 C 
BRANCH   6   7
ATOM      7  C   UNL     1     -46.063  45.157 -20.290  1.00  0.00    -0.028 C 
ATOM      8  C   UNL     1     -46.415  47.502 -19.638  1.00  0.00     0.039 C 
ATOM      9  C   UNL     1     -45.508  46.358 -20.014  1.00  0.00    -0.080 C 
ATOM     10  C   UNL     1     -44.012  46.576 -20.064  1.00  0.00     0.039 C 
ENDBRANCH   6   7
ENDBRANCH   5   6
ENDBRANCH   3   5
ENDBRANCH   1   2
BRANCH   1  11
ATOM     11  C   UNL     1     -40.798  43.256 -23.163  1.00  0.00     0.034 C 
BRANCH  11  12
ATOM     12  C   UNL     1     -40.678  44.390 -22.165  1.00  0.00    -0.075 C 
ATOM     13  C   UNL     1     -40.804  44.209 -20.831  1.00  0.00    -0.000 C 
ATOM     14  C   UNL     1     -40.343  45.768 -22.673  1.00  0.00     0.039 C 
BRANCH  13  15
ATOM     15  C   UNL     1     -41.125  42.892 -20.179  1.00  0.00     0.183 C 
BRANCH  15  16
ATOM     16  O   UNL     1     -40.715  42.916 -18.841  1.00  0.00    -0.392 OA
ATOM     17  H   UNL     1     -40.619  41.967 -18.566  1.00  0.00     0.210 HD
ENDBRANCH  15  16
ENDBRANCH  13  15
ENDBRANCH  11  12
ENDBRANCH   1  11
TORSDOF 8
ENDMDL
MODEL 4
REMARK VINA RESULT:    -5.096      2.842      5.467
REMARK INTER + INTRA:          -8.947
REMARK INTER:                  -7.456
REMARK INTRA:                  -1.491
REMARK UNBOUND:                -1.616
REMARK SMILES CC(C)=CCCC(C)=CCCC(C)=CCO
REMARK SMILES IDX 10 1 9 2 7 3 8 4 6 5 5 6 4 7 1 8 2 9 3 10 11 11 12 12 14 13
REMARK SMILES IDX 13 14 15 15 16 16
REMARK H PARENT 16 17
REMARK Flexibility Score: inf
ROOT
ATOM      1  C   UNL     1     -45.810  44.425 -21.875  1.00  0.00     0.032 C 
ENDROOT
BRANCH   1   2
ATOM      2  C   UNL     1     -44.791  43.502 -22.499  1.00  0.00    -0.028 C 
ATOM      3  C   UNL     1     -43.910  43.907 -23.439  1.00  0.00    -0.077 C 
ATOM      4  C   UNL     1     -43.869  45.337 -23.919  1.00  0.00     0.039 C 
BRANCH   3   5
ATOM      5  C   UNL     1     -42.916  42.916 -24.000  1.00  0.00     0.034 C 
BRANCH   5   6
ATOM      6  C   UNL     1     -41.530  43.552 -24.119  1.00  0.00     0.032 C 
BRANCH   6   7
ATOM      7  C   UNL     1     -40.897  43.699 -22.757  1.00  0.00    -0.028 C 
ATOM      8  C   UNL     1     -39.801  44.859 -20.886  1.00  0.00     0.039 C 
ATOM      9  C   UNL     1     -40.342  44.840 -22.293  1.00  0.00    -0.080 C 
ATOM     10  C   UNL     1     -40.243  46.084 -23.148  1.00  0.00     0.039 C 
ENDBRANCH   6   7
ENDBRANCH   5   6
ENDBRANCH   3   5
ENDBRANCH   1   2
BRANCH   1  11
ATOM     11  C   UNL     1     -45.457  44.740 -20.417  1.00  0.00     0.034 C 
BRANCH  11  12
ATOM     12  C   UNL     1     -44.813  46.108 -20.307  1.00  0.00    -0.075 C 
ATOM     13  C   UNL     1     -45.523  47.238 -20.091  1.00  0.00    -0.000 C 
ATOM     14  C   UNL     1     -43.311  46.207 -20.378  1.00  0.00     0.039 C 
BRANCH  13  15
ATOM     15  C   UNL     1     -47.022  47.292 -19.987  1.00  0.00     0.183 C 
BRANCH  15  16
ATOM     16  O   UNL     1     -47.516  48.314 -20.805  1.00  0.00    -0.392 OA
ATOM     17  H   UNL     1     -48.443  48.490 -20.498  1.00  0.00     0.210 HD
ENDBRANCH  15  16
ENDBRANCH  13  15
ENDBRANCH  11  12
ENDBRANCH   1  11
TORSDOF 8
ENDMDL
MODEL 5
REMARK VINA RESULT:    -5.045      2.554      5.493
REMARK INTER + INTRA:          -8.874
REMARK INTER:                  -7.825
REMARK INTRA:                  -1.049
REMARK UNBOUND:                -1.616
REMARK SMILES CC(C)=CCCC(C)=CCCC(C)=CCO
REMARK SMILES IDX 10 1 9 2 7 3 8 4 6 5 5 6 4 7 1 8 2 9 3 10 11 11 12 12 14 13
REMARK SMILES IDX 13 14 15 15 16 16
REMARK H PARENT 16 17
REMARK Flexibility Score: inf
ROOT
ATOM      1  C   UNL     1     -44.181  44.997 -22.836  1.00  0.00     0.032 C 
ENDROOT
BRANCH   1   2
ATOM      2  C   UNL     1     -42.794  45.549 -22.613  1.00  0.00    -0.028 C 
ATOM      3  C   UNL     1     -41.690  45.018 -23.182  1.00  0.00    -0.077 C 
ATOM      4  C   UNL     1     -41.774  43.832 -24.112  1.00  0.00     0.039 C 
BRANCH   3   5
ATOM      5  C   UNL     1     -40.341  45.645 -22.913  1.00  0.00     0.034 C 
BRANCH   5   6
ATOM      6  C   UNL     1     -40.160  45.913 -21.417  1.00  0.00     0.032 C 
BRANCH   6   7
ATOM      7  C   UNL     1     -39.220  44.902 -20.810  1.00  0.00    -0.028 C 
ATOM      8  C   UNL     1     -38.557  42.794 -19.729  1.00  0.00     0.039 C 
ATOM      9  C   UNL     1     -39.613  43.739 -20.242  1.00  0.00    -0.080 C 
ATOM     10  C   UNL     1     -41.074  43.374 -20.102  1.00  0.00     0.039 C 
ENDBRANCH   6   7
ENDBRANCH   5   6
ENDBRANCH   3   5
ENDBRANCH   1   2
BRANCH   1  11
ATOM     11  C   UNL     1     -45.242  45.861 -22.147  1.00  0.00     0.034 C 
BRANCH  11  12
ATOM     12  C   UNL     1     -45.616  45.276 -20.800  1.00  0.00    -0.075 C 
ATOM     13  C   UNL     1     -46.288  45.975 -19.858  1.00  0.00    -0.000 C 
ATOM     14  C   UNL     1     -45.281  43.834 -20.520  1.00  0.00     0.039 C 
BRANCH  13  15
ATOM     15  C   UNL     1     -46.699  47.415 -20.001  1.00  0.00     0.183 C 
BRANCH  15  16
ATOM     16  O   UNL     1     -47.332  47.844 -18.829  1.00  0.00    -0.392 OA
ATOM     17  H   UNL     1     -47.082  48.797 -18.714  1.00  0.00     0.210 HD
ENDBRANCH  15  16
ENDBRANCH  13  15
ENDBRANCH  11  12
ENDBRANCH   1  11
TORSDOF 8
ENDMDL
MODEL 6
REMARK VINA RESULT:    -5.004      2.004      3.693
REMARK INTER + INTRA:          -8.814
REMARK INTER:                  -7.588
REMARK INTRA:                  -1.227
REMARK UNBOUND:                -1.616
REMARK SMILES CC(C)=CCCC(C)=CCCC(C)=CCO
REMARK SMILES IDX 10 1 9 2 7 3 8 4 6 5 5 6 4 7 1 8 2 9 3 10 11 11 12 12 14 13
REMARK SMILES IDX 13 14 15 15 16 16
REMARK H PARENT 16 17
REMARK Flexibility Score: inf
ROOT
ATOM      1  C   UNL     1     -41.581  42.253 -21.451  1.00  0.00     0.032 C 
ENDROOT
BRANCH   1   2
ATOM      2  C   UNL     1     -42.981  42.679 -21.080  1.00  0.00    -0.028 C 
ATOM      3  C   UNL     1     -43.436  42.684 -19.808  1.00  0.00    -0.077 C 
ATOM      4  C   UNL     1     -42.554  42.281 -18.652  1.00  0.00     0.039 C 
BRANCH   3   5
ATOM      5  C   UNL     1     -44.850  43.140 -19.528  1.00  0.00     0.034 C 
BRANCH   5   6
ATOM      6  C   UNL     1     -45.399  43.949 -20.705  1.00  0.00     0.032 C 
BRANCH   6   7
ATOM      7  C   UNL     1     -46.122  45.177 -20.210  1.00  0.00    -0.028 C 
ATOM      8  C   UNL     1     -46.399  47.539 -19.580  1.00  0.00     0.039 C 
ATOM      9  C   UNL     1     -45.539  46.382 -20.022  1.00  0.00    -0.080 C 
ATOM     10  C   UNL     1     -44.056  46.592 -20.232  1.00  0.00     0.039 C 
ENDBRANCH   6   7
ENDBRANCH   5   6
ENDBRANCH   3   5
ENDBRANCH   1   2
BRANCH   1  11
ATOM     11  C   UNL     1     -40.836  43.371 -22.188  1.00  0.00     0.034 C 
BRANCH  11  12
ATOM     12  C   UNL     1     -40.008  44.191 -21.219  1.00  0.00    -0.075 C 
ATOM     13  C   UNL     1     -39.864  45.531 -21.329  1.00  0.00    -0.000 C 
ATOM     14  C   UNL     1     -39.366  43.495 -20.047  1.00  0.00     0.039 C 
BRANCH  13  15
ATOM     15  C   UNL     1     -40.454  46.361 -22.436  1.00  0.00     0.183 C 
BRANCH  15  16
ATOM     16  O   UNL     1     -39.631  46.294 -23.565  1.00  0.00    -0.392 OA
ATOM     17  H   UNL     1     -40.167  46.653 -24.319  1.00  0.00     0.210 HD
ENDBRANCH  15  16
ENDBRANCH  13  15
ENDBRANCH  11  12
ENDBRANCH   1  11
TORSDOF 8
ENDMDL
MODEL 7
REMARK VINA RESULT:    -4.998      2.155      3.495
REMARK INTER + INTRA:          -8.806
REMARK INTER:                  -7.428
REMARK INTRA:                  -1.378
REMARK UNBOUND:                -1.616
REMARK SMILES CC(C)=CCCC(C)=CCCC(C)=CCO
REMARK SMILES IDX 10 1 9 2 7 3 8 4 6 5 5 6 4 7 1 8 2 9 3 10 11 11 12 12 14 13
REMARK SMILES IDX 13 14 15 15 16 16
REMARK H PARENT 16 17
REMARK Flexibility Score: inf
ROOT
ATOM      1  C   UNL     1     -41.995  43.107 -23.843  1.00  0.00     0.032 C 
ENDROOT
BRANCH   1   2
ATOM      2  C   UNL     1     -43.286  42.939 -23.079  1.00  0.00    -0.028 C 
ATOM      3  C   UNL     1     -44.201  43.925 -22.954  1.00  0.00    -0.077 C 
ATOM      4  C   UNL     1     -44.000  45.274 -23.601  1.00  0.00     0.039 C 
BRANCH   3   5
ATOM      5  C   UNL     1     -45.473  43.663 -22.181  1.00  0.00     0.034 C 
BRANCH   5   6
ATOM      6  C   UNL     1     -45.249  43.884 -20.684  1.00  0.00     0.032 C 
BRANCH   6   7
ATOM      7  C   UNL     1     -46.005  45.101 -20.211  1.00  0.00    -0.028 C 
ATOM      8  C   UNL     1     -46.329  47.452 -19.563  1.00  0.00     0.039 C 
ATOM      9  C   UNL     1     -45.440  46.306 -19.975  1.00  0.00    -0.080 C 
ATOM     10  C   UNL     1     -43.949  46.526 -20.101  1.00  0.00     0.039 C 
ENDBRANCH   6   7
ENDBRANCH   5   6
ENDBRANCH   3   5
ENDBRANCH   1   2
BRANCH   1  11
ATOM     11  C   UNL     1     -40.781  43.001 -22.915  1.00  0.00     0.034 C 
BRANCH  11  12
ATOM     12  C   UNL     1     -40.830  44.074 -21.845  1.00  0.00    -0.075 C 
ATOM     13  C   UNL     1     -40.628  45.384 -22.111  1.00  0.00    -0.000 C 
ATOM     14  C   UNL     1     -41.181  43.674 -20.435  1.00  0.00     0.039 C 
BRANCH  13  15
ATOM     15  C   UNL     1     -40.283  45.932 -23.468  1.00  0.00     0.183 C 
BRANCH  15  16
ATOM     16  O   UNL     1     -38.961  46.392 -23.469  1.00  0.00    -0.392 OA
ATOM     17  H   UNL     1     -38.399  45.617 -23.207  1.00  0.00     0.210 HD
ENDBRANCH  15  16
ENDBRANCH  13  15
ENDBRANCH  11  12
ENDBRANCH   1  11
TORSDOF 8
ENDMDL
MODEL 8
REMARK VINA RESULT:    -4.957      2.522      5.001
REMARK INTER + INTRA:          -8.747
REMARK INTER:                  -7.794
REMARK INTRA:                  -0.954
REMARK UNBOUND:                -1.616
REMARK SMILES CC(C)=CCCC(C)=CCCC(C)=CCO
REMARK SMILES IDX 10 1 9 2 7 3 8 4 6 5 5 6 4 7 1 8 2 9 3 10 11 11 12 12 14 13
REMARK SMILES IDX 13 14 15 15 16 16
REMARK H PARENT 16 17
REMARK Flexibility Score: inf
ROOT
ATOM      1  C   UNL     1     -44.508  45.789 -22.553  1.00  0.00     0.032 C 
ENDROOT
BRANCH   1   2
ATOM      2  C   UNL     1     -43.030  45.493 -22.477  1.00  0.00    -0.028 C 
ATOM      3  C   UNL     1     -42.241  45.938 -21.475  1.00  0.00    -0.077 C 
ATOM      4  C   UNL     1     -42.798  46.753 -20.334  1.00  0.00     0.039 C 
BRANCH   3   5
ATOM      5  C   UNL     1     -40.772  45.581 -21.474  1.00  0.00     0.034 C 
BRANCH   5   6
ATOM      6  C   UNL     1     -40.586  44.064 -21.548  1.00  0.00     0.032 C 
BRANCH   6   7
ATOM      7  C   UNL     1     -41.263  43.391 -20.380  1.00  0.00    -0.028 C 
ATOM      8  C   UNL     1     -41.416  42.110 -18.286  1.00  0.00     0.039 C 
ATOM      9  C   UNL     1     -40.617  42.676 -19.432  1.00  0.00    -0.080 C 
ATOM     10  C   UNL     1     -39.127  42.424 -19.500  1.00  0.00     0.039 C 
ENDBRANCH   6   7
ENDBRANCH   5   6
ENDBRANCH   3   5
ENDBRANCH   1   2
BRANCH   1  11
ATOM     11  C   UNL     1     -45.341  44.579 -22.119  1.00  0.00     0.034 C 
BRANCH  11  12
ATOM     12  C   UNL     1     -45.576  44.600 -20.622  1.00  0.00    -0.075 C 
ATOM     13  C   UNL     1     -46.269  45.583 -20.002  1.00  0.00    -0.000 C 
ATOM     14  C   UNL     1     -45.071  43.448 -19.794  1.00  0.00     0.039 C 
BRANCH  13  15
ATOM     15  C   UNL     1     -46.842  46.786 -20.698  1.00  0.00     0.183 C 
BRANCH  15  16
ATOM     16  O   UNL     1     -48.239  46.713 -20.696  1.00  0.00    -0.392 OA
ATOM     17  H   UNL     1     -48.513  46.688 -19.742  1.00  0.00     0.210 HD
ENDBRANCH  15  16
ENDBRANCH  13  15
ENDBRANCH  11  12
ENDBRANCH   1  11
TORSDOF 8
ENDMDL
MODEL 9
REMARK VINA RESULT:    -4.886      2.913      5.136
REMARK INTER + INTRA:          -8.644
REMARK INTER:                  -7.239
REMARK INTRA:                  -1.406
REMARK UNBOUND:                -1.616
REMARK SMILES CC(C)=CCCC(C)=CCCC(C)=CCO
REMARK SMILES IDX 10 1 9 2 7 3 8 4 6 5 5 6 4 7 1 8 2 9 3 10 11 11 12 12 14 13
REMARK SMILES IDX 13 14 15 15 16 16
REMARK H PARENT 16 17
REMARK Flexibility Score: inf
ROOT
ATOM      1  C   UNL     1     -43.811  45.828 -22.981  1.00  0.00     0.032 C 
ENDROOT
BRANCH   1   2
ATOM      2  C   UNL     1     -43.118  44.557 -23.410  1.00  0.00    -0.028 C 
ATOM      3  C   UNL     1     -41.782  44.473 -23.592  1.00  0.00    -0.077 C 
ATOM      4  C   UNL     1     -40.877  45.656 -23.351  1.00  0.00     0.039 C 
BRANCH   3   5
ATOM      5  C   UNL     1     -41.172  43.155 -24.010  1.00  0.00     0.034 C 
BRANCH   5   6
ATOM      6  C   UNL     1     -41.383  42.095 -22.927  1.00  0.00     0.032 C 
BRANCH   6   7
ATOM      7  C   UNL     1     -40.366  42.257 -21.825  1.00  0.00    -0.028 C 
ATOM      8  C   UNL     1     -39.551  42.700 -19.546  1.00  0.00     0.039 C 
ATOM      9  C   UNL     1     -40.663  42.639 -20.562  1.00  0.00    -0.080 C 
ATOM     10  C   UNL     1     -42.070  43.014 -20.153  1.00  0.00     0.039 C 
ENDBRANCH   6   7
ENDBRANCH   5   6
ENDBRANCH   3   5
ENDBRANCH   1   2
BRANCH   1  11
ATOM     11  C   UNL     1     -44.925  45.540 -21.969  1.00  0.00     0.034 C 
BRANCH  11  12
ATOM     12  C   UNL     1     -44.718  46.347 -20.703  1.00  0.00    -0.075 C 
ATOM     13  C   UNL     1     -45.733  46.953 -20.045  1.00  0.00    -0.000 C 
ATOM     14  C   UNL     1     -43.333  46.427 -20.114  1.00  0.00     0.039 C 
BRANCH  13  15
ATOM     15  C   UNL     1     -47.164  46.949 -20.505  1.00  0.00     0.183 C 
BRANCH  15  16
ATOM     16  O   UNL     1     -47.558  48.251 -20.834  1.00  0.00    -0.392 OA
ATOM     17  H   UNL     1     -48.090  48.176 -21.668  1.00  0.00     0.210 HD
ENDBRANCH  15  16
ENDBRANCH  13  15
ENDBRANCH  11  12
ENDBRANCH   1  11
TORSDOF 8
ENDMDL
