MODEL 1
REMARK VINA RESULT:    -3.370      0.000      0.000
REMARK INTER + INTRA:          -3.781
REMARK INTER:                  -3.764
REMARK INTRA:                  -0.016
REMARK UNBOUND:                -0.016
REMARK SMILES CCCC(=O)[O-]
REMARK SMILES IDX 3 1 4 2 5 3 6 4 2 5 1 6
REMARK H PARENT
REMARK Flexibility Score: inf
ROOT
ATOM      1  C   UNL     1      38.541  51.902  35.059  1.00  0.00     0.052 C 
ENDROOT
BRANCH   1   2
ATOM      2  C   UNL     1      38.596  50.994  33.872  1.00  0.00     0.041 C 
ATOM      3  O   UNL     1      39.667  50.862  33.224  1.00  0.00    -0.550 OA
ATOM      4  O   UNL     1      37.478  50.253  33.512  1.00  0.00    -0.550 OA
ENDBRANCH   1   2
BRANCH   1   5
ATOM      5  C   UNL     1      39.937  52.437  35.390  1.00  0.00     0.003 C 
ATOM      6  C   UNL     1      39.856  53.772  36.125  1.00  0.00     0.004 C 
ENDBRANCH   1   5
TORSDOF 2
ENDMDL
MODEL 2
REMARK VINA RESULT:    -2.881     19.238     19.998
REMARK INTER + INTRA:          -3.235
REMARK INTER:                  -3.223
REMARK INTRA:                  -0.011
REMARK UNBOUND:                -0.016
REMARK SMILES CCCC(=O)[O-]
REMARK SMILES IDX 3 1 4 2 5 3 6 4 2 5 1 6
REMARK H PARENT
REMARK Flexibility Score: inf
ROOT
ATOM      1  C   UNL     1      37.529  38.110  20.753  1.00  0.00     0.052 C 
ENDROOT
BRANCH   1   2
ATOM      2  C   UNL     1      36.884  39.270  20.064  1.00  0.00     0.041 C 
ATOM      3  O   UNL     1      35.662  39.516  20.247  1.00  0.00    -0.550 OA
ATOM      4  O   UNL     1      37.642  40.109  19.258  1.00  0.00    -0.550 OA
ENDBRANCH   1   2
BRANCH   1   5
ATOM      5  C   UNL     1      37.203  36.803  20.025  1.00  0.00     0.003 C 
ATOM      6  C   UNL     1      37.124  35.633  21.001  1.00  0.00     0.004 C 
ENDBRANCH   1   5
TORSDOF 2
ENDMDL
MODEL 3
REMARK VINA RESULT:    -2.711     11.950     12.712
REMARK INTER + INTRA:          -3.045
REMARK INTER:                  -3.013
REMARK INTRA:                  -0.032
REMARK UNBOUND:                -0.016
REMARK SMILES CCCC(=O)[O-]
REMARK SMILES IDX 3 1 4 2 5 3 6 4 2 5 1 6
REMARK H PARENT
REMARK Flexibility Score: inf
ROOT
ATOM      1  C   UNL     1      34.323  46.538  24.911  1.00  0.00     0.052 C 
ENDROOT
BRANCH   1   2
ATOM      2  C   UNL     1      34.023  46.591  23.447  1.00  0.00     0.041 C 
ATOM      3  O   UNL     1      33.074  45.916  22.969  1.00  0.00    -0.550 OA
ATOM      4  O   UNL     1      34.760  47.425  22.617  1.00  0.00    -0.550 OA
ENDBRANCH   1   2
BRANCH   1   5
ATOM      5  C   UNL     1      33.040  46.300  25.713  1.00  0.00     0.003 C 
ATOM      6  C   UNL     1      32.597  47.569  26.436  1.00  0.00     0.004 C 
ENDBRANCH   1   5
TORSDOF 2
ENDMDL
MODEL 4
REMARK VINA RESULT:    -2.683     19.717     20.626
REMARK INTER + INTRA:          -3.013
REMARK INTER:                  -2.979
REMARK INTRA:                  -0.034
REMARK UNBOUND:                -0.016
REMARK SMILES CCCC(=O)[O-]
REMARK SMILES IDX 3 1 4 2 5 3 6 4 2 5 1 6
REMARK H PARENT
REMARK Flexibility Score: inf
ROOT
ATOM      1  C   UNL     1      38.036  37.700  19.666  1.00  0.00     0.052 C 
ENDROOT
BRANCH   1   2
ATOM      2  C   UNL     1      37.521  36.313  19.883  1.00  0.00     0.041 C 
ATOM      3  O   UNL     1      36.913  36.022  20.946  1.00  0.00    -0.550 OA
ATOM      4  O   UNL     1      37.670  35.353  18.890  1.00  0.00    -0.550 OA
ENDBRANCH   1   2
BRANCH   1   5
ATOM      5  C   UNL     1      37.448  38.659  20.704  1.00  0.00     0.003 C 
ATOM      6  C   UNL     1      36.225  39.387  20.152  1.00  0.00     0.004 C 
ENDBRANCH   1   5
TORSDOF 2
ENDMDL
MODEL 5
REMARK VINA RESULT:    -2.630     12.128     12.929
REMARK INTER + INTRA:          -2.953
REMARK INTER:                  -2.944
REMARK INTRA:                  -0.010
REMARK UNBOUND:                -0.016
REMARK SMILES CCCC(=O)[O-]
REMARK SMILES IDX 3 1 4 2 5 3 6 4 2 5 1 6
REMARK H PARENT
REMARK Flexibility Score: inf
ROOT
ATOM      1  C   UNL     1      34.419  46.531  24.429  1.00  0.00     0.052 C 
ENDROOT
BRANCH   1   2
ATOM      2  C   UNL     1      33.201  46.144  25.206  1.00  0.00     0.041 C 
ATOM      3  O   UNL     1      33.070  46.510  26.403  1.00  0.00    -0.550 OA
ATOM      4  O   UNL     1      32.187  45.420  24.592  1.00  0.00    -0.550 OA
ENDBRANCH   1   2
BRANCH   1   5
ATOM      5  C   UNL     1      34.097  46.624  22.935  1.00  0.00     0.003 C 
ATOM      6  C   UNL     1      34.940  47.698  22.254  1.00  0.00     0.004 C 
ENDBRANCH   1   5
TORSDOF 2
ENDMDL
MODEL 6
REMARK VINA RESULT:    -2.599     19.765     20.496
REMARK INTER + INTRA:          -2.919
REMARK INTER:                  -2.903
REMARK INTRA:                  -0.016
REMARK UNBOUND:                -0.016
REMARK SMILES CCCC(=O)[O-]
REMARK SMILES IDX 3 1 4 2 5 3 6 4 2 5 1 6
REMARK H PARENT
REMARK Flexibility Score: inf
ROOT
ATOM      1  C   UNL     1      37.034  37.644  20.403  1.00  0.00     0.052 C 
ENDROOT
BRANCH   1   2
ATOM      2  C   UNL     1      37.860  38.608  19.611  1.00  0.00     0.041 C 
ATOM      3  O   UNL     1      38.924  38.225  19.058  1.00  0.00    -0.550 OA
ATOM      4  O   UNL     1      37.429  39.917  19.443  1.00  0.00    -0.550 OA
ENDBRANCH   1   2
BRANCH   1   5
ATOM      5  C   UNL     1      37.439  36.202  20.083  1.00  0.00     0.003 C 
ATOM      6  C   UNL     1      37.048  35.255  21.214  1.00  0.00     0.004 C 
ENDBRANCH   1   5
TORSDOF 2
ENDMDL
MODEL 7
REMARK VINA RESULT:    -2.561     28.083     28.481
REMARK INTER + INTRA:          -2.876
REMARK INTER:                  -2.844
REMARK INTRA:                  -0.032
REMARK UNBOUND:                -0.016
REMARK SMILES CCCC(=O)[O-]
REMARK SMILES IDX 3 1 4 2 5 3 6 4 2 5 1 6
REMARK H PARENT
REMARK Flexibility Score: inf
ROOT
ATOM      1  C   UNL     1      20.938  37.050  18.461  1.00  0.00     0.052 C 
ENDROOT
BRANCH   1   2
ATOM      2  C   UNL     1      22.052  36.469  17.650  1.00  0.00     0.041 C 
ATOM      3  O   UNL     1      22.904  35.716  18.191  1.00  0.00    -0.550 OA
ATOM      4  O   UNL     1      22.122  36.718  16.286  1.00  0.00    -0.550 OA
ENDBRANCH   1   2
BRANCH   1   5
ATOM      5  C   UNL     1      20.182  35.945  19.204  1.00  0.00     0.003 C 
ATOM      6  C   UNL     1      20.054  36.267  20.690  1.00  0.00     0.004 C 
ENDBRANCH   1   5
TORSDOF 2
ENDMDL
MODEL 8
REMARK VINA RESULT:    -2.475     19.325     20.037
REMARK INTER + INTRA:          -2.780
REMARK INTER:                  -2.763
REMARK INTRA:                  -0.017
REMARK UNBOUND:                -0.016
REMARK SMILES CCCC(=O)[O-]
REMARK SMILES IDX 3 1 4 2 5 3 6 4 2 5 1 6
REMARK H PARENT
REMARK Flexibility Score: inf
ROOT
ATOM      1  C   UNL     1      37.786  39.733  19.290  1.00  0.00     0.052 C 
ENDROOT
BRANCH   1   2
ATOM      2  C   UNL     1      36.713  38.988  20.018  1.00  0.00     0.041 C 
ATOM      3  O   UNL     1      35.686  39.593  20.425  1.00  0.00    -0.550 OA
ATOM      4  O   UNL     1      36.822  37.617  20.204  1.00  0.00    -0.550 OA
ENDBRANCH   1   2
BRANCH   1   5
ATOM      5  C   UNL     1      38.863  38.767  18.787  1.00  0.00     0.003 C 
ATOM      6  C   UNL     1      39.353  39.163  17.397  1.00  0.00     0.004 C 
ENDBRANCH   1   5
TORSDOF 2
ENDMDL
MODEL 9
REMARK VINA RESULT:    -2.416     19.241     20.108
REMARK INTER + INTRA:          -2.714
REMARK INTER:                  -2.694
REMARK INTRA:                  -0.020
REMARK UNBOUND:                -0.016
REMARK SMILES CCCC(=O)[O-]
REMARK SMILES IDX 3 1 4 2 5 3 6 4 2 5 1 6
REMARK H PARENT
REMARK Flexibility Score: inf
ROOT
ATOM      1  C   UNL     1      38.179  37.975  19.532  1.00  0.00     0.052 C 
ENDROOT
BRANCH   1   2
ATOM      2  C   UNL     1      38.918  38.847  18.566  1.00  0.00     0.041 C 
ATOM      3  O   UNL     1      39.229  38.409  17.427  1.00  0.00    -0.550 OA
ATOM      4  O   UNL     1      39.221  40.159  18.905  1.00  0.00    -0.550 OA
ENDBRANCH   1   2
BRANCH   1   5
ATOM      5  C   UNL     1      37.525  38.823  20.627  1.00  0.00     0.003 C 
ATOM      6  C   UNL     1      36.143  39.308  20.198  1.00  0.00     0.004 C 
ENDBRANCH   1   5
TORSDOF 2
ENDMDL
