MODEL 1
REMARK VINA RESULT:    -6.150      0.000      0.000
REMARK INTER + INTRA:         -10.532
REMARK INTER:                  -9.026
REMARK INTRA:                  -1.506
REMARK UNBOUND:                -1.506
REMARK SMILES O=c1c(O[C@@H]2O[C@H](CO)[C@H](O)[C@H](O)[C@H]2O)c(-c2ccc(O)c(O)c2)oc2cc(O)cc(O)c12
REMARK SMILES IDX 4 1 3 2 16 3 25 4 2 5 26 6 1 7 33 8 27 9 31 10 28 11 30 12
REMARK SMILES IDX 17 13 18 14 19 15 20 16 24 17 22 18 21 19 23 21 32 23 29 25
REMARK SMILES IDX 5 27 14 28 6 29 12 30 7 31 10 32 15 33 13 35 8 37 9 38 11 40
REMARK H PARENT 21 20 23 22 32 24 29 26 15 34 13 36 9 39 11 41
REMARK Flexibility Score: inf
ROOT
ATOM      1  O   UNL     1      19.979  -8.870  19.650  1.00  0.00    -0.454 OA
ENDROOT
BRANCH   1   2
ATOM      2  C   UNL     1      20.352  -7.671  19.029  1.00  0.00     0.214 A 
ATOM      3  C   UNL     1      20.797  -7.633  17.690  1.00  0.00     0.180 A 
ATOM      4  O   UNL     1      21.220  -6.485  17.169  1.00  0.00    -0.452 OA
ATOM      5  C   UNL     1      20.289  -6.476  19.754  1.00  0.00     0.239 A 
ATOM      6  C   UNL     1      21.211  -5.335  17.834  1.00  0.00     0.146 A 
ATOM      7  O   UNL     1      19.851  -6.496  20.936  1.00  0.00    -0.285 OA
ATOM      8  C   UNL     1      20.727  -5.275  19.161  1.00  0.00     0.111 A 
ATOM      9  C   UNL     1      21.675  -4.179  17.199  1.00  0.00     0.094 A 
ATOM     10  C   UNL     1      20.716  -4.030  19.836  1.00  0.00     0.134 A 
ATOM     11  C   UNL     1      21.664  -2.952  17.871  1.00  0.00     0.123 A 
ATOM     12  C   UNL     1      21.185  -2.881  19.181  1.00  0.00     0.093 A 
BRANCH   3  13
ATOM     13  C   UNL     1      20.800  -8.833  16.826  1.00  0.00     0.025 A 
ATOM     14  C   UNL     1      21.935  -9.131  16.055  1.00  0.00     0.016 A 
ATOM     15  C   UNL     1      21.952 -10.263  15.235  1.00  0.00     0.051 A 
ATOM     16  C   UNL     1      20.837 -11.103  15.164  1.00  0.00     0.157 A 
ATOM     17  C   UNL     1      19.670  -9.663  16.731  1.00  0.00     0.062 A 
ATOM     18  C   UNL     1      19.687 -10.801  15.914  1.00  0.00     0.158 A 
BRANCH  16  19
ATOM     19  O   UNL     1      20.888 -12.229  14.342  1.00  0.00    -0.504 OA
ATOM     20  H   UNL     1      20.066 -12.789  14.147  1.00  0.00     0.293 HD
ENDBRANCH  16  19
BRANCH  18  21
ATOM     21  O   UNL     1      18.569 -11.629  15.843  1.00  0.00    -0.504 OA
ATOM     22  H   UNL     1      17.874 -11.522  15.113  1.00  0.00     0.293 HD
ENDBRANCH  18  21
ENDBRANCH   3  13
BRANCH  10  23
ATOM     23  O   UNL     1      20.247  -3.927  21.145  1.00  0.00    -0.507 OA
ATOM     24  H   UNL     1      20.653  -4.465  21.902  1.00  0.00     0.293 HD
ENDBRANCH  10  23
BRANCH  11  25
ATOM     25  O   UNL     1      22.124  -1.796  17.245  1.00  0.00    -0.508 OA
ATOM     26  H   UNL     1      22.954  -1.803  16.663  1.00  0.00     0.293 HD
ENDBRANCH  11  25
ENDBRANCH   1   2
BRANCH   1  27
ATOM     27  C   UNL     1      20.925  -9.763  20.245  1.00  0.00     0.339 C 
ATOM     28  C   UNL     1      21.006  -9.555  21.768  1.00  0.00     0.214 C 
ATOM     29  O   UNL     1      20.648 -11.111  19.888  1.00  0.00    -0.332 OA
ATOM     30  C   UNL     1      19.730 -10.053  22.462  1.00  0.00     0.180 C 
ATOM     31  C   UNL     1      19.451 -11.632  20.455  1.00  0.00     0.179 C 
ATOM     32  C   UNL     1      19.408 -11.484  22.001  1.00  0.00     0.177 C 
BRANCH  28  33
ATOM     33  O   UNL     1      22.125 -10.246  22.264  1.00  0.00    -0.384 OA
ATOM     34  H   UNL     1      22.596 -10.632  21.480  1.00  0.00     0.211 HD
ENDBRANCH  28  33
BRANCH  30  35
ATOM     35  O   UNL     1      18.666  -9.177  22.186  1.00  0.00    -0.387 OA
ATOM     36  H   UNL     1      18.918  -8.655  21.381  1.00  0.00     0.211 HD
ENDBRANCH  30  35
BRANCH  31  37
ATOM     37  C   UNL     1      18.190 -11.138  19.708  1.00  0.00     0.191 C 
BRANCH  37  38
ATOM     38  O   UNL     1      17.149 -12.073  19.811  1.00  0.00    -0.394 OA
ATOM     39  H   UNL     1      17.574 -12.963  19.921  1.00  0.00     0.210 HD
ENDBRANCH  37  38
ENDBRANCH  31  37
BRANCH  32  40
ATOM     40  O   UNL     1      18.166 -11.888  22.519  1.00  0.00    -0.387 OA
ATOM     41  H   UNL     1      17.473 -11.571  21.884  1.00  0.00     0.211 HD
ENDBRANCH  32  40
ENDBRANCH   1  27
TORSDOF 12
ENDMDL
MODEL 2
REMARK VINA RESULT:    -6.023      3.686      8.879
REMARK INTER + INTRA:         -10.346
REMARK INTER:                  -8.882
REMARK INTRA:                  -1.463
REMARK UNBOUND:                -1.506
REMARK SMILES O=c1c(O[C@@H]2O[C@H](CO)[C@H](O)[C@H](O)[C@H]2O)c(-c2ccc(O)c(O)c2)oc2cc(O)cc(O)c12
REMARK SMILES IDX 4 1 3 2 16 3 25 4 2 5 26 6 1 7 33 8 27 9 31 10 28 11 30 12
REMARK SMILES IDX 17 13 18 14 19 15 20 16 24 17 22 18 21 19 23 21 32 23 29 25
REMARK SMILES IDX 5 27 14 28 6 29 12 30 7 31 10 32 15 33 13 35 8 37 9 38 11 40
REMARK H PARENT 21 20 23 22 32 24 29 26 15 34 13 36 9 39 11 41
REMARK Flexibility Score: inf
ROOT
ATOM      1  O   UNL     1      19.904 -12.332  17.490  1.00  0.00    -0.454 OA
ENDROOT
BRANCH   1   2
ATOM      2  C   UNL     1      20.293 -13.523  18.116  1.00  0.00     0.214 A 
ATOM      3  C   UNL     1      20.781 -13.542  19.440  1.00  0.00     0.180 A 
ATOM      4  O   UNL     1      21.217 -14.684  19.965  1.00  0.00    -0.452 OA
ATOM      5  C   UNL     1      20.203 -14.729  17.412  1.00  0.00     0.239 A 
ATOM      6  C   UNL     1      21.183 -15.844  19.319  1.00  0.00     0.146 A 
ATOM      7  O   UNL     1      19.729 -14.725  16.244  1.00  0.00    -0.285 OA
ATOM      8  C   UNL     1      20.658 -15.922  18.008  1.00  0.00     0.111 A 
ATOM      9  C   UNL     1      21.665 -16.992  19.955  1.00  0.00     0.094 A 
ATOM     10  C   UNL     1      20.621 -17.177  17.353  1.00  0.00     0.134 A 
ATOM     11  C   UNL     1      21.629 -18.229  19.303  1.00  0.00     0.123 A 
ATOM     12  C   UNL     1      21.108 -18.318  18.009  1.00  0.00     0.093 A 
BRANCH   3  13
ATOM     13  C   UNL     1      20.815 -12.330  20.286  1.00  0.00     0.025 A 
ATOM     14  C   UNL     1      21.996 -11.986  20.961  1.00  0.00     0.016 A 
ATOM     15  C   UNL     1      22.043 -10.842  21.762  1.00  0.00     0.051 A 
ATOM     16  C   UNL     1      20.911 -10.035  21.911  1.00  0.00     0.157 A 
ATOM     17  C   UNL     1      19.670 -11.533  20.460  1.00  0.00     0.062 A 
ATOM     18  C   UNL     1      19.716 -10.383  21.258  1.00  0.00     0.158 A 
BRANCH  16  19
ATOM     19  O   UNL     1      20.992  -8.895  22.711  1.00  0.00    -0.504 OA
ATOM     20  H   UNL     1      20.816  -7.967  22.344  1.00  0.00     0.293 HD
ENDBRANCH  16  19
BRANCH  18  21
ATOM     21  O   UNL     1      18.582  -9.588  21.407  1.00  0.00    -0.504 OA
ATOM     22  H   UNL     1      18.529  -8.864  22.115  1.00  0.00     0.293 HD
ENDBRANCH  18  21
ENDBRANCH   3  13
BRANCH  10  23
ATOM     23  O   UNL     1      20.111 -17.298  16.061  1.00  0.00    -0.507 OA
ATOM     24  H   UNL     1      20.634 -17.752  15.320  1.00  0.00     0.293 HD
ENDBRANCH  10  23
BRANCH  11  25
ATOM     25  O   UNL     1      22.106 -19.377  19.930  1.00  0.00    -0.508 OA
ATOM     26  H   UNL     1      23.050 -19.711  19.776  1.00  0.00     0.293 HD
ENDBRANCH  11  25
ENDBRANCH   1   2
BRANCH   1  27
ATOM     27  C   UNL     1      20.842 -11.370  17.000  1.00  0.00     0.339 C 
ATOM     28  C   UNL     1      21.011 -11.484  15.474  1.00  0.00     0.214 C 
ATOM     29  O   UNL     1      20.492 -10.058  17.419  1.00  0.00    -0.332 OA
ATOM     30  C   UNL     1      19.753 -10.993  14.742  1.00  0.00     0.180 C 
ATOM     31  C   UNL     1      19.306  -9.549  16.818  1.00  0.00     0.179 C 
ATOM     32  C   UNL     1      19.349  -9.606  15.266  1.00  0.00     0.177 C 
BRANCH  28  33
ATOM     33  O   UNL     1      22.125 -10.722  15.081  1.00  0.00    -0.384 OA
ATOM     34  H   UNL     1      22.673 -10.572  15.895  1.00  0.00     0.211 HD
ENDBRANCH  28  33
BRANCH  30  35
ATOM     35  O   UNL     1      18.713 -11.923  14.908  1.00  0.00    -0.387 OA
ATOM     36  H   UNL     1      18.349 -12.119  14.006  1.00  0.00     0.211 HD
ENDBRANCH  30  35
BRANCH  31  37
ATOM     37  C   UNL     1      18.029 -10.135  17.466  1.00  0.00     0.191 C 
BRANCH  37  38
ATOM     38  O   UNL     1      17.050  -9.141  17.629  1.00  0.00    -0.394 OA
ATOM     39  H   UNL     1      17.288  -8.638  18.450  1.00  0.00     0.210 HD
ENDBRANCH  37  38
ENDBRANCH  31  37
BRANCH  32  40
ATOM     40  O   UNL     1      18.121  -9.218  14.706  1.00  0.00    -0.387 OA
ATOM     41  H   UNL     1      17.488  -9.967  14.856  1.00  0.00     0.211 HD
ENDBRANCH  32  40
ENDBRANCH   1  27
TORSDOF 12
ENDMDL
MODEL 3
REMARK VINA RESULT:    -5.838      0.971      2.186
REMARK INTER + INTRA:         -10.075
REMARK INTER:                  -8.230
REMARK INTRA:                  -1.845
REMARK UNBOUND:                -1.506
REMARK SMILES O=c1c(O[C@@H]2O[C@H](CO)[C@H](O)[C@H](O)[C@H]2O)c(-c2ccc(O)c(O)c2)oc2cc(O)cc(O)c12
REMARK SMILES IDX 4 1 3 2 16 3 25 4 2 5 26 6 1 7 33 8 27 9 31 10 28 11 30 12
REMARK SMILES IDX 17 13 18 14 19 15 20 16 24 17 22 18 21 19 23 21 32 23 29 25
REMARK SMILES IDX 5 27 14 28 6 29 12 30 7 31 10 32 15 33 13 35 8 37 9 38 11 40
REMARK H PARENT 21 20 23 22 32 24 29 26 15 34 13 36 9 39 11 41
REMARK Flexibility Score: inf
ROOT
ATOM      1  O   UNL     1      20.267  -8.399  19.900  1.00  0.00    -0.454 OA
ENDROOT
BRANCH   1   2
ATOM      2  C   UNL     1      20.581  -7.256  19.154  1.00  0.00     0.214 A 
ATOM      3  C   UNL     1      20.962  -7.335  17.797  1.00  0.00     0.180 A 
ATOM      4  O   UNL     1      21.332  -6.233  17.151  1.00  0.00    -0.452 OA
ATOM      5  C   UNL     1      20.524  -5.999  19.767  1.00  0.00     0.239 A 
ATOM      6  C   UNL     1      21.326  -5.026  17.706  1.00  0.00     0.146 A 
ATOM      7  O   UNL     1      20.143  -5.918  20.966  1.00  0.00    -0.285 OA
ATOM      8  C   UNL     1      20.905  -4.851  19.045  1.00  0.00     0.111 A 
ATOM      9  C   UNL     1      21.732  -3.924  16.946  1.00  0.00     0.094 A 
ATOM     10  C   UNL     1      20.895  -3.549  19.601  1.00  0.00     0.134 A 
ATOM     11  C   UNL     1      21.722  -2.641  17.500  1.00  0.00     0.123 A 
ATOM     12  C   UNL     1      21.304  -2.457  18.821  1.00  0.00     0.093 A 
BRANCH   3  13
ATOM     13  C   UNL     1      20.953  -8.610  17.048  1.00  0.00     0.025 A 
ATOM     14  C   UNL     1      22.072  -9.456  17.103  1.00  0.00     0.016 A 
ATOM     15  C   UNL     1      22.076 -10.665  16.402  1.00  0.00     0.051 A 
ATOM     16  C   UNL     1      20.973 -11.039  15.628  1.00  0.00     0.157 A 
ATOM     17  C   UNL     1      19.857  -8.974  16.246  1.00  0.00     0.062 A 
ATOM     18  C   UNL     1      19.858 -10.188  15.547  1.00  0.00     0.158 A 
BRANCH  16  19
ATOM     19  O   UNL     1      21.005 -12.255  14.946  1.00  0.00    -0.504 OA
ATOM     20  H   UNL     1      21.312 -13.112  15.390  1.00  0.00     0.293 HD
ENDBRANCH  16  19
BRANCH  18  21
ATOM     21  O   UNL     1      18.758 -10.550  14.772  1.00  0.00    -0.504 OA
ATOM     22  H   UNL     1      18.242 -11.405  14.948  1.00  0.00     0.293 HD
ENDBRANCH  18  21
ENDBRANCH   3  13
BRANCH  10  23
ATOM     23  O   UNL     1      20.486  -3.333  20.917  1.00  0.00    -0.507 OA
ATOM     24  H   UNL     1      19.507  -3.249  21.165  1.00  0.00     0.293 HD
ENDBRANCH  10  23
BRANCH  11  25
ATOM     25  O   UNL     1      22.125  -1.539  16.749  1.00  0.00    -0.508 OA
ATOM     26  H   UNL     1      21.767  -0.610  16.938  1.00  0.00     0.293 HD
ENDBRANCH  11  25
ENDBRANCH   1   2
BRANCH   1  27
ATOM     27  C   UNL     1      18.928  -8.871  20.071  1.00  0.00     0.339 C 
ATOM     28  C   UNL     1      18.771 -10.306  19.535  1.00  0.00     0.214 C 
ATOM     29  O   UNL     1      18.510  -8.741  21.423  1.00  0.00    -0.332 OA
ATOM     30  C   UNL     1      19.502 -11.314  20.433  1.00  0.00     0.180 C 
ATOM     31  C   UNL     1      19.179  -9.612  22.328  1.00  0.00     0.179 C 
ATOM     32  C   UNL     1      19.093 -11.102  21.900  1.00  0.00     0.177 C 
BRANCH  28  33
ATOM     33  O   UNL     1      17.402 -10.621  19.472  1.00  0.00    -0.384 OA
ATOM     34  H   UNL     1      16.909  -9.760  19.449  1.00  0.00     0.211 HD
ENDBRANCH  28  33
BRANCH  30  35
ATOM     35  O   UNL     1      20.890 -11.179  20.267  1.00  0.00    -0.387 OA
ATOM     36  H   UNL     1      21.118 -10.234  20.465  1.00  0.00     0.211 HD
ENDBRANCH  30  35
BRANCH  31  37
ATOM     37  C   UNL     1      20.598  -9.106  22.681  1.00  0.00     0.191 C 
BRANCH  37  38
ATOM     38  O   UNL     1      20.574  -7.743  23.019  1.00  0.00    -0.394 OA
ATOM     39  H   UNL     1      20.303  -7.690  23.972  1.00  0.00     0.210 HD
ENDBRANCH  37  38
ENDBRANCH  31  37
BRANCH  32  40
ATOM     40  O   UNL     1      19.866 -11.922  22.738  1.00  0.00    -0.387 OA
ATOM     41  H   UNL     1      19.942 -12.802  22.288  1.00  0.00     0.211 HD
ENDBRANCH  32  40
ENDBRANCH   1  27
TORSDOF 12
ENDMDL
MODEL 4
REMARK VINA RESULT:    -5.794      2.017      5.063
REMARK INTER + INTRA:         -10.010
REMARK INTER:                  -8.279
REMARK INTRA:                  -1.730
REMARK UNBOUND:                -1.506
REMARK SMILES O=c1c(O[C@@H]2O[C@H](CO)[C@H](O)[C@H](O)[C@H]2O)c(-c2ccc(O)c(O)c2)oc2cc(O)cc(O)c12
REMARK SMILES IDX 4 1 3 2 16 3 25 4 2 5 26 6 1 7 33 8 27 9 31 10 28 11 30 12
REMARK SMILES IDX 17 13 18 14 19 15 20 16 24 17 22 18 21 19 23 21 32 23 29 25
REMARK SMILES IDX 5 27 14 28 6 29 12 30 7 31 10 32 15 33 13 35 8 37 9 38 11 40
REMARK H PARENT 21 20 23 22 32 24 29 26 15 34 13 36 9 39 11 41
REMARK Flexibility Score: inf
ROOT
ATOM      1  O   UNL     1      20.500  -8.362  19.600  1.00  0.00    -0.454 OA
ENDROOT
BRANCH   1   2
ATOM      2  C   UNL     1      20.709  -6.992  19.395  1.00  0.00     0.214 A 
ATOM      3  C   UNL     1      20.463  -6.043  20.411  1.00  0.00     0.180 A 
ATOM      4  O   UNL     1      20.595  -4.746  20.147  1.00  0.00    -0.452 OA
ATOM      5  C   UNL     1      21.166  -6.546  18.150  1.00  0.00     0.239 A 
ATOM      6  C   UNL     1      20.992  -4.279  18.968  1.00  0.00     0.146 A 
ATOM      7  O   UNL     1      21.427  -7.392  17.253  1.00  0.00    -0.285 OA
ATOM      8  C   UNL     1      21.312  -5.165  17.913  1.00  0.00     0.111 A 
ATOM      9  C   UNL     1      21.101  -2.897  18.785  1.00  0.00     0.094 A 
ATOM     10  C   UNL     1      21.748  -4.635  16.675  1.00  0.00     0.134 A 
ATOM     11  C   UNL     1      21.531  -2.378  17.559  1.00  0.00     0.123 A 
ATOM     12  C   UNL     1      21.853  -3.245  16.512  1.00  0.00     0.093 A 
BRANCH   3  13
ATOM     13  C   UNL     1      20.074  -6.437  21.782  1.00  0.00     0.025 A 
ATOM     14  C   UNL     1      18.801  -6.982  22.014  1.00  0.00     0.016 A 
ATOM     15  C   UNL     1      18.420  -7.361  23.304  1.00  0.00     0.051 A 
ATOM     16  C   UNL     1      19.297  -7.190  24.379  1.00  0.00     0.157 A 
ATOM     17  C   UNL     1      20.943  -6.239  22.869  1.00  0.00     0.062 A 
ATOM     18  C   UNL     1      20.565  -6.623  24.163  1.00  0.00     0.158 A 
BRANCH  16  19
ATOM     19  O   UNL     1      18.891  -7.584  25.654  1.00  0.00    -0.504 OA
ATOM     20  H   UNL     1      18.231  -7.042  26.199  1.00  0.00     0.293 HD
ENDBRANCH  16  19
BRANCH  18  21
ATOM     21  O   UNL     1      21.441  -6.443  25.230  1.00  0.00    -0.504 OA
ATOM     22  H   UNL     1      21.544  -5.544  25.687  1.00  0.00     0.293 HD
ENDBRANCH  18  21
ENDBRANCH   3  13
BRANCH  10  23
ATOM     23  O   UNL     1      22.074  -5.474  15.609  1.00  0.00    -0.507 OA
ATOM     24  H   UNL     1      22.431  -5.110  14.733  1.00  0.00     0.293 HD
ENDBRANCH  10  23
BRANCH  11  25
ATOM     25  O   UNL     1      21.643  -1.003  17.370  1.00  0.00    -0.508 OA
ATOM     26  H   UNL     1      21.532  -0.352  18.140  1.00  0.00     0.293 HD
ENDBRANCH  11  25
ENDBRANCH   1   2
BRANCH   1  27
ATOM     27  C   UNL     1      21.492  -9.223  20.165  1.00  0.00     0.339 C 
ATOM     28  C   UNL     1      21.029  -9.792  21.519  1.00  0.00     0.214 C 
ATOM     29  O   UNL     1      21.874 -10.236  19.245  1.00  0.00    -0.332 OA
ATOM     30  C   UNL     1      19.899 -10.814  21.330  1.00  0.00     0.180 C 
ATOM     31  C   UNL     1      20.859 -11.197  18.980  1.00  0.00     0.179 C 
ATOM     32  C   UNL     1      20.303 -11.854  20.273  1.00  0.00     0.177 C 
BRANCH  28  33
ATOM     33  O   UNL     1      22.125 -10.399  22.158  1.00  0.00    -0.384 OA
ATOM     34  H   UNL     1      22.824  -9.701  22.255  1.00  0.00     0.211 HD
ENDBRANCH  28  33
BRANCH  30  35
ATOM     35  O   UNL     1      18.715 -10.151  20.965  1.00  0.00    -0.387 OA
ATOM     36  H   UNL     1      17.982 -10.538  21.512  1.00  0.00     0.211 HD
ENDBRANCH  30  35
BRANCH  31  37
ATOM     37  C   UNL     1      19.790 -10.659  17.999  1.00  0.00     0.191 C 
BRANCH  37  38
ATOM     38  O   UNL     1      20.387  -9.932  16.958  1.00  0.00    -0.394 OA
ATOM     39  H   UNL     1      19.810 -10.049  16.159  1.00  0.00     0.210 HD
ENDBRANCH  37  38
ENDBRANCH  31  37
BRANCH  32  40
ATOM     40  O   UNL     1      19.220 -12.702  19.992  1.00  0.00    -0.387 OA
ATOM     41  H   UNL     1      18.557 -12.571  20.719  1.00  0.00     0.211 HD
ENDBRANCH  32  40
ENDBRANCH   1  27
TORSDOF 12
ENDMDL
MODEL 5
REMARK VINA RESULT:    -5.779      1.994      6.416
REMARK INTER + INTRA:          -9.988
REMARK INTER:                  -9.643
REMARK INTRA:                  -0.345
REMARK UNBOUND:                -1.506
REMARK SMILES O=c1c(O[C@@H]2O[C@H](CO)[C@H](O)[C@H](O)[C@H]2O)c(-c2ccc(O)c(O)c2)oc2cc(O)cc(O)c12
REMARK SMILES IDX 4 1 3 2 16 3 25 4 2 5 26 6 1 7 33 8 27 9 31 10 28 11 30 12
REMARK SMILES IDX 17 13 18 14 19 15 20 16 24 17 22 18 21 19 23 21 32 23 29 25
REMARK SMILES IDX 5 27 14 28 6 29 12 30 7 31 10 32 15 33 13 35 8 37 9 38 11 40
REMARK H PARENT 21 20 23 22 32 24 29 26 15 34 13 36 9 39 11 41
REMARK Flexibility Score: inf
ROOT
ATOM      1  O   UNL     1      19.533 -10.655  19.258  1.00  0.00    -0.454 OA
ENDROOT
BRANCH   1   2
ATOM      2  C   UNL     1      19.750 -11.081  17.942  1.00  0.00     0.214 A 
ATOM      3  C   UNL     1      20.215 -10.200  16.942  1.00  0.00     0.180 A 
ATOM      4  O   UNL     1      20.328 -10.627  15.687  1.00  0.00    -0.452 OA
ATOM      5  C   UNL     1      19.495 -12.414  17.602  1.00  0.00     0.239 A 
ATOM      6  C   UNL     1      20.062 -11.875  15.316  1.00  0.00     0.146 A 
ATOM      7  O   UNL     1      19.120 -13.216  18.499  1.00  0.00    -0.285 OA
ATOM      8  C   UNL     1      19.644 -12.836  16.265  1.00  0.00     0.111 A 
ATOM      9  C   UNL     1      20.210 -12.231  13.971  1.00  0.00     0.094 A 
ATOM     10  C   UNL     1      19.384 -14.160  15.839  1.00  0.00     0.134 A 
ATOM     11  C   UNL     1      19.950 -13.540  13.554  1.00  0.00     0.123 A 
ATOM     12  C   UNL     1      19.541 -14.498  14.485  1.00  0.00     0.093 A 
BRANCH   3  13
ATOM     13  C   UNL     1      20.603  -8.804  17.238  1.00  0.00     0.025 A 
ATOM     14  C   UNL     1      21.749  -8.258  16.639  1.00  0.00     0.016 A 
ATOM     15  C   UNL     1      22.125  -6.939  16.908  1.00  0.00     0.051 A 
ATOM     16  C   UNL     1      21.372  -6.154  17.786  1.00  0.00     0.157 A 
ATOM     17  C   UNL     1      19.863  -8.022  18.142  1.00  0.00     0.062 A 
ATOM     18  C   UNL     1      20.236  -6.697  18.410  1.00  0.00     0.158 A 
BRANCH  16  19
ATOM     19  O   UNL     1      21.769  -4.839  18.029  1.00  0.00    -0.504 OA
ATOM     20  H   UNL     1      22.004  -4.201  17.277  1.00  0.00     0.293 HD
ENDBRANCH  16  19
BRANCH  18  21
ATOM     21  O   UNL     1      19.484  -5.923  19.291  1.00  0.00    -0.504 OA
ATOM     22  H   UNL     1      19.298  -4.943  19.111  1.00  0.00     0.293 HD
ENDBRANCH  18  21
ENDBRANCH   3  13
BRANCH  10  23
ATOM     23  O   UNL     1      18.970 -15.138  16.743  1.00  0.00    -0.507 OA
ATOM     24  H   UNL     1      19.451 -15.290  17.622  1.00  0.00     0.293 HD
ENDBRANCH  10  23
BRANCH  11  25
ATOM     25  O   UNL     1      20.097 -13.902  12.218  1.00  0.00    -0.508 OA
ATOM     26  H   UNL     1      19.604 -13.412  11.479  1.00  0.00     0.293 HD
ENDBRANCH  11  25
ENDBRANCH   1   2
BRANCH   1  27
ATOM     27  C   UNL     1      19.714 -11.508  20.391  1.00  0.00     0.339 C 
ATOM     28  C   UNL     1      21.185 -11.523  20.848  1.00  0.00     0.214 C 
ATOM     29  O   UNL     1      18.817 -11.164  21.438  1.00  0.00    -0.332 OA
ATOM     30  C   UNL     1      21.578 -10.183  21.486  1.00  0.00     0.180 C 
ATOM     31  C   UNL     1      19.087  -9.908  22.050  1.00  0.00     0.179 C 
ATOM     32  C   UNL     1      20.550  -9.794  22.561  1.00  0.00     0.177 C 
BRANCH  28  33
ATOM     33  O   UNL     1      21.365 -12.568  21.771  1.00  0.00    -0.384 OA
ATOM     34  H   UNL     1      21.206 -12.186  22.673  1.00  0.00     0.211 HD
ENDBRANCH  28  33
BRANCH  30  35
ATOM     35  O   UNL     1      21.675  -9.194  20.493  1.00  0.00    -0.387 OA
ATOM     36  H   UNL     1      20.829  -8.677  20.511  1.00  0.00     0.211 HD
ENDBRANCH  30  35
BRANCH  31  37
ATOM     37  C   UNL     1      18.592  -8.723  21.189  1.00  0.00     0.191 C 
BRANCH  37  38
ATOM     38  O   UNL     1      18.561  -7.537  21.940  1.00  0.00    -0.394 OA
ATOM     39  H   UNL     1      18.170  -7.768  22.822  1.00  0.00     0.210 HD
ENDBRANCH  37  38
ENDBRANCH  31  37
BRANCH  32  40
ATOM     40  O   UNL     1      20.824  -8.503  23.044  1.00  0.00    -0.387 OA
ATOM     41  H   UNL     1      21.772  -8.502  23.335  1.00  0.00     0.211 HD
ENDBRANCH  32  40
ENDBRANCH   1  27
TORSDOF 12
ENDMDL
MODEL 6
REMARK VINA RESULT:    -5.741      2.689      5.486
REMARK INTER + INTRA:          -9.932
REMARK INTER:                  -9.605
REMARK INTRA:                  -0.326
REMARK UNBOUND:                -1.506
REMARK SMILES O=c1c(O[C@@H]2O[C@H](CO)[C@H](O)[C@H](O)[C@H]2O)c(-c2ccc(O)c(O)c2)oc2cc(O)cc(O)c12
REMARK SMILES IDX 4 1 3 2 16 3 25 4 2 5 26 6 1 7 33 8 27 9 31 10 28 11 30 12
REMARK SMILES IDX 17 13 18 14 19 15 20 16 24 17 22 18 21 19 23 21 32 23 29 25
REMARK SMILES IDX 5 27 14 28 6 29 12 30 7 31 10 32 15 33 13 35 8 37 9 38 11 40
REMARK H PARENT 21 20 23 22 32 24 29 26 15 34 13 36 9 39 11 41
REMARK Flexibility Score: inf
ROOT
ATOM      1  O   UNL     1      19.527 -10.209  18.075  1.00  0.00    -0.454 OA
ENDROOT
BRANCH   1   2
ATOM      2  C   UNL     1      19.734  -9.801  19.399  1.00  0.00     0.214 A 
ATOM      3  C   UNL     1      20.197 -10.696  20.388  1.00  0.00     0.180 A 
ATOM      4  O   UNL     1      20.299 -10.287  21.650  1.00  0.00    -0.452 OA
ATOM      5  C   UNL     1      19.469  -8.475  19.758  1.00  0.00     0.239 A 
ATOM      6  C   UNL     1      20.023  -9.047  22.039  1.00  0.00     0.146 A 
ATOM      7  O   UNL     1      19.096  -7.661  18.871  1.00  0.00    -0.285 OA
ATOM      8  C   UNL     1      19.607  -8.074  21.102  1.00  0.00     0.111 A 
ATOM      9  C   UNL     1      20.161  -8.711  23.390  1.00  0.00     0.094 A 
ATOM     10  C   UNL     1      19.337  -6.757  21.547  1.00  0.00     0.134 A 
ATOM     11  C   UNL     1      19.891  -7.410  23.825  1.00  0.00     0.123 A 
ATOM     12  C   UNL     1      19.483  -6.440  22.906  1.00  0.00     0.093 A 
BRANCH   3  13
ATOM     13  C   UNL     1      20.594 -12.085  20.073  1.00  0.00     0.025 A 
ATOM     14  C   UNL     1      21.739 -12.633  20.670  1.00  0.00     0.016 A 
ATOM     15  C   UNL     1      22.124 -13.946  20.383  1.00  0.00     0.051 A 
ATOM     16  C   UNL     1      21.381 -14.722  19.489  1.00  0.00     0.157 A 
ATOM     17  C   UNL     1      19.864 -12.857  19.152  1.00  0.00     0.062 A 
ATOM     18  C   UNL     1      20.245 -14.175  18.867  1.00  0.00     0.158 A 
BRANCH  16  19
ATOM     19  O   UNL     1      21.786 -16.031  19.229  1.00  0.00    -0.504 OA
ATOM     20  H   UNL     1      21.474 -16.813  19.793  1.00  0.00     0.293 HD
ENDBRANCH  16  19
BRANCH  18  21
ATOM     21  O   UNL     1      19.504 -14.940  17.970  1.00  0.00    -0.504 OA
ATOM     22  H   UNL     1      18.560 -15.243  18.183  1.00  0.00     0.293 HD
ENDBRANCH  18  21
ENDBRANCH   3  13
BRANCH  10  23
ATOM     23  O   UNL     1      18.924  -5.768  20.655  1.00  0.00    -0.507 OA
ATOM     24  H   UNL     1      19.387  -5.625  19.764  1.00  0.00     0.293 HD
ENDBRANCH  10  23
BRANCH  11  25
ATOM     25  O   UNL     1      20.027  -7.068  25.168  1.00  0.00    -0.508 OA
ATOM     26  H   UNL     1      20.839  -6.564  25.507  1.00  0.00     0.293 HD
ENDBRANCH  11  25
ENDBRANCH   1   2
BRANCH   1  27
ATOM     27  C   UNL     1      19.745  -9.347  16.954  1.00  0.00     0.339 C 
ATOM     28  C   UNL     1      21.227  -9.341  16.535  1.00  0.00     0.214 C 
ATOM     29  O   UNL     1      18.872  -9.673  15.882  1.00  0.00    -0.332 OA
ATOM     30  C   UNL     1      21.624 -10.679  15.895  1.00  0.00     0.180 C 
ATOM     31  C   UNL     1      19.147 -10.926  15.265  1.00  0.00     0.179 C 
ATOM     32  C   UNL     1      20.621 -11.050  14.791  1.00  0.00     0.177 C 
BRANCH  28  33
ATOM     33  O   UNL     1      21.440  -8.290  15.627  1.00  0.00    -0.384 OA
ATOM     34  H   UNL     1      21.822  -7.534  16.144  1.00  0.00     0.211 HD
ENDBRANCH  28  33
BRANCH  30  35
ATOM     35  O   UNL     1      21.688 -11.678  16.881  1.00  0.00    -0.387 OA
ATOM     36  H   UNL     1      21.502 -11.241  17.753  1.00  0.00     0.211 HD
ENDBRANCH  30  35
BRANCH  31  37
ATOM     37  C   UNL     1      18.620 -12.115  16.104  1.00  0.00     0.191 C 
BRANCH  37  38
ATOM     38  O   UNL     1      18.595 -13.293  15.341  1.00  0.00    -0.394 OA
ATOM     39  H   UNL     1      18.272 -13.042  14.437  1.00  0.00     0.210 HD
ENDBRANCH  37  38
ENDBRANCH  31  37
BRANCH  32  40
ATOM     40  O   UNL     1      20.896 -12.338  14.304  1.00  0.00    -0.387 OA
ATOM     41  H   UNL     1      21.784 -12.597  14.661  1.00  0.00     0.211 HD
ENDBRANCH  32  40
ENDBRANCH   1  27
TORSDOF 12
ENDMDL
MODEL 7
REMARK VINA RESULT:    -5.705      3.787      8.997
REMARK INTER + INTRA:          -9.879
REMARK INTER:                  -7.985
REMARK INTRA:                  -1.894
REMARK UNBOUND:                -1.506
REMARK SMILES O=c1c(O[C@@H]2O[C@H](CO)[C@H](O)[C@H](O)[C@H]2O)c(-c2ccc(O)c(O)c2)oc2cc(O)cc(O)c12
REMARK SMILES IDX 4 1 3 2 16 3 25 4 2 5 26 6 1 7 33 8 27 9 31 10 28 11 30 12
REMARK SMILES IDX 17 13 18 14 19 15 20 16 24 17 22 18 21 19 23 21 32 23 29 25
REMARK SMILES IDX 5 27 14 28 6 29 12 30 7 31 10 32 15 33 13 35 8 37 9 38 11 40
REMARK H PARENT 21 20 23 22 32 24 29 26 15 34 13 36 9 39 11 41
REMARK Flexibility Score: inf
ROOT
ATOM      1  O   UNL     1      20.277 -12.738  17.277  1.00  0.00    -0.454 OA
ENDROOT
BRANCH   1   2
ATOM      2  C   UNL     1      20.588 -13.836  18.088  1.00  0.00     0.214 A 
ATOM      3  C   UNL     1      20.965 -13.680  19.439  1.00  0.00     0.180 A 
ATOM      4  O   UNL     1      21.332 -14.743  20.148  1.00  0.00    -0.452 OA
ATOM      5  C   UNL     1      20.533 -15.126  17.547  1.00  0.00     0.239 A 
ATOM      6  C   UNL     1      21.328 -15.980  19.663  1.00  0.00     0.146 A 
ATOM      7  O   UNL     1      20.157 -15.275  16.353  1.00  0.00    -0.285 OA
ATOM      8  C   UNL     1      20.912 -16.231  18.335  1.00  0.00     0.111 A 
ATOM      9  C   UNL     1      21.732 -17.036  20.486  1.00  0.00     0.094 A 
ATOM     10  C   UNL     1      20.904 -17.562  17.853  1.00  0.00     0.134 A 
ATOM     11  C   UNL     1      21.724 -18.350  20.005  1.00  0.00     0.123 A 
ATOM     12  C   UNL     1      21.311 -18.608  18.696  1.00  0.00     0.093 A 
BRANCH   3  13
ATOM     13  C   UNL     1      20.953 -12.365  20.115  1.00  0.00     0.025 A 
ATOM     14  C   UNL     1      22.056 -11.506  19.983  1.00  0.00     0.016 A 
ATOM     15  C   UNL     1      22.057 -10.259  20.614  1.00  0.00     0.051 A 
ATOM     16  C   UNL     1      20.968  -9.858  21.393  1.00  0.00     0.157 A 
ATOM     17  C   UNL     1      19.871 -11.972  20.921  1.00  0.00     0.062 A 
ATOM     18  C   UNL     1      19.868 -10.719  21.550  1.00  0.00     0.158 A 
BRANCH  16  19
ATOM     19  O   UNL     1      20.996  -8.604  22.004  1.00  0.00    -0.504 OA
ATOM     20  H   UNL     1      20.506  -8.419  22.872  1.00  0.00     0.293 HD
ENDBRANCH  16  19
BRANCH  18  21
ATOM     21  O   UNL     1      18.782 -10.330  22.330  1.00  0.00    -0.504 OA
ATOM     22  H   UNL     1      18.099 -11.001  22.663  1.00  0.00     0.293 HD
ENDBRANCH  18  21
ENDBRANCH   3  13
BRANCH  10  23
ATOM     23  O   UNL     1      20.500 -17.853  16.551  1.00  0.00    -0.507 OA
ATOM     24  H   UNL     1      21.115 -17.713  15.757  1.00  0.00     0.293 HD
ENDBRANCH  10  23
BRANCH  11  25
ATOM     25  O   UNL     1      22.124 -19.406  20.820  1.00  0.00    -0.508 OA
ATOM     26  H   UNL     1      21.963 -20.371  20.553  1.00  0.00     0.293 HD
ENDBRANCH  11  25
ENDBRANCH   1   2
BRANCH   1  27
ATOM     27  C   UNL     1      18.944 -12.248  17.111  1.00  0.00     0.339 C 
ATOM     28  C   UNL     1      18.801 -10.820  17.671  1.00  0.00     0.214 C 
ATOM     29  O   UNL     1      18.527 -12.351  15.756  1.00  0.00    -0.332 OA
ATOM     30  C   UNL     1      19.545  -9.806  16.792  1.00  0.00     0.180 C 
ATOM     31  C   UNL     1      19.208 -11.472  14.867  1.00  0.00     0.179 C 
ATOM     32  C   UNL     1      19.137  -9.988  15.321  1.00  0.00     0.177 C 
BRANCH  28  33
ATOM     33  O   UNL     1      17.436 -10.491  17.737  1.00  0.00    -0.384 OA
ATOM     34  H   UNL     1      17.056 -10.991  18.506  1.00  0.00     0.211 HD
ENDBRANCH  28  33
BRANCH  30  35
ATOM     35  O   UNL     1      20.931  -9.959  16.958  1.00  0.00    -0.387 OA
ATOM     36  H   UNL     1      21.200  -9.383  17.720  1.00  0.00     0.211 HD
ENDBRANCH  30  35
BRANCH  31  37
ATOM     37  C   UNL     1      20.622 -11.988  14.509  1.00  0.00     0.191 C 
BRANCH  37  38
ATOM     38  O   UNL     1      20.612 -13.377  14.308  1.00  0.00    -0.394 OA
ATOM     39  H   UNL     1      21.030 -13.785  15.111  1.00  0.00     0.210 HD
ENDBRANCH  37  38
ENDBRANCH  31  37
BRANCH  32  40
ATOM     40  O   UNL     1      19.921  -9.163  14.497  1.00  0.00    -0.387 OA
ATOM     41  H   UNL     1      19.343  -8.881  13.742  1.00  0.00     0.211 HD
ENDBRANCH  32  40
ENDBRANCH   1  27
TORSDOF 12
ENDMDL
MODEL 8
REMARK VINA RESULT:    -5.631      4.063      8.442
REMARK INTER + INTRA:          -9.771
REMARK INTER:                  -8.180
REMARK INTRA:                  -1.591
REMARK UNBOUND:                -1.506
REMARK SMILES O=c1c(O[C@@H]2O[C@H](CO)[C@H](O)[C@H](O)[C@H]2O)c(-c2ccc(O)c(O)c2)oc2cc(O)cc(O)c12
REMARK SMILES IDX 4 1 3 2 16 3 25 4 2 5 26 6 1 7 33 8 27 9 31 10 28 11 30 12
REMARK SMILES IDX 17 13 18 14 19 15 20 16 24 17 22 18 21 19 23 21 32 23 29 25
REMARK SMILES IDX 5 27 14 28 6 29 12 30 7 31 10 32 15 33 13 35 8 37 9 38 11 40
REMARK H PARENT 21 20 23 22 32 24 29 26 15 34 13 36 9 39 11 41
REMARK Flexibility Score: inf
ROOT
ATOM      1  O   UNL     1      20.560 -12.578  17.565  1.00  0.00    -0.454 OA
ENDROOT
BRANCH   1   2
ATOM      2  C   UNL     1      20.757 -13.947  17.782  1.00  0.00     0.214 A 
ATOM      3  C   UNL     1      20.499 -14.904  16.776  1.00  0.00     0.180 A 
ATOM      4  O   UNL     1      20.619 -16.200  17.053  1.00  0.00    -0.452 OA
ATOM      5  C   UNL     1      21.216 -14.386  19.029  1.00  0.00     0.239 A 
ATOM      6  C   UNL     1      21.018 -16.659  18.234  1.00  0.00     0.146 A 
ATOM      7  O   UNL     1      21.489 -13.534  19.917  1.00  0.00    -0.285 OA
ATOM      8  C   UNL     1      21.350 -15.766  19.279  1.00  0.00     0.111 A 
ATOM      9  C   UNL     1      21.115 -18.040  18.430  1.00  0.00     0.094 A 
ATOM     10  C   UNL     1      21.787 -16.288  20.521  1.00  0.00     0.134 A 
ATOM     11  C   UNL     1      21.545 -18.551  19.659  1.00  0.00     0.123 A 
ATOM     12  C   UNL     1      21.879 -17.677  20.696  1.00  0.00     0.093 A 
BRANCH   3  13
ATOM     13  C   UNL     1      20.107 -14.520  15.403  1.00  0.00     0.025 A 
ATOM     14  C   UNL     1      18.890 -13.854  15.188  1.00  0.00     0.016 A 
ATOM     15  C   UNL     1      18.508 -13.483  13.896  1.00  0.00     0.051 A 
ATOM     16  C   UNL     1      19.327 -13.782  12.803  1.00  0.00     0.157 A 
ATOM     17  C   UNL     1      20.915 -14.845  14.300  1.00  0.00     0.062 A 
ATOM     18  C   UNL     1      20.536 -14.469  13.004  1.00  0.00     0.158 A 
BRANCH  16  19
ATOM     19  O   UNL     1      18.922 -13.392  11.526  1.00  0.00    -0.504 OA
ATOM     20  H   UNL     1      18.730 -12.423  11.296  1.00  0.00     0.293 HD
ENDBRANCH  16  19
BRANCH  18  21
ATOM     21  O   UNL     1      21.354 -14.777  11.919  1.00  0.00    -0.504 OA
ATOM     22  H   UNL     1      22.061 -14.131  11.586  1.00  0.00     0.293 HD
ENDBRANCH  18  21
ENDBRANCH   3  13
BRANCH  10  23
ATOM     23  O   UNL     1      22.125 -15.442  21.577  1.00  0.00    -0.507 OA
ATOM     24  H   UNL     1      22.702 -14.620  21.439  1.00  0.00     0.293 HD
ENDBRANCH  10  23
BRANCH  11  25
ATOM     25  O   UNL     1      21.645 -19.925  19.860  1.00  0.00    -0.508 OA
ATOM     26  H   UNL     1      20.822 -20.502  19.993  1.00  0.00     0.293 HD
ENDBRANCH  11  25
ENDBRANCH   1   2
BRANCH   1  27
ATOM     27  C   UNL     1      21.556 -11.733  16.982  1.00  0.00     0.339 C 
ATOM     28  C   UNL     1      21.042 -11.076  15.688  1.00  0.00     0.214 C 
ATOM     29  O   UNL     1      22.037 -10.786  17.926  1.00  0.00    -0.332 OA
ATOM     30  C   UNL     1      19.972 -10.018  15.994  1.00  0.00     0.180 C 
ATOM     31  C   UNL     1      21.085  -9.796  18.298  1.00  0.00     0.179 C 
ATOM     32  C   UNL     1      20.485  -9.051  17.073  1.00  0.00     0.177 C 
BRANCH  28  33
ATOM     33  O   UNL     1      22.125 -10.485  15.014  1.00  0.00    -0.384 OA
ATOM     34  H   UNL     1      22.952 -10.877  15.400  1.00  0.00     0.211 HD
ENDBRANCH  28  33
BRANCH  30  35
ATOM     35  O   UNL     1      18.783 -10.647  16.398  1.00  0.00    -0.387 OA
ATOM     36  H   UNL     1      18.063 -10.327  15.794  1.00  0.00     0.211 HD
ENDBRANCH  30  35
BRANCH  31  37
ATOM     37  C   UNL     1      20.051 -10.336  19.314  1.00  0.00     0.191 C 
BRANCH  37  38
ATOM     38  O   UNL     1      20.693 -10.914  20.421  1.00  0.00    -0.394 OA
ATOM     39  H   UNL     1      19.984 -11.135  21.079  1.00  0.00     0.210 HD
ENDBRANCH  37  38
ENDBRANCH  31  37
BRANCH  32  40
ATOM     40  O   UNL     1      19.460  -8.172  17.460  1.00  0.00    -0.387 OA
ATOM     41  H   UNL     1      19.891  -7.428  17.954  1.00  0.00     0.211 HD
ENDBRANCH  32  40
ENDBRANCH   1  27
TORSDOF 12
ENDMDL
MODEL 9
REMARK VINA RESULT:    -5.417      2.016      5.410
REMARK INTER + INTRA:          -9.456
REMARK INTER:                  -8.117
REMARK INTRA:                  -1.339
REMARK UNBOUND:                -1.506
REMARK SMILES O=c1c(O[C@@H]2O[C@H](CO)[C@H](O)[C@H](O)[C@H]2O)c(-c2ccc(O)c(O)c2)oc2cc(O)cc(O)c12
REMARK SMILES IDX 4 1 3 2 16 3 25 4 2 5 26 6 1 7 33 8 27 9 31 10 28 11 30 12
REMARK SMILES IDX 17 13 18 14 19 15 20 16 24 17 22 18 21 19 23 21 32 23 29 25
REMARK SMILES IDX 5 27 14 28 6 29 12 30 7 31 10 32 15 33 13 35 8 37 9 38 11 40
REMARK H PARENT 21 20 23 22 32 24 29 26 15 34 13 36 9 39 11 41
REMARK Flexibility Score: inf
ROOT
ATOM      1  O   UNL     1      20.428  -8.229  19.257  1.00  0.00    -0.454 OA
ENDROOT
BRANCH   1   2
ATOM      2  C   UNL     1      20.693  -6.864  19.090  1.00  0.00     0.214 A 
ATOM      3  C   UNL     1      20.485  -5.933  20.130  1.00  0.00     0.180 A 
ATOM      4  O   UNL     1      20.670  -4.636  19.901  1.00  0.00    -0.452 OA
ATOM      5  C   UNL     1      21.169  -6.404  17.857  1.00  0.00     0.239 A 
ATOM      6  C   UNL     1      21.087  -4.154  18.735  1.00  0.00     0.146 A 
ATOM      7  O   UNL     1      21.397  -7.236  16.938  1.00  0.00    -0.285 OA
ATOM      8  C   UNL     1      21.372  -5.024  17.657  1.00  0.00     0.111 A 
ATOM      9  C   UNL     1      21.253  -2.773  18.590  1.00  0.00     0.094 A 
ATOM     10  C   UNL     1      21.831  -4.479  16.433  1.00  0.00     0.134 A 
ATOM     11  C   UNL     1      21.705  -2.240  17.378  1.00  0.00     0.123 A 
ATOM     12  C   UNL     1      21.993  -3.091  16.308  1.00  0.00     0.093 A 
BRANCH   3  13
ATOM     13  C   UNL     1      20.078  -6.347  21.490  1.00  0.00     0.025 A 
ATOM     14  C   UNL     1      18.827  -6.952  21.688  1.00  0.00     0.016 A 
ATOM     15  C   UNL     1      18.430  -7.351  22.967  1.00  0.00     0.051 A 
ATOM     16  C   UNL     1      19.269  -7.140  24.066  1.00  0.00     0.157 A 
ATOM     17  C   UNL     1      20.908  -6.111  22.600  1.00  0.00     0.062 A 
ATOM     18  C   UNL     1      20.514  -6.515  23.883  1.00  0.00     0.158 A 
BRANCH  16  19
ATOM     19  O   UNL     1      18.848  -7.556  25.329  1.00  0.00    -0.504 OA
ATOM     20  H   UNL     1      18.748  -8.536  25.566  1.00  0.00     0.293 HD
ENDBRANCH  16  19
BRANCH  18  21
ATOM     21  O   UNL     1      21.353  -6.296  24.974  1.00  0.00    -0.504 OA
ATOM     22  H   UNL     1      22.043  -5.553  24.973  1.00  0.00     0.293 HD
ENDBRANCH  18  21
ENDBRANCH   3  13
BRANCH  10  23
ATOM     23  O   UNL     1      22.123  -5.302  15.346  1.00  0.00    -0.507 OA
ATOM     24  H   UNL     1      22.162  -4.942  14.399  1.00  0.00     0.293 HD
ENDBRANCH  10  23
BRANCH  11  25
ATOM     25  O   UNL     1      21.873  -0.866  17.226  1.00  0.00    -0.508 OA
ATOM     26  H   UNL     1      21.269  -0.322  16.621  1.00  0.00     0.293 HD
ENDBRANCH  11  25
ENDBRANCH   1   2
BRANCH   1  27
ATOM     27  C   UNL     1      19.147  -8.810  18.994  1.00  0.00     0.339 C 
ATOM     28  C   UNL     1      19.080  -9.387  17.567  1.00  0.00     0.214 C 
ATOM     29  O   UNL     1      18.805  -9.764  19.989  1.00  0.00    -0.332 OA
ATOM     30  C   UNL     1      19.950 -10.646  17.440  1.00  0.00     0.180 C 
ATOM     31  C   UNL     1      19.602 -10.943  19.967  1.00  0.00     0.179 C 
ATOM     32  C   UNL     1      19.617 -11.630  18.574  1.00  0.00     0.177 C 
BRANCH  28  33
ATOM     33  O   UNL     1      17.743  -9.693  17.262  1.00  0.00    -0.384 OA
ATOM     34  H   UNL     1      17.586  -9.396  16.328  1.00  0.00     0.211 HD
ENDBRANCH  28  33
BRANCH  30  35
ATOM     35  O   UNL     1      21.309 -10.289  17.459  1.00  0.00    -0.387 OA
ATOM     36  H   UNL     1      21.389  -9.469  18.014  1.00  0.00     0.211 HD
ENDBRANCH  30  35
BRANCH  31  37
ATOM     37  C   UNL     1      20.991 -10.719  20.610  1.00  0.00     0.191 C 
BRANCH  37  38
ATOM     38  O   UNL     1      20.896  -9.872  21.726  1.00  0.00    -0.394 OA
ATOM     39  H   UNL     1      20.107  -9.289  21.575  1.00  0.00     0.210 HD
ENDBRANCH  37  38
ENDBRANCH  31  37
BRANCH  32  40
ATOM     40  O   UNL     1      20.509 -12.715  18.547  1.00  0.00    -0.387 OA
ATOM     41  H   UNL     1      20.336 -13.247  19.366  1.00  0.00     0.211 HD
ENDBRANCH  32  40
ENDBRANCH   1  27
TORSDOF 12
ENDMDL
