MODEL 1
REMARK VINA RESULT:    -3.210      0.000      0.000
REMARK INTER + INTRA:          -4.545
REMARK INTER:                  -4.242
REMARK INTRA:                  -0.303
REMARK UNBOUND:                -0.303
REMARK SMILES CCCCCCCO
REMARK SMILES IDX 5 1 4 2 3 3 2 4 1 5 6 6 7 7 8 8
REMARK H PARENT 8 9
REMARK Flexibility Score: inf
ROOT
ATOM      1  C   UNL     1     145.262 129.944 115.189  1.00  0.00     0.002 C 
ENDROOT
BRANCH   1   2
ATOM      2  C   UNL     1     145.396 128.705 114.288  1.00  0.00     0.000 C 
BRANCH   2   3
ATOM      3  C   UNL     1     144.723 127.456 114.886  1.00  0.00    -0.000 C 
BRANCH   3   4
ATOM      4  C   UNL     1     143.194 127.559 115.034  1.00  0.00    -0.003 C 
ATOM      5  C   UNL     1     142.725 127.451 116.484  1.00  0.00     0.004 C 
ENDBRANCH   3   4
ENDBRANCH   2   3
ENDBRANCH   1   2
BRANCH   1   6
ATOM      6  C   UNL     1     146.075 129.830 116.490  1.00  0.00     0.028 C 
BRANCH   6   7
ATOM      7  C   UNL     1     145.220 129.958 117.756  1.00  0.00     0.156 C 
BRANCH   7   8
ATOM      8  O   UNL     1     146.032 129.930 118.896  1.00  0.00    -0.396 OA
ATOM      9  H   UNL     1     146.569 129.097 118.831  1.00  0.00     0.210 HD
ENDBRANCH   7   8
ENDBRANCH   6   7
ENDBRANCH   1   6
TORSDOF 6
ENDMDL
MODEL 2
REMARK VINA RESULT:    -3.152      1.806      1.968
REMARK INTER + INTRA:          -4.469
REMARK INTER:                  -4.332
REMARK INTRA:                  -0.137
REMARK UNBOUND:                -0.303
REMARK SMILES CCCCCCCO
REMARK SMILES IDX 5 1 4 2 3 3 2 4 1 5 6 6 7 7 8 8
REMARK H PARENT 8 9
REMARK Flexibility Score: inf
ROOT
ATOM      1  C   UNL     1     145.744 129.834 115.801  1.00  0.00     0.002 C 
ENDROOT
BRANCH   1   2
ATOM      2  C   UNL     1     145.546 129.207 114.410  1.00  0.00     0.000 C 
BRANCH   2   3
ATOM      3  C   UNL     1     145.233 127.701 114.473  1.00  0.00    -0.000 C 
BRANCH   3   4
ATOM      4  C   UNL     1     144.232 127.299 115.572  1.00  0.00    -0.003 C 
ATOM      5  C   UNL     1     142.776 127.508 115.161  1.00  0.00     0.004 C 
ENDBRANCH   3   4
ENDBRANCH   2   3
ENDBRANCH   1   2
BRANCH   1   6
ATOM      6  C   UNL     1     146.711 131.030 115.786  1.00  0.00     0.028 C 
BRANCH   6   7
ATOM      7  C   UNL     1     146.033 132.366 116.108  1.00  0.00     0.156 C 
BRANCH   7   8
ATOM      8  O   UNL     1     146.856 133.144 116.931  1.00  0.00    -0.396 OA
ATOM      9  H   UNL     1     146.266 133.828 117.344  1.00  0.00     0.210 HD
ENDBRANCH   7   8
ENDBRANCH   6   7
ENDBRANCH   1   6
TORSDOF 6
ENDMDL
MODEL 3
REMARK VINA RESULT:    -3.103      1.576      2.375
REMARK INTER + INTRA:          -4.404
REMARK INTER:                  -4.148
REMARK INTRA:                  -0.256
REMARK UNBOUND:                -0.303
REMARK SMILES CCCCCCCO
REMARK SMILES IDX 5 1 4 2 3 3 2 4 1 5 6 6 7 7 8 8
REMARK H PARENT 8 9
REMARK Flexibility Score: inf
ROOT
ATOM      1  C   UNL     1     145.995 127.283 117.105  1.00  0.00     0.002 C 
ENDROOT
BRANCH   1   2
ATOM      2  C   UNL     1     145.049 127.037 115.917  1.00  0.00     0.000 C 
BRANCH   2   3
ATOM      3  C   UNL     1     145.619 127.554 114.583  1.00  0.00    -0.000 C 
BRANCH   3   4
ATOM      4  C   UNL     1     145.430 129.063 114.346  1.00  0.00    -0.003 C 
ATOM      5  C   UNL     1     144.040 129.561 114.738  1.00  0.00     0.004 C 
ENDBRANCH   3   4
ENDBRANCH   2   3
ENDBRANCH   1   2
BRANCH   1   6
ATOM      6  C   UNL     1     145.249 127.652 118.398  1.00  0.00     0.028 C 
BRANCH   6   7
ATOM      7  C   UNL     1     144.946 129.150 118.521  1.00  0.00     0.156 C 
BRANCH   7   8
ATOM      8  O   UNL     1     146.118 129.862 118.800  1.00  0.00    -0.396 OA
ATOM      9  H   UNL     1     146.420 129.556 119.695  1.00  0.00     0.210 HD
ENDBRANCH   7   8
ENDBRANCH   6   7
ENDBRANCH   1   6
TORSDOF 6
ENDMDL
MODEL 4
REMARK VINA RESULT:    -3.044      1.717      2.855
REMARK INTER + INTRA:          -4.326
REMARK INTER:                  -4.135
REMARK INTRA:                  -0.192
REMARK UNBOUND:                -0.303
REMARK SMILES CCCCCCCO
REMARK SMILES IDX 5 1 4 2 3 3 2 4 1 5 6 6 7 7 8 8
REMARK H PARENT 8 9
REMARK Flexibility Score: inf
ROOT
ATOM      1  C   UNL     1     144.095 127.186 117.916  1.00  0.00     0.002 C 
ENDROOT
BRANCH   1   2
ATOM      2  C   UNL     1     144.107 127.286 116.380  1.00  0.00     0.000 C 
BRANCH   2   3
ATOM      3  C   UNL     1     145.462 126.890 115.766  1.00  0.00    -0.000 C 
BRANCH   3   4
ATOM      4  C   UNL     1     145.747 127.513 114.387  1.00  0.00    -0.003 C 
ATOM      5  C   UNL     1     145.439 129.008 114.330  1.00  0.00     0.004 C 
ENDBRANCH   3   4
ENDBRANCH   2   3
ENDBRANCH   1   2
BRANCH   1   6
ATOM      6  C   UNL     1     145.498 127.309 118.534  1.00  0.00     0.028 C 
BRANCH   6   7
ATOM      7  C   UNL     1     145.566 128.305 119.697  1.00  0.00     0.156 C 
BRANCH   7   8
ATOM      8  O   UNL     1     146.042 129.544 119.249  1.00  0.00    -0.396 OA
ATOM      9  H   UNL     1     146.019 129.505 118.258  1.00  0.00     0.210 HD
ENDBRANCH   7   8
ENDBRANCH   6   7
ENDBRANCH   1   6
TORSDOF 6
ENDMDL
MODEL 5
REMARK VINA RESULT:    -2.990      1.716      3.445
REMARK INTER + INTRA:          -4.254
REMARK INTER:                  -4.020
REMARK INTRA:                  -0.234
REMARK UNBOUND:                -0.303
REMARK SMILES CCCCCCCO
REMARK SMILES IDX 5 1 4 2 3 3 2 4 1 5 6 6 7 7 8 8
REMARK H PARENT 8 9
REMARK Flexibility Score: inf
ROOT
ATOM      1  C   UNL     1     145.061 127.490 114.947  1.00  0.00     0.002 C 
ENDROOT
BRANCH   1   2
ATOM      2  C   UNL     1     145.512 128.830 114.339  1.00  0.00     0.000 C 
BRANCH   2   3
ATOM      3  C   UNL     1     145.298 130.020 115.292  1.00  0.00    -0.000 C 
BRANCH   3   4
ATOM      4  C   UNL     1     146.594 130.715 115.751  1.00  0.00    -0.003 C 
ATOM      5  C   UNL     1     146.414 132.211 115.997  1.00  0.00     0.004 C 
ENDBRANCH   3   4
ENDBRANCH   2   3
ENDBRANCH   1   2
BRANCH   1   6
ATOM      6  C   UNL     1     146.096 126.892 115.914  1.00  0.00     0.028 C 
BRANCH   6   7
ATOM      7  C   UNL     1     145.629 126.875 117.373  1.00  0.00     0.156 C 
BRANCH   7   8
ATOM      8  O   UNL     1     146.093 128.011 118.047  1.00  0.00    -0.396 OA
ATOM      9  H   UNL     1     145.520 128.764 117.745  1.00  0.00     0.210 HD
ENDBRANCH   7   8
ENDBRANCH   6   7
ENDBRANCH   1   6
TORSDOF 6
ENDMDL
MODEL 6
REMARK VINA RESULT:    -2.909     16.131     16.946
REMARK INTER + INTRA:          -4.147
REMARK INTER:                  -3.859
REMARK INTRA:                  -0.288
REMARK UNBOUND:                -0.303
REMARK SMILES CCCCCCCO
REMARK SMILES IDX 5 1 4 2 3 3 2 4 1 5 6 6 7 7 8 8
REMARK H PARENT 8 9
REMARK Flexibility Score: inf
ROOT
ATOM      1  C   UNL     1     129.369 133.364 115.051  1.00  0.00     0.002 C 
ENDROOT
BRANCH   1   2
ATOM      2  C   UNL     1     129.411 132.239 114.004  1.00  0.00     0.000 C 
BRANCH   2   3
ATOM      3  C   UNL     1     128.038 131.578 113.782  1.00  0.00    -0.000 C 
BRANCH   3   4
ATOM      4  C   UNL     1     127.906 130.160 114.366  1.00  0.00    -0.003 C 
ATOM      5  C   UNL     1     129.140 129.719 115.151  1.00  0.00     0.004 C 
ENDBRANCH   3   4
ENDBRANCH   2   3
ENDBRANCH   1   2
BRANCH   1   6
ATOM      6  C   UNL     1     127.946 133.886 115.314  1.00  0.00     0.028 C 
BRANCH   6   7
ATOM      7  C   UNL     1     127.612 134.020 116.804  1.00  0.00     0.156 C 
BRANCH   7   8
ATOM      8  O   UNL     1     127.280 132.772 117.343  1.00  0.00    -0.396 OA
ATOM      9  H   UNL     1     127.702 132.738 118.241  1.00  0.00     0.210 HD
ENDBRANCH   7   8
ENDBRANCH   6   7
ENDBRANCH   1   6
TORSDOF 6
ENDMDL
MODEL 7
REMARK VINA RESULT:    -2.865     21.040     21.543
REMARK INTER + INTRA:          -4.090
REMARK INTER:                  -3.744
REMARK INTRA:                  -0.346
REMARK UNBOUND:                -0.303
REMARK SMILES CCCCCCCO
REMARK SMILES IDX 5 1 4 2 3 3 2 4 1 5 6 6 7 7 8 8
REMARK H PARENT 8 9
REMARK Flexibility Score: inf
ROOT
ATOM      1  C   UNL     1     128.125 142.351 116.611  1.00  0.00     0.002 C 
ENDROOT
BRANCH   1   2
ATOM      2  C   UNL     1     128.168 142.132 115.088  1.00  0.00     0.000 C 
BRANCH   2   3
ATOM      3  C   UNL     1     128.037 143.443 114.292  1.00  0.00    -0.000 C 
BRANCH   3   4
ATOM      4  C   UNL     1     129.315 143.873 113.548  1.00  0.00    -0.003 C 
ATOM      5  C   UNL     1     130.382 142.781 113.513  1.00  0.00     0.004 C 
ENDBRANCH   3   4
ENDBRANCH   2   3
ENDBRANCH   1   2
BRANCH   1   6
ATOM      6  C   UNL     1     129.516 142.587 117.222  1.00  0.00     0.028 C 
BRANCH   6   7
ATOM      7  C   UNL     1     129.830 144.067 117.470  1.00  0.00     0.156 C 
BRANCH   7   8
ATOM      8  O   UNL     1     128.696 144.731 117.950  1.00  0.00    -0.396 OA
ATOM      9  H   UNL     1     128.576 145.528 117.370  1.00  0.00     0.210 HD
ENDBRANCH   7   8
ENDBRANCH   6   7
ENDBRANCH   1   6
TORSDOF 6
ENDMDL
MODEL 8
REMARK VINA RESULT:    -2.836     20.805     21.204
REMARK INTER + INTRA:          -4.051
REMARK INTER:                  -3.793
REMARK INTRA:                  -0.257
REMARK UNBOUND:                -0.303
REMARK SMILES CCCCCCCO
REMARK SMILES IDX 5 1 4 2 3 3 2 4 1 5 6 6 7 7 8 8
REMARK H PARENT 8 9
REMARK Flexibility Score: inf
ROOT
ATOM      1  C   UNL     1     130.332 144.170 114.444  1.00  0.00     0.002 C 
ENDROOT
BRANCH   1   2
ATOM      2  C   UNL     1     129.258 143.196 113.929  1.00  0.00     0.000 C 
BRANCH   2   3
ATOM      3  C   UNL     1     127.904 143.368 114.641  1.00  0.00    -0.000 C 
BRANCH   3   4
ATOM      4  C   UNL     1     127.260 142.054 115.120  1.00  0.00    -0.003 C 
ATOM      5  C   UNL     1     128.267 140.917 115.279  1.00  0.00     0.004 C 
ENDBRANCH   3   4
ENDBRANCH   2   3
ENDBRANCH   1   2
BRANCH   1   6
ATOM      6  C   UNL     1     131.097 143.628 115.663  1.00  0.00     0.028 C 
BRANCH   6   7
ATOM      7  C   UNL     1     130.668 144.270 116.987  1.00  0.00     0.156 C 
BRANCH   7   8
ATOM      8  O   UNL     1     131.006 145.629 117.001  1.00  0.00    -0.396 OA
ATOM      9  H   UNL     1     130.723 145.974 117.888  1.00  0.00     0.210 HD
ENDBRANCH   7   8
ENDBRANCH   6   7
ENDBRANCH   1   6
TORSDOF 6
ENDMDL
MODEL 9
REMARK VINA RESULT:    -2.818     15.227     16.145
REMARK INTER + INTRA:          -4.028
REMARK INTER:                  -3.829
REMARK INTRA:                  -0.199
REMARK UNBOUND:                -0.303
REMARK SMILES CCCCCCCO
REMARK SMILES IDX 5 1 4 2 3 3 2 4 1 5 6 6 7 7 8 8
REMARK H PARENT 8 9
REMARK Flexibility Score: inf
ROOT
ATOM      1  C   UNL     1     129.227 130.119 115.255  1.00  0.00     0.002 C 
ENDROOT
BRANCH   1   2
ATOM      2  C   UNL     1     127.962 130.361 114.414  1.00  0.00     0.000 C 
BRANCH   2   3
ATOM      3  C   UNL     1     128.046 131.641 113.563  1.00  0.00    -0.000 C 
BRANCH   3   4
ATOM      4  C   UNL     1     129.145 132.628 113.996  1.00  0.00    -0.003 C 
ATOM      5  C   UNL     1     130.211 132.844 112.924  1.00  0.00     0.004 C 
ENDBRANCH   3   4
ENDBRANCH   2   3
ENDBRANCH   1   2
BRANCH   1   6
ATOM      6  C   UNL     1     129.739 128.672 115.165  1.00  0.00     0.028 C 
BRANCH   6   7
ATOM      7  C   UNL     1     129.849 127.978 116.527  1.00  0.00     0.156 C 
BRANCH   7   8
ATOM      8  O   UNL     1     129.113 128.678 117.490  1.00  0.00    -0.396 OA
ATOM      9  H   UNL     1     129.436 128.355 118.372  1.00  0.00     0.210 HD
ENDBRANCH   7   8
ENDBRANCH   6   7
ENDBRANCH   1   6
TORSDOF 6
ENDMDL
