MODEL 1
REMARK VINA RESULT:    60.015      0.000      0.000
REMARK INTER + INTRA:          80.500
REMARK INTER:                  79.312
REMARK INTRA:                   1.189
REMARK UNBOUND:                 1.189
REMARK SMILES CC[C@@H](C=C[C@H](C)[C@@H]1CC[C@@H]2C3=CC[C@@H]4C[C@H](O)CC[C@@]4(C)[C@H]3CC[C@@]21C)C(C)C
REMARK SMILES IDX 6 1 7 2 5 3 4 4 3 5 2 6 1 7 28 8 29 9 30 10 8 11 9 12 26 13
REMARK SMILES IDX 10 14 11 15 25 16 27 17 12 18 24 19 23 20 13 21 21 22 14 23
REMARK SMILES IDX 15 24 20 25 22 26 16 27 19 28 17 29 18 30
REMARK H PARENT 18 31
REMARK Flexibility Score: inf
ROOT
ATOM      1  C   UNL     1     -29.647  32.878  -3.677  1.00  0.00     0.012 C 
ATOM      2  C   UNL     1     -28.453  31.947  -3.933  1.00  0.00     0.012 C 
ENDROOT
BRANCH   1   3
ATOM      3  C   UNL     1     -30.547  32.840  -4.901  1.00  0.00    -0.028 C 
ATOM      4  C   UNL     1     -30.708  33.854  -5.772  1.00  0.00    -0.027 C 
BRANCH   4   5
ATOM      5  C   UNL     1     -30.071  35.227  -5.640  1.00  0.00     0.014 C 
BRANCH   5   6
ATOM      6  C   UNL     1     -30.528  36.125  -6.820  1.00  0.00     0.004 C 
ATOM      7  C   UNL     1     -30.488  35.433  -8.187  1.00  0.00     0.004 C 
ENDBRANCH   5   6
BRANCH   5   8
ATOM      8  C   UNL     1     -28.521  35.107  -5.494  1.00  0.00    -0.011 C 
ATOM      9  C   UNL     1     -28.049  35.692  -4.149  1.00  0.00     0.008 C 
ATOM     10  C   UNL     1     -27.772  35.819  -6.635  1.00  0.00     0.008 C 
ENDBRANCH   5   8
ENDBRANCH   4   5
ENDBRANCH   1   3
BRANCH   1  11
ATOM     11  C   UNL     1     -30.466  32.480  -2.404  1.00  0.00     0.002 C 
ATOM     12  C   UNL     1     -30.200  31.015  -1.994  1.00  0.00     0.005 C 
ATOM     13  C   UNL     1     -32.023  32.599  -2.460  1.00  0.00    -0.023 C 
ATOM     14  C   UNL     1     -31.471  30.485  -1.333  1.00  0.00     0.009 C 
ATOM     15  C   UNL     1     -32.452  31.655  -1.313  1.00  0.00     0.021 C 
ATOM     16  C   UNL     1     -32.594  32.111  -3.832  1.00  0.00     0.008 C 
ATOM     17  C   UNL     1     -32.513  34.035  -2.149  1.00  0.00     0.012 C 
ATOM     18  C   UNL     1     -33.911  31.237  -1.408  1.00  0.00    -0.067 C 
ATOM     19  C   UNL     1     -34.099  31.794  -3.807  1.00  0.00     0.009 C 
ATOM     20  C   UNL     1     -34.417  30.712  -2.751  1.00  0.00     0.021 C 
ATOM     21  C   UNL     1     -34.748  31.568  -0.398  1.00  0.00    -0.027 C 
ATOM     22  C   UNL     1     -35.913  30.208  -2.697  1.00  0.00    -0.023 C 
ATOM     23  C   UNL     1     -36.235  31.346  -0.434  1.00  0.00     0.031 C 
ATOM     24  C   UNL     1     -36.765  31.220  -1.869  1.00  0.00     0.002 C 
ATOM     25  C   UNL     1     -36.541  30.082  -4.120  1.00  0.00     0.010 C 
ATOM     26  C   UNL     1     -35.895  28.795  -2.038  1.00  0.00     0.012 C 
ATOM     27  C   UNL     1     -38.272  30.878  -1.857  1.00  0.00     0.036 C 
ATOM     28  C   UNL     1     -38.030  29.707  -4.088  1.00  0.00     0.032 C 
ATOM     29  C   UNL     1     -38.834  30.737  -3.279  1.00  0.00     0.114 C 
BRANCH  29  30
ATOM     30  O   UNL     1     -40.178  30.340  -3.203  1.00  0.00    -0.393 OA
ATOM     31  H   UNL     1     -40.429  30.360  -2.243  1.00  0.00     0.210 HD
ENDBRANCH  29  30
ENDBRANCH   1  11
TORSDOF 6
ENDMDL
MODEL 2
REMARK VINA RESULT:    60.612      0.552      1.455
REMARK INTER + INTRA:          81.290
REMARK INTER:                  80.636
REMARK INTRA:                   0.654
REMARK UNBOUND:                 1.189
REMARK SMILES CC[C@@H](C=C[C@H](C)[C@@H]1CC[C@@H]2C3=CC[C@@H]4C[C@H](O)CC[C@@]4(C)[C@H]3CC[C@@]21C)C(C)C
REMARK SMILES IDX 6 1 7 2 5 3 4 4 3 5 2 6 1 7 28 8 29 9 30 10 8 11 9 12 26 13
REMARK SMILES IDX 10 14 11 15 25 16 27 17 12 18 24 19 23 20 13 21 21 22 14 23
REMARK SMILES IDX 15 24 20 25 22 26 16 27 19 28 17 29 18 30
REMARK H PARENT 18 31
REMARK Flexibility Score: inf
ROOT
ATOM      1  C   UNL     1     -29.970  32.787  -3.553  1.00  0.00     0.012 C 
ATOM      2  C   UNL     1     -29.109  31.618  -4.053  1.00  0.00     0.012 C 
ENDROOT
BRANCH   1   3
ATOM      3  C   UNL     1     -30.885  33.219  -4.687  1.00  0.00    -0.028 C 
ATOM      4  C   UNL     1     -30.563  34.116  -5.639  1.00  0.00    -0.027 C 
BRANCH   4   5
ATOM      5  C   UNL     1     -29.260  34.895  -5.699  1.00  0.00     0.014 C 
BRANCH   5   6
ATOM      6  C   UNL     1     -28.864  35.350  -4.270  1.00  0.00     0.004 C 
ATOM      7  C   UNL     1     -27.402  35.790  -4.135  1.00  0.00     0.004 C 
ENDBRANCH   5   6
BRANCH   5   8
ATOM      8  C   UNL     1     -29.359  36.060  -6.735  1.00  0.00    -0.011 C 
ATOM      9  C   UNL     1     -30.734  36.063  -7.429  1.00  0.00     0.008 C 
ATOM     10  C   UNL     1     -28.261  35.974  -7.812  1.00  0.00     0.008 C 
ENDBRANCH   5   8
ENDBRANCH   4   5
ENDBRANCH   1   3
BRANCH   1  11
ATOM     11  C   UNL     1     -30.824  32.417  -2.295  1.00  0.00     0.002 C 
ATOM     12  C   UNL     1     -30.569  30.962  -1.845  1.00  0.00     0.005 C 
ATOM     13  C   UNL     1     -32.378  32.534  -2.396  1.00  0.00    -0.023 C 
ATOM     14  C   UNL     1     -31.858  30.446  -1.208  1.00  0.00     0.009 C 
ATOM     15  C   UNL     1     -32.839  31.616  -1.241  1.00  0.00     0.021 C 
ATOM     16  C   UNL     1     -32.912  32.016  -3.772  1.00  0.00     0.008 C 
ATOM     17  C   UNL     1     -32.876  33.977  -2.130  1.00  0.00     0.012 C 
ATOM     18  C   UNL     1     -34.295  31.196  -1.366  1.00  0.00    -0.067 C 
ATOM     19  C   UNL     1     -34.417  31.700  -3.781  1.00  0.00     0.009 C 
ATOM     20  C   UNL     1     -34.764  30.641  -2.711  1.00  0.00     0.021 C 
ATOM     21  C   UNL     1     -35.160  31.549  -0.387  1.00  0.00    -0.027 C 
ATOM     22  C   UNL     1     -36.261  30.138  -2.686  1.00  0.00    -0.023 C 
ATOM     23  C   UNL     1     -36.645  31.326  -0.459  1.00  0.00     0.031 C 
ATOM     24  C   UNL     1     -37.135  31.168  -1.905  1.00  0.00     0.002 C 
ATOM     25  C   UNL     1     -36.850  29.980  -4.123  1.00  0.00     0.010 C 
ATOM     26  C   UNL     1     -36.263  28.740  -1.996  1.00  0.00     0.012 C 
ATOM     27  C   UNL     1     -38.643  30.826  -1.926  1.00  0.00     0.036 C 
ATOM     28  C   UNL     1     -38.340  29.605  -4.123  1.00  0.00     0.032 C 
ATOM     29  C   UNL     1     -39.165  30.653  -3.360  1.00  0.00     0.114 C 
BRANCH  29  30
ATOM     30  O   UNL     1     -40.511  30.257  -3.312  1.00  0.00    -0.393 OA
ATOM     31  H   UNL     1     -40.821  30.409  -2.381  1.00  0.00     0.210 HD
ENDBRANCH  29  30
ENDBRANCH   1  11
TORSDOF 6
ENDMDL
MODEL 3
REMARK VINA RESULT:    60.971      1.914      3.081
REMARK INTER + INTRA:          81.764
REMARK INTER:                  82.857
REMARK INTRA:                  -1.093
REMARK UNBOUND:                 1.189
REMARK SMILES CC[C@@H](C=C[C@H](C)[C@@H]1CC[C@@H]2C3=CC[C@@H]4C[C@H](O)CC[C@@]4(C)[C@H]3CC[C@@]21C)C(C)C
REMARK SMILES IDX 6 1 7 2 5 3 4 4 3 5 2 6 1 7 28 8 29 9 30 10 8 11 9 12 26 13
REMARK SMILES IDX 10 14 11 15 25 16 27 17 12 18 24 19 23 20 13 21 21 22 14 23
REMARK SMILES IDX 15 24 20 25 22 26 16 27 19 28 17 29 18 30
REMARK H PARENT 18 31
REMARK Flexibility Score: inf
ROOT
ATOM      1  C   UNL     1     -29.875  32.881  -4.419  1.00  0.00     0.012 C 
ATOM      2  C   UNL     1     -29.439  34.354  -4.457  1.00  0.00     0.012 C 
ENDROOT
BRANCH   1   3
ATOM      3  C   UNL     1     -28.645  32.019  -4.645  1.00  0.00    -0.028 C 
ATOM      4  C   UNL     1     -28.627  30.871  -5.351  1.00  0.00    -0.027 C 
BRANCH   4   5
ATOM      5  C   UNL     1     -29.844  30.214  -5.980  1.00  0.00     0.014 C 
BRANCH   5   6
ATOM      6  C   UNL     1     -30.294  29.015  -5.106  1.00  0.00     0.004 C 
ATOM      7  C   UNL     1     -30.830  27.822  -5.904  1.00  0.00     0.004 C 
ENDBRANCH   5   6
BRANCH   5   8
ATOM      8  C   UNL     1     -29.564  29.846  -7.472  1.00  0.00    -0.011 C 
ATOM      9  C   UNL     1     -28.051  29.834  -7.761  1.00  0.00     0.008 C 
ATOM     10  C   UNL     1     -30.248  30.821  -8.449  1.00  0.00     0.008 C 
ENDBRANCH   5   8
ENDBRANCH   4   5
ENDBRANCH   1   3
BRANCH   1  11
ATOM     11  C   UNL     1     -30.560  32.486  -3.068  1.00  0.00     0.002 C 
ATOM     12  C   UNL     1     -30.248  31.024  -2.681  1.00  0.00     0.005 C 
ATOM     13  C   UNL     1     -32.115  32.598  -2.968  1.00  0.00    -0.023 C 
ATOM     14  C   UNL     1     -31.443  30.492  -1.894  1.00  0.00     0.009 C 
ATOM     15  C   UNL     1     -32.422  31.658  -1.780  1.00  0.00     0.021 C 
ATOM     16  C   UNL     1     -32.819  32.103  -4.273  1.00  0.00     0.008 C 
ATOM     17  C   UNL     1     -32.577  34.034  -2.614  1.00  0.00     0.012 C 
ATOM     18  C   UNL     1     -33.882  31.235  -1.726  1.00  0.00    -0.067 C 
ATOM     19  C   UNL     1     -34.313  31.781  -4.095  1.00  0.00     0.009 C 
ATOM     20  C   UNL     1     -34.518  30.702  -3.009  1.00  0.00     0.021 C 
ATOM     21  C   UNL     1     -34.615  31.567  -0.638  1.00  0.00    -0.027 C 
ATOM     22  C   UNL     1     -35.999  30.192  -2.802  1.00  0.00    -0.023 C 
ATOM     23  C   UNL     1     -36.096  31.339  -0.523  1.00  0.00     0.031 C 
ATOM     24  C   UNL     1     -36.768  31.205  -1.897  1.00  0.00     0.002 C 
ATOM     25  C   UNL     1     -36.767  30.058  -4.154  1.00  0.00     0.010 C 
ATOM     26  C   UNL     1     -35.910  28.782  -2.143  1.00  0.00     0.012 C 
ATOM     27  C   UNL     1     -38.265  30.857  -1.731  1.00  0.00     0.036 C 
ATOM     28  C   UNL     1     -38.244  29.677  -3.970  1.00  0.00     0.032 C 
ATOM     29  C   UNL     1     -38.966  30.708  -3.089  1.00  0.00     0.114 C 
BRANCH  29  30
ATOM     30  O   UNL     1     -40.294  30.306  -2.877  1.00  0.00    -0.393 OA
ATOM     31  H   UNL     1     -40.270  29.592  -2.187  1.00  0.00     0.210 HD
ENDBRANCH  29  30
ENDBRANCH   1  11
TORSDOF 6
ENDMDL
