MODEL 1
REMARK VINA RESULT:    -3.900      0.000      0.000
REMARK INTER + INTRA:          -3.900
REMARK INTER:                  -3.900
REMARK INTRA:                   0.000
REMARK UNBOUND:                 0.000
REMARK SMILES CC1=CC(=O)[C@@H]2C[C@H]1C2(C)C
REMARK SMILES IDX 1 1 2 2 3 3 4 4 5 5 6 6 7 7 8 8 9 9 10 10 11 11
REMARK H PARENT
REMARK Flexibility Score: inf
ROOT
ATOM      1  C   UNL     1      -0.582  -4.704  17.928  1.00  0.00     0.040 C 
ATOM      2  C   UNL     1       0.233  -3.555  17.426  1.00  0.00    -0.066 C 
ATOM      3  C   UNL     1       0.012  -2.284  17.865  1.00  0.00     0.047 C 
ATOM      4  C   UNL     1       0.915  -1.224  17.312  1.00  0.00     0.159 C 
ATOM      5  O   UNL     1       0.837  -0.020  17.669  1.00  0.00    -0.295 OA
ATOM      6  C   UNL     1       1.939  -1.709  16.284  1.00  0.00     0.067 C 
ATOM      7  C   UNL     1       1.125  -2.621  15.340  1.00  0.00     0.021 C 
ATOM      8  C   UNL     1       1.349  -3.746  16.377  1.00  0.00     0.022 C 
ATOM      9  C   UNL     1       2.628  -2.988  16.837  1.00  0.00    -0.019 C 
ATOM     10  C   UNL     1       3.005  -3.030  18.345  1.00  0.00     0.012 C 
ATOM     11  C   UNL     1       3.878  -3.387  16.013  1.00  0.00     0.012 C 
ENDROOT
TORSDOF 0
ENDMDL
MODEL 2
REMARK VINA RESULT:    -3.837      6.833      8.182
REMARK INTER + INTRA:          -3.837
REMARK INTER:                  -3.837
REMARK INTRA:                   0.000
REMARK UNBOUND:                 0.000
REMARK SMILES CC1=CC(=O)[C@@H]2C[C@H]1C2(C)C
REMARK SMILES IDX 1 1 2 2 3 3 4 4 5 5 6 6 7 7 8 8 9 9 10 10 11 11
REMARK H PARENT
REMARK Flexibility Score: inf
ROOT
ATOM      1  C   UNL     1       0.319   4.493  22.423  1.00  0.00     0.040 C 
ATOM      2  C   UNL     1       1.217   3.323  22.673  1.00  0.00    -0.066 C 
ATOM      3  C   UNL     1       0.791   2.046  22.466  1.00  0.00     0.047 C 
ATOM      4  C   UNL     1       1.793   0.963  22.722  1.00  0.00     0.159 C 
ATOM      5  O   UNL     1       1.534  -0.254  22.530  1.00  0.00    -0.295 OA
ATOM      6  C   UNL     1       3.155   1.438  23.231  1.00  0.00     0.067 C 
ATOM      7  C   UNL     1       2.809   2.466  24.330  1.00  0.00     0.021 C 
ATOM      8  C   UNL     1       2.659   3.502  23.192  1.00  0.00     0.022 C 
ATOM      9  C   UNL     1       3.627   2.626  22.346  1.00  0.00    -0.019 C 
ATOM     10  C   UNL     1       3.390   2.542  20.811  1.00  0.00     0.012 C 
ATOM     11  C   UNL     1       5.114   2.987  22.588  1.00  0.00     0.012 C 
ENDROOT
TORSDOF 0
ENDMDL
MODEL 3
REMARK VINA RESULT:    -3.747      6.854      8.370
REMARK INTER + INTRA:          -3.747
REMARK INTER:                  -3.747
REMARK INTRA:                   0.000
REMARK UNBOUND:                 0.000
REMARK SMILES CC1=CC(=O)[C@@H]2C[C@H]1C2(C)C
REMARK SMILES IDX 1 1 2 2 3 3 4 4 5 5 6 6 7 7 8 8 9 9 10 10 11 11
REMARK H PARENT
REMARK Flexibility Score: inf
ROOT
ATOM      1  C   UNL     1       5.508   1.503  24.624  1.00  0.00     0.040 C 
ATOM      2  C   UNL     1       4.554   2.078  23.627  1.00  0.00    -0.066 C 
ATOM      3  C   UNL     1       4.991   2.611  22.453  1.00  0.00     0.047 C 
ATOM      4  C   UNL     1       3.936   3.127  21.523  1.00  0.00     0.159 C 
ATOM      5  O   UNL     1       4.210   3.607  20.393  1.00  0.00    -0.295 OA
ATOM      6  C   UNL     1       2.501   3.028  22.044  1.00  0.00     0.067 C 
ATOM      7  C   UNL     1       2.590   3.543  23.498  1.00  0.00     0.021 C 
ATOM      8  C   UNL     1       3.032   2.113  23.884  1.00  0.00     0.022 C 
ATOM      9  C   UNL     1       2.281   1.601  22.621  1.00  0.00    -0.019 C 
ATOM     10  C   UNL     1       2.881   0.392  21.849  1.00  0.00     0.012 C 
ATOM     11  C   UNL     1       0.787   1.303  22.903  1.00  0.00     0.012 C 
ENDROOT
TORSDOF 0
ENDMDL
MODEL 4
REMARK VINA RESULT:    -3.729      1.843      2.913
REMARK INTER + INTRA:          -3.729
REMARK INTER:                  -3.729
REMARK INTRA:                   0.000
REMARK UNBOUND:                 0.000
REMARK SMILES CC1=CC(=O)[C@@H]2C[C@H]1C2(C)C
REMARK SMILES IDX 1 1 2 2 3 3 4 4 5 5 6 6 7 7 8 8 9 9 10 10 11 11
REMARK H PARENT
REMARK Flexibility Score: inf
ROOT
ATOM      1  C   UNL     1      -1.276  -4.838  17.925  1.00  0.00     0.040 C 
ATOM      2  C   UNL     1      -0.066  -3.961  17.970  1.00  0.00    -0.066 C 
ATOM      3  C   UNL     1       1.174  -4.475  18.204  1.00  0.00     0.047 C 
ATOM      4  C   UNL     1       2.310  -3.498  18.193  1.00  0.00     0.159 C 
ATOM      5  O   UNL     1       3.506  -3.855  18.357  1.00  0.00    -0.295 OA
ATOM      6  C   UNL     1       1.915  -2.037  17.968  1.00  0.00     0.067 C 
ATOM      7  C   UNL     1       0.703  -1.826  18.902  1.00  0.00     0.021 C 
ATOM      8  C   UNL     1      -0.161  -2.433  17.773  1.00  0.00     0.022 C 
ATOM      9  C   UNL     1       0.931  -1.971  16.766  1.00  0.00    -0.019 C 
ATOM     10  C   UNL     1       1.216  -2.868  15.528  1.00  0.00     0.012 C 
ATOM     11  C   UNL     1       0.702  -0.521  16.271  1.00  0.00     0.012 C 
ENDROOT
TORSDOF 0
ENDMDL
MODEL 5
REMARK VINA RESULT:    -3.725      2.309      4.081
REMARK INTER + INTRA:          -3.725
REMARK INTER:                  -3.725
REMARK INTRA:                   0.000
REMARK UNBOUND:                 0.000
REMARK SMILES CC1=CC(=O)[C@@H]2C[C@H]1C2(C)C
REMARK SMILES IDX 1 1 2 2 3 3 4 4 5 5 6 6 7 7 8 8 9 9 10 10 11 11
REMARK H PARENT
REMARK Flexibility Score: inf
ROOT
ATOM      1  C   UNL     1       1.254  -2.967  15.728  1.00  0.00     0.040 C 
ATOM      2  C   UNL     1       0.897  -3.542  17.062  1.00  0.00    -0.066 C 
ATOM      3  C   UNL     1       1.824  -4.179  17.830  1.00  0.00     0.047 C 
ATOM      4  C   UNL     1       1.351  -4.684  19.159  1.00  0.00     0.159 C 
ATOM      5  O   UNL     1       2.120  -5.254  19.976  1.00  0.00    -0.295 OA
ATOM      6  C   UNL     1      -0.133  -4.456  19.455  1.00  0.00     0.067 C 
ATOM      7  C   UNL     1      -0.847  -4.879  18.152  1.00  0.00     0.021 C 
ATOM      8  C   UNL     1      -0.538  -3.459  17.625  1.00  0.00     0.022 C 
ATOM      9  C   UNL     1      -0.486  -2.983  19.106  1.00  0.00    -0.019 C 
ATOM     10  C   UNL     1       0.531  -1.870  19.484  1.00  0.00     0.012 C 
ATOM     11  C   UNL     1      -1.880  -2.568  19.641  1.00  0.00     0.012 C 
ENDROOT
TORSDOF 0
ENDMDL
MODEL 6
REMARK VINA RESULT:    -3.724      1.425      1.842
REMARK INTER + INTRA:          -3.724
REMARK INTER:                  -3.724
REMARK INTRA:                   0.000
REMARK UNBOUND:                 0.000
REMARK SMILES CC1=CC(=O)[C@@H]2C[C@H]1C2(C)C
REMARK SMILES IDX 1 1 2 2 3 3 4 4 5 5 6 6 7 7 8 8 9 9 10 10 11 11
REMARK H PARENT
REMARK Flexibility Score: inf
ROOT
ATOM      1  C   UNL     1       0.255  -4.115  16.788  1.00  0.00     0.040 C 
ATOM      2  C   UNL     1       0.935  -2.818  16.486  1.00  0.00    -0.066 C 
ATOM      3  C   UNL     1       1.205  -1.914  17.468  1.00  0.00     0.047 C 
ATOM      4  C   UNL     1       1.918  -0.666  17.044  1.00  0.00     0.159 C 
ATOM      5  O   UNL     1       2.258   0.227  17.863  1.00  0.00    -0.295 OA
ATOM      6  C   UNL     1       2.204  -0.554  15.545  1.00  0.00     0.067 C 
ATOM      7  C   UNL     1       0.877  -0.970  14.874  1.00  0.00     0.021 C 
ATOM      8  C   UNL     1       1.348  -2.431  15.049  1.00  0.00     0.022 C 
ATOM      9  C   UNL     1       2.810  -1.900  15.056  1.00  0.00    -0.019 C 
ATOM     10  C   UNL     1       3.848  -2.616  15.964  1.00  0.00     0.012 C 
ATOM     11  C   UNL     1       3.405  -1.794  13.629  1.00  0.00     0.012 C 
ENDROOT
TORSDOF 0
ENDMDL
MODEL 7
REMARK VINA RESULT:    -3.659      2.113      3.401
REMARK INTER + INTRA:          -3.659
REMARK INTER:                  -3.659
REMARK INTRA:                   0.000
REMARK UNBOUND:                 0.000
REMARK SMILES CC1=CC(=O)[C@@H]2C[C@H]1C2(C)C
REMARK SMILES IDX 1 1 2 2 3 3 4 4 5 5 6 6 7 7 8 8 9 9 10 10 11 11
REMARK H PARENT
REMARK Flexibility Score: inf
ROOT
ATOM      1  C   UNL     1       0.379  -0.262  14.551  1.00  0.00     0.040 C 
ATOM      2  C   UNL     1       1.195  -1.323  15.217  1.00  0.00    -0.066 C 
ATOM      3  C   UNL     1       2.438  -1.648  14.767  1.00  0.00     0.047 C 
ATOM      4  C   UNL     1       3.168  -2.705  15.538  1.00  0.00     0.159 C 
ATOM      5  O   UNL     1       4.339  -3.064  15.246  1.00  0.00    -0.295 OA
ATOM      6  C   UNL     1       2.392  -3.316  16.706  1.00  0.00     0.067 C 
ATOM      7  C   UNL     1       0.989  -3.593  16.123  1.00  0.00     0.021 C 
ATOM      8  C   UNL     1       0.664  -2.114  16.432  1.00  0.00     0.022 C 
ATOM      9  C   UNL     1       1.760  -2.164  17.536  1.00  0.00    -0.019 C 
ATOM     10  C   UNL     1       2.606  -0.885  17.789  1.00  0.00     0.012 C 
ATOM     11  C   UNL     1       1.203  -2.654  18.897  1.00  0.00     0.012 C 
ENDROOT
TORSDOF 0
ENDMDL
MODEL 8
REMARK VINA RESULT:    -3.656      6.521      8.024
REMARK INTER + INTRA:          -3.656
REMARK INTER:                  -3.656
REMARK INTRA:                   0.000
REMARK UNBOUND:                 0.000
REMARK SMILES CC1=CC(=O)[C@@H]2C[C@H]1C2(C)C
REMARK SMILES IDX 1 1 2 2 3 3 4 4 5 5 6 6 7 7 8 8 9 9 10 10 11 11
REMARK H PARENT
REMARK Flexibility Score: inf
ROOT
ATOM      1  C   UNL     1       2.509   0.589  25.021  1.00  0.00     0.040 C 
ATOM      2  C   UNL     1       2.541   1.303  23.707  1.00  0.00    -0.066 C 
ATOM      3  C   UNL     1       2.821   0.644  22.549  1.00  0.00     0.047 C 
ATOM      4  C   UNL     1       2.793   1.463  21.295  1.00  0.00     0.159 C 
ATOM      5  O   UNL     1       2.995   0.962  20.158  1.00  0.00    -0.295 OA
ATOM      6  C   UNL     1       2.500   2.952  21.493  1.00  0.00     0.067 C 
ATOM      7  C   UNL     1       3.399   3.359  22.680  1.00  0.00     0.021 C 
ATOM      8  C   UNL     1       2.280   2.821  23.600  1.00  0.00     0.022 C 
ATOM      9  C   UNL     1       1.277   3.093  22.442  1.00  0.00    -0.019 C 
ATOM     10  C   UNL     1       0.083   2.114  22.259  1.00  0.00     0.012 C 
ATOM     11  C   UNL     1       0.718   4.538  22.473  1.00  0.00     0.012 C 
ENDROOT
TORSDOF 0
ENDMDL
MODEL 9
REMARK VINA RESULT:    -3.643      6.543      7.908
REMARK INTER + INTRA:          -3.643
REMARK INTER:                  -3.643
REMARK INTRA:                   0.000
REMARK UNBOUND:                 0.000
REMARK SMILES CC1=CC(=O)[C@@H]2C[C@H]1C2(C)C
REMARK SMILES IDX 1 1 2 2 3 3 4 4 5 5 6 6 7 7 8 8 9 9 10 10 11 11
REMARK H PARENT
REMARK Flexibility Score: inf
ROOT
ATOM      1  C   UNL     1       0.724   4.492  22.377  1.00  0.00     0.040 C 
ATOM      2  C   UNL     1       1.560   3.256  22.281  1.00  0.00    -0.066 C 
ATOM      3  C   UNL     1       2.779   3.269  21.674  1.00  0.00     0.047 C 
ATOM      4  C   UNL     1       3.533   1.975  21.670  1.00  0.00     0.159 C 
ATOM      5  O   UNL     1       4.686   1.869  21.176  1.00  0.00    -0.295 OA
ATOM      6  C   UNL     1       2.806   0.792  22.311  1.00  0.00     0.067 C 
ATOM      7  C   UNL     1       1.375   0.871  21.735  1.00  0.00     0.021 C 
ATOM      8  C   UNL     1       1.078   1.902  22.848  1.00  0.00     0.022 C 
ATOM      9  C   UNL     1       2.222   1.252  23.677  1.00  0.00    -0.019 C 
ATOM     10  C   UNL     1       3.091   2.172  24.579  1.00  0.00     0.012 C 
ATOM     11  C   UNL     1       1.724   0.062  24.536  1.00  0.00     0.012 C 
ENDROOT
TORSDOF 0
ENDMDL
