MODEL 1
REMARK VINA RESULT:    -5.497      0.000      0.000
REMARK INTER + INTRA:          -5.917
REMARK INTER:                  -5.819
REMARK INTRA:                  -0.098
REMARK UNBOUND:                -0.098
REMARK SMILES C=C(C)[C@H]1CC=C(C)C(=O)C1
REMARK SMILES IDX 8 1 7 2 6 3 5 4 4 5 11 6 9 7 10 8 2 9 1 10 3 11
REMARK H PARENT
REMARK Flexibility Score: inf
ROOT
ATOM      1  C   UNL     1      -9.124   4.290 -17.001  1.00  0.00     0.048 C 
ATOM      2  C   UNL     1      -9.777   3.084 -17.618  1.00  0.00    -0.012 C 
ATOM      3  C   UNL     1     -10.998   2.700 -17.206  1.00  0.00    -0.019 C 
ATOM      4  C   UNL     1     -11.689   1.490 -17.777  1.00  0.00     0.036 C 
ATOM      5  C   UNL     1     -11.314   1.283 -19.257  1.00  0.00     0.025 C 
ATOM      6  C   UNL     1      -9.784   1.210 -19.416  1.00  0.00     0.089 C 
ATOM      7  C   UNL     1      -9.127   2.395 -18.761  1.00  0.00     0.158 C 
ATOM      8  O   UNL     1      -7.998   2.776 -19.171  1.00  0.00    -0.295 OA
ENDROOT
BRANCH   5   9
ATOM      9  C   UNL     1     -11.999   0.057 -19.844  1.00  0.00    -0.077 C 
ATOM     10  C   UNL     1     -11.406  -0.688 -20.793  1.00  0.00     0.008 C 
ATOM     11  C   UNL     1     -13.369  -0.346 -19.363  1.00  0.00     0.039 C 
ENDBRANCH   5   9
TORSDOF 1
ENDMDL
MODEL 2
REMARK VINA RESULT:    -5.453      1.564      4.248
REMARK INTER + INTRA:          -5.870
REMARK INTER:                  -5.772
REMARK INTRA:                  -0.097
REMARK UNBOUND:                -0.098
REMARK SMILES C=C(C)[C@H]1CC=C(C)C(=O)C1
REMARK SMILES IDX 8 1 7 2 6 3 5 4 4 5 11 6 9 7 10 8 2 9 1 10 3 11
REMARK H PARENT
REMARK Flexibility Score: inf
ROOT
ATOM      1  C   UNL     1     -13.005  -0.630 -19.661  1.00  0.00     0.048 C 
ATOM      2  C   UNL     1     -12.041   0.469 -19.302  1.00  0.00    -0.012 C 
ATOM      3  C   UNL     1     -12.377   1.374 -18.367  1.00  0.00    -0.019 C 
ATOM      4  C   UNL     1     -11.458   2.504 -17.983  1.00  0.00     0.036 C 
ATOM      5  C   UNL     1      -9.981   2.081 -18.100  1.00  0.00     0.025 C 
ATOM      6  C   UNL     1      -9.689   1.546 -19.515  1.00  0.00     0.089 C 
ATOM      7  C   UNL     1     -10.679   0.479 -19.891  1.00  0.00     0.158 C 
ATOM      8  O   UNL     1     -10.351  -0.391 -20.742  1.00  0.00    -0.295 OA
ENDROOT
BRANCH   5   9
ATOM      9  C   UNL     1      -9.040   3.218 -17.724  1.00  0.00    -0.077 C 
ATOM     10  C   UNL     1      -7.891   3.424 -18.390  1.00  0.00     0.008 C 
ATOM     11  C   UNL     1      -9.388   4.141 -16.585  1.00  0.00     0.039 C 
ENDBRANCH   5   9
TORSDOF 1
ENDMDL
MODEL 3
REMARK VINA RESULT:    -5.237      2.858      4.032
REMARK INTER + INTRA:          -5.642
REMARK INTER:                  -5.548
REMARK INTRA:                  -0.094
REMARK UNBOUND:                -0.098
REMARK SMILES C=C(C)[C@H]1CC=C(C)C(=O)C1
REMARK SMILES IDX 8 1 7 2 6 3 5 4 4 5 11 6 9 7 10 8 2 9 1 10 3 11
REMARK H PARENT
REMARK Flexibility Score: inf
ROOT
ATOM      1  C   UNL     1      -7.579   1.813 -18.495  1.00  0.00     0.048 C 
ATOM      2  C   UNL     1      -8.761   2.701 -18.774  1.00  0.00    -0.012 C 
ATOM      3  C   UNL     1      -8.584   4.025 -18.919  1.00  0.00    -0.019 C 
ATOM      4  C   UNL     1      -9.734   4.961 -19.181  1.00  0.00     0.036 C 
ATOM      5  C   UNL     1     -10.831   4.271 -20.015  1.00  0.00     0.025 C 
ATOM      6  C   UNL     1     -11.283   2.968 -19.329  1.00  0.00     0.089 C 
ATOM      7  C   UNL     1     -10.098   2.100 -19.010  1.00  0.00     0.158 C 
ATOM      8  O   UNL     1     -10.259   0.854 -18.909  1.00  0.00    -0.295 OA
ENDROOT
BRANCH   5   9
ATOM      9  C   UNL     1     -12.006   5.203 -20.279  1.00  0.00    -0.077 C 
ATOM     10  C   UNL     1     -12.552   5.937 -19.295  1.00  0.00     0.008 C 
ATOM     11  C   UNL     1     -12.581   5.318 -21.668  1.00  0.00     0.039 C 
ENDBRANCH   5   9
TORSDOF 1
ENDMDL
MODEL 4
REMARK VINA RESULT:    -5.068      1.504      2.089
REMARK INTER + INTRA:          -5.462
REMARK INTER:                  -5.366
REMARK INTRA:                  -0.096
REMARK UNBOUND:                -0.098
REMARK SMILES C=C(C)[C@H]1CC=C(C)C(=O)C1
REMARK SMILES IDX 8 1 7 2 6 3 5 4 4 5 11 6 9 7 10 8 2 9 1 10 3 11
REMARK H PARENT
REMARK Flexibility Score: inf
ROOT
ATOM      1  C   UNL     1      -9.131   4.261 -16.952  1.00  0.00     0.048 C 
ATOM      2  C   UNL     1      -9.896   3.271 -17.788  1.00  0.00    -0.012 C 
ATOM      3  C   UNL     1      -9.232   2.381 -18.545  1.00  0.00    -0.019 C 
ATOM      4  C   UNL     1      -9.948   1.381 -19.414  1.00  0.00     0.036 C 
ATOM      5  C   UNL     1     -11.286   0.954 -18.781  1.00  0.00     0.025 C 
ATOM      6  C   UNL     1     -12.153   2.191 -18.480  1.00  0.00     0.089 C 
ATOM      7  C   UNL     1     -11.375   3.200 -17.681  1.00  0.00     0.158 C 
ATOM      8  O   UNL     1     -11.996   4.012 -16.944  1.00  0.00    -0.295 OA
ENDROOT
BRANCH   5   9
ATOM      9  C   UNL     1     -12.025  -0.050 -19.655  1.00  0.00    -0.077 C 
ATOM     10  C   UNL     1     -11.426  -0.640 -20.704  1.00  0.00     0.008 C 
ATOM     11  C   UNL     1     -13.459  -0.403 -19.353  1.00  0.00     0.039 C 
ENDBRANCH   5   9
TORSDOF 1
ENDMDL
MODEL 5
REMARK VINA RESULT:    -4.994      1.929      4.667
REMARK INTER + INTRA:          -5.384
REMARK INTER:                  -5.291
REMARK INTRA:                  -0.094
REMARK UNBOUND:                -0.098
REMARK SMILES C=C(C)[C@H]1CC=C(C)C(=O)C1
REMARK SMILES IDX 8 1 7 2 6 3 5 4 4 5 11 6 9 7 10 8 2 9 1 10 3 11
REMARK H PARENT
REMARK Flexibility Score: inf
ROOT
ATOM      1  C   UNL     1     -11.825  -0.907 -20.775  1.00  0.00     0.048 C 
ATOM      2  C   UNL     1     -11.106   0.114 -19.937  1.00  0.00    -0.012 C 
ATOM      3  C   UNL     1      -9.843   0.460 -20.241  1.00  0.00    -0.019 C 
ATOM      4  C   UNL     1      -9.072   1.463 -19.424  1.00  0.00     0.036 C 
ATOM      5  C   UNL     1     -10.007   2.538 -18.838  1.00  0.00     0.025 C 
ATOM      6  C   UNL     1     -11.140   1.877 -18.031  1.00  0.00     0.089 C 
ATOM      7  C   UNL     1     -11.831   0.824 -18.854  1.00  0.00     0.158 C 
ATOM      8  O   UNL     1     -13.027   0.526 -18.591  1.00  0.00    -0.295 OA
ENDROOT
BRANCH   5   9
ATOM      9  C   UNL     1      -9.241   3.553 -18.001  1.00  0.00    -0.077 C 
ATOM     10  C   UNL     1      -8.160   4.186 -18.487  1.00  0.00     0.008 C 
ATOM     11  C   UNL     1      -9.689   3.867 -16.597  1.00  0.00     0.039 C 
ENDBRANCH   5   9
TORSDOF 1
ENDMDL
MODEL 6
REMARK VINA RESULT:    -4.894      3.553      5.126
REMARK INTER + INTRA:          -5.279
REMARK INTER:                  -5.181
REMARK INTRA:                  -0.098
REMARK UNBOUND:                -0.098
REMARK SMILES C=C(C)[C@H]1CC=C(C)C(=O)C1
REMARK SMILES IDX 8 1 7 2 6 3 5 4 4 5 11 6 9 7 10 8 2 9 1 10 3 11
REMARK H PARENT
REMARK Flexibility Score: inf
ROOT
ATOM      1  C   UNL     1     -13.151   6.177 -21.462  1.00  0.00     0.048 C 
ATOM      2  C   UNL     1     -12.286   5.420 -20.492  1.00  0.00    -0.012 C 
ATOM      3  C   UNL     1     -11.380   4.539 -20.950  1.00  0.00    -0.019 C 
ATOM      4  C   UNL     1     -10.502   3.742 -20.022  1.00  0.00     0.036 C 
ATOM      5  C   UNL     1     -10.169   4.543 -18.749  1.00  0.00     0.025 C 
ATOM      6  C   UNL     1     -11.463   5.017 -18.062  1.00  0.00     0.089 C 
ATOM      7  C   UNL     1     -12.349   5.736 -19.043  1.00  0.00     0.158 C 
ATOM      8  O   UNL     1     -13.173   6.588 -18.615  1.00  0.00    -0.295 OA
ENDROOT
BRANCH   5   9
ATOM      9  C   UNL     1      -9.289   3.744 -17.797  1.00  0.00    -0.077 C 
ATOM     10  C   UNL     1      -9.425   3.849 -16.464  1.00  0.00     0.008 C 
ATOM     11  C   UNL     1      -8.237   2.812 -18.343  1.00  0.00     0.039 C 
ENDBRANCH   5   9
TORSDOF 1
ENDMDL
MODEL 7
REMARK VINA RESULT:    -4.516      3.559      4.400
REMARK INTER + INTRA:          -4.878
REMARK INTER:                  -4.786
REMARK INTRA:                  -0.092
REMARK UNBOUND:                -0.098
REMARK SMILES C=C(C)[C@H]1CC=C(C)C(=O)C1
REMARK SMILES IDX 8 1 7 2 6 3 5 4 4 5 11 6 9 7 10 8 2 9 1 10 3 11
REMARK H PARENT
REMARK Flexibility Score: inf
ROOT
ATOM      1  C   UNL     1      -8.804   3.152 -17.061  1.00  0.00     0.048 C 
ATOM      2  C   UNL     1      -9.657   3.916 -18.036  1.00  0.00    -0.012 C 
ATOM      3  C   UNL     1      -9.168   4.234 -19.247  1.00  0.00    -0.019 C 
ATOM      4  C   UNL     1      -9.974   5.013 -20.254  1.00  0.00     0.036 C 
ATOM      5  C   UNL     1     -11.476   4.695 -20.128  1.00  0.00     0.025 C 
ATOM      6  C   UNL     1     -11.955   4.938 -18.685  1.00  0.00     0.089 C 
ATOM      7  C   UNL     1     -11.075   4.209 -17.706  1.00  0.00     0.158 C 
ATOM      8  O   UNL     1     -11.545   3.880 -16.585  1.00  0.00    -0.295 OA
ENDROOT
BRANCH   5   9
ATOM      9  C   UNL     1     -12.303   5.484 -21.134  1.00  0.00    -0.077 C 
ATOM     10  C   UNL     1     -12.181   5.276 -22.457  1.00  0.00     0.008 C 
ATOM     11  C   UNL     1     -13.283   6.524 -20.656  1.00  0.00     0.039 C 
ENDBRANCH   5   9
TORSDOF 1
ENDMDL
MODEL 8
REMARK VINA RESULT:    -4.468      2.768      3.974
REMARK INTER + INTRA:          -4.827
REMARK INTER:                  -4.738
REMARK INTRA:                  -0.089
REMARK UNBOUND:                -0.098
REMARK SMILES C=C(C)[C@H]1CC=C(C)C(=O)C1
REMARK SMILES IDX 8 1 7 2 6 3 5 4 4 5 11 6 9 7 10 8 2 9 1 10 3 11
REMARK H PARENT
REMARK Flexibility Score: inf
ROOT
ATOM      1  C   UNL     1     -12.862   6.409 -18.782  1.00  0.00     0.048 C 
ATOM      2  C   UNL     1     -11.975   5.199 -18.893  1.00  0.00    -0.012 C 
ATOM      3  C   UNL     1     -11.234   5.012 -19.999  1.00  0.00    -0.019 C 
ATOM      4  C   UNL     1     -10.344   3.809 -20.169  1.00  0.00     0.036 C 
ATOM      5  C   UNL     1      -9.773   3.346 -18.815  1.00  0.00     0.025 C 
ATOM      6  C   UNL     1     -10.915   3.089 -17.814  1.00  0.00     0.089 C 
ATOM      7  C   UNL     1     -11.827   4.283 -17.735  1.00  0.00     0.158 C 
ATOM      8  O   UNL     1     -12.495   4.477 -16.684  1.00  0.00    -0.295 OA
ENDROOT
BRANCH   5   9
ATOM      9  C   UNL     1      -8.878   2.124 -18.971  1.00  0.00    -0.077 C 
ATOM     10  C   UNL     1      -7.623   2.110 -18.490  1.00  0.00     0.008 C 
ATOM     11  C   UNL     1      -9.393   0.897 -19.678  1.00  0.00     0.039 C 
ENDBRANCH   5   9
TORSDOF 1
ENDMDL
MODEL 9
REMARK VINA RESULT:    -4.257      3.502      4.060
REMARK INTER + INTRA:          -4.604
REMARK INTER:                  -4.506
REMARK INTRA:                  -0.098
REMARK UNBOUND:                -0.098
REMARK SMILES C=C(C)[C@H]1CC=C(C)C(=O)C1
REMARK SMILES IDX 8 1 7 2 6 3 5 4 4 5 11 6 9 7 10 8 2 9 1 10 3 11
REMARK H PARENT
REMARK Flexibility Score: inf
ROOT
ATOM      1  C   UNL     1      -9.712   3.172 -16.813  1.00  0.00     0.048 C 
ATOM      2  C   UNL     1     -10.574   3.702 -17.925  1.00  0.00    -0.012 C 
ATOM      3  C   UNL     1     -11.260   4.845 -17.754  1.00  0.00    -0.019 C 
ATOM      4  C   UNL     1     -12.152   5.410 -18.829  1.00  0.00     0.036 C 
ATOM      5  C   UNL     1     -11.604   5.084 -20.232  1.00  0.00     0.025 C 
ATOM      6  C   UNL     1     -11.396   3.566 -20.385  1.00  0.00     0.089 C 
ATOM      7  C   UNL     1     -10.570   3.028 -19.248  1.00  0.00     0.158 C 
ATOM      8  O   UNL     1      -9.900   1.975 -19.421  1.00  0.00    -0.295 OA
ENDROOT
BRANCH   5   9
ATOM      9  C   UNL     1     -12.502   5.641 -21.328  1.00  0.00    -0.077 C 
ATOM     10  C   UNL     1     -12.450   5.165 -22.584  1.00  0.00     0.008 C 
ATOM     11  C   UNL     1     -13.476   6.748 -21.017  1.00  0.00     0.039 C 
ENDBRANCH   5   9
TORSDOF 1
ENDMDL
