MODEL 1
REMARK VINA RESULT:    -4.206      0.000      0.000
REMARK INTER + INTRA:          -6.183
REMARK INTER:                  -5.928
REMARK INTRA:                  -0.255
REMARK UNBOUND:                -0.255
REMARK SMILES CCCCCCCCC(=O)[O-]
REMARK SMILES IDX 6 1 7 2 8 3 9 4 10 5 11 6 5 7 4 8 3 9 2 10 1 11
REMARK H PARENT
REMARK Flexibility Score: inf
ROOT
ATOM      1  C   UNL     1      39.659 117.610  12.231  1.00  0.00     0.000 C 
ENDROOT
BRANCH   1   2
ATOM      2  C   UNL     1      41.069 117.235  11.736  1.00  0.00     0.006 C 
BRANCH   2   3
ATOM      3  C   UNL     1      41.460 117.870  10.393  1.00  0.00     0.053 C 
BRANCH   3   4
ATOM      4  C   UNL     1      42.651 117.199   9.781  1.00  0.00     0.041 C 
ATOM      5  O   UNL     1      43.640 116.887  10.496  1.00  0.00    -0.550 OA
ATOM      6  O   UNL     1      42.682 116.947   8.415  1.00  0.00    -0.550 OA
ENDBRANCH   3   4
ENDBRANCH   2   3
ENDBRANCH   1   2
BRANCH   1   7
ATOM      7  C   UNL     1      39.618 118.981  12.925  1.00  0.00     0.000 C 
BRANCH   7   8
ATOM      8  C   UNL     1      38.470 119.094  13.942  1.00  0.00    -0.000 C 
BRANCH   8   9
ATOM      9  C   UNL     1      37.398 120.109  13.517  1.00  0.00    -0.000 C 
BRANCH   9  10
ATOM     10  C   UNL     1      35.990 119.548  13.748  1.00  0.00    -0.003 C 
ATOM     11  C   UNL     1      35.547 118.670  12.581  1.00  0.00     0.004 C 
ENDBRANCH   9  10
ENDBRANCH   8   9
ENDBRANCH   7   8
ENDBRANCH   1   7
TORSDOF 7
ENDMDL
MODEL 2
REMARK VINA RESULT:    -4.173      1.483      2.027
REMARK INTER + INTRA:          -6.136
REMARK INTER:                  -5.951
REMARK INTRA:                  -0.186
REMARK UNBOUND:                -0.255
REMARK SMILES CCCCCCCCC(=O)[O-]
REMARK SMILES IDX 6 1 7 2 8 3 9 4 10 5 11 6 5 7 4 8 3 9 2 10 1 11
REMARK H PARENT
REMARK Flexibility Score: inf
ROOT
ATOM      1  C   UNL     1      40.000 118.616  13.090  1.00  0.00     0.000 C 
ENDROOT
BRANCH   1   2
ATOM      2  C   UNL     1      40.170 117.623  11.924  1.00  0.00     0.006 C 
BRANCH   2   3
ATOM      3  C   UNL     1      41.123 118.099  10.817  1.00  0.00     0.053 C 
BRANCH   3   4
ATOM      4  C   UNL     1      42.263 117.150  10.613  1.00  0.00     0.041 C 
ATOM      5  O   UNL     1      42.661 116.423  11.561  1.00  0.00    -0.550 OA
ATOM      6  O   UNL     1      42.909 117.092   9.383  1.00  0.00    -0.550 OA
ENDBRANCH   3   4
ENDBRANCH   2   3
ENDBRANCH   1   2
BRANCH   1   7
ATOM      7  C   UNL     1      38.537 118.763  13.538  1.00  0.00     0.000 C 
BRANCH   7   8
ATOM      8  C   UNL     1      38.004 120.194  13.356  1.00  0.00    -0.000 C 
BRANCH   8   9
ATOM      9  C   UNL     1      36.808 120.502  14.269  1.00  0.00    -0.000 C 
BRANCH   9  10
ATOM     10  C   UNL     1      37.004 121.838  14.995  1.00  0.00    -0.003 C 
ATOM     11  C   UNL     1      36.595 121.735  16.462  1.00  0.00     0.004 C 
ENDBRANCH   9  10
ENDBRANCH   8   9
ENDBRANCH   7   8
ENDBRANCH   1   7
TORSDOF 7
ENDMDL
MODEL 3
REMARK VINA RESULT:    -4.087      3.435      7.548
REMARK INTER + INTRA:          -6.015
REMARK INTER:                  -5.720
REMARK INTRA:                  -0.294
REMARK UNBOUND:                -0.255
REMARK SMILES CCCCCCCCC(=O)[O-]
REMARK SMILES IDX 6 1 7 2 8 3 9 4 10 5 11 6 5 7 4 8 3 9 2 10 1 11
REMARK H PARENT
REMARK Flexibility Score: inf
ROOT
ATOM      1  C   UNL     1      42.999 117.126   9.162  1.00  0.00     0.000 C 
ENDROOT
BRANCH   1   2
ATOM      2  C   UNL     1      42.484 116.952  10.603  1.00  0.00     0.006 C 
BRANCH   2   3
ATOM      3  C   UNL     1      41.161 117.676  10.896  1.00  0.00     0.053 C 
BRANCH   3   4
ATOM      4  C   UNL     1      40.471 117.116  12.102  1.00  0.00     0.041 C 
ATOM      5  O   UNL     1      41.076 116.319  12.866  1.00  0.00    -0.550 OA
ATOM      6  O   UNL     1      39.147 117.449  12.364  1.00  0.00    -0.550 OA
ENDBRANCH   3   4
ENDBRANCH   2   3
ENDBRANCH   1   2
BRANCH   1   7
ATOM      7  C   UNL     1      43.735 115.882   8.639  1.00  0.00     0.000 C 
BRANCH   7   8
ATOM      8  C   UNL     1      43.793 114.749   9.678  1.00  0.00    -0.000 C 
BRANCH   8   9
ATOM      9  C   UNL     1      44.974 113.794   9.450  1.00  0.00    -0.000 C 
BRANCH   9  10
ATOM     10  C   UNL     1      45.252 113.616   7.953  1.00  0.00    -0.003 C 
ATOM     11  C   UNL     1      45.904 112.265   7.669  1.00  0.00     0.004 C 
ENDBRANCH   9  10
ENDBRANCH   8   9
ENDBRANCH   7   8
ENDBRANCH   1   7
TORSDOF 7
ENDMDL
MODEL 4
REMARK VINA RESULT:    -4.085      2.776      4.831
REMARK INTER + INTRA:          -6.012
REMARK INTER:                  -5.613
REMARK INTRA:                  -0.399
REMARK UNBOUND:                -0.255
REMARK SMILES CCCCCCCCC(=O)[O-]
REMARK SMILES IDX 6 1 7 2 8 3 9 4 10 5 11 6 5 7 4 8 3 9 2 10 1 11
REMARK H PARENT
REMARK Flexibility Score: inf
ROOT
ATOM      1  C   UNL     1      43.018 116.766   8.570  1.00  0.00     0.000 C 
ENDROOT
BRANCH   1   2
ATOM      2  C   UNL     1      44.317 116.074   9.024  1.00  0.00     0.006 C 
BRANCH   2   3
ATOM      3  C   UNL     1      44.444 114.607   8.581  1.00  0.00     0.053 C 
BRANCH   3   4
ATOM      4  C   UNL     1      45.263 113.801   9.541  1.00  0.00     0.041 C 
ATOM      5  O   UNL     1      45.936 112.818   9.131  1.00  0.00    -0.550 OA
ATOM      6  O   UNL     1      45.258 114.115  10.895  1.00  0.00    -0.550 OA
ENDBRANCH   3   4
ENDBRANCH   2   3
ENDBRANCH   1   2
BRANCH   1   7
ATOM      7  C   UNL     1      42.246 117.404   9.736  1.00  0.00     0.000 C 
BRANCH   7   8
ATOM      8  C   UNL     1      42.636 116.808  11.099  1.00  0.00    -0.000 C 
BRANCH   8   9
ATOM      9  C   UNL     1      41.455 116.745  12.079  1.00  0.00    -0.000 C 
BRANCH   9  10
ATOM     10  C   UNL     1      40.290 117.613  11.589  1.00  0.00    -0.003 C 
ATOM     11  C   UNL     1      39.945 118.700  12.603  1.00  0.00     0.004 C 
ENDBRANCH   9  10
ENDBRANCH   8   9
ENDBRANCH   7   8
ENDBRANCH   1   7
TORSDOF 7
ENDMDL
MODEL 5
REMARK VINA RESULT:    -4.079      1.361      2.144
REMARK INTER + INTRA:          -6.004
REMARK INTER:                  -5.887
REMARK INTRA:                  -0.117
REMARK UNBOUND:                -0.255
REMARK SMILES CCCCCCCCC(=O)[O-]
REMARK SMILES IDX 6 1 7 2 8 3 9 4 10 5 11 6 5 7 4 8 3 9 2 10 1 11
REMARK H PARENT
REMARK Flexibility Score: inf
ROOT
ATOM      1  C   UNL     1      41.119 117.961  10.727  1.00  0.00     0.000 C 
ENDROOT
BRANCH   1   2
ATOM      2  C   UNL     1      42.388 117.112  10.525  1.00  0.00     0.006 C 
BRANCH   2   3
ATOM      3  C   UNL     1      42.855 117.005   9.064  1.00  0.00     0.053 C 
BRANCH   3   4
ATOM      4  C   UNL     1      43.833 115.888   8.869  1.00  0.00     0.041 C 
ATOM      5  O   UNL     1      44.811 116.030   8.089  1.00  0.00    -0.550 OA
ATOM      6  O   UNL     1      43.645 114.676   9.523  1.00  0.00    -0.550 OA
ENDBRANCH   3   4
ENDBRANCH   2   3
ENDBRANCH   1   2
BRANCH   1   7
ATOM      7  C   UNL     1      40.379 117.621  12.031  1.00  0.00     0.000 C 
BRANCH   7   8
ATOM      8  C   UNL     1      39.943 118.876  12.806  1.00  0.00    -0.000 C 
BRANCH   8   9
ATOM      9  C   UNL     1      38.520 118.759  13.373  1.00  0.00    -0.000 C 
BRANCH   9  10
ATOM     10  C   UNL     1      37.859 120.137  13.483  1.00  0.00    -0.003 C 
ATOM     11  C   UNL     1      36.514 120.050  14.198  1.00  0.00     0.004 C 
ENDBRANCH   9  10
ENDBRANCH   8   9
ENDBRANCH   7   8
ENDBRANCH   1   7
TORSDOF 7
ENDMDL
MODEL 6
REMARK VINA RESULT:    -4.065      3.562      6.317
REMARK INTER + INTRA:          -5.983
REMARK INTER:                  -5.702
REMARK INTRA:                  -0.281
REMARK UNBOUND:                -0.255
REMARK SMILES CCCCCCCCC(=O)[O-]
REMARK SMILES IDX 6 1 7 2 8 3 9 4 10 5 11 6 5 7 4 8 3 9 2 10 1 11
REMARK H PARENT
REMARK Flexibility Score: inf
ROOT
ATOM      1  C   UNL     1      39.887 118.991  12.635  1.00  0.00     0.000 C 
ENDROOT
BRANCH   1   2
ATOM      2  C   UNL     1      38.857 118.944  13.779  1.00  0.00     0.006 C 
BRANCH   2   3
ATOM      3  C   UNL     1      37.546 119.691  13.486  1.00  0.00     0.053 C 
BRANCH   3   4
ATOM      4  C   UNL     1      36.454 118.759  13.060  1.00  0.00     0.041 C 
ATOM      5  O   UNL     1      35.332 119.213  12.714  1.00  0.00    -0.550 OA
ATOM      6  O   UNL     1      36.666 117.385  13.075  1.00  0.00    -0.550 OA
ENDBRANCH   3   4
ENDBRANCH   2   3
ENDBRANCH   1   2
BRANCH   1   7
ATOM      7  C   UNL     1      40.183 117.602  12.045  1.00  0.00     0.000 C 
BRANCH   7   8
ATOM      8  C   UNL     1      41.199 117.655  10.891  1.00  0.00    -0.000 C 
BRANCH   8   9
ATOM      9  C   UNL     1      42.444 116.797  11.157  1.00  0.00    -0.000 C 
BRANCH   9  10
ATOM     10  C   UNL     1      43.342 116.736   9.916  1.00  0.00    -0.003 C 
ATOM     11  C   UNL     1      42.558 117.069   8.649  1.00  0.00     0.004 C 
ENDBRANCH   9  10
ENDBRANCH   8   9
ENDBRANCH   7   8
ENDBRANCH   1   7
TORSDOF 7
ENDMDL
MODEL 7
REMARK VINA RESULT:    -4.063      3.241      6.876
REMARK INTER + INTRA:          -5.980
REMARK INTER:                  -5.670
REMARK INTRA:                  -0.311
REMARK UNBOUND:                -0.255
REMARK SMILES CCCCCCCCC(=O)[O-]
REMARK SMILES IDX 6 1 7 2 8 3 9 4 10 5 11 6 5 7 4 8 3 9 2 10 1 11
REMARK H PARENT
REMARK Flexibility Score: inf
ROOT
ATOM      1  C   UNL     1      42.160 117.069  10.826  1.00  0.00     0.000 C 
ENDROOT
BRANCH   1   2
ATOM      2  C   UNL     1      40.753 117.577  11.191  1.00  0.00     0.006 C 
BRANCH   2   3
ATOM      3  C   UNL     1      40.295 117.213  12.612  1.00  0.00     0.053 C 
BRANCH   3   4
ATOM      4  C   UNL     1      39.104 118.014  13.040  1.00  0.00     0.041 C 
ATOM      5  O   UNL     1      37.960 117.487  13.061  1.00  0.00    -0.550 OA
ATOM      6  O   UNL     1      39.252 119.352  13.384  1.00  0.00    -0.550 OA
ENDBRANCH   3   4
ENDBRANCH   2   3
ENDBRANCH   1   2
BRANCH   1   7
ATOM      7  C   UNL     1      42.627 117.553   9.443  1.00  0.00     0.000 C 
BRANCH   7   8
ATOM      8  C   UNL     1      42.952 116.392   8.490  1.00  0.00    -0.000 C 
BRANCH   8   9
ATOM      9  C   UNL     1      44.431 115.978   8.540  1.00  0.00    -0.000 C 
BRANCH   9  10
ATOM     10  C   UNL     1      44.569 114.461   8.704  1.00  0.00    -0.003 C 
ATOM     11  C   UNL     1      44.195 114.021  10.117  1.00  0.00     0.004 C 
ENDBRANCH   9  10
ENDBRANCH   8   9
ENDBRANCH   7   8
ENDBRANCH   1   7
TORSDOF 7
ENDMDL
MODEL 8
REMARK VINA RESULT:    -4.042      3.387      6.594
REMARK INTER + INTRA:          -5.951
REMARK INTER:                  -5.417
REMARK INTRA:                  -0.534
REMARK UNBOUND:                -0.255
REMARK SMILES CCCCCCCCC(=O)[O-]
REMARK SMILES IDX 6 1 7 2 8 3 9 4 10 5 11 6 5 7 4 8 3 9 2 10 1 11
REMARK H PARENT
REMARK Flexibility Score: inf
ROOT
ATOM      1  C   UNL     1      42.637 117.129   8.847  1.00  0.00     0.000 C 
ENDROOT
BRANCH   1   2
ATOM      2  C   UNL     1      42.413 117.274  10.364  1.00  0.00     0.006 C 
BRANCH   2   3
ATOM      3  C   UNL     1      41.054 117.881  10.750  1.00  0.00     0.053 C 
BRANCH   3   4
ATOM      4  C   UNL     1      40.451 117.195  11.937  1.00  0.00     0.041 C 
ATOM      5  O   UNL     1      39.248 117.402  12.246  1.00  0.00    -0.550 OA
ATOM      6  O   UNL     1      41.228 116.351  12.722  1.00  0.00    -0.550 OA
ENDBRANCH   3   4
ENDBRANCH   2   3
ENDBRANCH   1   2
BRANCH   1   7
ATOM      7  C   UNL     1      43.823 116.212   8.507  1.00  0.00     0.000 C 
BRANCH   7   8
ATOM      8  C   UNL     1      44.479 115.605   9.758  1.00  0.00    -0.000 C 
BRANCH   8   9
ATOM      9  C   UNL     1      44.165 114.112   9.928  1.00  0.00    -0.000 C 
BRANCH   9  10
ATOM     10  C   UNL     1      43.873 113.777  11.395  1.00  0.00    -0.003 C 
ATOM     11  C   UNL     1      44.462 114.830  12.330  1.00  0.00     0.004 C 
ENDBRANCH   9  10
ENDBRANCH   8   9
ENDBRANCH   7   8
ENDBRANCH   1   7
TORSDOF 7
ENDMDL
MODEL 9
REMARK VINA RESULT:    -4.011     13.668     15.759
REMARK INTER + INTRA:          -5.908
REMARK INTER:                  -5.119
REMARK INTRA:                  -0.789
REMARK UNBOUND:                -0.255
REMARK SMILES CCCCCCCCC(=O)[O-]
REMARK SMILES IDX 6 1 7 2 8 3 9 4 10 5 11 6 5 7 4 8 3 9 2 10 1 11
REMARK H PARENT
REMARK Flexibility Score: inf
ROOT
ATOM      1  C   UNL     1      41.517 126.251  -2.088  1.00  0.00     0.000 C 
ENDROOT
BRANCH   1   2
ATOM      2  C   UNL     1      41.389 124.830  -1.508  1.00  0.00     0.006 C 
BRANCH   2   3
ATOM      3  C   UNL     1      41.986 124.661  -0.102  1.00  0.00     0.053 C 
BRANCH   3   4
ATOM      4  C   UNL     1      42.932 123.502  -0.030  1.00  0.00     0.041 C 
ATOM      5  O   UNL     1      43.043 122.839   1.035  1.00  0.00    -0.550 OA
ATOM      6  O   UNL     1      43.716 123.175  -1.129  1.00  0.00    -0.550 OA
ENDBRANCH   3   4
ENDBRANCH   2   3
ENDBRANCH   1   2
BRANCH   1   7
ATOM      7  C   UNL     1      42.913 126.533  -2.667  1.00  0.00     0.000 C 
BRANCH   7   8
ATOM      8  C   UNL     1      43.432 127.934  -2.304  1.00  0.00    -0.000 C 
BRANCH   8   9
ATOM      9  C   UNL     1      44.565 127.897  -1.268  1.00  0.00    -0.000 C 
BRANCH   9  10
ATOM     10  C   UNL     1      45.124 126.478  -1.119  1.00  0.00    -0.003 C 
ATOM     11  C   UNL     1      45.503 126.183   0.330  1.00  0.00     0.004 C 
ENDBRANCH   9  10
ENDBRANCH   8   9
ENDBRANCH   7   8
ENDBRANCH   1   7
TORSDOF 7
ENDMDL
