MODEL 1
REMARK VINA RESULT:    -4.245      0.000      0.000
REMARK INTER + INTRA:          -9.345
REMARK INTER:                  -7.967
REMARK INTRA:                  -1.378
REMARK UNBOUND:                -1.378
REMARK SMILES CCCCCCCCC=CCCCCCCCC(=O)[O-]
REMARK SMILES IDX 10 1 9 2 11 3 12 4 13 5 14 6 15 7 16 8 17 9 18 10 19 11
REMARK SMILES IDX 20 12 8 13 7 14 6 15 5 16 4 17 3 18 2 19 1 20
REMARK H PARENT
REMARK Flexibility Score: inf
ROOT
ATOM      1  C   UNL     1      17.444  -2.695  -3.457  1.00  0.00    -0.031 C 
ATOM      2  C   UNL     1      17.622  -3.887  -2.855  1.00  0.00    -0.031 C 
ENDROOT
BRANCH   1   3
ATOM      3  C   UNL     1      16.512  -2.430  -4.618  1.00  0.00     0.027 C 
BRANCH   3   4
ATOM      4  C   UNL     1      17.055  -1.344  -5.561  1.00  0.00     0.004 C 
BRANCH   4   5
ATOM      5  C   UNL     1      18.368  -0.678  -5.103  1.00  0.00     0.000 C 
BRANCH   5   6
ATOM      6  C   UNL     1      19.555  -0.996  -6.027  1.00  0.00     0.000 C 
BRANCH   6   7
ATOM      7  C   UNL     1      20.775  -0.093  -5.767  1.00  0.00     0.000 C 
BRANCH   7   8
ATOM      8  C   UNL     1      21.006   0.295  -4.292  1.00  0.00     0.006 C 
BRANCH   8   9
ATOM      9  C   UNL     1      20.955   1.806  -4.012  1.00  0.00     0.053 C 
BRANCH   9  10
ATOM     10  C   UNL     1      21.505   2.145  -2.661  1.00  0.00     0.041 C 
ATOM     11  O   UNL     1      21.907   3.312  -2.416  1.00  0.00    -0.550 OA
ATOM     12  O   UNL     1      21.607   1.163  -1.684  1.00  0.00    -0.550 OA
ENDBRANCH   9  10
ENDBRANCH   8   9
ENDBRANCH   7   8
ENDBRANCH   6   7
ENDBRANCH   5   6
ENDBRANCH   4   5
ENDBRANCH   3   4
ENDBRANCH   1   3
BRANCH   2  13
ATOM     13  C   UNL     1      16.904  -5.164  -3.216  1.00  0.00     0.027 C 
BRANCH  13  14
ATOM     14  C   UNL     1      15.482  -5.192  -2.640  1.00  0.00     0.004 C 
BRANCH  14  15
ATOM     15  C   UNL     1      15.484  -5.715  -1.198  1.00  0.00     0.000 C 
BRANCH  15  16
ATOM     16  C   UNL     1      14.871  -4.684  -0.240  1.00  0.00     0.000 C 
BRANCH  16  17
ATOM     17  C   UNL     1      14.496  -3.369  -0.942  1.00  0.00    -0.000 C 
BRANCH  17  18
ATOM     18  C   UNL     1      14.992  -2.128  -0.180  1.00  0.00    -0.000 C 
BRANCH  18  19
ATOM     19  C   UNL     1      14.186  -1.863   1.101  1.00  0.00    -0.003 C 
ATOM     20  C   UNL     1      14.978  -2.161   2.374  1.00  0.00     0.004 C 
ENDBRANCH  18  19
ENDBRANCH  17  18
ENDBRANCH  16  17
ENDBRANCH  15  16
ENDBRANCH  14  15
ENDBRANCH  13  14
ENDBRANCH   2  13
TORSDOF 15
ENDMDL
MODEL 2
REMARK VINA RESULT:    -4.125      1.746      3.040
REMARK INTER + INTRA:          -9.120
REMARK INTER:                  -8.289
REMARK INTRA:                  -0.831
REMARK UNBOUND:                -1.378
REMARK SMILES CCCCCCCCC=CCCCCCCCC(=O)[O-]
REMARK SMILES IDX 10 1 9 2 11 3 12 4 13 5 14 6 15 7 16 8 17 9 18 10 19 11
REMARK SMILES IDX 20 12 8 13 7 14 6 15 5 16 4 17 3 18 2 19 1 20
REMARK H PARENT
REMARK Flexibility Score: inf
ROOT
ATOM      1  C   UNL     1      18.015  -1.173  -5.149  1.00  0.00    -0.031 C 
ATOM      2  C   UNL     1      17.296  -2.091  -4.474  1.00  0.00    -0.031 C 
ENDROOT
BRANCH   1   3
ATOM      3  C   UNL     1      19.463  -0.829  -4.887  1.00  0.00     0.027 C 
BRANCH   3   4
ATOM      4  C   UNL     1      19.867   0.508  -5.532  1.00  0.00     0.004 C 
BRANCH   4   5
ATOM      5  C   UNL     1      20.477   1.541  -4.565  1.00  0.00     0.000 C 
BRANCH   5   6
ATOM      6  C   UNL     1      21.444   0.912  -3.548  1.00  0.00     0.000 C 
BRANCH   6   7
ATOM      7  C   UNL     1      21.713   1.822  -2.335  1.00  0.00     0.000 C 
BRANCH   7   8
ATOM      8  C   UNL     1      21.122   3.243  -2.432  1.00  0.00     0.006 C 
BRANCH   8   9
ATOM      9  C   UNL     1      22.165   4.371  -2.458  1.00  0.00     0.053 C 
BRANCH   9  10
ATOM     10  C   UNL     1      21.604   5.667  -1.958  1.00  0.00     0.041 C 
ATOM     11  O   UNL     1      20.946   6.412  -2.732  1.00  0.00    -0.550 OA
ATOM     12  O   UNL     1      21.836   6.069  -0.649  1.00  0.00    -0.550 OA
ENDBRANCH   9  10
ENDBRANCH   8   9
ENDBRANCH   7   8
ENDBRANCH   6   7
ENDBRANCH   5   6
ENDBRANCH   4   5
ENDBRANCH   3   4
ENDBRANCH   1   3
BRANCH   2  13
ATOM     13  C   UNL     1      17.816  -2.956  -3.353  1.00  0.00     0.027 C 
BRANCH  13  14
ATOM     14  C   UNL     1      16.783  -3.103  -2.228  1.00  0.00     0.004 C 
BRANCH  14  15
ATOM     15  C   UNL     1      17.092  -4.326  -1.355  1.00  0.00     0.000 C 
BRANCH  15  16
ATOM     16  C   UNL     1      15.884  -5.272  -1.290  1.00  0.00     0.000 C 
BRANCH  16  17
ATOM     17  C   UNL     1      14.771  -4.754  -0.365  1.00  0.00    -0.000 C 
BRANCH  17  18
ATOM     18  C   UNL     1      14.923  -5.256   1.081  1.00  0.00    -0.000 C 
BRANCH  18  19
ATOM     19  C   UNL     1      14.437  -4.228   2.115  1.00  0.00    -0.003 C 
ATOM     20  C   UNL     1      15.065  -2.848   1.920  1.00  0.00     0.004 C 
ENDBRANCH  18  19
ENDBRANCH  17  18
ENDBRANCH  16  17
ENDBRANCH  15  16
ENDBRANCH  14  15
ENDBRANCH  13  14
ENDBRANCH   2  13
TORSDOF 15
ENDMDL
MODEL 3
REMARK VINA RESULT:    -4.055      3.563      8.227
REMARK INTER + INTRA:          -8.990
REMARK INTER:                  -7.832
REMARK INTRA:                  -1.158
REMARK UNBOUND:                -1.378
REMARK SMILES CCCCCCCCC=CCCCCCCCC(=O)[O-]
REMARK SMILES IDX 10 1 9 2 11 3 12 4 13 5 14 6 15 7 16 8 17 9 18 10 19 11
REMARK SMILES IDX 20 12 8 13 7 14 6 15 5 16 4 17 3 18 2 19 1 20
REMARK H PARENT
REMARK Flexibility Score: inf
ROOT
ATOM      1  C   UNL     1      17.298  -3.540  -2.632  1.00  0.00    -0.031 C 
ATOM      2  C   UNL     1      17.557  -3.158  -3.898  1.00  0.00    -0.031 C 
ENDROOT
BRANCH   1   3
ATOM      3  C   UNL     1      16.340  -2.851  -1.687  1.00  0.00     0.027 C 
BRANCH   3   4
ATOM      4  C   UNL     1      14.896  -3.352  -1.859  1.00  0.00     0.004 C 
BRANCH   4   5
ATOM      5  C   UNL     1      13.875  -2.751  -0.873  1.00  0.00     0.000 C 
BRANCH   5   6
ATOM      6  C   UNL     1      14.531  -1.879   0.211  1.00  0.00     0.000 C 
BRANCH   6   7
ATOM      7  C   UNL     1      14.258  -2.390   1.638  1.00  0.00     0.000 C 
BRANCH   7   8
ATOM      8  C   UNL     1      14.934  -3.729   1.999  1.00  0.00     0.006 C 
BRANCH   8   9
ATOM      9  C   UNL     1      14.026  -4.962   1.867  1.00  0.00     0.053 C 
BRANCH   9  10
ATOM     10  C   UNL     1      14.758  -6.140   1.301  1.00  0.00     0.041 C 
ATOM     11  O   UNL     1      14.756  -7.240   1.912  1.00  0.00    -0.550 OA
ATOM     12  O   UNL     1      15.471  -6.012   0.115  1.00  0.00    -0.550 OA
ENDBRANCH   9  10
ENDBRANCH   8   9
ENDBRANCH   7   8
ENDBRANCH   6   7
ENDBRANCH   5   6
ENDBRANCH   4   5
ENDBRANCH   3   4
ENDBRANCH   1   3
BRANCH   2  13
ATOM     13  C   UNL     1      16.917  -1.989  -4.605  1.00  0.00     0.027 C 
BRANCH  13  14
ATOM     14  C   UNL     1      17.967  -1.085  -5.263  1.00  0.00     0.004 C 
BRANCH  14  15
ATOM     15  C   UNL     1      19.384  -1.616  -5.014  1.00  0.00     0.000 C 
BRANCH  15  16
ATOM     16  C   UNL     1      20.411  -0.864  -5.872  1.00  0.00     0.000 C 
BRANCH  16  17
ATOM     17  C   UNL     1      20.633   0.583  -5.402  1.00  0.00    -0.000 C 
BRANCH  17  18
ATOM     18  C   UNL     1      21.148   0.663  -3.955  1.00  0.00    -0.000 C 
BRANCH  18  19
ATOM     19  C   UNL     1      21.925   1.959  -3.677  1.00  0.00    -0.003 C 
ATOM     20  C   UNL     1      21.295   2.804  -2.570  1.00  0.00     0.004 C 
ENDBRANCH  18  19
ENDBRANCH  17  18
ENDBRANCH  16  17
ENDBRANCH  15  16
ENDBRANCH  14  15
ENDBRANCH  13  14
ENDBRANCH   2  13
TORSDOF 15
ENDMDL
MODEL 4
REMARK VINA RESULT:    -4.038      9.190     13.088
REMARK INTER + INTRA:          -8.958
REMARK INTER:                  -6.773
REMARK INTRA:                  -2.185
REMARK UNBOUND:                -1.378
REMARK SMILES CCCCCCCCC=CCCCCCCCC(=O)[O-]
REMARK SMILES IDX 10 1 9 2 11 3 12 4 13 5 14 6 15 7 16 8 17 9 18 10 19 11
REMARK SMILES IDX 20 12 8 13 7 14 6 15 5 16 4 17 3 18 2 19 1 20
REMARK H PARENT
REMARK Flexibility Score: inf
ROOT
ATOM      1  C   UNL     1      31.708   0.499  -2.165  1.00  0.00    -0.031 C 
ATOM      2  C   UNL     1      31.767  -0.172  -0.998  1.00  0.00    -0.031 C 
ENDROOT
BRANCH   1   3
ATOM      3  C   UNL     1      30.929   1.772  -2.406  1.00  0.00     0.027 C 
BRANCH   3   4
ATOM      4  C   UNL     1      30.186   1.751  -3.752  1.00  0.00     0.004 C 
BRANCH   4   5
ATOM      5  C   UNL     1      28.655   1.603  -3.650  1.00  0.00     0.000 C 
BRANCH   5   6
ATOM      6  C   UNL     1      28.223   0.265  -3.027  1.00  0.00     0.000 C 
BRANCH   6   7
ATOM      7  C   UNL     1      26.715   0.206  -2.720  1.00  0.00     0.000 C 
BRANCH   7   8
ATOM      8  C   UNL     1      26.302  -0.814  -1.640  1.00  0.00     0.006 C 
BRANCH   8   9
ATOM      9  C   UNL     1      25.499  -0.221  -0.471  1.00  0.00     0.053 C 
BRANCH   9  10
ATOM     10  C   UNL     1      25.221  -1.238   0.593  1.00  0.00     0.041 C 
ATOM     11  O   UNL     1      25.752  -2.378   0.533  1.00  0.00    -0.550 OA
ATOM     12  O   UNL     1      24.348  -0.939   1.632  1.00  0.00    -0.550 OA
ENDBRANCH   9  10
ENDBRANCH   8   9
ENDBRANCH   7   8
ENDBRANCH   6   7
ENDBRANCH   5   6
ENDBRANCH   4   5
ENDBRANCH   3   4
ENDBRANCH   1   3
BRANCH   2  13
ATOM     13  C   UNL     1      31.085   0.242   0.282  1.00  0.00     0.027 C 
BRANCH  13  14
ATOM     14  C   UNL     1      29.629  -0.241   0.326  1.00  0.00     0.004 C 
BRANCH  14  15
ATOM     15  C   UNL     1      29.524  -1.711  -0.097  1.00  0.00     0.000 C 
BRANCH  15  16
ATOM     16  C   UNL     1      29.202  -2.608   1.108  1.00  0.00     0.000 C 
BRANCH  16  17
ATOM     17  C   UNL     1      30.437  -3.348   1.645  1.00  0.00    -0.000 C 
BRANCH  17  18
ATOM     18  C   UNL     1      31.526  -3.538   0.574  1.00  0.00    -0.000 C 
BRANCH  18  19
ATOM     19  C   UNL     1      32.915  -3.104   1.065  1.00  0.00    -0.003 C 
ATOM     20  C   UNL     1      33.695  -4.243   1.724  1.00  0.00     0.004 C 
ENDBRANCH  18  19
ENDBRANCH  17  18
ENDBRANCH  16  17
ENDBRANCH  15  16
ENDBRANCH  14  15
ENDBRANCH  13  14
ENDBRANCH   2  13
TORSDOF 15
ENDMDL
MODEL 5
REMARK VINA RESULT:    -4.008      9.527     13.179
REMARK INTER + INTRA:          -8.902
REMARK INTER:                  -5.885
REMARK INTRA:                  -3.016
REMARK UNBOUND:                -1.378
REMARK SMILES CCCCCCCCC=CCCCCCCCC(=O)[O-]
REMARK SMILES IDX 10 1 9 2 11 3 12 4 13 5 14 6 15 7 16 8 17 9 18 10 19 11
REMARK SMILES IDX 20 12 8 13 7 14 6 15 5 16 4 17 3 18 2 19 1 20
REMARK H PARENT
REMARK Flexibility Score: inf
ROOT
ATOM      1  C   UNL     1      30.522   0.248  -0.043  1.00  0.00    -0.031 C 
ATOM      2  C   UNL     1      29.636  -0.608   0.503  1.00  0.00    -0.031 C 
ENDROOT
BRANCH   1   3
ATOM      3  C   UNL     1      31.626  -0.128  -1.005  1.00  0.00     0.027 C 
BRANCH   3   4
ATOM      4  C   UNL     1      31.221   0.104  -2.471  1.00  0.00     0.004 C 
BRANCH   4   5
ATOM      5  C   UNL     1      30.188   1.225  -2.693  1.00  0.00     0.000 C 
BRANCH   5   6
ATOM      6  C   UNL     1      29.084   0.833  -3.689  1.00  0.00     0.000 C 
BRANCH   6   7
ATOM      7  C   UNL     1      28.283  -0.404  -3.241  1.00  0.00     0.000 C 
BRANCH   7   8
ATOM      8  C   UNL     1      27.109  -0.117  -2.282  1.00  0.00     0.006 C 
BRANCH   8   9
ATOM      9  C   UNL     1      26.511  -1.364  -1.611  1.00  0.00     0.053 C 
BRANCH   9  10
ATOM     10  C   UNL     1      26.043  -1.080  -0.217  1.00  0.00     0.041 C 
ATOM     11  O   UNL     1      25.919   0.108   0.180  1.00  0.00    -0.550 OA
ATOM     12  O   UNL     1      25.777  -2.128   0.656  1.00  0.00    -0.550 OA
ENDBRANCH   9  10
ENDBRANCH   8   9
ENDBRANCH   7   8
ENDBRANCH   6   7
ENDBRANCH   5   6
ENDBRANCH   4   5
ENDBRANCH   3   4
ENDBRANCH   1   3
BRANCH   2  13
ATOM     13  C   UNL     1      29.573  -2.090   0.230  1.00  0.00     0.027 C 
BRANCH  13  14
ATOM     14  C   UNL     1      29.592  -2.904   1.531  1.00  0.00     0.004 C 
BRANCH  14  15
ATOM     15  C   UNL     1      30.769  -3.887   1.547  1.00  0.00     0.000 C 
BRANCH  15  16
ATOM     16  C   UNL     1      32.019  -3.256   0.918  1.00  0.00     0.000 C 
BRANCH  16  17
ATOM     17  C   UNL     1      32.668  -4.155  -0.146  1.00  0.00    -0.000 C 
BRANCH  17  18
ATOM     18  C   UNL     1      32.364  -3.689  -1.580  1.00  0.00    -0.000 C 
BRANCH  18  19
ATOM     19  C   UNL     1      31.192  -4.455  -2.212  1.00  0.00    -0.003 C 
ATOM     20  C   UNL     1      30.233  -3.545  -2.981  1.00  0.00     0.004 C 
ENDBRANCH  18  19
ENDBRANCH  17  18
ENDBRANCH  16  17
ENDBRANCH  15  16
ENDBRANCH  14  15
ENDBRANCH  13  14
ENDBRANCH   2  13
TORSDOF 15
ENDMDL
MODEL 6
REMARK VINA RESULT:    -4.008      9.764     13.301
REMARK INTER + INTRA:          -8.901
REMARK INTER:                  -6.218
REMARK INTRA:                  -2.683
REMARK UNBOUND:                -1.378
REMARK SMILES CCCCCCCCC=CCCCCCCCC(=O)[O-]
REMARK SMILES IDX 10 1 9 2 11 3 12 4 13 5 14 6 15 7 16 8 17 9 18 10 19 11
REMARK SMILES IDX 20 12 8 13 7 14 6 15 5 16 4 17 3 18 2 19 1 20
REMARK H PARENT
REMARK Flexibility Score: inf
ROOT
ATOM      1  C   UNL     1      31.699  -1.313  -2.638  1.00  0.00    -0.031 C 
ATOM      2  C   UNL     1      32.621  -0.755  -1.829  1.00  0.00    -0.031 C 
ENDROOT
BRANCH   1   3
ATOM      3  C   UNL     1      31.567  -2.790  -2.929  1.00  0.00     0.027 C 
BRANCH   3   4
ATOM      4  C   UNL     1      30.370  -3.096  -3.846  1.00  0.00     0.004 C 
BRANCH   4   5
ATOM      5  C   UNL     1      29.418  -1.910  -4.093  1.00  0.00     0.000 C 
BRANCH   5   6
ATOM      6  C   UNL     1      28.048  -2.091  -3.418  1.00  0.00     0.000 C 
BRANCH   6   7
ATOM      7  C   UNL     1      27.663  -0.904  -2.516  1.00  0.00     0.000 C 
BRANCH   7   8
ATOM      8  C   UNL     1      26.253  -0.978  -1.895  1.00  0.00     0.006 C 
BRANCH   8   9
ATOM      9  C   UNL     1      26.124  -0.312  -0.515  1.00  0.00     0.053 C 
BRANCH   9  10
ATOM     10  C   UNL     1      25.559  -1.247   0.509  1.00  0.00     0.041 C 
ATOM     11  O   UNL     1      24.458  -0.989   1.063  1.00  0.00    -0.550 OA
ATOM     12  O   UNL     1      26.264  -2.386   0.878  1.00  0.00    -0.550 OA
ENDBRANCH   9  10
ENDBRANCH   8   9
ENDBRANCH   7   8
ENDBRANCH   6   7
ENDBRANCH   5   6
ENDBRANCH   4   5
ENDBRANCH   3   4
ENDBRANCH   1   3
BRANCH   2  13
ATOM     13  C   UNL     1      33.670  -1.510  -1.051  1.00  0.00     0.027 C 
BRANCH  13  14
ATOM     14  C   UNL     1      33.365  -1.510   0.453  1.00  0.00     0.004 C 
BRANCH  14  15
ATOM     15  C   UNL     1      33.278  -2.941   0.996  1.00  0.00     0.000 C 
BRANCH  15  16
ATOM     16  C   UNL     1      31.962  -3.609   0.573  1.00  0.00     0.000 C 
BRANCH  16  17
ATOM     17  C   UNL     1      30.978  -3.778   1.742  1.00  0.00    -0.000 C 
BRANCH  17  18
ATOM     18  C   UNL     1      29.647  -3.043   1.507  1.00  0.00    -0.000 C 
BRANCH  18  19
ATOM     19  C   UNL     1      29.664  -2.189   0.230  1.00  0.00    -0.003 C 
ATOM     20  C   UNL     1      29.729  -0.689   0.519  1.00  0.00     0.004 C 
ENDBRANCH  18  19
ENDBRANCH  17  18
ENDBRANCH  16  17
ENDBRANCH  15  16
ENDBRANCH  14  15
ENDBRANCH  13  14
ENDBRANCH   2  13
TORSDOF 15
ENDMDL
MODEL 7
REMARK VINA RESULT:    -3.980     11.166     14.293
REMARK INTER + INTRA:          -8.848
REMARK INTER:                  -5.600
REMARK INTRA:                  -3.248
REMARK UNBOUND:                -1.378
REMARK SMILES CCCCCCCCC=CCCCCCCCC(=O)[O-]
REMARK SMILES IDX 10 1 9 2 11 3 12 4 13 5 14 6 15 7 16 8 17 9 18 10 19 11
REMARK SMILES IDX 20 12 8 13 7 14 6 15 5 16 4 17 3 18 2 19 1 20
REMARK H PARENT
REMARK Flexibility Score: inf
ROOT
ATOM      1  C   UNL     1      30.679  -2.193  -3.166  1.00  0.00    -0.031 C 
ATOM      2  C   UNL     1      31.549  -3.040  -2.581  1.00  0.00    -0.031 C 
ENDROOT
BRANCH   1   3
ATOM      3  C   UNL     1      31.051  -1.049  -4.081  1.00  0.00     0.027 C 
BRANCH   3   4
ATOM      4  C   UNL     1      30.656   0.316  -3.492  1.00  0.00     0.004 C 
BRANCH   4   5
ATOM      5  C   UNL     1      31.693   0.940  -2.539  1.00  0.00     0.000 C 
BRANCH   5   6
ATOM      6  C   UNL     1      31.098   1.320  -1.172  1.00  0.00     0.000 C 
BRANCH   6   7
ATOM      7  C   UNL     1      29.733   0.658  -0.907  1.00  0.00     0.000 C 
BRANCH   7   8
ATOM      8  C   UNL     1      29.737  -0.458   0.158  1.00  0.00     0.006 C 
BRANCH   8   9
ATOM      9  C   UNL     1      28.876  -1.682  -0.194  1.00  0.00     0.053 C 
BRANCH   9  10
ATOM     10  C   UNL     1      27.639  -1.758   0.647  1.00  0.00     0.041 C 
ATOM     11  O   UNL     1      27.593  -2.535   1.636  1.00  0.00    -0.550 OA
ATOM     12  O   UNL     1      26.524  -0.998   0.317  1.00  0.00    -0.550 OA
ENDBRANCH   9  10
ENDBRANCH   8   9
ENDBRANCH   7   8
ENDBRANCH   6   7
ENDBRANCH   5   6
ENDBRANCH   4   5
ENDBRANCH   3   4
ENDBRANCH   1   3
BRANCH   2  13
ATOM     13  C   UNL     1      33.047  -3.011  -2.756  1.00  0.00     0.027 C 
BRANCH  13  14
ATOM     14  C   UNL     1      33.770  -2.918  -1.406  1.00  0.00     0.004 C 
BRANCH  14  15
ATOM     15  C   UNL     1      33.494  -1.570  -0.726  1.00  0.00     0.000 C 
BRANCH  15  16
ATOM     16  C   UNL     1      32.956  -1.774   0.697  1.00  0.00     0.000 C 
BRANCH  16  17
ATOM     17  C   UNL     1      32.921  -3.253   1.114  1.00  0.00    -0.000 C 
BRANCH  17  18
ATOM     18  C   UNL     1      31.529  -3.702   1.589  1.00  0.00    -0.000 C 
BRANCH  18  19
ATOM     19  C   UNL     1      30.834  -4.631   0.582  1.00  0.00    -0.003 C 
ATOM     20  C   UNL     1      31.703  -5.821   0.174  1.00  0.00     0.004 C 
ENDBRANCH  18  19
ENDBRANCH  17  18
ENDBRANCH  16  17
ENDBRANCH  15  16
ENDBRANCH  14  15
ENDBRANCH  13  14
ENDBRANCH   2  13
TORSDOF 15
ENDMDL
MODEL 8
REMARK VINA RESULT:    -3.962      1.440      2.493
REMARK INTER + INTRA:          -8.814
REMARK INTER:                  -7.446
REMARK INTRA:                  -1.369
REMARK UNBOUND:                -1.378
REMARK SMILES CCCCCCCCC=CCCCCCCCC(=O)[O-]
REMARK SMILES IDX 10 1 9 2 11 3 12 4 13 5 14 6 15 7 16 8 17 9 18 10 19 11
REMARK SMILES IDX 20 12 8 13 7 14 6 15 5 16 4 17 3 18 2 19 1 20
REMARK H PARENT
REMARK Flexibility Score: inf
ROOT
ATOM      1  C   UNL     1      18.010  -2.076  -3.819  1.00  0.00    -0.031 C 
ATOM      2  C   UNL     1      16.880  -2.771  -3.583  1.00  0.00    -0.031 C 
ENDROOT
BRANCH   1   3
ATOM      3  C   UNL     1      18.333  -1.336  -5.097  1.00  0.00     0.027 C 
BRANCH   3   4
ATOM      4  C   UNL     1      19.797  -1.531  -5.526  1.00  0.00     0.004 C 
BRANCH   4   5
ATOM      5  C   UNL     1      20.575  -0.231  -5.802  1.00  0.00     0.000 C 
BRANCH   5   6
ATOM      6  C   UNL     1      20.450   0.796  -4.665  1.00  0.00     0.000 C 
BRANCH   6   7
ATOM      7  C   UNL     1      21.776   1.026  -3.916  1.00  0.00     0.000 C 
BRANCH   7   8
ATOM      8  C   UNL     1      21.678   1.914  -2.658  1.00  0.00     0.006 C 
BRANCH   8   9
ATOM      9  C   UNL     1      22.309   3.307  -2.807  1.00  0.00     0.053 C 
BRANCH   9  10
ATOM     10  C   UNL     1      21.280   4.366  -3.060  1.00  0.00     0.041 C 
ATOM     11  O   UNL     1      20.708   4.937  -2.095  1.00  0.00    -0.550 OA
ATOM     12  O   UNL     1      20.926   4.696  -4.362  1.00  0.00    -0.550 OA
ENDBRANCH   9  10
ENDBRANCH   8   9
ENDBRANCH   7   8
ENDBRANCH   6   7
ENDBRANCH   5   6
ENDBRANCH   4   5
ENDBRANCH   3   4
ENDBRANCH   1   3
BRANCH   2  13
ATOM     13  C   UNL     1      15.726  -2.913  -4.543  1.00  0.00     0.027 C 
BRANCH  13  14
ATOM     14  C   UNL     1      14.878  -4.152  -4.226  1.00  0.00     0.004 C 
BRANCH  14  15
ATOM     15  C   UNL     1      15.765  -5.332  -3.810  1.00  0.00     0.000 C 
BRANCH  15  16
ATOM     16  C   UNL     1      15.158  -6.079  -2.613  1.00  0.00     0.000 C 
BRANCH  16  17
ATOM     17  C   UNL     1      15.632  -5.521  -1.262  1.00  0.00    -0.000 C 
BRANCH  17  18
ATOM     18  C   UNL     1      14.604  -4.575  -0.618  1.00  0.00    -0.000 C 
BRANCH  18  19
ATOM     19  C   UNL     1      15.266  -3.459   0.204  1.00  0.00    -0.003 C 
ATOM     20  C   UNL     1      14.927  -2.060  -0.313  1.00  0.00     0.004 C 
ENDBRANCH  18  19
ENDBRANCH  17  18
ENDBRANCH  16  17
ENDBRANCH  15  16
ENDBRANCH  14  15
ENDBRANCH  13  14
ENDBRANCH   2  13
TORSDOF 15
ENDMDL
MODEL 9
REMARK VINA RESULT:    -3.946      8.779     12.180
REMARK INTER + INTRA:          -8.785
REMARK INTER:                  -6.200
REMARK INTRA:                  -2.585
REMARK UNBOUND:                -1.378
REMARK SMILES CCCCCCCCC=CCCCCCCCC(=O)[O-]
REMARK SMILES IDX 10 1 9 2 11 3 12 4 13 5 14 6 15 7 16 8 17 9 18 10 19 11
REMARK SMILES IDX 20 12 8 13 7 14 6 15 5 16 4 17 3 18 2 19 1 20
REMARK H PARENT
REMARK Flexibility Score: inf
ROOT
ATOM      1  C   UNL     1      27.323   3.059  -1.258  1.00  0.00    -0.031 C 
ATOM      2  C   UNL     1      28.657   2.869  -1.212  1.00  0.00    -0.031 C 
ENDROOT
BRANCH   1   3
ATOM      3  C   UNL     1      26.578   3.778  -2.359  1.00  0.00     0.027 C 
BRANCH   3   4
ATOM      4  C   UNL     1      25.654   2.834  -3.146  1.00  0.00     0.004 C 
BRANCH   4   5
ATOM      5  C   UNL     1      26.364   1.657  -3.842  1.00  0.00     0.000 C 
BRANCH   5   6
ATOM      6  C   UNL     1      25.664   0.308  -3.602  1.00  0.00     0.000 C 
BRANCH   6   7
ATOM      7  C   UNL     1      26.571  -0.722  -2.904  1.00  0.00     0.000 C 
BRANCH   7   8
ATOM      8  C   UNL     1      26.821  -0.471  -1.403  1.00  0.00     0.006 C 
BRANCH   8   9
ATOM      9  C   UNL     1      25.555  -0.173  -0.584  1.00  0.00     0.053 C 
BRANCH   9  10
ATOM     10  C   UNL     1      25.423  -1.084   0.598  1.00  0.00     0.041 C 
ATOM     11  O   UNL     1      26.319  -1.934   0.844  1.00  0.00    -0.550 OA
ATOM     12  O   UNL     1      24.295  -1.020   1.405  1.00  0.00    -0.550 OA
ENDBRANCH   9  10
ENDBRANCH   8   9
ENDBRANCH   7   8
ENDBRANCH   6   7
ENDBRANCH   5   6
ENDBRANCH   4   5
ENDBRANCH   3   4
ENDBRANCH   1   3
BRANCH   2  13
ATOM     13  C   UNL     1      29.639   3.318  -2.265  1.00  0.00     0.027 C 
BRANCH  13  14
ATOM     14  C   UNL     1      30.638   2.207  -2.614  1.00  0.00     0.004 C 
BRANCH  14  15
ATOM     15  C   UNL     1      30.097   0.832  -2.202  1.00  0.00     0.000 C 
BRANCH  15  16
ATOM     16  C   UNL     1      31.193  -0.009  -1.531  1.00  0.00     0.000 C 
BRANCH  16  17
ATOM     17  C   UNL     1      31.118   0.031   0.004  1.00  0.00    -0.000 C 
BRANCH  17  18
ATOM     18  C   UNL     1      29.859  -0.660   0.554  1.00  0.00    -0.000 C 
BRANCH  18  19
ATOM     19  C   UNL     1      29.752  -2.127   0.110  1.00  0.00    -0.003 C 
ATOM     20  C   UNL     1      30.499  -3.085   1.039  1.00  0.00     0.004 C 
ENDBRANCH  18  19
ENDBRANCH  17  18
ENDBRANCH  16  17
ENDBRANCH  15  16
ENDBRANCH  14  15
ENDBRANCH  13  14
ENDBRANCH   2  13
TORSDOF 15
ENDMDL
