MODEL 1
REMARK VINA RESULT:    -5.466      0.000      0.000
REMARK INTER + INTRA:         -15.364
REMARK INTER:                 -11.856
REMARK INTRA:                  -3.508
REMARK UNBOUND:                -3.508
REMARK SMILES CCCCCCCCCCCCCCCCCCCCCC(=O)[O-]
REMARK SMILES IDX 12 1 11 2 10 3 9 4 8 5 7 6 6 7 5 8 4 9 3 10 2 11 1 12 13 13
REMARK SMILES IDX 14 14 15 15 16 16 17 17 18 18 19 19 20 20 21 21 22 22 23 23
REMARK SMILES IDX 24 24
REMARK H PARENT
REMARK Flexibility Score: inf
ROOT
ATOM      1  C   UNL     1     133.001 133.754 130.375  1.00  0.00     0.000 C 
ENDROOT
BRANCH   1   2
ATOM      2  C   UNL     1     133.535 134.736 129.319  1.00  0.00     0.000 C 
BRANCH   2   3
ATOM      3  C   UNL     1     133.235 136.204 129.668  1.00  0.00     0.000 C 
BRANCH   3   4
ATOM      4  C   UNL     1     131.780 136.405 130.147  1.00  0.00    -0.000 C 
BRANCH   4   5
ATOM      5  C   UNL     1     131.662 137.204 131.460  1.00  0.00    -0.000 C 
BRANCH   5   6
ATOM      6  C   UNL     1     131.689 136.352 132.741  1.00  0.00    -0.000 C 
BRANCH   6   7
ATOM      7  C   UNL     1     132.926 136.563 133.636  1.00  0.00    -0.000 C 
BRANCH   7   8
ATOM      8  C   UNL     1     133.955 135.414 133.557  1.00  0.00    -0.000 C 
BRANCH   8   9
ATOM      9  C   UNL     1     135.156 135.766 132.664  1.00  0.00    -0.000 C 
BRANCH   9  10
ATOM     10  C   UNL     1     136.508 135.548 133.368  1.00  0.00    -0.000 C 
BRANCH  10  11
ATOM     11  C   UNL     1     137.741 135.881 132.508  1.00  0.00    -0.003 C 
ATOM     12  C   UNL     1     137.467 135.788 131.007  1.00  0.00     0.004 C 
ENDBRANCH  10  11
ENDBRANCH   9  10
ENDBRANCH   8   9
ENDBRANCH   7   8
ENDBRANCH   6   7
ENDBRANCH   5   6
ENDBRANCH   4   5
ENDBRANCH   3   4
ENDBRANCH   2   3
ENDBRANCH   1   2
BRANCH   1  13
ATOM     13  C   UNL     1     131.931 132.805 129.808  1.00  0.00     0.000 C 
BRANCH  13  14
ATOM     14  C   UNL     1     130.575 132.944 130.519  1.00  0.00     0.000 C 
BRANCH  14  15
ATOM     15  C   UNL     1     130.036 131.604 131.041  1.00  0.00     0.000 C 
BRANCH  15  16
ATOM     16  C   UNL     1     130.369 131.418 132.529  1.00  0.00     0.000 C 
BRANCH  16  17
ATOM     17  C   UNL     1     130.682 132.748 133.233  1.00  0.00     0.000 C 
BRANCH  17  18
ATOM     18  C   UNL     1     132.101 132.784 133.827  1.00  0.00     0.000 C 
BRANCH  18  19
ATOM     19  C   UNL     1     132.945 131.565 133.397  1.00  0.00     0.000 C 
BRANCH  19  20
ATOM     20  C   UNL     1     134.462 131.765 133.579  1.00  0.00     0.006 C 
BRANCH  20  21
ATOM     21  C   UNL     1     135.285 131.552 132.299  1.00  0.00     0.053 C 
BRANCH  21  22
ATOM     22  C   UNL     1     135.726 130.126 132.140  1.00  0.00     0.041 C 
ATOM     23  O   UNL     1     136.043 129.442 133.150  1.00  0.00    -0.550 OA
ATOM     24  O   UNL     1     135.809 129.560 130.876  1.00  0.00    -0.550 OA
ENDBRANCH  21  22
ENDBRANCH  20  21
ENDBRANCH  19  20
ENDBRANCH  18  19
ENDBRANCH  17  18
ENDBRANCH  16  17
ENDBRANCH  15  16
ENDBRANCH  14  15
ENDBRANCH  13  14
ENDBRANCH   1  13
TORSDOF 20
ENDMDL
MODEL 2
REMARK VINA RESULT:    -5.330      2.871      6.691
REMARK INTER + INTRA:         -15.069
REMARK INTER:                 -12.499
REMARK INTRA:                  -2.570
REMARK UNBOUND:                -3.508
REMARK SMILES CCCCCCCCCCCCCCCCCCCCCC(=O)[O-]
REMARK SMILES IDX 12 1 11 2 10 3 9 4 8 5 7 6 6 7 5 8 4 9 3 10 2 11 1 12 13 13
REMARK SMILES IDX 14 14 15 15 16 16 17 17 18 18 19 19 20 20 21 21 22 22 23 23
REMARK SMILES IDX 24 24
REMARK H PARENT
REMARK Flexibility Score: inf
ROOT
ATOM      1  C   UNL     1     131.808 136.594 133.017  1.00  0.00     0.000 C 
ENDROOT
BRANCH   1   2
ATOM      2  C   UNL     1     133.213 136.291 133.563  1.00  0.00     0.000 C 
BRANCH   2   3
ATOM      3  C   UNL     1     134.203 135.879 132.459  1.00  0.00     0.000 C 
BRANCH   3   4
ATOM      4  C   UNL     1     135.570 135.448 133.032  1.00  0.00    -0.000 C 
BRANCH   4   5
ATOM      5  C   UNL     1     136.060 134.082 132.509  1.00  0.00    -0.000 C 
BRANCH   5   6
ATOM      6  C   UNL     1     135.973 132.931 133.526  1.00  0.00    -0.000 C 
BRANCH   6   7
ATOM      7  C   UNL     1     135.494 131.586 132.946  1.00  0.00    -0.000 C 
BRANCH   7   8
ATOM      8  C   UNL     1     134.116 131.133 133.478  1.00  0.00    -0.000 C 
BRANCH   8   9
ATOM      9  C   UNL     1     132.953 131.850 132.771  1.00  0.00    -0.000 C 
BRANCH   9  10
ATOM     10  C   UNL     1     132.241 132.871 133.678  1.00  0.00    -0.000 C 
BRANCH  10  11
ATOM     11  C   UNL     1     130.709 132.900 133.534  1.00  0.00    -0.003 C 
ATOM     12  C   UNL     1     130.128 131.571 133.049  1.00  0.00     0.004 C 
ENDBRANCH  10  11
ENDBRANCH   9  10
ENDBRANCH   8   9
ENDBRANCH   7   8
ENDBRANCH   6   7
ENDBRANCH   5   6
ENDBRANCH   4   5
ENDBRANCH   3   4
ENDBRANCH   2   3
ENDBRANCH   1   2
BRANCH   1  13
ATOM     13  C   UNL     1     131.713 136.396 131.495  1.00  0.00     0.000 C 
BRANCH  13  14
ATOM     14  C   UNL     1     131.429 137.704 130.740  1.00  0.00     0.000 C 
BRANCH  14  15
ATOM     15  C   UNL     1     131.069 137.475 129.264  1.00  0.00     0.000 C 
BRANCH  15  16
ATOM     16  C   UNL     1     131.007 138.806 128.499  1.00  0.00     0.000 C 
BRANCH  16  17
ATOM     17  C   UNL     1     132.220 139.706 128.784  1.00  0.00     0.000 C 
BRANCH  17  18
ATOM     18  C   UNL     1     133.273 139.653 127.662  1.00  0.00     0.000 C 
BRANCH  18  19
ATOM     19  C   UNL     1     134.708 139.519 128.214  1.00  0.00     0.000 C 
BRANCH  19  20
ATOM     20  C   UNL     1     135.360 138.153 127.922  1.00  0.00     0.006 C 
BRANCH  20  21
ATOM     21  C   UNL     1     134.618 136.955 128.534  1.00  0.00     0.053 C 
BRANCH  21  22
ATOM     22  C   UNL     1     134.137 135.992 127.489  1.00  0.00     0.041 C 
ATOM     23  O   UNL     1     133.423 136.396 126.532  1.00  0.00    -0.550 OA
ATOM     24  O   UNL     1     134.458 134.645 127.584  1.00  0.00    -0.550 OA
ENDBRANCH  21  22
ENDBRANCH  20  21
ENDBRANCH  19  20
ENDBRANCH  18  19
ENDBRANCH  17  18
ENDBRANCH  16  17
ENDBRANCH  15  16
ENDBRANCH  14  15
ENDBRANCH  13  14
ENDBRANCH   1  13
TORSDOF 20
ENDMDL
MODEL 3
REMARK VINA RESULT:    -5.298      2.304      4.299
REMARK INTER + INTRA:         -15.001
REMARK INTER:                 -12.995
REMARK INTRA:                  -2.005
REMARK UNBOUND:                -3.508
REMARK SMILES CCCCCCCCCCCCCCCCCCCCCC(=O)[O-]
REMARK SMILES IDX 12 1 11 2 10 3 9 4 8 5 7 6 6 7 5 8 4 9 3 10 2 11 1 12 13 13
REMARK SMILES IDX 14 14 15 15 16 16 17 17 18 18 19 19 20 20 21 21 22 22 23 23
REMARK SMILES IDX 24 24
REMARK H PARENT
REMARK Flexibility Score: inf
ROOT
ATOM      1  C   UNL     1     131.443 134.100 132.275  1.00  0.00     0.000 C 
ENDROOT
BRANCH   1   2
ATOM      2  C   UNL     1     131.856 135.555 132.554  1.00  0.00     0.000 C 
BRANCH   2   3
ATOM      3  C   UNL     1     132.823 135.679 133.745  1.00  0.00     0.000 C 
BRANCH   3   4
ATOM      4  C   UNL     1     134.301 135.687 133.298  1.00  0.00    -0.000 C 
BRANCH   4   5
ATOM      5  C   UNL     1     135.088 134.435 133.734  1.00  0.00    -0.000 C 
BRANCH   5   6
ATOM      6  C   UNL     1     136.599 134.487 133.445  1.00  0.00    -0.000 C 
BRANCH   6   7
ATOM      7  C   UNL     1     137.188 135.905 133.318  1.00  0.00    -0.000 C 
BRANCH   7   8
ATOM      8  C   UNL     1     137.976 136.137 132.010  1.00  0.00    -0.000 C 
BRANCH   8   9
ATOM      9  C   UNL     1     137.178 135.717 130.765  1.00  0.00    -0.000 C 
BRANCH   9  10
ATOM     10  C   UNL     1     138.080 135.350 129.572  1.00  0.00    -0.000 C 
BRANCH  10  11
ATOM     11  C   UNL     1     137.879 136.224 128.321  1.00  0.00    -0.003 C 
ATOM     12  C   UNL     1     138.058 137.717 128.598  1.00  0.00     0.004 C 
ENDBRANCH  10  11
ENDBRANCH   9  10
ENDBRANCH   8   9
ENDBRANCH   7   8
ENDBRANCH   6   7
ENDBRANCH   5   6
ENDBRANCH   4   5
ENDBRANCH   3   4
ENDBRANCH   2   3
ENDBRANCH   1   2
BRANCH   1  13
ATOM     13  C   UNL     1     131.528 133.214 133.528  1.00  0.00     0.000 C 
BRANCH  13  14
ATOM     14  C   UNL     1     131.915 131.762 133.206  1.00  0.00     0.000 C 
BRANCH  14  15
ATOM     15  C   UNL     1     133.319 131.642 132.593  1.00  0.00     0.000 C 
BRANCH  15  16
ATOM     16  C   UNL     1     134.269 130.887 133.535  1.00  0.00     0.000 C 
BRANCH  16  17
ATOM     17  C   UNL     1     135.701 130.802 132.983  1.00  0.00     0.000 C 
BRANCH  17  18
ATOM     18  C   UNL     1     135.824 129.822 131.803  1.00  0.00     0.000 C 
BRANCH  18  19
ATOM     19  C   UNL     1     135.832 130.547 130.440  1.00  0.00     0.000 C 
BRANCH  19  20
ATOM     20  C   UNL     1     135.198 129.729 129.298  1.00  0.00     0.006 C 
BRANCH  20  21
ATOM     21  C   UNL     1     135.164 128.214 129.550  1.00  0.00     0.053 C 
BRANCH  21  22
ATOM     22  C   UNL     1     134.920 127.435 128.291  1.00  0.00     0.041 C 
ATOM     23  O   UNL     1     135.672 126.471 127.984  1.00  0.00    -0.550 OA
ATOM     24  O   UNL     1     133.879 127.789 127.445  1.00  0.00    -0.550 OA
ENDBRANCH  21  22
ENDBRANCH  20  21
ENDBRANCH  19  20
ENDBRANCH  18  19
ENDBRANCH  17  18
ENDBRANCH  16  17
ENDBRANCH  15  16
ENDBRANCH  14  15
ENDBRANCH  13  14
ENDBRANCH   1  13
TORSDOF 20
ENDMDL
MODEL 4
REMARK VINA RESULT:    -5.298      2.396      5.703
REMARK INTER + INTRA:         -15.000
REMARK INTER:                 -11.743
REMARK INTRA:                  -3.257
REMARK UNBOUND:                -3.508
REMARK SMILES CCCCCCCCCCCCCCCCCCCCCC(=O)[O-]
REMARK SMILES IDX 12 1 11 2 10 3 9 4 8 5 7 6 6 7 5 8 4 9 3 10 2 11 1 12 13 13
REMARK SMILES IDX 14 14 15 15 16 16 17 17 18 18 19 19 20 20 21 21 22 22 23 23
REMARK SMILES IDX 24 24
REMARK H PARENT
REMARK Flexibility Score: inf
ROOT
ATOM      1  C   UNL     1     131.641 133.275 133.508  1.00  0.00     0.000 C 
ENDROOT
BRANCH   1   2
ATOM      2  C   UNL     1     131.328 131.848 133.027  1.00  0.00     0.000 C 
BRANCH   2   3
ATOM      3  C   UNL     1     130.146 131.799 132.043  1.00  0.00     0.000 C 
BRANCH   3   4
ATOM      4  C   UNL     1     130.604 131.925 130.574  1.00  0.00    -0.000 C 
BRANCH   4   5
ATOM      5  C   UNL     1     132.048 131.442 130.329  1.00  0.00    -0.000 C 
BRANCH   5   6
ATOM      6  C   UNL     1     132.914 132.392 129.483  1.00  0.00    -0.000 C 
BRANCH   6   7
ATOM      7  C   UNL     1     133.321 133.700 130.188  1.00  0.00    -0.000 C 
BRANCH   7   8
ATOM      8  C   UNL     1     132.803 134.974 129.484  1.00  0.00    -0.000 C 
BRANCH   8   9
ATOM      9  C   UNL     1     131.579 135.576 130.194  1.00  0.00    -0.000 C 
BRANCH   9  10
ATOM     10  C   UNL     1     131.908 136.875 130.954  1.00  0.00    -0.000 C 
BRANCH  10  11
ATOM     11  C   UNL     1     132.148 136.693 132.464  1.00  0.00    -0.003 C 
ATOM     12  C   UNL     1     131.430 137.741 133.315  1.00  0.00     0.004 C 
ENDBRANCH  10  11
ENDBRANCH   9  10
ENDBRANCH   8   9
ENDBRANCH   7   8
ENDBRANCH   6   7
ENDBRANCH   5   6
ENDBRANCH   4   5
ENDBRANCH   3   4
ENDBRANCH   2   3
ENDBRANCH   1   2
BRANCH   1  13
ATOM     13  C   UNL     1     133.051 133.398 134.108  1.00  0.00     0.000 C 
BRANCH  13  14
ATOM     14  C   UNL     1     134.035 132.365 133.534  1.00  0.00     0.000 C 
BRANCH  14  15
ATOM     15  C   UNL     1     135.448 132.934 133.337  1.00  0.00     0.000 C 
BRANCH  15  16
ATOM     16  C   UNL     1     135.418 134.468 133.249  1.00  0.00     0.000 C 
BRANCH  16  17
ATOM     17  C   UNL     1     136.811 135.095 133.413  1.00  0.00     0.000 C 
BRANCH  17  18
ATOM     18  C   UNL     1     137.343 135.707 132.105  1.00  0.00     0.000 C 
BRANCH  18  19
ATOM     19  C   UNL     1     136.329 135.579 130.947  1.00  0.00     0.000 C 
BRANCH  19  20
ATOM     20  C   UNL     1     136.968 135.164 129.607  1.00  0.00     0.006 C 
BRANCH  20  21
ATOM     21  C   UNL     1     138.309 135.850 129.307  1.00  0.00     0.053 C 
BRANCH  21  22
ATOM     22  C   UNL     1     139.315 134.899 128.728  1.00  0.00     0.041 C 
ATOM     23  O   UNL     1     139.089 134.325 127.629  1.00  0.00    -0.550 OA
ATOM     24  O   UNL     1     140.491 134.627 129.414  1.00  0.00    -0.550 OA
ENDBRANCH  21  22
ENDBRANCH  20  21
ENDBRANCH  19  20
ENDBRANCH  18  19
ENDBRANCH  17  18
ENDBRANCH  16  17
ENDBRANCH  15  16
ENDBRANCH  14  15
ENDBRANCH  13  14
ENDBRANCH   1  13
TORSDOF 20
ENDMDL
MODEL 5
REMARK VINA RESULT:    -5.264      2.509      5.595
REMARK INTER + INTRA:         -14.927
REMARK INTER:                 -12.321
REMARK INTRA:                  -2.606
REMARK UNBOUND:                -3.508
REMARK SMILES CCCCCCCCCCCCCCCCCCCCCC(=O)[O-]
REMARK SMILES IDX 12 1 11 2 10 3 9 4 8 5 7 6 6 7 5 8 4 9 3 10 2 11 1 12 13 13
REMARK SMILES IDX 14 14 15 15 16 16 17 17 18 18 19 19 20 20 21 21 22 22 23 23
REMARK SMILES IDX 24 24
REMARK H PARENT
REMARK Flexibility Score: inf
ROOT
ATOM      1  C   UNL     1     132.365 136.111 133.329  1.00  0.00     0.000 C 
ENDROOT
BRANCH   1   2
ATOM      2  C   UNL     1     131.518 137.357 133.021  1.00  0.00     0.000 C 
BRANCH   2   3
ATOM      3  C   UNL     1     131.390 137.628 131.511  1.00  0.00     0.000 C 
BRANCH   3   4
ATOM      4  C   UNL     1     132.346 136.749 130.676  1.00  0.00    -0.000 C 
BRANCH   4   5
ATOM      5  C   UNL     1     131.807 136.403 129.274  1.00  0.00    -0.000 C 
BRANCH   5   6
ATOM      6  C   UNL     1     131.759 134.900 128.950  1.00  0.00    -0.000 C 
BRANCH   6   7
ATOM      7  C   UNL     1     131.231 134.007 130.090  1.00  0.00    -0.000 C 
BRANCH   7   8
ATOM      8  C   UNL     1     131.151 132.509 129.722  1.00  0.00    -0.000 C 
BRANCH   8   9
ATOM      9  C   UNL     1     130.008 132.209 128.738  1.00  0.00    -0.000 C 
BRANCH   9  10
ATOM     10  C   UNL     1     128.629 132.154 129.423  1.00  0.00    -0.000 C 
BRANCH  10  11
ATOM     11  C   UNL     1     127.507 132.890 128.670  1.00  0.00    -0.003 C 
ATOM     12  C   UNL     1     127.925 134.276 128.178  1.00  0.00     0.004 C 
ENDBRANCH  10  11
ENDBRANCH   9  10
ENDBRANCH   8   9
ENDBRANCH   7   8
ENDBRANCH   6   7
ENDBRANCH   5   6
ENDBRANCH   4   5
ENDBRANCH   3   4
ENDBRANCH   2   3
ENDBRANCH   1   2
BRANCH   1  13
ATOM     13  C   UNL     1     131.524 134.825 133.378  1.00  0.00     0.000 C 
BRANCH  13  14
ATOM     14  C   UNL     1     132.313 133.617 133.909  1.00  0.00     0.000 C 
BRANCH  14  15
ATOM     15  C   UNL     1     131.773 132.277 133.386  1.00  0.00     0.000 C 
BRANCH  15  16
ATOM     16  C   UNL     1     132.920 131.366 132.921  1.00  0.00     0.000 C 
BRANCH  16  17
ATOM     17  C   UNL     1     134.204 131.570 133.741  1.00  0.00     0.000 C 
BRANCH  17  18
ATOM     18  C   UNL     1     135.452 131.732 132.856  1.00  0.00     0.000 C 
BRANCH  18  19
ATOM     19  C   UNL     1     135.643 133.187 132.376  1.00  0.00     0.000 C 
BRANCH  19  20
ATOM     20  C   UNL     1     135.928 134.184 133.517  1.00  0.00     0.006 C 
BRANCH  20  21
ATOM     21  C   UNL     1     136.075 135.643 133.059  1.00  0.00     0.053 C 
BRANCH  21  22
ATOM     22  C   UNL     1     137.442 135.930 132.511  1.00  0.00     0.041 C 
ATOM     23  O   UNL     1     137.651 135.891 131.269  1.00  0.00    -0.550 OA
ATOM     24  O   UNL     1     138.491 136.217 133.373  1.00  0.00    -0.550 OA
ENDBRANCH  21  22
ENDBRANCH  20  21
ENDBRANCH  19  20
ENDBRANCH  18  19
ENDBRANCH  17  18
ENDBRANCH  16  17
ENDBRANCH  15  16
ENDBRANCH  14  15
ENDBRANCH  13  14
ENDBRANCH   1  13
TORSDOF 20
ENDMDL
MODEL 6
REMARK VINA RESULT:    -5.219      4.691      7.350
REMARK INTER + INTRA:         -14.830
REMARK INTER:                 -12.456
REMARK INTRA:                  -2.374
REMARK UNBOUND:                -3.508
REMARK SMILES CCCCCCCCCCCCCCCCCCCCCC(=O)[O-]
REMARK SMILES IDX 12 1 11 2 10 3 9 4 8 5 7 6 6 7 5 8 4 9 3 10 2 11 1 12 13 13
REMARK SMILES IDX 14 14 15 15 16 16 17 17 18 18 19 19 20 20 21 21 22 22 23 23
REMARK SMILES IDX 24 24
REMARK H PARENT
REMARK Flexibility Score: inf
ROOT
ATOM      1  C   UNL     1     131.329 133.341 133.606  1.00  0.00     0.000 C 
ENDROOT
BRANCH   1   2
ATOM      2  C   UNL     1     131.649 131.968 132.991  1.00  0.00     0.000 C 
BRANCH   2   3
ATOM      3  C   UNL     1     132.258 132.077 131.583  1.00  0.00     0.000 C 
BRANCH   3   4
ATOM      4  C   UNL     1     133.727 131.601 131.544  1.00  0.00    -0.000 C 
BRANCH   4   5
ATOM      5  C   UNL     1     134.213 130.977 132.867  1.00  0.00    -0.000 C 
BRANCH   5   6
ATOM      6  C   UNL     1     135.498 131.597 133.442  1.00  0.00    -0.000 C 
BRANCH   6   7
ATOM      7  C   UNL     1     135.802 133.029 132.958  1.00  0.00    -0.000 C 
BRANCH   7   8
ATOM      8  C   UNL     1     135.131 134.129 133.809  1.00  0.00    -0.000 C 
BRANCH   8   9
ATOM      9  C   UNL     1     135.319 135.531 133.204  1.00  0.00    -0.000 C 
BRANCH   9  10
ATOM     10  C   UNL     1     135.952 135.496 131.801  1.00  0.00    -0.000 C 
BRANCH  10  11
ATOM     11  C   UNL     1     137.416 135.969 131.744  1.00  0.00    -0.003 C 
ATOM     12  C   UNL     1     138.023 136.202 133.127  1.00  0.00     0.004 C 
ENDBRANCH  10  11
ENDBRANCH   9  10
ENDBRANCH   8   9
ENDBRANCH   7   8
ENDBRANCH   6   7
ENDBRANCH   5   6
ENDBRANCH   4   5
ENDBRANCH   3   4
ENDBRANCH   2   3
ENDBRANCH   1   2
BRANCH   1  13
ATOM     13  C   UNL     1     131.795 134.507 132.717  1.00  0.00     0.000 C 
BRANCH  13  14
ATOM     14  C   UNL     1     131.446 135.882 133.308  1.00  0.00     0.000 C 
BRANCH  14  15
ATOM     15  C   UNL     1     131.761 137.040 132.349  1.00  0.00     0.000 C 
BRANCH  15  16
ATOM     16  C   UNL     1     131.873 136.540 130.900  1.00  0.00     0.000 C 
BRANCH  16  17
ATOM     17  C   UNL     1     131.775 137.680 129.874  1.00  0.00     0.000 C 
BRANCH  17  18
ATOM     18  C   UNL     1     130.820 137.352 128.714  1.00  0.00     0.000 C 
BRANCH  18  19
ATOM     19  C   UNL     1     129.470 138.092 128.841  1.00  0.00     0.000 C 
BRANCH  19  20
ATOM     20  C   UNL     1     128.257 137.247 128.407  1.00  0.00     0.006 C 
BRANCH  20  21
ATOM     21  C   UNL     1     127.520 137.788 127.171  1.00  0.00     0.053 C 
BRANCH  21  22
ATOM     22  C   UNL     1     126.428 138.749 127.539  1.00  0.00     0.041 C 
ATOM     23  O   UNL     1     125.963 139.543 126.678  1.00  0.00    -0.550 OA
ATOM     24  O   UNL     1     125.940 138.785 128.837  1.00  0.00    -0.550 OA
ENDBRANCH  21  22
ENDBRANCH  20  21
ENDBRANCH  19  20
ENDBRANCH  18  19
ENDBRANCH  17  18
ENDBRANCH  16  17
ENDBRANCH  15  16
ENDBRANCH  14  15
ENDBRANCH  13  14
ENDBRANCH   1  13
TORSDOF 20
ENDMDL
MODEL 7
REMARK VINA RESULT:    -5.209      2.987      5.271
REMARK INTER + INTRA:         -14.808
REMARK INTER:                 -12.407
REMARK INTRA:                  -2.401
REMARK UNBOUND:                -3.508
REMARK SMILES CCCCCCCCCCCCCCCCCCCCCC(=O)[O-]
REMARK SMILES IDX 12 1 11 2 10 3 9 4 8 5 7 6 6 7 5 8 4 9 3 10 2 11 1 12 13 13
REMARK SMILES IDX 14 14 15 15 16 16 17 17 18 18 19 19 20 20 21 21 22 22 23 23
REMARK SMILES IDX 24 24
REMARK H PARENT
REMARK Flexibility Score: inf
ROOT
ATOM      1  C   UNL     1     135.490 131.027 132.977  1.00  0.00     0.000 C 
ENDROOT
BRANCH   1   2
ATOM      2  C   UNL     1     134.029 130.944 133.447  1.00  0.00     0.000 C 
BRANCH   2   3
ATOM      3  C   UNL     1     133.425 132.326 133.755  1.00  0.00     0.000 C 
BRANCH   3   4
ATOM      4  C   UNL     1     131.960 132.442 133.282  1.00  0.00    -0.000 C 
BRANCH   4   5
ATOM      5  C   UNL     1     131.385 133.869 133.383  1.00  0.00    -0.000 C 
BRANCH   5   6
ATOM      6  C   UNL     1     131.737 134.795 132.206  1.00  0.00    -0.000 C 
BRANCH   6   7
ATOM      7  C   UNL     1     132.316 136.165 132.609  1.00  0.00    -0.000 C 
BRANCH   7   8
ATOM      8  C   UNL     1     133.606 136.072 133.454  1.00  0.00    -0.000 C 
BRANCH   8   9
ATOM      9  C   UNL     1     134.794 135.522 132.648  1.00  0.00    -0.000 C 
BRANCH   9  10
ATOM     10  C   UNL     1     135.927 134.985 133.543  1.00  0.00    -0.000 C 
BRANCH  10  11
ATOM     11  C   UNL     1     137.326 135.529 133.204  1.00  0.00    -0.003 C 
ATOM     12  C   UNL     1     137.476 135.922 131.735  1.00  0.00     0.004 C 
ENDBRANCH  10  11
ENDBRANCH   9  10
ENDBRANCH   8   9
ENDBRANCH   7   8
ENDBRANCH   6   7
ENDBRANCH   5   6
ENDBRANCH   4   5
ENDBRANCH   3   4
ENDBRANCH   2   3
ENDBRANCH   1   2
BRANCH   1  13
ATOM     13  C   UNL     1     135.884 129.850 132.069  1.00  0.00     0.000 C 
BRANCH  13  14
ATOM     14  C   UNL     1     135.887 130.224 130.578  1.00  0.00     0.000 C 
BRANCH  14  15
ATOM     15  C   UNL     1     135.488 129.052 129.668  1.00  0.00     0.000 C 
BRANCH  15  16
ATOM     16  C   UNL     1     134.250 129.402 128.829  1.00  0.00     0.000 C 
BRANCH  16  17
ATOM     17  C   UNL     1     133.550 130.680 129.317  1.00  0.00     0.000 C 
BRANCH  17  18
ATOM     18  C   UNL     1     132.045 130.692 128.994  1.00  0.00     0.000 C 
BRANCH  18  19
ATOM     19  C   UNL     1     131.301 131.835 129.717  1.00  0.00     0.000 C 
BRANCH  19  20
ATOM     20  C   UNL     1     129.891 131.447 130.203  1.00  0.00     0.006 C 
BRANCH  20  21
ATOM     21  C   UNL     1     128.752 132.213 129.513  1.00  0.00     0.053 C 
BRANCH  21  22
ATOM     22  C   UNL     1     128.220 131.480 128.316  1.00  0.00     0.041 C 
ATOM     23  O   UNL     1     128.397 130.238 128.201  1.00  0.00    -0.550 OA
ATOM     24  O   UNL     1     127.551 132.173 127.317  1.00  0.00    -0.550 OA
ENDBRANCH  21  22
ENDBRANCH  20  21
ENDBRANCH  19  20
ENDBRANCH  18  19
ENDBRANCH  17  18
ENDBRANCH  16  17
ENDBRANCH  15  16
ENDBRANCH  14  15
ENDBRANCH  13  14
ENDBRANCH   1  13
TORSDOF 20
ENDMDL
MODEL 8
REMARK VINA RESULT:    -5.193      3.706      7.115
REMARK INTER + INTRA:         -14.772
REMARK INTER:                 -11.381
REMARK INTRA:                  -3.391
REMARK UNBOUND:                -3.508
REMARK SMILES CCCCCCCCCCCCCCCCCCCCCC(=O)[O-]
REMARK SMILES IDX 12 1 11 2 10 3 9 4 8 5 7 6 6 7 5 8 4 9 3 10 2 11 1 12 13 13
REMARK SMILES IDX 14 14 15 15 16 16 17 17 18 18 19 19 20 20 21 21 22 22 23 23
REMARK SMILES IDX 24 24
REMARK H PARENT
REMARK Flexibility Score: inf
ROOT
ATOM      1  C   UNL     1     135.669 134.418 133.247  1.00  0.00     0.000 C 
ENDROOT
BRANCH   1   2
ATOM      2  C   UNL     1     135.715 132.885 133.357  1.00  0.00     0.000 C 
BRANCH   2   3
ATOM      3  C   UNL     1     134.351 132.274 133.723  1.00  0.00     0.000 C 
BRANCH   3   4
ATOM      4  C   UNL     1     133.341 133.344 134.192  1.00  0.00    -0.000 C 
BRANCH   4   5
ATOM      5  C   UNL     1     132.038 133.371 133.368  1.00  0.00    -0.000 C 
BRANCH   5   6
ATOM      6  C   UNL     1     131.294 134.718 133.377  1.00  0.00    -0.000 C 
BRANCH   6   7
ATOM      7  C   UNL     1     132.203 135.961 133.431  1.00  0.00    -0.000 C 
BRANCH   7   8
ATOM      8  C   UNL     1     131.849 137.037 132.381  1.00  0.00    -0.000 C 
BRANCH   8   9
ATOM      9  C   UNL     1     131.962 136.508 130.941  1.00  0.00    -0.000 C 
BRANCH   9  10
ATOM     10  C   UNL     1     133.303 135.802 130.667  1.00  0.00    -0.000 C 
BRANCH  10  11
ATOM     11  C   UNL     1     133.226 134.646 129.653  1.00  0.00    -0.003 C 
ATOM     12  C   UNL     1     134.097 133.451 130.040  1.00  0.00     0.004 C 
ENDBRANCH  10  11
ENDBRANCH   9  10
ENDBRANCH   8   9
ENDBRANCH   7   8
ENDBRANCH   6   7
ENDBRANCH   5   6
ENDBRANCH   4   5
ENDBRANCH   3   4
ENDBRANCH   2   3
ENDBRANCH   1   2
BRANCH   1  13
ATOM     13  C   UNL     1     137.027 135.071 133.558  1.00  0.00     0.000 C 
BRANCH  13  14
ATOM     14  C   UNL     1     137.455 136.090 132.491  1.00  0.00     0.000 C 
BRANCH  14  15
ATOM     15  C   UNL     1     136.937 135.738 131.088  1.00  0.00     0.000 C 
BRANCH  15  16
ATOM     16  C   UNL     1     138.100 135.562 130.099  1.00  0.00     0.000 C 
BRANCH  16  17
ATOM     17  C   UNL     1     137.803 136.182 128.724  1.00  0.00     0.000 C 
BRANCH  17  18
ATOM     18  C   UNL     1     136.400 135.821 128.203  1.00  0.00     0.000 C 
BRANCH  18  19
ATOM     19  C   UNL     1     135.711 137.014 127.507  1.00  0.00     0.000 C 
BRANCH  19  20
ATOM     20  C   UNL     1     135.015 137.984 128.483  1.00  0.00     0.006 C 
BRANCH  20  21
ATOM     21  C   UNL     1     134.652 139.345 127.870  1.00  0.00     0.053 C 
BRANCH  21  22
ATOM     22  C   UNL     1     133.183 139.637 127.970  1.00  0.00     0.041 C 
ATOM     23  O   UNL     1     132.543 140.031 126.958  1.00  0.00    -0.550 OA
ATOM     24  O   UNL     1     132.527 139.498 129.184  1.00  0.00    -0.550 OA
ENDBRANCH  21  22
ENDBRANCH  20  21
ENDBRANCH  19  20
ENDBRANCH  18  19
ENDBRANCH  17  18
ENDBRANCH  16  17
ENDBRANCH  15  16
ENDBRANCH  14  15
ENDBRANCH  13  14
ENDBRANCH   1  13
TORSDOF 20
ENDMDL
MODEL 9
REMARK VINA RESULT:    -5.190      2.404      4.801
REMARK INTER + INTRA:         -14.765
REMARK INTER:                 -11.293
REMARK INTRA:                  -3.472
REMARK UNBOUND:                -3.508
REMARK SMILES CCCCCCCCCCCCCCCCCCCCCC(=O)[O-]
REMARK SMILES IDX 12 1 11 2 10 3 9 4 8 5 7 6 6 7 5 8 4 9 3 10 2 11 1 12 13 13
REMARK SMILES IDX 14 14 15 15 16 16 17 17 18 18 19 19 20 20 21 21 22 22 23 23
REMARK SMILES IDX 24 24
REMARK H PARENT
REMARK Flexibility Score: inf
ROOT
ATOM      1  C   UNL     1     132.409 132.913 133.700  1.00  0.00     0.000 C 
ENDROOT
BRANCH   1   2
ATOM      2  C   UNL     1     131.792 131.671 133.037  1.00  0.00     0.000 C 
BRANCH   2   3
ATOM      3  C   UNL     1     130.259 131.757 132.926  1.00  0.00     0.000 C 
BRANCH   3   4
ATOM      4  C   UNL     1     129.775 131.679 131.462  1.00  0.00    -0.000 C 
BRANCH   4   5
ATOM      5  C   UNL     1     130.919 131.586 130.433  1.00  0.00    -0.000 C 
BRANCH   5   6
ATOM      6  C   UNL     1     131.071 132.817 129.521  1.00  0.00    -0.000 C 
BRANCH   6   7
ATOM      7  C   UNL     1     131.440 134.123 130.251  1.00  0.00    -0.000 C 
BRANCH   7   8
ATOM      8  C   UNL     1     132.949 134.447 130.223  1.00  0.00    -0.000 C 
BRANCH   8   9
ATOM      9  C   UNL     1     133.343 135.485 131.287  1.00  0.00    -0.000 C 
BRANCH   9  10
ATOM     10  C   UNL     1     134.866 135.567 131.508  1.00  0.00    -0.000 C 
BRANCH  10  11
ATOM     11  C   UNL     1     135.295 135.694 132.981  1.00  0.00    -0.003 C 
ATOM     12  C   UNL     1     136.744 135.270 133.221  1.00  0.00     0.004 C 
ENDBRANCH  10  11
ENDBRANCH   9  10
ENDBRANCH   8   9
ENDBRANCH   7   8
ENDBRANCH   6   7
ENDBRANCH   5   6
ENDBRANCH   4   5
ENDBRANCH   3   4
ENDBRANCH   2   3
ENDBRANCH   1   2
BRANCH   1  13
ATOM     13  C   UNL     1     133.871 132.689 134.123  1.00  0.00     0.000 C 
BRANCH  13  14
ATOM     14  C   UNL     1     134.390 131.289 133.755  1.00  0.00     0.000 C 
BRANCH  14  15
ATOM     15  C   UNL     1     135.696 131.332 132.947  1.00  0.00     0.000 C 
BRANCH  15  16
ATOM     16  C   UNL     1     135.492 132.057 131.608  1.00  0.00     0.000 C 
BRANCH  16  17
ATOM     17  C   UNL     1     134.541 131.300 130.667  1.00  0.00     0.000 C 
BRANCH  17  18
ATOM     18  C   UNL     1     134.954 131.415 129.189  1.00  0.00     0.000 C 
BRANCH  18  19
ATOM     19  C   UNL     1     134.733 130.097 128.416  1.00  0.00     0.000 C 
BRANCH  19  20
ATOM     20  C   UNL     1     133.255 129.671 128.326  1.00  0.00     0.006 C 
BRANCH  20  21
ATOM     21  C   UNL     1     133.043 128.160 128.139  1.00  0.00     0.053 C 
BRANCH  21  22
ATOM     22  C   UNL     1     134.336 127.398 128.176  1.00  0.00     0.041 C 
ATOM     23  O   UNL     1     134.758 126.915 129.261  1.00  0.00    -0.550 OA
ATOM     24  O   UNL     1     135.085 127.242 127.019  1.00  0.00    -0.550 OA
ENDBRANCH  21  22
ENDBRANCH  20  21
ENDBRANCH  19  20
ENDBRANCH  18  19
ENDBRANCH  17  18
ENDBRANCH  16  17
ENDBRANCH  15  16
ENDBRANCH  14  15
ENDBRANCH  13  14
ENDBRANCH   1  13
TORSDOF 20
ENDMDL
