MODEL 1
REMARK VINA RESULT:    -3.840      0.000      0.000
REMARK INTER + INTRA:          -4.573
REMARK INTER:                  -4.514
REMARK INTRA:                  -0.059
REMARK UNBOUND:                -0.059
REMARK SMILES O=C([O-])CCC(=O)[O-]
REMARK SMILES IDX 4 1 2 2 1 3 3 4 5 5 6 6 7 7 8 8
REMARK H PARENT
REMARK Flexibility Score: inf
ROOT
ATOM      1  C   UNL     1     -96.930 -60.104 -65.309  1.00  0.00     0.059 C 
ENDROOT
BRANCH   1   2
ATOM      2  C   UNL     1     -97.393 -61.302 -64.539  1.00  0.00     0.042 C 
ATOM      3  O   UNL     1     -96.570 -62.190 -64.195  1.00  0.00    -0.550 OA
ATOM      4  O   UNL     1     -98.726 -61.417 -64.165  1.00  0.00    -0.550 OA
ENDBRANCH   1   2
BRANCH   1   5
ATOM      5  C   UNL     1     -97.639 -59.993 -66.662  1.00  0.00     0.059 C 
BRANCH   5   6
ATOM      6  C   UNL     1     -98.309 -58.664 -66.830  1.00  0.00     0.042 C 
ATOM      7  O   UNL     1     -97.766 -57.619 -66.382  1.00  0.00    -0.550 OA
ATOM      8  O   UNL     1     -99.553 -58.585 -67.442  1.00  0.00    -0.550 OA
ENDBRANCH   5   6
ENDBRANCH   1   5
TORSDOF 3
ENDMDL
MODEL 2
REMARK VINA RESULT:    -3.834      0.965      1.843
REMARK INTER + INTRA:          -4.566
REMARK INTER:                  -4.439
REMARK INTRA:                  -0.126
REMARK UNBOUND:                -0.059
REMARK SMILES O=C([O-])CCC(=O)[O-]
REMARK SMILES IDX 4 1 2 2 1 3 3 4 5 5 6 6 7 7 8 8
REMARK H PARENT
REMARK Flexibility Score: inf
ROOT
ATOM      1  C   UNL     1     -98.465 -61.229 -66.347  1.00  0.00     0.059 C 
ENDROOT
BRANCH   1   2
ATOM      2  C   UNL     1     -98.399 -61.234 -64.851  1.00  0.00     0.042 C 
ATOM      3  O   UNL     1     -99.375 -61.655 -64.175  1.00  0.00    -0.550 OA
ATOM      4  O   UNL     1     -97.244 -60.813 -64.203  1.00  0.00    -0.550 OA
ENDBRANCH   1   2
BRANCH   1   5
ATOM      5  C   UNL     1     -97.692 -60.049 -66.943  1.00  0.00     0.059 C 
BRANCH   5   6
ATOM      6  C   UNL     1     -98.490 -58.782 -66.893  1.00  0.00     0.042 C 
ATOM      7  O   UNL     1     -99.693 -58.775 -67.269  1.00  0.00    -0.550 OA
ATOM      8  O   UNL     1     -97.893 -57.601 -66.472  1.00  0.00    -0.550 OA
ENDBRANCH   5   6
ENDBRANCH   1   5
TORSDOF 3
ENDMDL
MODEL 3
REMARK VINA RESULT:    -3.821      0.946      3.940
REMARK INTER + INTRA:          -4.550
REMARK INTER:                  -4.425
REMARK INTRA:                  -0.124
REMARK UNBOUND:                -0.059
REMARK SMILES O=C([O-])CCC(=O)[O-]
REMARK SMILES IDX 4 1 2 2 1 3 3 4 5 5 6 6 7 7 8 8
REMARK H PARENT
REMARK Flexibility Score: inf
ROOT
ATOM      1  C   UNL     1     -97.646 -60.081 -66.857  1.00  0.00     0.059 C 
ENDROOT
BRANCH   1   2
ATOM      2  C   UNL     1     -98.454 -58.820 -66.846  1.00  0.00     0.042 C 
ATOM      3  O   UNL     1     -99.683 -58.853 -67.118  1.00  0.00    -0.550 OA
ATOM      4  O   UNL     1     -97.859 -57.614 -66.496  1.00  0.00    -0.550 OA
ENDBRANCH   1   2
BRANCH   1   5
ATOM      5  C   UNL     1     -98.422 -61.254 -66.250  1.00  0.00     0.059 C 
BRANCH   5   6
ATOM      6  C   UNL     1     -98.355 -61.247 -64.753  1.00  0.00     0.042 C 
ATOM      7  O   UNL     1     -99.331 -61.659 -64.072  1.00  0.00    -0.550 OA
ATOM      8  O   UNL     1     -97.230 -60.744 -64.111  1.00  0.00    -0.550 OA
ENDBRANCH   5   6
ENDBRANCH   1   5
TORSDOF 3
ENDMDL
MODEL 4
REMARK VINA RESULT:    -3.714      2.295      3.683
REMARK INTER + INTRA:          -4.425
REMARK INTER:                  -4.319
REMARK INTRA:                  -0.106
REMARK UNBOUND:                -0.059
REMARK SMILES O=C([O-])CCC(=O)[O-]
REMARK SMILES IDX 4 1 2 2 1 3 3 4 5 5 6 6 7 7 8 8
REMARK H PARENT
REMARK Flexibility Score: inf
ROOT
ATOM      1  C   UNL     1     -99.607 -59.003 -67.115  1.00  0.00     0.059 C 
ENDROOT
BRANCH   1   2
ATOM      2  C   UNL     1     -98.185 -58.917 -66.651  1.00  0.00     0.042 C 
ATOM      3  O   UNL     1     -97.509 -59.966 -66.485  1.00  0.00    -0.550 OA
ATOM      4  O   UNL     1     -97.594 -57.677 -66.442  1.00  0.00    -0.550 OA
ENDBRANCH   1   2
BRANCH   1   5
ATOM      5  C   UNL     1    -100.178 -60.412 -66.925  1.00  0.00     0.059 C 
BRANCH   5   6
ATOM      6  C   UNL     1    -100.992 -60.515 -65.671  1.00  0.00     0.042 C 
ATOM      7  O   UNL     1    -100.587 -61.220 -64.709  1.00  0.00    -0.550 OA
ATOM      8  O   UNL     1    -102.216 -59.866 -65.583  1.00  0.00    -0.550 OA
ENDBRANCH   5   6
ENDBRANCH   1   5
TORSDOF 3
ENDMDL
MODEL 5
REMARK VINA RESULT:    -3.711      2.315      3.037
REMARK INTER + INTRA:          -4.420
REMARK INTER:                  -4.370
REMARK INTRA:                  -0.050
REMARK UNBOUND:                -0.059
REMARK SMILES O=C([O-])CCC(=O)[O-]
REMARK SMILES IDX 4 1 2 2 1 3 3 4 5 5 6 6 7 7 8 8
REMARK H PARENT
REMARK Flexibility Score: inf
ROOT
ATOM      1  C   UNL     1    -100.168 -60.439 -66.796  1.00  0.00     0.059 C 
ENDROOT
BRANCH   1   2
ATOM      2  C   UNL     1    -100.808 -60.605 -65.452  1.00  0.00     0.042 C 
ATOM      3  O   UNL     1    -101.885 -60.008 -65.185  1.00  0.00    -0.550 OA
ATOM      4  O   UNL     1    -100.239 -61.451 -64.509  1.00  0.00    -0.550 OA
ENDBRANCH   1   2
BRANCH   1   5
ATOM      5  C   UNL     1     -99.760 -58.984 -67.051  1.00  0.00     0.059 C 
BRANCH   5   6
ATOM      6  C   UNL     1     -98.270 -58.826 -67.084  1.00  0.00     0.042 C 
ATOM      7  O   UNL     1     -97.727 -57.822 -66.552  1.00  0.00    -0.550 OA
ATOM      8  O   UNL     1     -97.487 -59.766 -67.740  1.00  0.00    -0.550 OA
ENDBRANCH   5   6
ENDBRANCH   1   5
TORSDOF 3
ENDMDL
MODEL 6
REMARK VINA RESULT:    -3.694      2.340      2.920
REMARK INTER + INTRA:          -4.401
REMARK INTER:                  -4.255
REMARK INTRA:                  -0.146
REMARK UNBOUND:                -0.059
REMARK SMILES O=C([O-])CCC(=O)[O-]
REMARK SMILES IDX 4 1 2 2 1 3 3 4 5 5 6 6 7 7 8 8
REMARK H PARENT
REMARK Flexibility Score: inf
ROOT
ATOM      1  C   UNL     1     -99.330 -61.993 -66.192  1.00  0.00     0.059 C 
ENDROOT
BRANCH   1   2
ATOM      2  C   UNL     1     -99.399 -62.130 -64.702  1.00  0.00     0.042 C 
ATOM      3  O   UNL     1    -100.430 -62.606 -64.158  1.00  0.00    -0.550 OA
ATOM      4  O   UNL     1     -98.310 -61.771 -63.918  1.00  0.00    -0.550 OA
ENDBRANCH   1   2
BRANCH   1   5
ATOM      5  C   UNL     1    -100.605 -61.363 -66.761  1.00  0.00     0.059 C 
BRANCH   5   6
ATOM      6  C   UNL     1    -100.724 -59.917 -66.385  1.00  0.00     0.042 C 
ATOM      7  O   UNL     1    -101.618 -59.542 -65.582  1.00  0.00    -0.550 OA
ATOM      8  O   UNL     1     -99.872 -58.980 -66.955  1.00  0.00    -0.550 OA
ENDBRANCH   5   6
ENDBRANCH   1   5
TORSDOF 3
ENDMDL
MODEL 7
REMARK VINA RESULT:    -3.664      1.920      2.173
REMARK INTER + INTRA:          -4.366
REMARK INTER:                  -4.232
REMARK INTRA:                  -0.134
REMARK UNBOUND:                -0.059
REMARK SMILES O=C([O-])CCC(=O)[O-]
REMARK SMILES IDX 4 1 2 2 1 3 3 4 5 5 6 6 7 7 8 8
REMARK H PARENT
REMARK Flexibility Score: inf
ROOT
ATOM      1  C   UNL     1     -98.376 -61.286 -66.171  1.00  0.00     0.059 C 
ENDROOT
BRANCH   1   2
ATOM      2  C   UNL     1     -97.991 -61.110 -64.734  1.00  0.00     0.042 C 
ATOM      3  O   UNL     1     -97.019 -60.372 -64.425  1.00  0.00    -0.550 OA
ATOM      4  O   UNL     1     -98.731 -61.729 -63.734  1.00  0.00    -0.550 OA
ENDBRANCH   1   2
BRANCH   1   5
ATOM      5  C   UNL     1     -99.897 -61.311 -66.350  1.00  0.00     0.059 C 
BRANCH   5   6
ATOM      6  C   UNL     1    -100.477 -59.929 -66.350  1.00  0.00     0.042 C 
ATOM      7  O   UNL     1     -99.928 -59.011 -67.015  1.00  0.00    -0.550 OA
ATOM      8  O   UNL     1    -101.599 -59.647 -65.582  1.00  0.00    -0.550 OA
ENDBRANCH   5   6
ENDBRANCH   1   5
TORSDOF 3
ENDMDL
MODEL 8
REMARK VINA RESULT:    -3.649      2.044      3.526
REMARK INTER + INTRA:          -4.348
REMARK INTER:                  -4.225
REMARK INTRA:                  -0.124
REMARK UNBOUND:                -0.059
REMARK SMILES O=C([O-])CCC(=O)[O-]
REMARK SMILES IDX 4 1 2 2 1 3 3 4 5 5 6 6 7 7 8 8
REMARK H PARENT
REMARK Flexibility Score: inf
ROOT
ATOM      1  C   UNL     1     -98.509 -59.349 -67.334  1.00  0.00     0.059 C 
ENDROOT
BRANCH   1   2
ATOM      2  C   UNL     1     -97.536 -58.899 -66.288  1.00  0.00     0.042 C 
ATOM      3  O   UNL     1     -97.144 -57.703 -66.261  1.00  0.00    -0.550 OA
ATOM      4  O   UNL     1     -97.094 -59.790 -65.318  1.00  0.00    -0.550 OA
ENDBRANCH   1   2
BRANCH   1   5
ATOM      5  C   UNL     1     -99.957 -59.228 -66.848  1.00  0.00     0.059 C 
BRANCH   5   6
ATOM      6  C   UNL     1    -100.517 -60.558 -66.442  1.00  0.00     0.042 C 
ATOM      7  O   UNL     1    -101.226 -61.219 -67.245  1.00  0.00    -0.550 OA
ATOM      8  O   UNL     1    -100.289 -61.045 -65.161  1.00  0.00    -0.550 OA
ENDBRANCH   5   6
ENDBRANCH   1   5
TORSDOF 3
ENDMDL
MODEL 9
REMARK VINA RESULT:    -3.637      1.653      3.975
REMARK INTER + INTRA:          -4.334
REMARK INTER:                  -4.239
REMARK INTRA:                  -0.095
REMARK UNBOUND:                -0.059
REMARK SMILES O=C([O-])CCC(=O)[O-]
REMARK SMILES IDX 4 1 2 2 1 3 3 4 5 5 6 6 7 7 8 8
REMARK H PARENT
REMARK Flexibility Score: inf
ROOT
ATOM      1  C   UNL     1     -98.786 -61.241 -66.699  1.00  0.00     0.059 C 
ENDROOT
BRANCH   1   2
ATOM      2  C   UNL     1     -99.857 -60.200 -66.806  1.00  0.00     0.042 C 
ATOM      3  O   UNL     1    -101.065 -60.515 -66.643  1.00  0.00    -0.550 OA
ATOM      4  O   UNL     1     -99.518 -58.874 -67.044  1.00  0.00    -0.550 OA
ENDBRANCH   1   2
BRANCH   1   5
ATOM      5  C   UNL     1     -98.617 -61.732 -65.258  1.00  0.00     0.059 C 
BRANCH   5   6
ATOM      6  C   UNL     1     -97.285 -61.344 -64.694  1.00  0.00     0.042 C 
ATOM      7  O   UNL     1     -96.526 -62.219 -64.200  1.00  0.00    -0.550 OA
ATOM      8  O   UNL     1     -96.901 -60.009 -64.676  1.00  0.00    -0.550 OA
ENDBRANCH   5   6
ENDBRANCH   1   5
TORSDOF 3
ENDMDL
