MODEL 1
REMARK VINA RESULT:    -3.384      0.000      0.000
REMARK INTER + INTRA:          -5.154
REMARK INTER:                  -4.571
REMARK INTRA:                  -0.582
REMARK UNBOUND:                -0.582
REMARK SMILES CCCCCCCC(=O)[O-]
REMARK SMILES IDX 5 1 6 2 7 3 8 4 9 5 10 6 4 7 3 8 2 9 1 10
REMARK H PARENT
REMARK Flexibility Score: inf
ROOT
ATOM      1  C   UNL     1      -8.703  -7.900  -7.694  1.00  0.00     0.000 C 
ENDROOT
BRANCH   1   2
ATOM      2  C   UNL     1      -9.426  -7.966  -6.339  1.00  0.00     0.006 C 
BRANCH   2   3
ATOM      3  C   UNL     1      -9.741  -6.576  -5.768  1.00  0.00     0.053 C 
BRANCH   3   4
ATOM      4  C   UNL     1      -8.993  -6.356  -4.491  1.00  0.00     0.041 C 
ATOM      5  O   UNL     1      -7.991  -5.594  -4.467  1.00  0.00    -0.550 OA
ATOM      6  O   UNL     1      -9.373  -7.032  -3.338  1.00  0.00    -0.550 OA
ENDBRANCH   3   4
ENDBRANCH   2   3
ENDBRANCH   1   2
BRANCH   1   7
ATOM      7  C   UNL     1      -7.297  -8.517  -7.646  1.00  0.00     0.000 C 
BRANCH   7   8
ATOM      8  C   UNL     1      -6.298  -7.557  -6.983  1.00  0.00    -0.000 C 
BRANCH   8   9
ATOM      9  C   UNL     1      -5.384  -8.263  -5.970  1.00  0.00    -0.003 C 
ATOM     10  C   UNL     1      -6.109  -8.632  -4.677  1.00  0.00     0.004 C 
ENDBRANCH   8   9
ENDBRANCH   7   8
ENDBRANCH   1   7
TORSDOF 6
ENDMDL
MODEL 2
REMARK VINA RESULT:    -3.086      1.562      2.498
REMARK INTER + INTRA:          -4.751
REMARK INTER:                  -4.483
REMARK INTRA:                  -0.268
REMARK UNBOUND:                -0.582
REMARK SMILES CCCCCCCC(=O)[O-]
REMARK SMILES IDX 5 1 6 2 7 3 8 4 9 5 10 6 4 7 3 8 2 9 1 10
REMARK H PARENT
REMARK Flexibility Score: inf
ROOT
ATOM      1  C   UNL     1      -6.446  -9.240  -5.335  1.00  0.00     0.000 C 
ENDROOT
BRANCH   1   2
ATOM      2  C   UNL     1      -7.806  -8.526  -5.297  1.00  0.00     0.006 C 
BRANCH   2   3
ATOM      3  C   UNL     1      -7.689  -7.051  -4.890  1.00  0.00     0.053 C 
BRANCH   3   4
ATOM      4  C   UNL     1      -8.996  -6.552  -4.359  1.00  0.00     0.041 C 
ATOM      5  O   UNL     1      -9.422  -6.953  -3.244  1.00  0.00    -0.550 OA
ATOM      6  O   UNL     1      -9.768  -5.682  -5.119  1.00  0.00    -0.550 OA
ENDBRANCH   3   4
ENDBRANCH   2   3
ENDBRANCH   1   2
BRANCH   1   7
ATOM      7  C   UNL     1      -6.114  -9.811  -6.722  1.00  0.00     0.000 C 
BRANCH   7   8
ATOM      8  C   UNL     1      -6.143  -8.708  -7.790  1.00  0.00    -0.000 C 
BRANCH   8   9
ATOM      9  C   UNL     1      -5.114  -7.599  -7.521  1.00  0.00    -0.003 C 
ATOM     10  C   UNL     1      -4.104  -7.441  -8.657  1.00  0.00     0.004 C 
ENDBRANCH   8   9
ENDBRANCH   7   8
ENDBRANCH   1   7
TORSDOF 6
ENDMDL
MODEL 3
REMARK VINA RESULT:    -3.056      0.853      1.566
REMARK INTER + INTRA:          -4.710
REMARK INTER:                  -4.098
REMARK INTRA:                  -0.612
REMARK UNBOUND:                -0.582
REMARK SMILES CCCCCCCC(=O)[O-]
REMARK SMILES IDX 5 1 6 2 7 3 8 4 9 5 10 6 4 7 3 8 2 9 1 10
REMARK H PARENT
REMARK Flexibility Score: inf
ROOT
ATOM      1  C   UNL     1      -9.480  -7.454  -7.842  1.00  0.00     0.000 C 
ENDROOT
BRANCH   1   2
ATOM      2  C   UNL     1     -10.125  -7.610  -6.456  1.00  0.00     0.006 C 
BRANCH   2   3
ATOM      3  C   UNL     1      -9.990  -6.348  -5.595  1.00  0.00     0.053 C 
BRANCH   3   4
ATOM      4  C   UNL     1      -8.804  -6.459  -4.689  1.00  0.00     0.041 C 
ATOM      5  O   UNL     1      -8.559  -7.542  -4.096  1.00  0.00    -0.550 OA
ATOM      6  O   UNL     1      -7.997  -5.351  -4.462  1.00  0.00    -0.550 OA
ENDBRANCH   3   4
ENDBRANCH   2   3
ENDBRANCH   1   2
BRANCH   1   7
ATOM      7  C   UNL     1      -8.709  -8.707  -8.283  1.00  0.00     0.000 C 
BRANCH   7   8
ATOM      8  C   UNL     1      -7.502  -8.959  -7.367  1.00  0.00    -0.000 C 
BRANCH   8   9
ATOM      9  C   UNL     1      -6.497  -7.796  -7.383  1.00  0.00    -0.003 C 
ATOM     10  C   UNL     1      -5.599  -7.774  -6.147  1.00  0.00     0.004 C 
ENDBRANCH   8   9
ENDBRANCH   7   8
ENDBRANCH   1   7
TORSDOF 6
ENDMDL
MODEL 4
REMARK VINA RESULT:    -2.979      1.927      3.650
REMARK INTER + INTRA:          -4.606
REMARK INTER:                  -4.000
REMARK INTRA:                  -0.606
REMARK UNBOUND:                -0.582
REMARK SMILES CCCCCCCC(=O)[O-]
REMARK SMILES IDX 5 1 6 2 7 3 8 4 9 5 10 6 4 7 3 8 2 9 1 10
REMARK H PARENT
REMARK Flexibility Score: inf
ROOT
ATOM      1  C   UNL     1      -8.508  -7.883  -7.689  1.00  0.00     0.000 C 
ENDROOT
BRANCH   1   2
ATOM      2  C   UNL     1      -7.179  -8.640  -7.538  1.00  0.00     0.006 C 
BRANCH   2   3
ATOM      3  C   UNL     1      -7.049  -9.341  -6.179  1.00  0.00     0.053 C 
BRANCH   3   4
ATOM      4  C   UNL     1      -5.953  -8.717  -5.374  1.00  0.00     0.041 C 
ATOM      5  O   UNL     1      -5.949  -8.824  -4.120  1.00  0.00    -0.550 OA
ATOM      6  O   UNL     1      -4.963  -7.975  -6.006  1.00  0.00    -0.550 OA
ENDBRANCH   3   4
ENDBRANCH   2   3
ENDBRANCH   1   2
BRANCH   1   7
ATOM      7  C   UNL     1      -9.532  -8.262  -6.608  1.00  0.00     0.000 C 
BRANCH   7   8
ATOM      8  C   UNL     1     -10.009  -7.018  -5.844  1.00  0.00    -0.000 C 
BRANCH   8   9
ATOM      9  C   UNL     1      -9.352  -6.887  -4.462  1.00  0.00    -0.003 C 
ATOM     10  C   UNL     1      -8.201  -5.882  -4.447  1.00  0.00     0.004 C 
ENDBRANCH   8   9
ENDBRANCH   7   8
ENDBRANCH   1   7
TORSDOF 6
ENDMDL
MODEL 5
REMARK VINA RESULT:    -2.978      2.117      3.027
REMARK INTER + INTRA:          -4.605
REMARK INTER:                  -4.129
REMARK INTRA:                  -0.476
REMARK UNBOUND:                -0.582
REMARK SMILES CCCCCCCC(=O)[O-]
REMARK SMILES IDX 5 1 6 2 7 3 8 4 9 5 10 6 4 7 3 8 2 9 1 10
REMARK H PARENT
REMARK Flexibility Score: inf
ROOT
ATOM      1  C   UNL     1      -7.181  -6.994  -5.036  1.00  0.00     0.000 C 
ENDROOT
BRANCH   1   2
ATOM      2  C   UNL     1      -8.678  -7.192  -4.750  1.00  0.00     0.006 C 
BRANCH   2   3
ATOM      3  C   UNL     1      -9.336  -8.191  -5.712  1.00  0.00     0.053 C 
BRANCH   3   4
ATOM      4  C   UNL     1      -9.481  -7.585  -7.072  1.00  0.00     0.041 C 
ATOM      5  O   UNL     1      -8.984  -8.158  -8.077  1.00  0.00    -0.550 OA
ATOM      6  O   UNL     1     -10.125  -6.363  -7.224  1.00  0.00    -0.550 OA
ENDBRANCH   3   4
ENDBRANCH   2   3
ENDBRANCH   1   2
BRANCH   1   7
ATOM      7  C   UNL     1      -6.370  -8.290  -4.875  1.00  0.00     0.000 C 
BRANCH   7   8
ATOM      8  C   UNL     1      -5.320  -8.421  -5.988  1.00  0.00    -0.000 C 
BRANCH   8   9
ATOM      9  C   UNL     1      -5.644  -7.549  -7.211  1.00  0.00    -0.003 C 
ATOM     10  C   UNL     1      -4.499  -7.500  -8.223  1.00  0.00     0.004 C 
ENDBRANCH   8   9
ENDBRANCH   7   8
ENDBRANCH   1   7
TORSDOF 6
ENDMDL
MODEL 6
REMARK VINA RESULT:    -2.905      2.401      4.491
REMARK INTER + INTRA:          -4.506
REMARK INTER:                  -4.240
REMARK INTRA:                  -0.266
REMARK UNBOUND:                -0.582
REMARK SMILES CCCCCCCC(=O)[O-]
REMARK SMILES IDX 5 1 6 2 7 3 8 4 9 5 10 6 4 7 3 8 2 9 1 10
REMARK H PARENT
REMARK Flexibility Score: inf
ROOT
ATOM      1  C   UNL     1      -7.565  -6.673  -4.860  1.00  0.00     0.000 C 
ENDROOT
BRANCH   1   2
ATOM      2  C   UNL     1      -6.975  -8.069  -5.114  1.00  0.00     0.006 C 
BRANCH   2   3
ATOM      3  C   UNL     1      -5.581  -8.015  -5.754  1.00  0.00     0.053 C 
BRANCH   3   4
ATOM      4  C   UNL     1      -5.695  -7.883  -7.240  1.00  0.00     0.041 C 
ATOM      5  O   UNL     1      -4.722  -7.455  -7.914  1.00  0.00    -0.550 OA
ATOM      6  O   UNL     1      -6.893  -8.187  -7.874  1.00  0.00    -0.550 OA
ENDBRANCH   3   4
ENDBRANCH   2   3
ENDBRANCH   1   2
BRANCH   1   7
ATOM      7  C   UNL     1      -8.957  -6.726  -4.211  1.00  0.00     0.000 C 
BRANCH   7   8
ATOM      8  C   UNL     1     -10.050  -6.370  -5.229  1.00  0.00    -0.000 C 
BRANCH   8   9
ATOM      9  C   UNL     1     -10.122  -7.372  -6.393  1.00  0.00    -0.003 C 
ATOM     10  C   UNL     1     -10.125  -6.690  -7.761  1.00  0.00     0.004 C 
ENDBRANCH   8   9
ENDBRANCH   7   8
ENDBRANCH   1   7
TORSDOF 6
ENDMDL
MODEL 7
REMARK VINA RESULT:    -2.899      1.362      2.404
REMARK INTER + INTRA:          -4.498
REMARK INTER:                  -4.117
REMARK INTRA:                  -0.382
REMARK UNBOUND:                -0.582
REMARK SMILES CCCCCCCC(=O)[O-]
REMARK SMILES IDX 5 1 6 2 7 3 8 4 9 5 10 6 4 7 3 8 2 9 1 10
REMARK H PARENT
REMARK Flexibility Score: inf
ROOT
ATOM      1  C   UNL     1      -6.166  -7.517  -5.315  1.00  0.00     0.000 C 
ENDROOT
BRANCH   1   2
ATOM      2  C   UNL     1      -7.551  -7.380  -5.965  1.00  0.00     0.006 C 
BRANCH   2   3
ATOM      3  C   UNL     1      -8.675  -7.950  -5.090  1.00  0.00     0.053 C 
BRANCH   3   4
ATOM      4  C   UNL     1      -9.395  -6.846  -4.382  1.00  0.00     0.041 C 
ATOM      5  O   UNL     1      -9.620  -5.757  -4.972  1.00  0.00    -0.550 OA
ATOM      6  O   UNL     1      -9.775  -7.003  -3.055  1.00  0.00    -0.550 OA
ENDBRANCH   3   4
ENDBRANCH   2   3
ENDBRANCH   1   2
BRANCH   1   7
ATOM      7  C   UNL     1      -5.148  -8.217  -6.228  1.00  0.00     0.000 C 
BRANCH   7   8
ATOM      8  C   UNL     1      -5.460  -7.944  -7.707  1.00  0.00    -0.000 C 
BRANCH   8   9
ATOM      9  C   UNL     1      -5.552  -9.233  -8.539  1.00  0.00    -0.003 C 
ATOM     10  C   UNL     1      -6.993  -9.672  -8.793  1.00  0.00     0.004 C 
ENDBRANCH   8   9
ENDBRANCH   7   8
ENDBRANCH   1   7
TORSDOF 6
ENDMDL
MODEL 8
REMARK VINA RESULT:    -2.599      2.606      3.938
REMARK INTER + INTRA:          -4.093
REMARK INTER:                  -3.518
REMARK INTRA:                  -0.575
REMARK UNBOUND:                -0.582
REMARK SMILES CCCCCCCC(=O)[O-]
REMARK SMILES IDX 5 1 6 2 7 3 8 4 9 5 10 6 4 7 3 8 2 9 1 10
REMARK H PARENT
REMARK Flexibility Score: inf
ROOT
ATOM      1  C   UNL     1      -7.321  -8.592  -5.230  1.00  0.00     0.000 C 
ENDROOT
BRANCH   1   2
ATOM      2  C   UNL     1      -7.577  -9.251  -6.594  1.00  0.00     0.006 C 
BRANCH   2   3
ATOM      3  C   UNL     1      -8.078  -8.253  -7.647  1.00  0.00     0.053 C 
BRANCH   3   4
ATOM      4  C   UNL     1      -9.478  -8.586  -8.056  1.00  0.00     0.041 C 
ATOM      5  O   UNL     1     -10.090  -7.853  -8.876  1.00  0.00    -0.550 OA
ATOM      6  O   UNL     1     -10.125  -9.679  -7.493  1.00  0.00    -0.550 OA
ENDBRANCH   3   4
ENDBRANCH   2   3
ENDBRANCH   1   2
BRANCH   1   7
ATOM      7  C   UNL     1      -6.872  -7.128  -5.353  1.00  0.00     0.000 C 
BRANCH   7   8
ATOM      8  C   UNL     1      -7.756  -6.209  -4.498  1.00  0.00    -0.000 C 
BRANCH   8   9
ATOM      9  C   UNL     1      -9.216  -6.686  -4.435  1.00  0.00    -0.003 C 
ATOM     10  C   UNL     1     -10.111  -5.987  -5.457  1.00  0.00     0.004 C 
ENDBRANCH   8   9
ENDBRANCH   7   8
ENDBRANCH   1   7
TORSDOF 6
ENDMDL
