MODEL 1
REMARK VINA RESULT:    -4.494      0.000      0.000
REMARK INTER + INTRA:          -5.939
REMARK INTER:                  -6.202
REMARK INTRA:                   0.263
REMARK UNBOUND:                 0.263
REMARK SMILES CC[C@H](CC[C@H](C)[C@@H]1CC[C@@H]2[C@H]3CC=C4C[C@@H](O)CC[C@]4(C)[C@@H]3CC[C@]21C)C(C)C
REMARK SMILES IDX 5 1 4 2 3 3 2 4 1 5 28 6 29 7 30 8 6 9 7 10 8 11 9 12 26 13
REMARK SMILES IDX 10 14 11 15 25 16 27 17 12 18 24 19 23 20 13 21 21 22 14 23
REMARK SMILES IDX 15 24 20 25 22 26 16 27 19 28 17 29 18 30
REMARK H PARENT 18 31
REMARK Flexibility Score: inf
ROOT
ATOM      1  C   UNL     1      40.961  10.279   1.424  1.00  0.00     0.004 C 
ENDROOT
BRANCH   1   2
ATOM      2  C   UNL     1      41.757  10.416   0.105  1.00  0.00     0.004 C 
BRANCH   2   3
ATOM      3  C   UNL     1      41.916   9.076  -0.669  1.00  0.00    -0.009 C 
BRANCH   3   4
ATOM      4  C   UNL     1      40.748   8.128  -0.269  1.00  0.00     0.000 C 
ATOM      5  C   UNL     1      41.175   6.904   0.542  1.00  0.00     0.004 C 
ENDBRANCH   3   4
BRANCH   3   6
ATOM      6  C   UNL     1      42.076   9.314  -2.215  1.00  0.00    -0.014 C 
ATOM      7  C   UNL     1      40.854   8.893  -3.049  1.00  0.00     0.007 C 
ATOM      8  C   UNL     1      43.362   8.693  -2.786  1.00  0.00     0.007 C 
ENDBRANCH   3   6
ENDBRANCH   2   3
ENDBRANCH   1   2
BRANCH   1   9
ATOM      9  C   UNL     1      41.137  11.471   2.408  1.00  0.00    -0.011 C 
ATOM     10  C   UNL     1      42.581  12.005   2.346  1.00  0.00     0.008 C 
BRANCH   9  11
ATOM     11  C   UNL     1      40.689  11.117   3.868  1.00  0.00    -0.002 C 
ATOM     12  C   UNL     1      41.863  10.577   4.731  1.00  0.00     0.005 C 
ATOM     13  C   UNL     1      39.573  10.044   4.062  1.00  0.00    -0.026 C 
ATOM     14  C   UNL     1      41.267   9.578   5.734  1.00  0.00     0.005 C 
ATOM     15  C   UNL     1      39.765   9.726   5.554  1.00  0.00    -0.001 C 
ATOM     16  C   UNL     1      38.119  10.554   3.902  1.00  0.00     0.007 C 
ATOM     17  C   UNL     1      39.830   8.813   3.133  1.00  0.00     0.012 C 
ATOM     18  C   UNL     1      38.848   8.596   6.074  1.00  0.00     0.000 C 
ATOM     19  C   UNL     1      37.097   9.501   4.390  1.00  0.00     0.005 C 
ATOM     20  C   UNL     1      37.363   9.003   5.849  1.00  0.00     0.003 C 
ATOM     21  C   UNL     1      39.063   8.387   7.579  1.00  0.00     0.031 C 
ATOM     22  C   UNL     1      36.359   7.882   6.349  1.00  0.00    -0.008 C 
ATOM     23  C   UNL     1      38.111   7.365   8.120  1.00  0.00    -0.027 C 
ATOM     24  C   UNL     1      36.878   7.158   7.607  1.00  0.00    -0.065 C 
ATOM     25  C   UNL     1      36.126   6.789   5.256  1.00  0.00     0.014 C 
ATOM     26  C   UNL     1      35.010   8.569   6.693  1.00  0.00     0.016 C 
ATOM     27  C   UNL     1      36.078   5.980   8.123  1.00  0.00     0.063 C 
ATOM     28  C   UNL     1      35.332   5.561   5.748  1.00  0.00     0.033 C 
ATOM     29  C   UNL     1      35.954   4.936   7.009  1.00  0.00     0.118 C 
BRANCH  29  30
ATOM     30  O   UNL     1      35.152   3.877   7.461  1.00  0.00    -0.393 OA
ATOM     31  H   UNL     1      35.134   3.935   8.452  1.00  0.00     0.210 HD
ENDBRANCH  29  30
ENDBRANCH   9  11
ENDBRANCH   1   9
TORSDOF 7
ENDMDL
MODEL 2
REMARK VINA RESULT:    -4.487      2.817      8.137
REMARK INTER + INTRA:          -5.930
REMARK INTER:                  -3.867
REMARK INTRA:                  -2.063
REMARK UNBOUND:                 0.263
REMARK SMILES CC[C@H](CC[C@H](C)[C@@H]1CC[C@@H]2[C@H]3CC=C4C[C@@H](O)CC[C@]4(C)[C@@H]3CC[C@]21C)C(C)C
REMARK SMILES IDX 5 1 4 2 3 3 2 4 1 5 28 6 29 7 30 8 6 9 7 10 8 11 9 12 26 13
REMARK SMILES IDX 10 14 11 15 25 16 27 17 12 18 24 19 23 20 13 21 21 22 14 23
REMARK SMILES IDX 15 24 20 25 22 26 16 27 19 28 17 29 18 30
REMARK H PARENT 18 31
REMARK Flexibility Score: inf
ROOT
ATOM      1  C   UNL     1      37.521   8.414   7.669  1.00  0.00     0.004 C 
ENDROOT
BRANCH   1   2
ATOM      2  C   UNL     1      36.211   7.596   7.747  1.00  0.00     0.004 C 
BRANCH   2   3
ATOM      3  C   UNL     1      35.065   8.169   6.865  1.00  0.00    -0.009 C 
BRANCH   3   4
ATOM      4  C   UNL     1      35.415   9.637   6.485  1.00  0.00     0.000 C 
ATOM      5  C   UNL     1      35.410   9.921   4.983  1.00  0.00     0.004 C 
ENDBRANCH   3   4
BRANCH   3   6
ATOM      6  C   UNL     1      34.743   7.227   5.648  1.00  0.00    -0.014 C 
ATOM      7  C   UNL     1      33.255   6.859   5.511  1.00  0.00     0.007 C 
ATOM      8  C   UNL     1      35.619   5.963   5.621  1.00  0.00     0.007 C 
ENDBRANCH   3   6
ENDBRANCH   2   3
ENDBRANCH   1   2
BRANCH   1   9
ATOM      9  C   UNL     1      38.698   7.678   6.967  1.00  0.00    -0.011 C 
ATOM     10  C   UNL     1      39.548   6.920   8.006  1.00  0.00     0.008 C 
BRANCH   9  11
ATOM     11  C   UNL     1      39.557   8.635   6.070  1.00  0.00    -0.002 C 
ATOM     12  C   UNL     1      39.044  10.100   6.110  1.00  0.00     0.005 C 
ATOM     13  C   UNL     1      39.659   8.327   4.544  1.00  0.00    -0.026 C 
ATOM     14  C   UNL     1      39.345  10.724   4.739  1.00  0.00     0.005 C 
ATOM     15  C   UNL     1      40.191   9.676   4.035  1.00  0.00    -0.001 C 
ATOM     16  C   UNL     1      40.707   7.259   4.144  1.00  0.00     0.007 C 
ATOM     17  C   UNL     1      38.253   7.963   3.964  1.00  0.00     0.012 C 
ATOM     18  C   UNL     1      40.327   9.754   2.497  1.00  0.00     0.000 C 
ATOM     19  C   UNL     1      40.930   7.236   2.614  1.00  0.00     0.005 C 
ATOM     20  C   UNL     1      41.294   8.634   2.015  1.00  0.00     0.003 C 
ATOM     21  C   UNL     1      40.919  11.108   2.083  1.00  0.00     0.031 C 
ATOM     22  C   UNL     1      41.473   8.644   0.439  1.00  0.00    -0.008 C 
ATOM     23  C   UNL     1      41.151  11.162   0.605  1.00  0.00    -0.027 C 
ATOM     24  C   UNL     1      41.445  10.073  -0.139  1.00  0.00    -0.065 C 
ATOM     25  C   UNL     1      40.339   7.839  -0.273  1.00  0.00     0.014 C 
ATOM     26  C   UNL     1      42.850   8.004   0.113  1.00  0.00     0.016 C 
ATOM     27  C   UNL     1      41.482  10.224  -1.645  1.00  0.00     0.063 C 
ATOM     28  C   UNL     1      40.330   7.984  -1.809  1.00  0.00     0.033 C 
ATOM     29  C   UNL     1      40.303   9.457  -2.253  1.00  0.00     0.118 C 
BRANCH  29  30
ATOM     30  O   UNL     1      40.377   9.536  -3.651  1.00  0.00    -0.393 OA
ATOM     31  H   UNL     1      39.628  10.117  -3.945  1.00  0.00     0.210 HD
ENDBRANCH  29  30
ENDBRANCH   9  11
ENDBRANCH   1   9
TORSDOF 7
ENDMDL
MODEL 3
REMARK VINA RESULT:    -4.405      8.279     14.192
REMARK INTER + INTRA:          -5.816
REMARK INTER:                  -6.119
REMARK INTRA:                   0.303
REMARK UNBOUND:                 0.263
REMARK SMILES CC[C@H](CC[C@H](C)[C@@H]1CC[C@@H]2[C@H]3CC=C4C[C@@H](O)CC[C@]4(C)[C@@H]3CC[C@]21C)C(C)C
REMARK SMILES IDX 5 1 4 2 3 3 2 4 1 5 28 6 29 7 30 8 6 9 7 10 8 11 9 12 26 13
REMARK SMILES IDX 10 14 11 15 25 16 27 17 12 18 24 19 23 20 13 21 21 22 14 23
REMARK SMILES IDX 15 24 20 25 22 26 16 27 19 28 17 29 18 30
REMARK H PARENT 18 31
REMARK Flexibility Score: inf
ROOT
ATOM      1  C   UNL     1      43.444   8.270  -6.733  1.00  0.00     0.004 C 
ENDROOT
BRANCH   1   2
ATOM      2  C   UNL     1      43.185   9.259  -5.571  1.00  0.00     0.004 C 
BRANCH   2   3
ATOM      3  C   UNL     1      42.572   8.589  -4.308  1.00  0.00    -0.009 C 
BRANCH   3   4
ATOM      4  C   UNL     1      43.618   8.644  -3.157  1.00  0.00     0.000 C 
ATOM      5  C   UNL     1      44.020  10.056  -2.732  1.00  0.00     0.004 C 
ENDBRANCH   3   4
BRANCH   3   6
ATOM      6  C   UNL     1      41.164   9.196  -3.955  1.00  0.00    -0.014 C 
ATOM      7  C   UNL     1      40.676   8.871  -2.533  1.00  0.00     0.007 C 
ATOM      8  C   UNL     1      40.085   8.845  -4.993  1.00  0.00     0.007 C 
ENDBRANCH   3   6
ENDBRANCH   2   3
ENDBRANCH   1   2
BRANCH   1   9
ATOM      9  C   UNL     1      43.966   8.935  -8.038  1.00  0.00    -0.011 C 
ATOM     10  C   UNL     1      44.120  10.456  -7.838  1.00  0.00     0.008 C 
BRANCH   9  11
ATOM     11  C   UNL     1      43.088   8.579  -9.288  1.00  0.00    -0.002 C 
ATOM     12  C   UNL     1      42.189   9.764  -9.735  1.00  0.00     0.005 C 
ATOM     13  C   UNL     1      42.088   7.387  -9.175  1.00  0.00    -0.026 C 
ATOM     14  C   UNL     1      40.909   9.163 -10.333  1.00  0.00     0.005 C 
ATOM     15  C   UNL     1      41.196   7.671 -10.395  1.00  0.00    -0.001 C 
ATOM     16  C   UNL     1      42.696   5.979  -9.391  1.00  0.00     0.007 C 
ATOM     17  C   UNL     1      41.312   7.450  -7.819  1.00  0.00     0.012 C 
ATOM     18  C   UNL     1      40.003   6.699 -10.536  1.00  0.00     0.000 C 
ATOM     19  C   UNL     1      41.593   4.908  -9.544  1.00  0.00     0.005 C 
ATOM     20  C   UNL     1      40.545   5.245 -10.655  1.00  0.00     0.003 C 
ATOM     21  C   UNL     1      39.205   7.017 -11.808  1.00  0.00     0.031 C 
ATOM     22  C   UNL     1      39.373   4.185 -10.792  1.00  0.00    -0.008 C 
ATOM     23  C   UNL     1      38.105   6.023 -12.014  1.00  0.00    -0.027 C 
ATOM     24  C   UNL     1      38.184   4.737 -11.604  1.00  0.00    -0.065 C 
ATOM     25  C   UNL     1      38.815   3.762  -9.395  1.00  0.00     0.014 C 
ATOM     26  C   UNL     1      39.939   2.940 -11.526  1.00  0.00     0.016 C 
ATOM     27  C   UNL     1      36.942   3.876 -11.709  1.00  0.00     0.063 C 
ATOM     28  C   UNL     1      37.536   2.900  -9.458  1.00  0.00     0.033 C 
ATOM     29  C   UNL     1      36.432   3.563 -10.299  1.00  0.00     0.118 C 
BRANCH  29  30
ATOM     30  O   UNL     1      35.325   2.706 -10.393  1.00  0.00    -0.393 OA
ATOM     31  H   UNL     1      35.266   2.219  -9.529  1.00  0.00     0.210 HD
ENDBRANCH  29  30
ENDBRANCH   9  11
ENDBRANCH   1   9
TORSDOF 7
ENDMDL
MODEL 4
REMARK VINA RESULT:    -3.876     13.501     16.326
REMARK INTER + INTRA:          -5.086
REMARK INTER:                  -4.552
REMARK INTRA:                  -0.535
REMARK UNBOUND:                 0.263
REMARK SMILES CC[C@H](CC[C@H](C)[C@@H]1CC[C@@H]2[C@H]3CC=C4C[C@@H](O)CC[C@]4(C)[C@@H]3CC[C@]21C)C(C)C
REMARK SMILES IDX 5 1 4 2 3 3 2 4 1 5 28 6 29 7 30 8 6 9 7 10 8 11 9 12 26 13
REMARK SMILES IDX 10 14 11 15 25 16 27 17 12 18 24 19 23 20 13 21 21 22 14 23
REMARK SMILES IDX 15 24 20 25 22 26 16 27 19 28 17 29 18 30
REMARK H PARENT 18 31
REMARK Flexibility Score: inf
ROOT
ATOM      1  C   UNL     1      39.898   2.136  -7.617  1.00  0.00     0.004 C 
ENDROOT
BRANCH   1   2
ATOM      2  C   UNL     1      38.947   1.139  -8.322  1.00  0.00     0.004 C 
BRANCH   2   3
ATOM      3  C   UNL     1      39.298   0.895  -9.817  1.00  0.00    -0.009 C 
BRANCH   3   4
ATOM      4  C   UNL     1      39.091  -0.614 -10.137  1.00  0.00     0.000 C 
ATOM      5  C   UNL     1      39.016  -1.519  -8.907  1.00  0.00     0.004 C 
ENDBRANCH   3   4
BRANCH   3   6
ATOM      6  C   UNL     1      38.525   1.885 -10.763  1.00  0.00    -0.014 C 
ATOM      7  C   UNL     1      39.415   2.586 -11.804  1.00  0.00     0.007 C 
ATOM      8  C   UNL     1      37.680   2.913  -9.992  1.00  0.00     0.007 C 
ENDBRANCH   3   6
ENDBRANCH   2   3
ENDBRANCH   1   2
BRANCH   1   9
ATOM      9  C   UNL     1      41.408   1.892  -7.899  1.00  0.00    -0.011 C 
ATOM     10  C   UNL     1      42.244   2.219  -6.646  1.00  0.00     0.008 C 
BRANCH   9  11
ATOM     11  C   UNL     1      41.913   2.653  -9.174  1.00  0.00    -0.002 C 
ATOM     12  C   UNL     1      43.406   2.359  -9.485  1.00  0.00     0.005 C 
ATOM     13  C   UNL     1      41.841   4.212  -9.183  1.00  0.00    -0.026 C 
ATOM     14  C   UNL     1      43.992   3.621 -10.135  1.00  0.00     0.005 C 
ATOM     15  C   UNL     1      42.784   4.515 -10.359  1.00  0.00    -0.001 C 
ATOM     16  C   UNL     1      40.464   4.817  -9.553  1.00  0.00     0.007 C 
ATOM     17  C   UNL     1      42.349   4.792  -7.823  1.00  0.00     0.012 C 
ATOM     18  C   UNL     1      43.021   6.024 -10.596  1.00  0.00     0.000 C 
ATOM     19  C   UNL     1      40.569   6.337  -9.813  1.00  0.00     0.005 C 
ATOM     20  C   UNL     1      41.654   6.715 -10.875  1.00  0.00     0.003 C 
ATOM     21  C   UNL     1      43.921   6.235 -11.821  1.00  0.00     0.031 C 
ATOM     22  C   UNL     1      41.817   8.274 -11.116  1.00  0.00    -0.008 C 
ATOM     23  C   UNL     1      44.079   7.693 -12.125  1.00  0.00    -0.027 C 
ATOM     24  C   UNL     1      43.126   8.612 -11.857  1.00  0.00    -0.065 C 
ATOM     25  C   UNL     1      41.835   9.066  -9.769  1.00  0.00     0.014 C 
ATOM     26  C   UNL     1      40.620   8.749 -11.984  1.00  0.00     0.016 C 
ATOM     27  C   UNL     1      43.471  10.075 -12.046  1.00  0.00     0.063 C 
ATOM     28  C   UNL     1      42.203  10.557  -9.917  1.00  0.00     0.033 C 
ATOM     29  C   UNL     1      43.527  10.755 -10.674  1.00  0.00     0.118 C 
BRANCH  29  30
ATOM     30  O   UNL     1      43.775  12.125 -10.852  1.00  0.00    -0.393 OA
ATOM     31  H   UNL     1      44.240  12.221 -11.724  1.00  0.00     0.210 HD
ENDBRANCH  29  30
ENDBRANCH   9  11
ENDBRANCH   1   9
TORSDOF 7
ENDMDL
MODEL 5
REMARK VINA RESULT:    -3.751      4.026      7.308
REMARK INTER + INTRA:          -4.913
REMARK INTER:                  -4.745
REMARK INTRA:                  -0.168
REMARK UNBOUND:                 0.263
REMARK SMILES CC[C@H](CC[C@H](C)[C@@H]1CC[C@@H]2[C@H]3CC=C4C[C@@H](O)CC[C@]4(C)[C@@H]3CC[C@]21C)C(C)C
REMARK SMILES IDX 5 1 4 2 3 3 2 4 1 5 28 6 29 7 30 8 6 9 7 10 8 11 9 12 26 13
REMARK SMILES IDX 10 14 11 15 25 16 27 17 12 18 24 19 23 20 13 21 21 22 14 23
REMARK SMILES IDX 15 24 20 25 22 26 16 27 19 28 17 29 18 30
REMARK H PARENT 18 31
REMARK Flexibility Score: inf
ROOT
ATOM      1  C   UNL     1      34.284   8.116   3.977  1.00  0.00     0.004 C 
ENDROOT
BRANCH   1   2
ATOM      2  C   UNL     1      33.213   9.206   4.216  1.00  0.00     0.004 C 
BRANCH   2   3
ATOM      3  C   UNL     1      33.625  10.610   3.689  1.00  0.00    -0.009 C 
BRANCH   3   4
ATOM      4  C   UNL     1      34.813  11.135   4.546  1.00  0.00     0.000 C 
ATOM      5  C   UNL     1      34.414  12.113   5.651  1.00  0.00     0.004 C 
ENDBRANCH   3   4
BRANCH   3   6
ATOM      6  C   UNL     1      33.882  10.595   2.137  1.00  0.00    -0.014 C 
ATOM      7  C   UNL     1      34.954  11.594   1.666  1.00  0.00     0.007 C 
ATOM      8  C   UNL     1      32.592  10.756   1.316  1.00  0.00     0.007 C 
ENDBRANCH   3   6
ENDBRANCH   2   3
ENDBRANCH   1   2
BRANCH   1   9
ATOM      9  C   UNL     1      34.118   6.847   4.862  1.00  0.00    -0.011 C 
ATOM     10  C   UNL     1      33.041   7.084   5.937  1.00  0.00     0.008 C 
BRANCH   9  11
ATOM     11  C   UNL     1      35.478   6.357   5.471  1.00  0.00    -0.002 C 
ATOM     12  C   UNL     1      35.333   5.899   6.948  1.00  0.00     0.005 C 
ATOM     13  C   UNL     1      36.673   7.358   5.517  1.00  0.00    -0.026 C 
ATOM     14  C   UNL     1      36.663   6.207   7.652  1.00  0.00     0.005 C 
ATOM     15  C   UNL     1      37.586   6.638   6.524  1.00  0.00    -0.001 C 
ATOM     16  C   UNL     1      37.485   7.494   4.204  1.00  0.00     0.007 C 
ATOM     17  C   UNL     1      36.194   8.760   6.015  1.00  0.00     0.012 C 
ATOM     18  C   UNL     1      38.865   7.428   6.883  1.00  0.00     0.000 C 
ATOM     19  C   UNL     1      38.798   8.276   4.434  1.00  0.00     0.005 C 
ATOM     20  C   UNL     1      39.681   7.689   5.584  1.00  0.00     0.003 C 
ATOM     21  C   UNL     1      39.741   6.612   7.842  1.00  0.00     0.031 C 
ATOM     22  C   UNL     1      41.008   8.509   5.873  1.00  0.00    -0.008 C 
ATOM     23  C   UNL     1      41.031   7.319   8.122  1.00  0.00    -0.027 C 
ATOM     24  C   UNL     1      41.635   8.137   7.231  1.00  0.00    -0.065 C 
ATOM     25  C   UNL     1      40.738  10.048   5.899  1.00  0.00     0.014 C 
ATOM     26  C   UNL     1      42.027   8.177   4.749  1.00  0.00     0.016 C 
ATOM     27  C   UNL     1      42.839   8.931   7.692  1.00  0.00     0.063 C 
ATOM     28  C   UNL     1      41.936  10.892   6.384  1.00  0.00     0.033 C 
ATOM     29  C   UNL     1      42.466  10.416   7.747  1.00  0.00     0.118 C 
BRANCH  29  30
ATOM     30  O   UNL     1      43.601  11.160   8.104  1.00  0.00    -0.393 OA
ATOM     31  H   UNL     1      43.469  11.450   9.044  1.00  0.00     0.210 HD
ENDBRANCH  29  30
ENDBRANCH   9  11
ENDBRANCH   1   9
TORSDOF 7
ENDMDL
MODEL 6
REMARK VINA RESULT:    -3.513      2.087      2.878
REMARK INTER + INTRA:          -4.586
REMARK INTER:                  -5.040
REMARK INTRA:                   0.454
REMARK UNBOUND:                 0.263
REMARK SMILES CC[C@H](CC[C@H](C)[C@@H]1CC[C@@H]2[C@H]3CC=C4C[C@@H](O)CC[C@]4(C)[C@@H]3CC[C@]21C)C(C)C
REMARK SMILES IDX 5 1 4 2 3 3 2 4 1 5 28 6 29 7 30 8 6 9 7 10 8 11 9 12 26 13
REMARK SMILES IDX 10 14 11 15 25 16 27 17 12 18 24 19 23 20 13 21 21 22 14 23
REMARK SMILES IDX 15 24 20 25 22 26 16 27 19 28 17 29 18 30
REMARK H PARENT 18 31
REMARK Flexibility Score: inf
ROOT
ATOM      1  C   UNL     1      42.452  10.835   4.367  1.00  0.00     0.004 C 
ENDROOT
BRANCH   1   2
ATOM      2  C   UNL     1      42.095  11.754   3.175  1.00  0.00     0.004 C 
BRANCH   2   3
ATOM      3  C   UNL     1      41.965  10.998   1.823  1.00  0.00    -0.009 C 
BRANCH   3   4
ATOM      4  C   UNL     1      40.881   9.891   1.972  1.00  0.00     0.000 C 
ATOM      5  C   UNL     1      41.209   8.582   1.255  1.00  0.00     0.004 C 
ENDBRANCH   3   4
BRANCH   3   6
ATOM      6  C   UNL     1      41.738  11.990   0.623  1.00  0.00    -0.014 C 
ATOM      7  C   UNL     1      40.465  11.711  -0.194  1.00  0.00     0.007 C 
ATOM      8  C   UNL     1      42.963  12.101  -0.300  1.00  0.00     0.007 C 
ENDBRANCH   3   6
ENDBRANCH   2   3
ENDBRANCH   1   2
BRANCH   1   9
ATOM      9  C   UNL     1      42.495  11.555   5.745  1.00  0.00    -0.011 C 
ATOM     10  C   UNL     1      43.813  11.234   6.475  1.00  0.00     0.008 C 
BRANCH   9  11
ATOM     11  C   UNL     1      41.232  11.249   6.623  1.00  0.00    -0.002 C 
ATOM     12  C   UNL     1      41.538  10.246   7.769  1.00  0.00     0.005 C 
ATOM     13  C   UNL     1      39.977  10.635   5.928  1.00  0.00    -0.026 C 
ATOM     14  C   UNL     1      40.256   9.437   8.019  1.00  0.00     0.005 C 
ATOM     15  C   UNL     1      39.210  10.130   7.162  1.00  0.00    -0.001 C 
ATOM     16  C   UNL     1      39.047  11.645   5.212  1.00  0.00     0.007 C 
ATOM     17  C   UNL     1      40.398   9.487   4.954  1.00  0.00     0.012 C 
ATOM     18  C   UNL     1      37.915   9.360   6.819  1.00  0.00     0.000 C 
ATOM     19  C   UNL     1      37.706  10.987   4.811  1.00  0.00     0.005 C 
ATOM     20  C   UNL     1      36.971  10.291   6.004  1.00  0.00     0.003 C 
ATOM     21  C   UNL     1      37.185   8.947   8.104  1.00  0.00     0.031 C 
ATOM     22  C   UNL     1      35.620   9.563   5.604  1.00  0.00    -0.008 C 
ATOM     23  C   UNL     1      35.878   8.288   7.791  1.00  0.00    -0.027 C 
ATOM     24  C   UNL     1      35.142   8.586   6.697  1.00  0.00    -0.065 C 
ATOM     25  C   UNL     1      35.782   8.734   4.289  1.00  0.00     0.014 C 
ATOM     26  C   UNL     1      34.533  10.652   5.403  1.00  0.00     0.016 C 
ATOM     27  C   UNL     1      33.930   7.730   6.396  1.00  0.00     0.063 C 
ATOM     28  C   UNL     1      34.575   7.832   3.957  1.00  0.00     0.033 C 
ATOM     29  C   UNL     1      34.201   6.910   5.130  1.00  0.00     0.118 C 
BRANCH  29  30
ATOM     30  O   UNL     1      33.052   6.171   4.809  1.00  0.00    -0.393 OA
ATOM     31  H   UNL     1      32.285   6.632   5.240  1.00  0.00     0.210 HD
ENDBRANCH  29  30
ENDBRANCH   9  11
ENDBRANCH   1   9
TORSDOF 7
ENDMDL
MODEL 7
REMARK VINA RESULT:    -3.420     12.712     14.652
REMARK INTER + INTRA:          -4.457
REMARK INTER:                  -4.486
REMARK INTRA:                   0.029
REMARK UNBOUND:                 0.263
REMARK SMILES CC[C@H](CC[C@H](C)[C@@H]1CC[C@@H]2[C@H]3CC=C4C[C@@H](O)CC[C@]4(C)[C@@H]3CC[C@]21C)C(C)C
REMARK SMILES IDX 5 1 4 2 3 3 2 4 1 5 28 6 29 7 30 8 6 9 7 10 8 11 9 12 26 13
REMARK SMILES IDX 10 14 11 15 25 16 27 17 12 18 24 19 23 20 13 21 21 22 14 23
REMARK SMILES IDX 15 24 20 25 22 26 16 27 19 28 17 29 18 30
REMARK H PARENT 18 31
REMARK Flexibility Score: inf
ROOT
ATOM      1  C   UNL     1      40.621   9.141 -11.915  1.00  0.00     0.004 C 
ENDROOT
BRANCH   1   2
ATOM      2  C   UNL     1      41.570  10.053 -11.103  1.00  0.00     0.004 C 
BRANCH   2   3
ATOM      3  C   UNL     1      42.972  10.230 -11.753  1.00  0.00    -0.009 C 
BRANCH   3   4
ATOM      4  C   UNL     1      43.409  11.716 -11.599  1.00  0.00     0.000 C 
ATOM      5  C   UNL     1      43.777  12.123 -10.172  1.00  0.00     0.004 C 
ENDBRANCH   3   4
BRANCH   3   6
ATOM      6  C   UNL     1      44.002   9.175 -11.207  1.00  0.00    -0.014 C 
ATOM      7  C   UNL     1      44.125   7.907 -12.071  1.00  0.00     0.007 C 
ATOM      8  C   UNL     1      43.758   8.807  -9.734  1.00  0.00     0.007 C 
ENDBRANCH   3   6
ENDBRANCH   2   3
ENDBRANCH   1   2
BRANCH   1   9
ATOM      9  C   UNL     1      39.506   8.460 -11.071  1.00  0.00    -0.011 C 
ATOM     10  C   UNL     1      39.491   9.036  -9.642  1.00  0.00     0.008 C 
BRANCH   9  11
ATOM     11  C   UNL     1      39.609   6.895 -11.087  1.00  0.00    -0.002 C 
ATOM     12  C   UNL     1      38.221   6.210 -10.963  1.00  0.00     0.005 C 
ATOM     13  C   UNL     1      40.459   6.198  -9.980  1.00  0.00    -0.026 C 
ATOM     14  C   UNL     1      38.434   4.884 -10.219  1.00  0.00     0.005 C 
ATOM     15  C   UNL     1      39.946   4.755 -10.119  1.00  0.00    -0.001 C 
ATOM     16  C   UNL     1      41.986   6.150 -10.237  1.00  0.00     0.007 C 
ATOM     17  C   UNL     1      40.155   6.825  -8.581  1.00  0.00     0.012 C 
ATOM     18  C   UNL     1      40.532   3.780  -9.074  1.00  0.00     0.000 C 
ATOM     19  C   UNL     1      42.694   5.201  -9.243  1.00  0.00     0.005 C 
ATOM     20  C   UNL     1      42.082   3.761  -9.211  1.00  0.00     0.003 C 
ATOM     21  C   UNL     1      40.014   2.357  -9.324  1.00  0.00     0.031 C 
ATOM     22  C   UNL     1      42.759   2.788  -8.158  1.00  0.00    -0.008 C 
ATOM     23  C   UNL     1      40.651   1.381  -8.384  1.00  0.00    -0.027 C 
ATOM     24  C   UNL     1      41.898   1.538  -7.888  1.00  0.00    -0.065 C 
ATOM     25  C   UNL     1      42.983   3.494  -6.782  1.00  0.00     0.014 C 
ATOM     26  C   UNL     1      44.125   2.332  -8.739  1.00  0.00     0.016 C 
ATOM     27  C   UNL     1      42.364   0.580  -6.810  1.00  0.00     0.063 C 
ATOM     28  C   UNL     1      43.439   2.549  -5.652  1.00  0.00     0.033 C 
ATOM     29  C   UNL     1      42.497   1.344  -5.488  1.00  0.00     0.118 C 
BRANCH  29  30
ATOM     30  O   UNL     1      42.998   0.476  -4.506  1.00  0.00    -0.393 OA
ATOM     31  H   UNL     1      42.691   0.829  -3.630  1.00  0.00     0.210 HD
ENDBRANCH  29  30
ENDBRANCH   9  11
ENDBRANCH   1   9
TORSDOF 7
ENDMDL
