MODEL 1
REMARK VINA RESULT:    -4.040      0.000      0.000
REMARK INTER + INTRA:          -5.160
REMARK INTER:                  -4.985
REMARK INTRA:                  -0.175
REMARK UNBOUND:                -0.175
REMARK SMILES CCCCC=CC(C)=O
REMARK SMILES IDX 4 1 3 2 2 3 1 4 5 5 6 6 7 7 9 8 8 9
REMARK H PARENT
REMARK Flexibility Score: inf
ROOT
ATOM      1  C   UNL     1      24.042  -4.551   8.570  1.00  0.00     0.027 C 
ENDROOT
BRANCH   1   2
ATOM      2  C   UNL     1      23.919  -6.042   8.920  1.00  0.00     0.004 C 
BRANCH   2   3
ATOM      3  C   UNL     1      22.895  -6.301  10.036  1.00  0.00    -0.003 C 
ATOM      4  C   UNL     1      22.627  -7.788  10.260  1.00  0.00     0.004 C 
ENDBRANCH   2   3
ENDBRANCH   1   2
BRANCH   1   5
ATOM      5  C   UNL     1      22.834  -4.070   7.817  1.00  0.00    -0.023 C 
ATOM      6  C   UNL     1      22.019  -3.139   8.327  1.00  0.00     0.042 C 
BRANCH   6   7
ATOM      7  C   UNL     1      20.821  -2.663   7.611  1.00  0.00     0.152 C 
ATOM      8  O   UNL     1      19.675  -2.770   8.128  1.00  0.00    -0.295 OA
ATOM      9  C   UNL     1      20.964  -2.049   6.256  1.00  0.00     0.093 C 
ENDBRANCH   6   7
ENDBRANCH   1   5
TORSDOF 4
ENDMDL
MODEL 2
REMARK VINA RESULT:    -3.848      2.240      5.007
REMARK INTER + INTRA:          -4.923
REMARK INTER:                  -4.704
REMARK INTRA:                  -0.219
REMARK UNBOUND:                -0.175
REMARK SMILES CCCCC=CC(C)=O
REMARK SMILES IDX 4 1 3 2 2 3 1 4 5 5 6 6 7 7 9 8 8 9
REMARK H PARENT
REMARK Flexibility Score: inf
ROOT
ATOM      1  C   UNL     1      23.026  -2.037   7.959  1.00  0.00     0.027 C 
ENDROOT
BRANCH   1   2
ATOM      2  C   UNL     1      22.632  -2.017   6.475  1.00  0.00     0.004 C 
BRANCH   2   3
ATOM      3  C   UNL     1      21.169  -1.597   6.260  1.00  0.00    -0.003 C 
ATOM      4  C   UNL     1      20.622  -0.750   7.408  1.00  0.00     0.004 C 
ENDBRANCH   2   3
ENDBRANCH   1   2
BRANCH   1   5
ATOM      5  C   UNL     1      23.570  -3.380   8.358  1.00  0.00    -0.023 C 
ATOM      6  C   UNL     1      22.775  -4.340   8.842  1.00  0.00     0.042 C 
BRANCH   6   7
ATOM      7  C   UNL     1      23.292  -5.659   9.252  1.00  0.00     0.152 C 
ATOM      8  O   UNL     1      24.318  -6.149   8.707  1.00  0.00    -0.295 OA
ATOM      9  C   UNL     1      22.588  -6.428  10.322  1.00  0.00     0.093 C 
ENDBRANCH   6   7
ENDBRANCH   1   5
TORSDOF 4
ENDMDL
MODEL 3
REMARK VINA RESULT:    -3.753      1.083      1.447
REMARK INTER + INTRA:          -4.805
REMARK INTER:                  -4.686
REMARK INTRA:                  -0.119
REMARK UNBOUND:                -0.175
REMARK SMILES CCCCC=CC(C)=O
REMARK SMILES IDX 4 1 3 2 2 3 1 4 5 5 6 6 7 7 9 8 8 9
REMARK H PARENT
REMARK Flexibility Score: inf
ROOT
ATOM      1  C   UNL     1      24.183  -4.646   8.633  1.00  0.00     0.027 C 
ENDROOT
BRANCH   1   2
ATOM      2  C   UNL     1      24.003  -6.160   8.819  1.00  0.00     0.004 C 
BRANCH   2   3
ATOM      3  C   UNL     1      25.114  -6.973   8.136  1.00  0.00    -0.003 C 
ATOM      4  C   UNL     1      25.088  -8.451   8.520  1.00  0.00     0.004 C 
ENDBRANCH   2   3
ENDBRANCH   1   2
BRANCH   1   5
ATOM      5  C   UNL     1      23.054  -4.060   7.835  1.00  0.00    -0.023 C 
ATOM      6  C   UNL     1      22.057  -3.389   8.422  1.00  0.00     0.042 C 
BRANCH   6   7
ATOM      7  C   UNL     1      20.932  -2.819   7.658  1.00  0.00     0.152 C 
ATOM      8  O   UNL     1      19.767  -2.802   8.140  1.00  0.00    -0.295 OA
ATOM      9  C   UNL     1      21.173  -2.257   6.295  1.00  0.00     0.093 C 
ENDBRANCH   6   7
ENDBRANCH   1   5
TORSDOF 4
ENDMDL
MODEL 4
REMARK VINA RESULT:    -3.714      2.262      4.812
REMARK INTER + INTRA:          -4.757
REMARK INTER:                  -4.572
REMARK INTRA:                  -0.186
REMARK UNBOUND:                -0.175
REMARK SMILES CCCCC=CC(C)=O
REMARK SMILES IDX 4 1 3 2 2 3 1 4 5 5 6 6 7 7 9 8 8 9
REMARK H PARENT
REMARK Flexibility Score: inf
ROOT
ATOM      1  C   UNL     1      24.165  -4.214   8.104  1.00  0.00     0.027 C 
ENDROOT
BRANCH   1   2
ATOM      2  C   UNL     1      23.294  -4.273   6.841  1.00  0.00     0.004 C 
BRANCH   2   3
ATOM      3  C   UNL     1      22.870  -2.878   6.354  1.00  0.00    -0.003 C 
ATOM      4  C   UNL     1      21.353  -2.696   6.327  1.00  0.00     0.004 C 
ENDBRANCH   2   3
ENDBRANCH   1   2
BRANCH   1   5
ATOM      5  C   UNL     1      23.972  -5.438   8.953  1.00  0.00    -0.023 C 
ATOM      6  C   UNL     1      22.842  -5.641   9.640  1.00  0.00     0.042 C 
BRANCH   6   7
ATOM      7  C   UNL     1      22.638  -6.829  10.490  1.00  0.00     0.152 C 
ATOM      8  O   UNL     1      22.439  -6.709  11.730  1.00  0.00    -0.295 OA
ATOM      9  C   UNL     1      22.672  -8.191   9.877  1.00  0.00     0.093 C 
ENDBRANCH   6   7
ENDBRANCH   1   5
TORSDOF 4
ENDMDL
MODEL 5
REMARK VINA RESULT:    -3.711      2.130      4.723
REMARK INTER + INTRA:          -4.754
REMARK INTER:                  -4.483
REMARK INTRA:                  -0.272
REMARK UNBOUND:                -0.175
REMARK SMILES CCCCC=CC(C)=O
REMARK SMILES IDX 4 1 3 2 2 3 1 4 5 5 6 6 7 7 9 8 8 9
REMARK H PARENT
REMARK Flexibility Score: inf
ROOT
ATOM      1  C   UNL     1      22.994  -2.218   8.423  1.00  0.00     0.027 C 
ENDROOT
BRANCH   1   2
ATOM      2  C   UNL     1      23.200  -2.030   6.912  1.00  0.00     0.004 C 
BRANCH   2   3
ATOM      3  C   UNL     1      21.911  -1.610   6.190  1.00  0.00    -0.003 C 
ATOM      4  C   UNL     1      20.727  -2.519   6.515  1.00  0.00     0.004 C 
ENDBRANCH   2   3
ENDBRANCH   1   2
BRANCH   1   5
ATOM      5  C   UNL     1      23.507  -3.554   8.878  1.00  0.00    -0.023 C 
ATOM      6  C   UNL     1      22.705  -4.622   8.952  1.00  0.00     0.042 C 
BRANCH   6   7
ATOM      7  C   UNL     1      23.184  -5.939   9.410  1.00  0.00     0.152 C 
ATOM      8  O   UNL     1      22.795  -6.423  10.508  1.00  0.00    -0.295 OA
ATOM      9  C   UNL     1      24.147  -6.710   8.566  1.00  0.00     0.093 C 
ENDBRANCH   6   7
ENDBRANCH   1   5
TORSDOF 4
ENDMDL
MODEL 6
REMARK VINA RESULT:    -3.627      1.883      2.524
REMARK INTER + INTRA:          -4.649
REMARK INTER:                  -4.468
REMARK INTRA:                  -0.181
REMARK UNBOUND:                -0.175
REMARK SMILES CCCCC=CC(C)=O
REMARK SMILES IDX 4 1 3 2 2 3 1 4 5 5 6 6 7 7 9 8 8 9
REMARK H PARENT
REMARK Flexibility Score: inf
ROOT
ATOM      1  C   UNL     1      25.134  -5.939   8.138  1.00  0.00     0.027 C 
ENDROOT
BRANCH   1   2
ATOM      2  C   UNL     1      24.246  -7.178   7.947  1.00  0.00     0.004 C 
BRANCH   2   3
ATOM      3  C   UNL     1      24.901  -8.460   8.482  1.00  0.00    -0.003 C 
ATOM      4  C   UNL     1      26.377  -8.573   8.104  1.00  0.00     0.004 C 
ENDBRANCH   2   3
ENDBRANCH   1   2
BRANCH   1   5
ATOM      5  C   UNL     1      24.328  -4.675   8.045  1.00  0.00    -0.023 C 
ATOM      6  C   UNL     1      23.138  -4.558   8.646  1.00  0.00     0.042 C 
BRANCH   6   7
ATOM      7  C   UNL     1      22.325  -3.332   8.555  1.00  0.00     0.152 C 
ATOM      8  O   UNL     1      21.066  -3.393   8.522  1.00  0.00    -0.295 OA
ATOM      9  C   UNL     1      23.000  -2.000   8.497  1.00  0.00     0.093 C 
ENDBRANCH   6   7
ENDBRANCH   1   5
TORSDOF 4
ENDMDL
MODEL 7
REMARK VINA RESULT:    -3.574      2.591      4.880
REMARK INTER + INTRA:          -4.584
REMARK INTER:                  -4.302
REMARK INTRA:                  -0.282
REMARK UNBOUND:                -0.175
REMARK SMILES CCCCC=CC(C)=O
REMARK SMILES IDX 4 1 3 2 2 3 1 4 5 5 6 6 7 7 9 8 8 9
REMARK H PARENT
REMARK Flexibility Score: inf
ROOT
ATOM      1  C   UNL     1      22.974  -2.343   8.798  1.00  0.00     0.027 C 
ENDROOT
BRANCH   1   2
ATOM      2  C   UNL     1      22.864  -1.433   7.565  1.00  0.00     0.004 C 
BRANCH   2   3
ATOM      3  C   UNL     1      21.407  -1.100   7.209  1.00  0.00    -0.003 C 
ATOM      4  C   UNL     1      20.928  -1.810   5.944  1.00  0.00     0.004 C 
ENDBRANCH   2   3
ENDBRANCH   1   2
BRANCH   1   5
ATOM      5  C   UNL     1      23.641  -3.644   8.454  1.00  0.00    -0.023 C 
ATOM      6  C   UNL     1      23.114  -4.482   7.553  1.00  0.00     0.042 C 
BRANCH   6   7
ATOM      7  C   UNL     1      23.745  -5.771   7.211  1.00  0.00     0.152 C 
ATOM      8  O   UNL     1      23.260  -6.507   6.310  1.00  0.00    -0.295 OA
ATOM      9  C   UNL     1      24.970  -6.211   7.944  1.00  0.00     0.093 C 
ENDBRANCH   6   7
ENDBRANCH   1   5
TORSDOF 4
ENDMDL
MODEL 8
REMARK VINA RESULT:    -3.417     10.338     11.652
REMARK INTER + INTRA:          -4.391
REMARK INTER:                  -4.117
REMARK INTRA:                  -0.274
REMARK UNBOUND:                -0.175
REMARK SMILES CCCCC=CC(C)=O
REMARK SMILES IDX 4 1 3 2 2 3 1 4 5 5 6 6 7 7 9 8 8 9
REMARK H PARENT
REMARK Flexibility Score: inf
ROOT
ATOM      1  C   UNL     1      16.206  -5.596  16.353  1.00  0.00     0.027 C 
ENDROOT
BRANCH   1   2
ATOM      2  C   UNL     1      15.006  -6.345  15.757  1.00  0.00     0.004 C 
BRANCH   2   3
ATOM      3  C   UNL     1      13.862  -6.523  16.767  1.00  0.00    -0.003 C 
ATOM      4  C   UNL     1      13.884  -7.887  17.454  1.00  0.00     0.004 C 
ENDBRANCH   2   3
ENDBRANCH   1   2
BRANCH   1   5
ATOM      5  C   UNL     1      17.293  -6.550  16.761  1.00  0.00    -0.023 C 
ATOM      6  C   UNL     1      17.604  -6.746  18.047  1.00  0.00     0.042 C 
BRANCH   6   7
ATOM      7  C   UNL     1      18.676  -7.667  18.468  1.00  0.00     0.152 C 
ATOM      8  O   UNL     1      18.716  -8.117  19.646  1.00  0.00    -0.295 OA
ATOM      9  C   UNL     1      19.731  -8.069  17.489  1.00  0.00     0.093 C 
ENDBRANCH   6   7
ENDBRANCH   1   5
TORSDOF 4
ENDMDL
MODEL 9
REMARK VINA RESULT:    -3.354      3.043      5.488
REMARK INTER + INTRA:          -4.313
REMARK INTER:                  -4.165
REMARK INTRA:                  -0.148
REMARK UNBOUND:                -0.175
REMARK SMILES CCCCC=CC(C)=O
REMARK SMILES IDX 4 1 3 2 2 3 1 4 5 5 6 6 7 7 9 8 8 9
REMARK H PARENT
REMARK Flexibility Score: inf
ROOT
ATOM      1  C   UNL     1      22.820  -4.355   8.843  1.00  0.00     0.027 C 
ENDROOT
BRANCH   1   2
ATOM      2  C   UNL     1      22.779  -3.002   8.118  1.00  0.00     0.004 C 
BRANCH   2   3
ATOM      3  C   UNL     1      22.265  -3.123   6.675  1.00  0.00    -0.003 C 
ATOM      4  C   UNL     1      21.553  -1.860   6.192  1.00  0.00     0.004 C 
ENDBRANCH   2   3
ENDBRANCH   1   2
BRANCH   1   5
ATOM      5  C   UNL     1      24.170  -5.001   8.708  1.00  0.00    -0.023 C 
ATOM      6  C   UNL     1      24.347  -6.104   7.971  1.00  0.00     0.042 C 
BRANCH   6   7
ATOM      7  C   UNL     1      25.660  -6.761   7.837  1.00  0.00     0.152 C 
ATOM      8  O   UNL     1      26.666  -6.118   7.430  1.00  0.00    -0.295 OA
ATOM      9  C   UNL     1      25.801  -8.207   8.184  1.00  0.00     0.093 C 
ENDBRANCH   6   7
ENDBRANCH   1   5
TORSDOF 4
ENDMDL
