MODEL 1
REMARK VINA RESULT:    -6.943      0.000      0.000
REMARK INTER + INTRA:          -7.549
REMARK INTER:                  -7.349
REMARK INTRA:                  -0.200
REMARK UNBOUND:                -0.200
REMARK SMILES CC1=CC[C@H](C(C)C)C=C1
REMARK SMILES IDX 1 1 2 2 3 3 4 4 5 5 9 6 10 7 6 8 7 9 8 10
REMARK H PARENT
REMARK Flexibility Score: inf
ROOT
ATOM      1  C   UNL     1      -1.457 -18.014  13.603  1.00  0.00     0.044 C 
ATOM      2  C   UNL     1      -0.155 -18.089  14.343  1.00  0.00    -0.055 C 
ATOM      3  C   UNL     1      -0.080 -17.702  15.626  1.00  0.00    -0.023 C 
ATOM      4  C   UNL     1       1.247 -17.640  16.336  1.00  0.00     0.035 C 
ATOM      5  C   UNL     1       2.207 -18.751  15.834  1.00  0.00     0.018 C 
ATOM      6  C   UNL     1       2.197 -18.766  14.315  1.00  0.00    -0.023 C 
ATOM      7  C   UNL     1       1.072 -18.512  13.637  1.00  0.00    -0.001 C 
ENDROOT
BRANCH   5   8
ATOM      8  C   UNL     1       3.658 -18.603  16.393  1.00  0.00    -0.010 C 
ATOM      9  C   UNL     1       3.832 -17.267  17.142  1.00  0.00     0.008 C 
ATOM     10  C   UNL     1       4.727 -18.687  15.289  1.00  0.00     0.008 C 
ENDBRANCH   5   8
TORSDOF 1
ENDMDL
MODEL 2
REMARK VINA RESULT:    -6.445      1.348      4.831
REMARK INTER + INTRA:          -7.021
REMARK INTER:                  -6.822
REMARK INTRA:                  -0.199
REMARK UNBOUND:                -0.200
REMARK SMILES CC1=CC[C@H](C(C)C)C=C1
REMARK SMILES IDX 1 1 2 2 3 3 4 4 5 5 9 6 10 7 6 8 7 9 8 10
REMARK H PARENT
REMARK Flexibility Score: inf
ROOT
ATOM      1  C   UNL     1       6.280 -15.855  17.501  1.00  0.00     0.044 C 
ATOM      2  C   UNL     1       5.157 -16.585  16.829  1.00  0.00    -0.055 C 
ATOM      3  C   UNL     1       5.366 -17.241  15.677  1.00  0.00    -0.023 C 
ATOM      4  C   UNL     1       4.218 -17.859  14.922  1.00  0.00     0.035 C 
ATOM      5  C   UNL     1       3.124 -18.381  15.889  1.00  0.00     0.018 C 
ATOM      6  C   UNL     1       2.820 -17.307  16.921  1.00  0.00    -0.023 C 
ATOM      7  C   UNL     1       3.792 -16.518  17.391  1.00  0.00    -0.001 C 
ENDROOT
BRANCH   5   8
ATOM      8  C   UNL     1       1.828 -18.845  15.151  1.00  0.00    -0.010 C 
ATOM      9  C   UNL     1       1.989 -18.737  13.623  1.00  0.00     0.008 C 
ATOM     10  C   UNL     1       0.588 -18.034  15.570  1.00  0.00     0.008 C 
ENDBRANCH   5   8
TORSDOF 1
ENDMDL
MODEL 3
REMARK VINA RESULT:    -6.207      0.949      4.340
REMARK INTER + INTRA:          -6.770
REMARK INTER:                  -6.652
REMARK INTRA:                  -0.118
REMARK UNBOUND:                -0.200
REMARK SMILES CC1=CC[C@H](C(C)C)C=C1
REMARK SMILES IDX 1 1 2 2 3 3 4 4 5 5 9 6 10 7 6 8 7 9 8 10
REMARK H PARENT
REMARK Flexibility Score: inf
ROOT
ATOM      1  C   UNL     1       4.599 -18.606  15.455  1.00  0.00     0.044 C 
ATOM      2  C   UNL     1       3.117 -18.488  15.255  1.00  0.00    -0.055 C 
ATOM      3  C   UNL     1       2.333 -18.034  16.245  1.00  0.00    -0.023 C 
ATOM      4  C   UNL     1       0.833 -18.043  16.105  1.00  0.00     0.035 C 
ATOM      5  C   UNL     1       0.403 -17.790  14.636  1.00  0.00     0.018 C 
ATOM      6  C   UNL     1       1.223 -18.681  13.718  1.00  0.00    -0.023 C 
ATOM      7  C   UNL     1       2.504 -18.948  13.992  1.00  0.00    -0.001 C 
ENDROOT
BRANCH   5   8
ATOM      8  C   UNL     1      -1.129 -17.990  14.405  1.00  0.00    -0.010 C 
ATOM      9  C   UNL     1      -1.563 -17.435  13.035  1.00  0.00     0.008 C 
ATOM     10  C   UNL     1      -1.983 -17.318  15.497  1.00  0.00     0.008 C 
ENDBRANCH   5   8
TORSDOF 1
ENDMDL
MODEL 4
REMARK VINA RESULT:    -6.050      7.146      9.519
REMARK INTER + INTRA:          -6.604
REMARK INTER:                  -6.406
REMARK INTRA:                  -0.198
REMARK UNBOUND:                -0.200
REMARK SMILES CC1=CC[C@H](C(C)C)C=C1
REMARK SMILES IDX 1 1 2 2 3 3 4 4 5 5 9 6 10 7 6 8 7 9 8 10
REMARK H PARENT
REMARK Flexibility Score: inf
ROOT
ATOM      1  C   UNL     1      -5.378 -15.384   5.275  1.00  0.00     0.044 C 
ATOM      2  C   UNL     1      -4.510 -15.260   6.492  1.00  0.00    -0.055 C 
ATOM      3  C   UNL     1      -3.821 -16.318   6.945  1.00  0.00    -0.023 C 
ATOM      4  C   UNL     1      -3.059 -16.244   8.243  1.00  0.00     0.035 C 
ATOM      5  C   UNL     1      -2.483 -14.823   8.476  1.00  0.00     0.018 C 
ATOM      6  C   UNL     1      -3.573 -13.796   8.215  1.00  0.00    -0.023 C 
ATOM      7  C   UNL     1      -4.474 -13.989   7.246  1.00  0.00    -0.001 C 
ENDROOT
BRANCH   5   8
ATOM      8  C   UNL     1      -1.860 -14.643   9.898  1.00  0.00    -0.010 C 
ATOM      9  C   UNL     1      -2.696 -15.371  10.968  1.00  0.00     0.008 C 
ATOM     10  C   UNL     1      -1.731 -13.163  10.303  1.00  0.00     0.008 C 
ENDBRANCH   5   8
TORSDOF 1
ENDMDL
MODEL 5
REMARK VINA RESULT:    -6.010      6.207      9.592
REMARK INTER + INTRA:          -6.561
REMARK INTER:                  -6.364
REMARK INTRA:                  -0.197
REMARK UNBOUND:                -0.200
REMARK SMILES CC1=CC[C@H](C(C)C)C=C1
REMARK SMILES IDX 1 1 2 2 3 3 4 4 5 5 9 6 10 7 6 8 7 9 8 10
REMARK H PARENT
REMARK Flexibility Score: inf
ROOT
ATOM      1  C   UNL     1      -2.379 -16.104  12.284  1.00  0.00     0.044 C 
ATOM      2  C   UNL     1      -2.829 -15.676  10.919  1.00  0.00    -0.055 C 
ATOM      3  C   UNL     1      -2.229 -14.650  10.297  1.00  0.00    -0.023 C 
ATOM      4  C   UNL     1      -2.762 -14.122   8.990  1.00  0.00     0.035 C 
ATOM      5  C   UNL     1      -3.375 -15.260   8.132  1.00  0.00     0.018 C 
ATOM      6  C   UNL     1      -4.293 -16.100   9.004  1.00  0.00    -0.023 C 
ATOM      7  C   UNL     1      -3.993 -16.332  10.287  1.00  0.00    -0.001 C 
ENDROOT
BRANCH   5   8
ATOM      8  C   UNL     1      -4.119 -14.734   6.863  1.00  0.00    -0.010 C 
ATOM      9  C   UNL     1      -5.015 -13.527   7.203  1.00  0.00     0.008 C 
ATOM     10  C   UNL     1      -4.990 -15.816   6.198  1.00  0.00     0.008 C 
ENDBRANCH   5   8
TORSDOF 1
ENDMDL
MODEL 6
REMARK VINA RESULT:    -5.931      6.856      8.987
REMARK INTER + INTRA:          -6.477
REMARK INTER:                  -6.280
REMARK INTRA:                  -0.198
REMARK UNBOUND:                -0.200
REMARK SMILES CC1=CC[C@H](C(C)C)C=C1
REMARK SMILES IDX 1 1 2 2 3 3 4 4 5 5 9 6 10 7 6 8 7 9 8 10
REMARK H PARENT
REMARK Flexibility Score: inf
ROOT
ATOM      1  C   UNL     1      -5.379 -15.692   5.777  1.00  0.00     0.044 C 
ATOM      2  C   UNL     1      -4.659 -15.577   7.088  1.00  0.00    -0.055 C 
ATOM      3  C   UNL     1      -4.985 -16.378   8.114  1.00  0.00    -0.023 C 
ATOM      4  C   UNL     1      -4.369 -16.179   9.474  1.00  0.00     0.035 C 
ATOM      5  C   UNL     1      -2.908 -15.668   9.361  1.00  0.00     0.018 C 
ATOM      6  C   UNL     1      -2.860 -14.520   8.366  1.00  0.00    -0.023 C 
ATOM      7  C   UNL     1      -3.642 -14.523   7.281  1.00  0.00    -0.001 C 
ENDROOT
BRANCH   5   8
ATOM      8  C   UNL     1      -2.298 -15.256  10.738  1.00  0.00    -0.010 C 
ATOM      9  C   UNL     1      -3.217 -15.673  11.902  1.00  0.00     0.008 C 
ATOM     10  C   UNL     1      -2.038 -13.741  10.839  1.00  0.00     0.008 C 
ENDBRANCH   5   8
TORSDOF 1
ENDMDL
MODEL 7
REMARK VINA RESULT:    -5.910      6.460      9.244
REMARK INTER + INTRA:          -6.455
REMARK INTER:                  -6.318
REMARK INTRA:                  -0.137
REMARK UNBOUND:                -0.200
REMARK SMILES CC1=CC[C@H](C(C)C)C=C1
REMARK SMILES IDX 1 1 2 2 3 3 4 4 5 5 9 6 10 7 6 8 7 9 8 10
REMARK H PARENT
REMARK Flexibility Score: inf
ROOT
ATOM      1  C   UNL     1      -5.382 -15.381   5.371  1.00  0.00     0.044 C 
ATOM      2  C   UNL     1      -4.900 -15.446   6.790  1.00  0.00    -0.055 C 
ATOM      3  C   UNL     1      -5.379 -16.378   7.627  1.00  0.00    -0.023 C 
ATOM      4  C   UNL     1      -5.008 -16.366   9.088  1.00  0.00     0.035 C 
ATOM      5  C   UNL     1      -3.561 -15.848   9.297  1.00  0.00     0.018 C 
ATOM      6  C   UNL     1      -3.368 -14.575   8.489  1.00  0.00    -0.023 C 
ATOM      7  C   UNL     1      -3.953 -14.430   7.295  1.00  0.00    -0.001 C 
ENDROOT
BRANCH   5   8
ATOM      8  C   UNL     1      -3.204 -15.626  10.802  1.00  0.00    -0.010 C 
ATOM      9  C   UNL     1      -2.339 -14.365  10.988  1.00  0.00     0.008 C 
ATOM     10  C   UNL     1      -2.457 -16.826  11.413  1.00  0.00     0.008 C 
ENDBRANCH   5   8
TORSDOF 1
ENDMDL
MODEL 8
REMARK VINA RESULT:    -5.884      6.738      9.307
REMARK INTER + INTRA:          -6.428
REMARK INTER:                  -6.302
REMARK INTRA:                  -0.125
REMARK UNBOUND:                -0.200
REMARK SMILES CC1=CC[C@H](C(C)C)C=C1
REMARK SMILES IDX 1 1 2 2 3 3 4 4 5 5 9 6 10 7 6 8 7 9 8 10
REMARK H PARENT
REMARK Flexibility Score: inf
ROOT
ATOM      1  C   UNL     1      -5.380 -15.381   5.343  1.00  0.00     0.044 C 
ATOM      2  C   UNL     1      -4.575 -15.246   6.601  1.00  0.00    -0.055 C 
ATOM      3  C   UNL     1      -4.441 -14.052   7.197  1.00  0.00    -0.023 C 
ATOM      4  C   UNL     1      -3.522 -13.878   8.378  1.00  0.00     0.035 C 
ATOM      5  C   UNL     1      -3.484 -15.158   9.254  1.00  0.00     0.018 C 
ATOM      6  C   UNL     1      -3.291 -16.369   8.357  1.00  0.00    -0.023 C 
ATOM      7  C   UNL     1      -3.856 -16.417   7.145  1.00  0.00    -0.001 C 
ENDROOT
BRANCH   5   8
ATOM      8  C   UNL     1      -2.396 -15.099  10.374  1.00  0.00    -0.010 C 
ATOM      9  C   UNL     1      -2.905 -15.741  11.679  1.00  0.00     0.008 C 
ATOM     10  C   UNL     1      -1.942 -13.660  10.681  1.00  0.00     0.008 C 
ENDBRANCH   5   8
TORSDOF 1
ENDMDL
MODEL 9
REMARK VINA RESULT:    -5.805      7.216      9.184
REMARK INTER + INTRA:          -6.344
REMARK INTER:                  -6.146
REMARK INTRA:                  -0.198
REMARK UNBOUND:                -0.200
REMARK SMILES CC1=CC[C@H](C(C)C)C=C1
REMARK SMILES IDX 1 1 2 2 3 3 4 4 5 5 9 6 10 7 6 8 7 9 8 10
REMARK H PARENT
REMARK Flexibility Score: inf
ROOT
ATOM      1  C   UNL     1      -1.327 -12.740  10.579  1.00  0.00     0.044 C 
ATOM      2  C   UNL     1      -2.031 -13.831   9.829  1.00  0.00    -0.055 C 
ATOM      3  C   UNL     1      -2.743 -13.548   8.728  1.00  0.00    -0.023 C 
ATOM      4  C   UNL     1      -3.567 -14.610   8.048  1.00  0.00     0.035 C 
ATOM      5  C   UNL     1      -2.895 -16.004   8.164  1.00  0.00     0.018 C 
ATOM      6  C   UNL     1      -2.465 -16.230   9.604  1.00  0.00    -0.023 C 
ATOM      7  C   UNL     1      -2.010 -15.215  10.347  1.00  0.00    -0.001 C 
ENDROOT
BRANCH   5   8
ATOM      8  C   UNL     1      -3.806 -17.165   7.652  1.00  0.00    -0.010 C 
ATOM      9  C   UNL     1      -5.289 -16.890   7.969  1.00  0.00     0.008 C 
ATOM     10  C   UNL     1      -3.422 -18.527   8.258  1.00  0.00     0.008 C 
ENDBRANCH   5   8
TORSDOF 1
ENDMDL
