MODEL 1
REMARK VINA RESULT:    -5.290      0.000      0.000
REMARK INTER + INTRA:          -5.849
REMARK INTER:                  -5.600
REMARK INTRA:                  -0.249
REMARK UNBOUND:                -0.249
REMARK SMILES O=c1cc(-c2ccccc2)oc2ccccc12
REMARK SMILES IDX 4 1 3 2 2 3 1 4 17 5 16 6 15 7 14 8 13 9 12 10 11 11 5 12
REMARK SMILES IDX 8 13 7 14 9 15 6 16 10 17
REMARK H PARENT
REMARK Flexibility Score: inf
ROOT
ATOM      1  C   UNL     1      13.983  -6.434   9.053  1.00  0.00     0.138 A 
ATOM      2  C   UNL     1      14.890  -5.390   8.769  1.00  0.00     0.100 A 
ATOM      3  C   UNL     1      14.402  -4.116   8.471  1.00  0.00     0.193 A 
ATOM      4  O   UNL     1      15.213  -3.184   8.217  1.00  0.00    -0.289 OA
ATOM      5  C   UNL     1      13.019  -3.893   8.458  1.00  0.00     0.065 A 
ATOM      6  C   UNL     1      12.462  -2.633   8.165  1.00  0.00     0.016 A 
ATOM      7  C   UNL     1      11.074  -2.465   8.166  1.00  0.00     0.001 A 
ATOM      8  C   UNL     1      10.234  -3.545   8.457  1.00  0.00     0.004 A 
ATOM      9  C   UNL     1      10.778  -4.799   8.749  1.00  0.00     0.048 A 
ATOM     10  C   UNL     1      12.167  -4.978   8.751  1.00  0.00     0.138 A 
ATOM     11  O   UNL     1      12.675  -6.174   9.030  1.00  0.00    -0.456 OA
ENDROOT
BRANCH   1  12
ATOM     12  C   UNL     1      14.420  -7.825   9.383  1.00  0.00     0.017 A 
ATOM     13  C   UNL     1      15.318 -10.414  10.058  1.00  0.00     0.000 A 
ATOM     14  C   UNL     1      15.999  -9.294  10.533  1.00  0.00     0.001 A 
ATOM     15  C   UNL     1      14.194 -10.254   9.250  1.00  0.00     0.001 A 
ATOM     16  C   UNL     1      15.556  -8.010  10.199  1.00  0.00     0.012 A 
ATOM     17  C   UNL     1      13.744  -8.974   8.911  1.00  0.00     0.012 A 
ENDBRANCH   1  12
TORSDOF 1
ENDMDL
MODEL 2
REMARK VINA RESULT:    -5.094     12.957     13.405
REMARK INTER + INTRA:          -5.641
REMARK INTER:                  -5.381
REMARK INTRA:                  -0.261
REMARK UNBOUND:                -0.249
REMARK SMILES O=c1cc(-c2ccccc2)oc2ccccc12
REMARK SMILES IDX 4 1 3 2 2 3 1 4 17 5 16 6 15 7 14 8 13 9 12 10 11 11 5 12
REMARK SMILES IDX 8 13 7 14 9 15 6 16 10 17
REMARK H PARENT
REMARK Flexibility Score: inf
ROOT
ATOM      1  C   UNL     1      20.227  -2.748  19.912  1.00  0.00     0.138 A 
ATOM      2  C   UNL     1      19.152  -2.831  20.823  1.00  0.00     0.100 A 
ATOM      3  C   UNL     1      18.282  -1.749  20.964  1.00  0.00     0.193 A 
ATOM      4  O   UNL     1      17.322  -1.824  21.779  1.00  0.00    -0.289 OA
ATOM      5  C   UNL     1      18.488  -0.594  20.197  1.00  0.00     0.065 A 
ATOM      6  C   UNL     1      17.648   0.532  20.290  1.00  0.00     0.016 A 
ATOM      7  C   UNL     1      17.900   1.659  19.502  1.00  0.00     0.001 A 
ATOM      8  C   UNL     1      18.983   1.673  18.618  1.00  0.00     0.004 A 
ATOM      9  C   UNL     1      19.822   0.559  18.519  1.00  0.00     0.048 A 
ATOM     10  C   UNL     1      19.580  -0.574  19.304  1.00  0.00     0.138 A 
ATOM     11  O   UNL     1      20.383  -1.629  19.203  1.00  0.00    -0.456 OA
ENDROOT
BRANCH   1  12
ATOM     12  C   UNL     1      21.203  -3.860  19.700  1.00  0.00     0.017 A 
ATOM     13  C   UNL     1      23.021  -5.995  19.385  1.00  0.00     0.000 A 
ATOM     14  C   UNL     1      22.258  -5.894  20.548  1.00  0.00     0.001 A 
ATOM     15  C   UNL     1      22.885  -5.041  18.379  1.00  0.00     0.001 A 
ATOM     16  C   UNL     1      21.357  -4.837  20.705  1.00  0.00     0.012 A 
ATOM     17  C   UNL     1      21.986  -3.980  18.529  1.00  0.00     0.012 A 
ENDBRANCH   1  12
TORSDOF 1
ENDMDL
MODEL 3
REMARK VINA RESULT:    -5.091      1.732      6.087
REMARK INTER + INTRA:          -5.638
REMARK INTER:                  -5.405
REMARK INTRA:                  -0.233
REMARK UNBOUND:                -0.249
REMARK SMILES O=c1cc(-c2ccccc2)oc2ccccc12
REMARK SMILES IDX 4 1 3 2 2 3 1 4 17 5 16 6 15 7 14 8 13 9 12 10 11 11 5 12
REMARK SMILES IDX 8 13 7 14 9 15 6 16 10 17
REMARK H PARENT
REMARK Flexibility Score: inf
ROOT
ATOM      1  C   UNL     1      14.191  -7.076   9.147  1.00  0.00     0.138 A 
ATOM      2  C   UNL     1      15.225  -7.545   9.986  1.00  0.00     0.100 A 
ATOM      3  C   UNL     1      15.462  -8.917  10.085  1.00  0.00     0.193 A 
ATOM      4  O   UNL     1      16.387  -9.336  10.835  1.00  0.00    -0.289 OA
ATOM      5  C   UNL     1      14.671  -9.810   9.350  1.00  0.00     0.065 A 
ATOM      6  C   UNL     1      14.858 -11.204   9.405  1.00  0.00     0.016 A 
ATOM      7  C   UNL     1      14.038 -12.050   8.650  1.00  0.00     0.001 A 
ATOM      8  C   UNL     1      13.033 -11.515   7.839  1.00  0.00     0.004 A 
ATOM      9  C   UNL     1      12.840 -10.132   7.778  1.00  0.00     0.048 A 
ATOM     10  C   UNL     1      13.654  -9.277   8.530  1.00  0.00     0.138 A 
ATOM     11  O   UNL     1      13.463  -7.962   8.466  1.00  0.00    -0.456 OA
ENDROOT
BRANCH   1  12
ATOM     12  C   UNL     1      13.871  -5.625   8.983  1.00  0.00     0.017 A 
ATOM     13  C   UNL     1      13.178  -2.903   8.711  1.00  0.00     0.000 A 
ATOM     14  C   UNL     1      12.255  -3.809   9.230  1.00  0.00     0.001 A 
ATOM     15  C   UNL     1      14.444  -3.343   8.325  1.00  0.00     0.001 A 
ATOM     16  C   UNL     1      12.596  -5.158   9.366  1.00  0.00     0.012 A 
ATOM     17  C   UNL     1      14.793  -4.691   8.458  1.00  0.00     0.012 A 
ENDBRANCH   1  12
TORSDOF 1
ENDMDL
MODEL 4
REMARK VINA RESULT:    -5.058     12.978     13.300
REMARK INTER + INTRA:          -5.602
REMARK INTER:                  -5.348
REMARK INTRA:                  -0.254
REMARK UNBOUND:                -0.249
REMARK SMILES O=c1cc(-c2ccccc2)oc2ccccc12
REMARK SMILES IDX 4 1 3 2 2 3 1 4 17 5 16 6 15 7 14 8 13 9 12 10 11 11 5 12
REMARK SMILES IDX 8 13 7 14 9 15 6 16 10 17
REMARK H PARENT
REMARK Flexibility Score: inf
ROOT
ATOM      1  C   UNL     1      20.047  -1.890  19.662  1.00  0.00     0.138 A 
ATOM      2  C   UNL     1      20.411  -0.707  18.984  1.00  0.00     0.100 A 
ATOM      3  C   UNL     1      19.592   0.420  19.079  1.00  0.00     0.193 A 
ATOM      4  O   UNL     1      19.918   1.478  18.473  1.00  0.00    -0.289 OA
ATOM      5  C   UNL     1      18.420   0.360  19.845  1.00  0.00     0.065 A 
ATOM      6  C   UNL     1      17.552   1.459  19.982  1.00  0.00     0.016 A 
ATOM      7  C   UNL     1      16.395   1.345  20.759  1.00  0.00     0.001 A 
ATOM      8  C   UNL     1      16.097   0.140  21.404  1.00  0.00     0.004 A 
ATOM      9  C   UNL     1      16.954  -0.957  21.274  1.00  0.00     0.048 A 
ATOM     10  C   UNL     1      18.114  -0.853  20.498  1.00  0.00     0.138 A 
ATOM     11  O   UNL     1      18.923  -1.901  20.380  1.00  0.00    -0.456 OA
ENDROOT
BRANCH   1  12
ATOM     12  C   UNL     1      20.866  -3.140  19.615  1.00  0.00     0.017 A 
ATOM     13  C   UNL     1      22.383  -5.520  19.616  1.00  0.00     0.000 A 
ATOM     14  C   UNL     1      21.655  -5.157  20.748  1.00  0.00     0.001 A 
ATOM     15  C   UNL     1      22.361  -4.707  18.484  1.00  0.00     0.001 A 
ATOM     16  C   UNL     1      20.902  -3.978  20.749  1.00  0.00     0.012 A 
ATOM     17  C   UNL     1      21.612  -3.526  18.477  1.00  0.00     0.012 A 
ENDBRANCH   1  12
TORSDOF 1
ENDMDL
MODEL 5
REMARK VINA RESULT:    -5.028      1.697      3.046
REMARK INTER + INTRA:          -5.571
REMARK INTER:                  -5.342
REMARK INTRA:                  -0.229
REMARK UNBOUND:                -0.249
REMARK SMILES O=c1cc(-c2ccccc2)oc2ccccc12
REMARK SMILES IDX 4 1 3 2 2 3 1 4 17 5 16 6 15 7 14 8 13 9 12 10 11 11 5 12
REMARK SMILES IDX 8 13 7 14 9 15 6 16 10 17
REMARK H PARENT
REMARK Flexibility Score: inf
ROOT
ATOM      1  C   UNL     1      13.352  -7.868   9.394  1.00  0.00     0.138 A 
ATOM      2  C   UNL     1      12.145  -7.450   9.994  1.00  0.00     0.100 A 
ATOM      3  C   UNL     1      11.834  -6.090  10.042  1.00  0.00     0.193 A 
ATOM      4  O   UNL     1      10.755  -5.717  10.579  1.00  0.00    -0.289 OA
ATOM      5  C   UNL     1      12.725  -5.159   9.491  1.00  0.00     0.065 A 
ATOM      6  C   UNL     1      12.472  -3.774   9.506  1.00  0.00     0.016 A 
ATOM      7  C   UNL     1      13.396  -2.888   8.943  1.00  0.00     0.001 A 
ATOM      8  C   UNL     1      14.573  -3.373   8.363  1.00  0.00     0.004 A 
ATOM      9  C   UNL     1      14.832  -4.747   8.344  1.00  0.00     0.048 A 
ATOM     10  C   UNL     1      13.914  -5.642   8.906  1.00  0.00     0.138 A 
ATOM     11  O   UNL     1      14.169  -6.946   8.883  1.00  0.00    -0.456 OA
ENDROOT
BRANCH   1  12
ATOM     12  C   UNL     1      13.761  -9.303   9.301  1.00  0.00     0.017 A 
ATOM     13  C   UNL     1      14.459 -12.028   9.064  1.00  0.00     0.000 A 
ATOM     14  C   UNL     1      13.349 -11.530   8.382  1.00  0.00     0.001 A 
ATOM     15  C   UNL     1      15.223 -11.178   9.862  1.00  0.00     0.001 A 
ATOM     16  C   UNL     1      13.001 -10.181   8.499  1.00  0.00     0.012 A 
ATOM     17  C   UNL     1      14.882  -9.828   9.984  1.00  0.00     0.012 A 
ENDBRANCH   1  12
TORSDOF 1
ENDMDL
MODEL 6
REMARK VINA RESULT:    -4.942     12.924     14.690
REMARK INTER + INTRA:          -5.480
REMARK INTER:                  -5.221
REMARK INTRA:                  -0.260
REMARK UNBOUND:                -0.249
REMARK SMILES O=c1cc(-c2ccccc2)oc2ccccc12
REMARK SMILES IDX 4 1 3 2 2 3 1 4 17 5 16 6 15 7 14 8 13 9 12 10 11 11 5 12
REMARK SMILES IDX 8 13 7 14 9 15 6 16 10 17
REMARK H PARENT
REMARK Flexibility Score: inf
ROOT
ATOM      1  C   UNL     1      20.200  -2.409  19.993  1.00  0.00     0.138 A 
ATOM      2  C   UNL     1      19.909  -3.061  21.210  1.00  0.00     0.100 A 
ATOM      3  C   UNL     1      20.523  -4.280  21.503  1.00  0.00     0.193 A 
ATOM      4  O   UNL     1      20.263  -4.863  22.592  1.00  0.00    -0.289 OA
ATOM      5  C   UNL     1      21.419  -4.840  20.582  1.00  0.00     0.065 A 
ATOM      6  C   UNL     1      22.071  -6.065  20.815  1.00  0.00     0.016 A 
ATOM      7  C   UNL     1      22.956  -6.579  19.862  1.00  0.00     0.001 A 
ATOM      8  C   UNL     1      23.198  -5.879  18.676  1.00  0.00     0.004 A 
ATOM      9  C   UNL     1      22.555  -4.661  18.436  1.00  0.00     0.048 A 
ATOM     10  C   UNL     1      21.666  -4.138  19.383  1.00  0.00     0.138 A 
ATOM     11  O   UNL     1      21.059  -2.979  19.147  1.00  0.00    -0.456 OA
ENDROOT
BRANCH   1  12
ATOM     12  C   UNL     1      19.588  -1.102  19.602  1.00  0.00     0.017 A 
ATOM     13  C   UNL     1      18.507   1.380  18.805  1.00  0.00     0.000 A 
ATOM     14  C   UNL     1      19.720   0.945  18.274  1.00  0.00     0.001 A 
ATOM     15  C   UNL     1      17.829   0.589  19.731  1.00  0.00     0.001 A 
ATOM     16  C   UNL     1      20.257  -0.285  18.668  1.00  0.00     0.012 A 
ATOM     17  C   UNL     1      18.359  -0.642  20.130  1.00  0.00     0.012 A 
ENDBRANCH   1  12
TORSDOF 1
ENDMDL
MODEL 7
REMARK VINA RESULT:    -4.828     13.071     14.658
REMARK INTER + INTRA:          -5.360
REMARK INTER:                  -5.095
REMARK INTRA:                  -0.265
REMARK UNBOUND:                -0.249
REMARK SMILES O=c1cc(-c2ccccc2)oc2ccccc12
REMARK SMILES IDX 4 1 3 2 2 3 1 4 17 5 16 6 15 7 14 8 13 9 12 10 11 11 5 12
REMARK SMILES IDX 8 13 7 14 9 15 6 16 10 17
REMARK H PARENT
REMARK Flexibility Score: inf
ROOT
ATOM      1  C   UNL     1      21.051  -2.973  19.426  1.00  0.00     0.138 A 
ATOM      2  C   UNL     1      21.977  -3.488  18.494  1.00  0.00     0.100 A 
ATOM      3  C   UNL     1      22.543  -4.746  18.707  1.00  0.00     0.193 A 
ATOM      4  O   UNL     1      23.371  -5.206  17.873  1.00  0.00    -0.289 OA
ATOM      5  C   UNL     1      22.183  -5.481  19.845  1.00  0.00     0.065 A 
ATOM      6  C   UNL     1      22.716  -6.754  20.120  1.00  0.00     0.016 A 
ATOM      7  C   UNL     1      22.323  -7.444  21.271  1.00  0.00     0.001 A 
ATOM      8  C   UNL     1      21.399  -6.873  22.152  1.00  0.00     0.004 A 
ATOM      9  C   UNL     1      20.864  -5.609  21.887  1.00  0.00     0.048 A 
ATOM     10  C   UNL     1      21.252  -4.910  20.738  1.00  0.00     0.138 A 
ATOM     11  O   UNL     1      20.738  -3.708  20.495  1.00  0.00    -0.456 OA
ENDROOT
BRANCH   1  12
ATOM     12  C   UNL     1      20.398  -1.637  19.274  1.00  0.00     0.017 A 
ATOM     13  C   UNL     1      19.227   0.906  18.913  1.00  0.00     0.000 A 
ATOM     14  C   UNL     1      20.302   0.513  18.116  1.00  0.00     0.001 A 
ATOM     15  C   UNL     1      18.732   0.041  19.888  1.00  0.00     0.001 A 
ATOM     16  C   UNL     1      20.884  -0.746  18.294  1.00  0.00     0.012 A 
ATOM     17  C   UNL     1      19.308  -1.220  20.071  1.00  0.00     0.012 A 
ENDBRANCH   1  12
TORSDOF 1
ENDMDL
MODEL 8
REMARK VINA RESULT:    -4.827     10.478     13.013
REMARK INTER + INTRA:          -5.359
REMARK INTER:                  -5.115
REMARK INTRA:                  -0.244
REMARK UNBOUND:                -0.249
REMARK SMILES O=c1cc(-c2ccccc2)oc2ccccc12
REMARK SMILES IDX 4 1 3 2 2 3 1 4 17 5 16 6 15 7 14 8 13 9 12 10 11 11 5 12
REMARK SMILES IDX 8 13 7 14 9 15 6 16 10 17
REMARK H PARENT
REMARK Flexibility Score: inf
ROOT
ATOM      1  C   UNL     1       7.762 -12.038  16.297  1.00  0.00     0.138 A 
ATOM      2  C   UNL     1       8.526 -12.633  15.270  1.00  0.00     0.100 A 
ATOM      3  C   UNL     1       8.850 -13.989  15.349  1.00  0.00     0.193 A 
ATOM      4  O   UNL     1       9.532 -14.520  14.430  1.00  0.00    -0.289 OA
ATOM      5  C   UNL     1       8.411 -14.740  16.448  1.00  0.00     0.065 A 
ATOM      6  C   UNL     1       8.703 -16.110  16.588  1.00  0.00     0.016 A 
ATOM      7  C   UNL     1       8.241 -16.812  17.706  1.00  0.00     0.001 A 
ATOM      8  C   UNL     1       7.489 -16.158  18.686  1.00  0.00     0.004 A 
ATOM      9  C   UNL     1       7.194 -14.798  18.555  1.00  0.00     0.048 A 
ATOM     10  C   UNL     1       7.652 -14.086  17.441  1.00  0.00     0.138 A 
ATOM     11  O   UNL     1       7.367 -12.792  17.324  1.00  0.00    -0.456 OA
ENDROOT
BRANCH   1  12
ATOM     12  C   UNL     1       7.371 -10.595  16.291  1.00  0.00     0.017 A 
ATOM     13  C   UNL     1       6.606  -7.881  16.185  1.00  0.00     0.000 A 
ATOM     14  C   UNL     1       6.478  -8.686  15.054  1.00  0.00     0.001 A 
ATOM     15  C   UNL     1       7.112  -8.418  17.368  1.00  0.00     0.001 A 
ATOM     16  C   UNL     1       6.857 -10.031  15.105  1.00  0.00     0.012 A 
ATOM     17  C   UNL     1       7.493  -9.762  17.426  1.00  0.00     0.012 A 
ENDBRANCH   1  12
TORSDOF 1
ENDMDL
MODEL 9
REMARK VINA RESULT:    -4.816     13.006     13.185
REMARK INTER + INTRA:          -5.346
REMARK INTER:                  -5.088
REMARK INTRA:                  -0.258
REMARK UNBOUND:                -0.249
REMARK SMILES O=c1cc(-c2ccccc2)oc2ccccc12
REMARK SMILES IDX 4 1 3 2 2 3 1 4 17 5 16 6 15 7 14 8 13 9 12 10 11 11 5 12
REMARK SMILES IDX 8 13 7 14 9 15 6 16 10 17
REMARK H PARENT
REMARK Flexibility Score: inf
ROOT
ATOM      1  C   UNL     1      21.076  -2.989  19.375  1.00  0.00     0.138 A 
ATOM      2  C   UNL     1      21.627  -1.950  18.595  1.00  0.00     0.100 A 
ATOM      3  C   UNL     1      20.953  -0.731  18.496  1.00  0.00     0.193 A 
ATOM      4  O   UNL     1      21.445   0.197  17.798  1.00  0.00    -0.289 OA
ATOM      5  C   UNL     1      19.738  -0.557  19.173  1.00  0.00     0.065 A 
ATOM      6  C   UNL     1      19.009   0.645  19.115  1.00  0.00     0.016 A 
ATOM      7  C   UNL     1      17.801   0.765  19.811  1.00  0.00     0.001 A 
ATOM      8  C   UNL     1      17.315  -0.307  20.566  1.00  0.00     0.004 A 
ATOM      9  C   UNL     1      18.033  -1.504  20.629  1.00  0.00     0.048 A 
ATOM     10  C   UNL     1      19.242  -1.635  19.937  1.00  0.00     0.138 A 
ATOM     11  O   UNL     1      19.918  -2.778  20.003  1.00  0.00    -0.456 OA
ENDROOT
BRANCH   1  12
ATOM     12  C   UNL     1      21.732  -4.322  19.535  1.00  0.00     0.017 A 
ATOM     13  C   UNL     1      23.016  -6.827  19.752  1.00  0.00     0.000 A 
ATOM     14  C   UNL     1      23.234  -6.026  18.632  1.00  0.00     0.001 A 
ATOM     15  C   UNL     1      22.164  -6.389  20.765  1.00  0.00     0.001 A 
ATOM     16  C   UNL     1      22.599  -4.785  18.523  1.00  0.00     0.012 A 
ATOM     17  C   UNL     1      21.525  -5.150  20.663  1.00  0.00     0.012 A 
ENDBRANCH   1  12
TORSDOF 1
ENDMDL
