MODEL 1
REMARK VINA RESULT:    -7.086      0.000      0.000
REMARK INTER + INTRA:         -13.647
REMARK INTER:                 -11.643
REMARK INTRA:                  -2.004
REMARK UNBOUND:                -2.004
REMARK SMILES COc1ccc([C@@H]2CC(=O)c3c(O)cc(O[C@@H]4O[C@H](CO[C@H]5O[C@H](C)[C@H](O)[C@H](O)[C@@H]5O)[C@@H](O)[C@H](O)[C@H]4O)cc3O2)cc1O
REMARK SMILES IDX 19 1 32 2 34 3 36 4 17 5 18 6 20 7 21 8 22 9 25 10 24 11
REMARK SMILES IDX 26 12 23 13 28 14 30 15 27 16 29 18 31 20 33 22 35 24 16 26
REMARK SMILES IDX 15 27 14 28 38 29 12 30 39 31 11 32 40 33 9 34 7 35 10 36
REMARK SMILES IDX 8 37 13 38 6 40 41 41 5 42 42 43 4 44 3 45 43 46 2 48 1 49
REMARK SMILES IDX 37 50
REMARK H PARENT 27 17 29 19 31 21 33 23 35 25 13 39 43 47 37 51
REMARK Flexibility Score: inf
ROOT
ATOM      1  C   UNL     1      -2.125  48.138  80.172  1.00  0.00     0.180 C 
ATOM      2  C   UNL     1      -2.957  47.961  78.874  1.00  0.00     0.177 C 
ATOM      3  C   UNL     1      -2.709  46.562  78.254  1.00  0.00     0.180 C 
ATOM      4  C   UNL     1      -1.278  46.067  78.552  1.00  0.00     0.214 C 
ATOM      5  C   UNL     1      -0.993  46.097  80.089  1.00  0.00     0.339 C 
ATOM      6  O   UNL     1      -1.940  46.881  80.798  1.00  0.00    -0.332 OA
ENDROOT
BRANCH   1   7
ATOM      7  C   UNL     1      -2.768  49.095  81.184  1.00  0.00     0.198 C 
BRANCH   7   8
ATOM      8  O   UNL     1      -2.506  48.677  82.513  1.00  0.00    -0.347 OA
BRANCH   8   9
ATOM      9  C   UNL     1      -1.612  49.575  83.161  1.00  0.00     0.281 C 
ATOM     10  C   UNL     1      -3.269  49.797  86.465  1.00  0.00     0.041 C 
ATOM     11  C   UNL     1      -2.491  49.135  85.308  1.00  0.00     0.150 C 
ATOM     12  C   UNL     1      -1.190  48.471  85.806  1.00  0.00     0.174 C 
ATOM     13  O   UNL     1      -2.217  50.125  84.325  1.00  0.00    -0.344 OA
ATOM     14  C   UNL     1      -0.477  47.826  84.606  1.00  0.00     0.179 C 
ATOM     15  C   UNL     1      -0.280  48.855  83.476  1.00  0.00     0.202 C 
BRANCH  12  16
ATOM     16  O   UNL     1      -0.352  49.431  86.407  1.00  0.00    -0.388 OA
ATOM     17  H   UNL     1       0.239  49.795  85.695  1.00  0.00     0.211 HD
ENDBRANCH  12  16
BRANCH  14  18
ATOM     18  O   UNL     1       0.766  47.305  85.005  1.00  0.00    -0.387 OA
ATOM     19  H   UNL     1       1.260  47.036  84.188  1.00  0.00     0.211 HD
ENDBRANCH  14  18
BRANCH  15  20
ATOM     20  O   UNL     1       0.683  49.807  83.850  1.00  0.00    -0.385 OA
ATOM     21  H   UNL     1       0.979  49.567  84.772  1.00  0.00     0.211 HD
ENDBRANCH  15  20
ENDBRANCH   8   9
ENDBRANCH   7   8
ENDBRANCH   1   7
BRANCH   2  22
ATOM     22  O   UNL     1      -2.602  48.954  77.949  1.00  0.00    -0.387 OA
ATOM     23  H   UNL     1      -3.180  48.828  77.153  1.00  0.00     0.211 HD
ENDBRANCH   2  22
BRANCH   3  24
ATOM     24  O   UNL     1      -3.641  45.647  78.780  1.00  0.00    -0.387 OA
ATOM     25  H   UNL     1      -4.111  46.105  79.526  1.00  0.00     0.211 HD
ENDBRANCH   3  24
BRANCH   5  26
ATOM     26  O   UNL     1      -1.061  44.773  80.628  1.00  0.00    -0.462 OA
BRANCH  26  27
ATOM     27  C   UNL     1      -0.282  44.269  81.685  1.00  0.00     0.130 A 
ATOM     28  C   UNL     1      -0.847  44.261  82.965  1.00  0.00     0.093 A 
ATOM     29  C   UNL     1       1.025  43.791  81.509  1.00  0.00     0.094 A 
ATOM     30  C   UNL     1      -0.104  43.833  84.077  1.00  0.00     0.133 A 
ATOM     31  C   UNL     1       1.764  43.326  82.603  1.00  0.00     0.138 A 
ATOM     32  C   UNL     1       1.220  43.376  83.899  1.00  0.00     0.102 A 
ATOM     33  O   UNL     1       3.057  42.831  82.397  1.00  0.00    -0.484 OA
ATOM     34  C   UNL     1       2.084  42.972  85.034  1.00  0.00     0.174 C 
ATOM     35  C   UNL     1       3.745  42.051  83.377  1.00  0.00     0.211 C 
ATOM     36  O   UNL     1       1.645  42.941  86.212  1.00  0.00    -0.294 OA
ATOM     37  C   UNL     1       3.534  42.652  84.783  1.00  0.00     0.131 C 
BRANCH  30  38
ATOM     38  O   UNL     1      -0.682  43.879  85.348  1.00  0.00    -0.507 OA
ATOM     39  H   UNL     1      -0.219  44.331  86.126  1.00  0.00     0.293 HD
ENDBRANCH  30  38
BRANCH  35  40
ATOM     40  C   UNL     1       3.357  40.586  83.223  1.00  0.00    -0.003 A 
ATOM     41  C   UNL     1       3.390  39.777  84.372  1.00  0.00     0.057 A 
ATOM     42  C   UNL     1       2.987  40.000  81.997  1.00  0.00     0.011 A 
ATOM     43  C   UNL     1       3.035  38.424  84.307  1.00  0.00     0.158 A 
ATOM     44  C   UNL     1       2.630  38.650  81.931  1.00  0.00     0.051 A 
ATOM     45  C   UNL     1       2.646  37.851  83.089  1.00  0.00     0.160 A 
BRANCH  43  46
ATOM     46  O   UNL     1       3.064  37.636  85.459  1.00  0.00    -0.504 OA
ATOM     47  H   UNL     1       2.388  37.758  86.204  1.00  0.00     0.293 HD
ENDBRANCH  43  46
BRANCH  45  48
ATOM     48  O   UNL     1       2.280  36.496  83.065  1.00  0.00    -0.493 OA
ATOM     49  C   UNL     1       1.410  35.913  82.103  1.00  0.00     0.278 C 
ENDBRANCH  45  48
ENDBRANCH  35  40
ENDBRANCH  26  27
ENDBRANCH   5  26
BRANCH   4  50
ATOM     50  O   UNL     1      -0.366  46.893  77.875  1.00  0.00    -0.384 OA
ATOM     51  H   UNL     1      -0.313  46.571  76.940  1.00  0.00     0.211 HD
ENDBRANCH   4  50
TORSDOF 15
ENDMDL
MODEL 2
REMARK VINA RESULT:    -7.062      2.248      3.618
REMARK INTER + INTRA:         -13.607
REMARK INTER:                 -12.215
REMARK INTRA:                  -1.391
REMARK UNBOUND:                -2.004
REMARK SMILES COc1ccc([C@@H]2CC(=O)c3c(O)cc(O[C@@H]4O[C@H](CO[C@H]5O[C@H](C)[C@H](O)[C@H](O)[C@@H]5O)[C@@H](O)[C@H](O)[C@H]4O)cc3O2)cc1O
REMARK SMILES IDX 19 1 32 2 34 3 36 4 17 5 18 6 20 7 21 8 22 9 25 10 24 11
REMARK SMILES IDX 26 12 23 13 28 14 30 15 27 16 29 18 31 20 33 22 35 24 16 26
REMARK SMILES IDX 15 27 14 28 38 29 12 30 39 31 11 32 40 33 9 34 7 35 10 36
REMARK SMILES IDX 8 37 13 38 6 40 41 41 5 42 42 43 4 44 3 45 43 46 2 48 1 49
REMARK SMILES IDX 37 50
REMARK H PARENT 27 17 29 19 31 21 33 23 35 25 13 39 43 47 37 51
REMARK Flexibility Score: inf
ROOT
ATOM      1  C   UNL     1      -1.863  47.698  79.809  1.00  0.00     0.180 C 
ATOM      2  C   UNL     1      -2.869  47.901  78.644  1.00  0.00     0.177 C 
ATOM      3  C   UNL     1      -2.716  46.775  77.590  1.00  0.00     0.180 C 
ATOM      4  C   UNL     1      -1.260  46.267  77.524  1.00  0.00     0.214 C 
ATOM      5  C   UNL     1      -0.763  45.830  78.940  1.00  0.00     0.339 C 
ATOM      6  O   UNL     1      -1.599  46.317  79.979  1.00  0.00    -0.332 OA
ENDROOT
BRANCH   1   7
ATOM      7  C   UNL     1      -2.355  48.267  81.146  1.00  0.00     0.198 C 
BRANCH   7   8
ATOM      8  O   UNL     1      -1.265  48.693  81.946  1.00  0.00    -0.347 OA
BRANCH   8   9
ATOM      9  C   UNL     1      -0.991  47.750  82.976  1.00  0.00     0.281 C 
ATOM     10  C   UNL     1       0.975  49.902  85.260  1.00  0.00     0.041 C 
ATOM     11  C   UNL     1      -0.274  49.402  84.503  1.00  0.00     0.150 C 
ATOM     12  C   UNL     1      -1.460  49.163  85.462  1.00  0.00     0.174 C 
ATOM     13  O   UNL     1       0.068  48.212  83.805  1.00  0.00    -0.344 OA
ATOM     14  C   UNL     1      -2.666  48.678  84.640  1.00  0.00     0.179 C 
ATOM     15  C   UNL     1      -2.280  47.460  83.779  1.00  0.00     0.202 C 
BRANCH  12  16
ATOM     16  O   UNL     1      -1.116  48.198  86.430  1.00  0.00    -0.388 OA
ATOM     17  H   UNL     1      -1.705  48.346  87.218  1.00  0.00     0.211 HD
ENDBRANCH  12  16
BRANCH  14  18
ATOM     18  O   UNL     1      -3.731  48.347  85.495  1.00  0.00    -0.387 OA
ATOM     19  H   UNL     1      -4.470  47.991  84.936  1.00  0.00     0.211 HD
ENDBRANCH  14  18
BRANCH  15  20
ATOM     20  O   UNL     1      -2.074  46.335  84.596  1.00  0.00    -0.385 OA
ATOM     21  H   UNL     1      -1.191  46.465  85.042  1.00  0.00     0.211 HD
ENDBRANCH  15  20
ENDBRANCH   8   9
ENDBRANCH   7   8
ENDBRANCH   1   7
BRANCH   2  22
ATOM     22  O   UNL     1      -2.642  49.146  78.038  1.00  0.00    -0.387 OA
ATOM     23  H   UNL     1      -3.504  49.438  77.646  1.00  0.00     0.211 HD
ENDBRANCH   2  22
BRANCH   3  24
ATOM     24  O   UNL     1      -3.571  45.706  77.923  1.00  0.00    -0.387 OA
ATOM     25  H   UNL     1      -4.252  45.642  77.203  1.00  0.00     0.211 HD
ENDBRANCH   3  24
BRANCH   5  26
ATOM     26  O   UNL     1      -0.763  44.403  79.041  1.00  0.00    -0.462 OA
BRANCH  26  27
ATOM     27  C   UNL     1      -0.413  43.655  80.180  1.00  0.00     0.130 A 
ATOM     28  C   UNL     1      -0.474  42.260  80.088  1.00  0.00     0.093 A 
ATOM     29  C   UNL     1      -0.020  44.245  81.390  1.00  0.00     0.094 A 
ATOM     30  C   UNL     1      -0.202  41.451  81.204  1.00  0.00     0.133 A 
ATOM     31  C   UNL     1       0.291  43.451  82.500  1.00  0.00     0.138 A 
ATOM     32  C   UNL     1       0.168  42.051  82.426  1.00  0.00     0.102 A 
ATOM     33  O   UNL     1       0.704  44.064  83.688  1.00  0.00    -0.484 OA
ATOM     34  C   UNL     1       0.406  41.266  83.662  1.00  0.00     0.174 C 
ATOM     35  C   UNL     1       1.342  43.341  84.743  1.00  0.00     0.211 C 
ATOM     36  O   UNL     1       0.367  40.009  83.654  1.00  0.00    -0.294 OA
ATOM     37  C   UNL     1       0.637  41.986  84.964  1.00  0.00     0.131 C 
BRANCH  30  38
ATOM     38  O   UNL     1      -0.316  40.064  81.090  1.00  0.00    -0.507 OA
ATOM     39  H   UNL     1       0.495  39.459  81.131  1.00  0.00     0.293 HD
ENDBRANCH  30  38
BRANCH  35  40
ATOM     40  C   UNL     1       2.839  43.268  84.475  1.00  0.00    -0.003 A 
ATOM     41  C   UNL     1       3.678  42.912  85.545  1.00  0.00     0.057 A 
ATOM     42  C   UNL     1       3.425  43.552  83.226  1.00  0.00     0.011 A 
ATOM     43  C   UNL     1       5.064  42.814  85.368  1.00  0.00     0.158 A 
ATOM     44  C   UNL     1       4.808  43.453  83.047  1.00  0.00     0.051 A 
ATOM     45  C   UNL     1       5.639  43.077  84.118  1.00  0.00     0.160 A 
BRANCH  43  46
ATOM     46  O   UNL     1       5.883  42.451  86.440  1.00  0.00    -0.504 OA
ATOM     47  H   UNL     1       6.787  42.016  86.293  1.00  0.00     0.293 HD
ENDBRANCH  43  46
BRANCH  45  48
ATOM     48  O   UNL     1       7.030  42.951  83.974  1.00  0.00    -0.493 OA
ATOM     49  C   UNL     1       7.963  43.996  84.219  1.00  0.00     0.278 C 
ENDBRANCH  45  48
ENDBRANCH  35  40
ENDBRANCH  26  27
ENDBRANCH   5  26
BRANCH   4  50
ATOM     50  O   UNL     1      -0.447  47.298  77.024  1.00  0.00    -0.384 OA
ATOM     51  H   UNL     1      -1.022  48.095  76.903  1.00  0.00     0.211 HD
ENDBRANCH   4  50
TORSDOF 15
ENDMDL
MODEL 3
REMARK VINA RESULT:    -7.036      1.121      1.875
REMARK INTER + INTRA:         -13.564
REMARK INTER:                 -11.731
REMARK INTRA:                  -1.833
REMARK UNBOUND:                -2.004
REMARK SMILES COc1ccc([C@@H]2CC(=O)c3c(O)cc(O[C@@H]4O[C@H](CO[C@H]5O[C@H](C)[C@H](O)[C@H](O)[C@@H]5O)[C@@H](O)[C@H](O)[C@H]4O)cc3O2)cc1O
REMARK SMILES IDX 19 1 32 2 34 3 36 4 17 5 18 6 20 7 21 8 22 9 25 10 24 11
REMARK SMILES IDX 26 12 23 13 28 14 30 15 27 16 29 18 31 20 33 22 35 24 16 26
REMARK SMILES IDX 15 27 14 28 38 29 12 30 39 31 11 32 40 33 9 34 7 35 10 36
REMARK SMILES IDX 8 37 13 38 6 40 41 41 5 42 42 43 4 44 3 45 43 46 2 48 1 49
REMARK SMILES IDX 37 50
REMARK H PARENT 27 17 29 19 31 21 33 23 35 25 13 39 43 47 37 51
REMARK Flexibility Score: inf
ROOT
ATOM      1  C   UNL     1      -2.119  47.694  80.220  1.00  0.00     0.180 C 
ATOM      2  C   UNL     1      -2.980  47.527  78.940  1.00  0.00     0.177 C 
ATOM      3  C   UNL     1      -2.706  46.155  78.274  1.00  0.00     0.180 C 
ATOM      4  C   UNL     1      -1.254  45.695  78.521  1.00  0.00     0.214 C 
ATOM      5  C   UNL     1      -0.929  45.692  80.050  1.00  0.00     0.339 C 
ATOM      6  O   UNL     1      -1.880  46.426  80.805  1.00  0.00    -0.332 OA
ENDROOT
BRANCH   1   7
ATOM      7  C   UNL     1      -2.763  48.602  81.275  1.00  0.00     0.198 C 
BRANCH   7   8
ATOM      8  O   UNL     1      -1.774  49.248  82.060  1.00  0.00    -0.347 OA
BRANCH   8   9
ATOM      9  C   UNL     1      -2.076  49.141  83.446  1.00  0.00     0.281 C 
ATOM     10  C   UNL     1       0.741  46.989  84.516  1.00  0.00     0.041 C 
ATOM     11  C   UNL     1       0.047  48.265  83.994  1.00  0.00     0.150 C 
ATOM     12  C   UNL     1       0.450  49.507  84.817  1.00  0.00     0.174 C 
ATOM     13  O   UNL     1      -1.360  48.061  84.030  1.00  0.00    -0.344 OA
ATOM     14  C   UNL     1      -0.268  50.737  84.236  1.00  0.00     0.179 C 
ATOM     15  C   UNL     1      -1.786  50.487  84.151  1.00  0.00     0.202 C 
BRANCH  12  16
ATOM     16  O   UNL     1       0.091  49.332  86.169  1.00  0.00    -0.388 OA
ATOM     17  H   UNL     1      -0.569  48.590  86.206  1.00  0.00     0.211 HD
ENDBRANCH  12  16
BRANCH  14  18
ATOM     18  O   UNL     1      -0.008  51.867  85.029  1.00  0.00    -0.387 OA
ATOM     19  H   UNL     1      -0.744  52.517  84.882  1.00  0.00     0.211 HD
ENDBRANCH  14  18
BRANCH  15  20
ATOM     20  O   UNL     1      -2.346  50.464  85.441  1.00  0.00    -0.385 OA
ATOM     21  H   UNL     1      -1.799  49.825  85.978  1.00  0.00     0.211 HD
ENDBRANCH  15  20
ENDBRANCH   8   9
ENDBRANCH   7   8
ENDBRANCH   1   7
BRANCH   2  22
ATOM     22  O   UNL     1      -2.679  48.557  78.035  1.00  0.00    -0.387 OA
ATOM     23  H   UNL     1      -2.283  48.130  77.233  1.00  0.00     0.211 HD
ENDBRANCH   2  22
BRANCH   3  24
ATOM     24  O   UNL     1      -3.597  45.197  78.797  1.00  0.00    -0.387 OA
ATOM     25  H   UNL     1      -3.179  44.829  79.620  1.00  0.00     0.211 HD
ENDBRANCH   3  24
BRANCH   5  26
ATOM     26  O   UNL     1      -0.944  44.352  80.552  1.00  0.00    -0.462 OA
BRANCH  26  27
ATOM     27  C   UNL     1      -0.208  43.872  81.651  1.00  0.00     0.130 A 
ATOM     28  C   UNL     1      -0.782  43.991  82.921  1.00  0.00     0.093 A 
ATOM     29  C   UNL     1       1.065  43.297  81.525  1.00  0.00     0.094 A 
ATOM     30  C   UNL     1      -0.078  43.593  84.070  1.00  0.00     0.133 A 
ATOM     31  C   UNL     1       1.763  42.862  82.657  1.00  0.00     0.138 A 
ATOM     32  C   UNL     1       1.213  43.039  83.940  1.00  0.00     0.102 A 
ATOM     33  O   UNL     1       3.021  42.269  82.501  1.00  0.00    -0.484 OA
ATOM     34  C   UNL     1       2.040  42.658  85.111  1.00  0.00     0.174 C 
ATOM     35  C   UNL     1       3.648  41.516  83.542  1.00  0.00     0.211 C 
ATOM     36  O   UNL     1       1.591  42.739  86.282  1.00  0.00    -0.294 OA
ATOM     37  C   UNL     1       3.467  42.226  84.900  1.00  0.00     0.131 C 
BRANCH  30  38
ATOM     38  O   UNL     1      -0.661  43.767  85.327  1.00  0.00    -0.507 OA
ATOM     39  H   UNL     1      -1.584  44.170  85.434  1.00  0.00     0.293 HD
ENDBRANCH  30  38
BRANCH  35  40
ATOM     40  C   UNL     1       3.164  40.072  83.486  1.00  0.00    -0.003 A 
ATOM     41  C   UNL     1       3.180  39.426  82.238  1.00  0.00     0.057 A 
ATOM     42  C   UNL     1       2.689  39.362  84.606  1.00  0.00     0.011 A 
ATOM     43  C   UNL     1       2.760  38.096  82.113  1.00  0.00     0.158 A 
ATOM     44  C   UNL     1       2.272  38.034  84.484  1.00  0.00     0.051 A 
ATOM     45  C   UNL     1       2.310  37.387  83.235  1.00  0.00     0.160 A 
BRANCH  43  46
ATOM     46  O   UNL     1       2.790  37.465  80.868  1.00  0.00    -0.504 OA
ATOM     47  H   UNL     1       2.415  36.533  80.735  1.00  0.00     0.293 HD
ENDBRANCH  43  46
BRANCH  45  48
ATOM     48  O   UNL     1       1.914  36.049  83.075  1.00  0.00    -0.493 OA
ATOM     49  C   UNL     1       2.249  34.997  83.971  1.00  0.00     0.278 C 
ENDBRANCH  45  48
ENDBRANCH  35  40
ENDBRANCH  26  27
ENDBRANCH   5  26
BRANCH   4  50
ATOM     50  O   UNL     1      -0.385  46.568  77.844  1.00  0.00    -0.384 OA
ATOM     51  H   UNL     1       0.527  46.191  77.917  1.00  0.00     0.211 HD
ENDBRANCH   4  50
TORSDOF 15
ENDMDL
MODEL 4
REMARK VINA RESULT:    -6.913      1.152      1.548
REMARK INTER + INTRA:         -13.361
REMARK INTER:                 -11.555
REMARK INTRA:                  -1.806
REMARK UNBOUND:                -2.004
REMARK SMILES COc1ccc([C@@H]2CC(=O)c3c(O)cc(O[C@@H]4O[C@H](CO[C@H]5O[C@H](C)[C@H](O)[C@H](O)[C@@H]5O)[C@@H](O)[C@H](O)[C@H]4O)cc3O2)cc1O
REMARK SMILES IDX 19 1 32 2 34 3 36 4 17 5 18 6 20 7 21 8 22 9 25 10 24 11
REMARK SMILES IDX 26 12 23 13 28 14 30 15 27 16 29 18 31 20 33 22 35 24 16 26
REMARK SMILES IDX 15 27 14 28 38 29 12 30 39 31 11 32 40 33 9 34 7 35 10 36
REMARK SMILES IDX 8 37 13 38 6 40 41 41 5 42 42 43 4 44 3 45 43 46 2 48 1 49
REMARK SMILES IDX 37 50
REMARK H PARENT 27 17 29 19 31 21 33 23 35 25 13 39 43 47 37 51
REMARK Flexibility Score: inf
ROOT
ATOM      1  C   UNL     1      -2.137  47.852  80.398  1.00  0.00     0.180 C 
ATOM      2  C   UNL     1      -3.030  47.477  79.185  1.00  0.00     0.177 C 
ATOM      3  C   UNL     1      -2.708  46.043  78.693  1.00  0.00     0.180 C 
ATOM      4  C   UNL     1      -1.226  45.689  78.940  1.00  0.00     0.214 C 
ATOM      5  C   UNL     1      -0.851  45.903  80.442  1.00  0.00     0.339 C 
ATOM      6  O   UNL     1      -1.814  46.684  81.133  1.00  0.00    -0.332 OA
ENDROOT
BRANCH   1   7
ATOM      7  C   UNL     1      -2.793  48.859  81.351  1.00  0.00     0.198 C 
BRANCH   7   8
ATOM      8  O   UNL     1      -2.479  48.558  82.701  1.00  0.00    -0.347 OA
BRANCH   8   9
ATOM      9  C   UNL     1      -1.677  49.582  83.277  1.00  0.00     0.281 C 
ATOM     10  C   UNL     1      -3.321  49.853  86.583  1.00  0.00     0.041 C 
ATOM     11  C   UNL     1      -2.489  49.199  85.460  1.00  0.00     0.150 C 
ATOM     12  C   UNL     1      -1.123  48.703  85.981  1.00  0.00     0.174 C 
ATOM     13  O   UNL     1      -2.325  50.144  84.411  1.00  0.00    -0.344 OA
ATOM     14  C   UNL     1      -0.358  48.056  84.814  1.00  0.00     0.179 C 
ATOM     15  C   UNL     1      -0.276  49.023  83.618  1.00  0.00     0.202 C 
BRANCH  12  16
ATOM     16  O   UNL     1      -0.382  49.781  86.506  1.00  0.00    -0.388 OA
ATOM     17  H   UNL     1      -1.004  50.324  87.061  1.00  0.00     0.211 HD
ENDBRANCH  12  16
BRANCH  14  18
ATOM     18  O   UNL     1       0.934  47.690  85.229  1.00  0.00    -0.387 OA
ATOM     19  H   UNL     1       1.127  46.788  84.864  1.00  0.00     0.211 HD
ENDBRANCH  14  18
BRANCH  15  20
ATOM     20  O   UNL     1       0.589  50.090  83.916  1.00  0.00    -0.385 OA
ATOM     21  H   UNL     1       1.006  49.882  84.798  1.00  0.00     0.211 HD
ENDBRANCH  15  20
ENDBRANCH   8   9
ENDBRANCH   7   8
ENDBRANCH   1   7
BRANCH   2  22
ATOM     22  O   UNL     1      -2.814  48.391  78.143  1.00  0.00    -0.387 OA
ATOM     23  H   UNL     1      -1.913  48.781  78.283  1.00  0.00     0.211 HD
ENDBRANCH   2  22
BRANCH   3  24
ATOM     24  O   UNL     1      -3.529  45.122  79.371  1.00  0.00    -0.387 OA
ATOM     25  H   UNL     1      -4.175  45.649  79.911  1.00  0.00     0.211 HD
ENDBRANCH   3  24
BRANCH   5  26
ATOM     26  O   UNL     1      -0.779  44.642  81.115  1.00  0.00    -0.462 OA
BRANCH  26  27
ATOM     27  C   UNL     1       0.301  44.176  81.886  1.00  0.00     0.130 A 
ATOM     28  C   UNL     1       0.571  44.831  83.093  1.00  0.00     0.093 A 
ATOM     29  C   UNL     1       1.113  43.102  81.493  1.00  0.00     0.094 A 
ATOM     30  C   UNL     1       1.673  44.462  83.882  1.00  0.00     0.133 A 
ATOM     31  C   UNL     1       2.192  42.699  82.287  1.00  0.00     0.138 A 
ATOM     32  C   UNL     1       2.502  43.397  83.469  1.00  0.00     0.102 A 
ATOM     33  O   UNL     1       2.970  41.608  81.885  1.00  0.00    -0.484 OA
ATOM     34  C   UNL     1       3.718  42.996  84.217  1.00  0.00     0.174 C 
ATOM     35  C   UNL     1       3.867  40.936  82.773  1.00  0.00     0.211 C 
ATOM     36  O   UNL     1       4.024  43.541  85.308  1.00  0.00    -0.294 OA
ATOM     37  C   UNL     1       4.640  41.960  83.629  1.00  0.00     0.131 C 
BRANCH  30  38
ATOM     38  O   UNL     1       1.941  45.166  85.058  1.00  0.00    -0.507 OA
ATOM     39  H   UNL     1       1.410  45.008  85.905  1.00  0.00     0.293 HD
ENDBRANCH  30  38
BRANCH  35  40
ATOM     40  C   UNL     1       3.105  39.870  83.551  1.00  0.00    -0.003 A 
ATOM     41  C   UNL     1       2.971  38.601  82.962  1.00  0.00     0.057 A 
ATOM     42  C   UNL     1       2.519  40.092  84.813  1.00  0.00     0.011 A 
ATOM     43  C   UNL     1       2.293  37.571  83.624  1.00  0.00     0.158 A 
ATOM     44  C   UNL     1       1.844  39.063  85.477  1.00  0.00     0.051 A 
ATOM     45  C   UNL     1       1.731  37.790  84.889  1.00  0.00     0.160 A 
BRANCH  43  46
ATOM     46  O   UNL     1       2.176  36.313  83.028  1.00  0.00    -0.504 OA
ATOM     47  H   UNL     1       2.992  35.760  82.789  1.00  0.00     0.293 HD
ENDBRANCH  43  46
BRANCH  45  48
ATOM     48  O   UNL     1       1.075  36.727  85.530  1.00  0.00    -0.493 OA
ATOM     49  C   UNL     1      -0.330  36.654  85.735  1.00  0.00     0.278 C 
ENDBRANCH  45  48
ENDBRANCH  35  40
ENDBRANCH  26  27
ENDBRANCH   5  26
BRANCH   4  50
ATOM     50  O   UNL     1      -0.427  46.505  78.122  1.00  0.00    -0.384 OA
ATOM     51  H   UNL     1       0.404  46.702  78.622  1.00  0.00     0.211 HD
ENDBRANCH   4  50
TORSDOF 15
ENDMDL
MODEL 5
REMARK VINA RESULT:    -6.692      2.081      8.947
REMARK INTER + INTRA:         -12.999
REMARK INTER:                 -10.593
REMARK INTRA:                  -2.406
REMARK UNBOUND:                -2.004
REMARK SMILES COc1ccc([C@@H]2CC(=O)c3c(O)cc(O[C@@H]4O[C@H](CO[C@H]5O[C@H](C)[C@H](O)[C@H](O)[C@@H]5O)[C@@H](O)[C@H](O)[C@H]4O)cc3O2)cc1O
REMARK SMILES IDX 19 1 32 2 34 3 36 4 17 5 18 6 20 7 21 8 22 9 25 10 24 11
REMARK SMILES IDX 26 12 23 13 28 14 30 15 27 16 29 18 31 20 33 22 35 24 16 26
REMARK SMILES IDX 15 27 14 28 38 29 12 30 39 31 11 32 40 33 9 34 7 35 10 36
REMARK SMILES IDX 8 37 13 38 6 40 41 41 5 42 42 43 4 44 3 45 43 46 2 48 1 49
REMARK SMILES IDX 37 50
REMARK H PARENT 27 17 29 19 31 21 33 23 35 25 13 39 43 47 37 51
REMARK Flexibility Score: inf
ROOT
ATOM      1  C   UNL     1       2.168  38.625  84.228  1.00  0.00     0.180 C 
ATOM      2  C   UNL     1       2.526  37.261  83.581  1.00  0.00     0.177 C 
ATOM      3  C   UNL     1       1.992  37.189  82.128  1.00  0.00     0.180 C 
ATOM      4  C   UNL     1       0.699  38.017  81.969  1.00  0.00     0.214 C 
ATOM      5  C   UNL     1       0.923  39.487  82.450  1.00  0.00     0.339 C 
ATOM      6  O   UNL     1       2.102  39.626  83.229  1.00  0.00    -0.332 OA
ENDROOT
BRANCH   1   7
ATOM      7  C   UNL     1       3.168  39.074  85.300  1.00  0.00     0.198 C 
BRANCH   7   8
ATOM      8  O   UNL     1       4.117  39.979  84.760  1.00  0.00    -0.347 OA
BRANCH   8   9
ATOM      9  C   UNL     1       4.475  40.970  85.716  1.00  0.00     0.281 C 
ATOM     10  C   UNL     1       6.273  43.328  83.499  1.00  0.00     0.041 C 
ATOM     11  C   UNL     1       5.065  42.557  84.071  1.00  0.00     0.150 C 
ATOM     12  C   UNL     1       3.909  43.511  84.445  1.00  0.00     0.174 C 
ATOM     13  O   UNL     1       5.499  41.812  85.201  1.00  0.00    -0.344 OA
ATOM     14  C   UNL     1       2.741  42.676  84.996  1.00  0.00     0.179 C 
ATOM     15  C   UNL     1       3.220  41.766  86.143  1.00  0.00     0.202 C 
BRANCH  12  16
ATOM     16  O   UNL     1       4.339  44.440  85.415  1.00  0.00    -0.388 OA
ATOM     17  H   UNL     1       4.730  45.214  84.929  1.00  0.00     0.211 HD
ENDBRANCH  12  16
BRANCH  14  18
ATOM     18  O   UNL     1       1.714  43.521  85.447  1.00  0.00    -0.387 OA
ATOM     19  H   UNL     1       1.997  44.458  85.281  1.00  0.00     0.211 HD
ENDBRANCH  14  18
BRANCH  15  20
ATOM     20  O   UNL     1       3.525  42.538  87.278  1.00  0.00    -0.385 OA
ATOM     21  H   UNL     1       3.293  43.482  87.052  1.00  0.00     0.211 HD
ENDBRANCH  15  20
ENDBRANCH   8   9
ENDBRANCH   7   8
ENDBRANCH   1   7
BRANCH   2  22
ATOM     22  O   UNL     1       1.968  36.220  84.339  1.00  0.00    -0.387 OA
ATOM     23  H   UNL     1       1.330  36.635  84.975  1.00  0.00     0.211 HD
ENDBRANCH   2  22
BRANCH   3  24
ATOM     24  O   UNL     1       2.974  37.679  81.246  1.00  0.00    -0.387 OA
ATOM     25  H   UNL     1       2.809  38.652  81.135  1.00  0.00     0.211 HD
ENDBRANCH   3  24
BRANCH   5  26
ATOM     26  O   UNL     1       1.064  40.358  81.323  1.00  0.00    -0.462 OA
BRANCH  26  27
ATOM     27  C   UNL     1       0.240  41.457  81.019  1.00  0.00     0.130 A 
ATOM     28  C   UNL     1      -1.137  41.232  80.918  1.00  0.00     0.093 A 
ATOM     29  C   UNL     1       0.741  42.750  80.808  1.00  0.00     0.094 A 
ATOM     30  C   UNL     1      -2.012  42.269  80.555  1.00  0.00     0.133 A 
ATOM     31  C   UNL     1      -0.123  43.801  80.481  1.00  0.00     0.138 A 
ATOM     32  C   UNL     1      -1.500  43.562  80.317  1.00  0.00     0.102 A 
ATOM     33  O   UNL     1       0.399  45.087  80.300  1.00  0.00    -0.484 OA
ATOM     34  C   UNL     1      -2.354  44.689  79.867  1.00  0.00     0.174 C 
ATOM     35  C   UNL     1      -0.426  46.255  80.289  1.00  0.00     0.211 C 
ATOM     36  O   UNL     1      -3.599  44.559  79.752  1.00  0.00    -0.294 OA
ATOM     37  C   UNL     1      -1.712  45.994  79.478  1.00  0.00     0.131 C 
BRANCH  30  38
ATOM     38  O   UNL     1      -3.376  42.000  80.418  1.00  0.00    -0.507 OA
ATOM     39  H   UNL     1      -4.059  42.382  81.059  1.00  0.00     0.293 HD
ENDBRANCH  30  38
BRANCH  35  40
ATOM     40  C   UNL     1      -0.635  46.741  81.717  1.00  0.00    -0.003 A 
ATOM     41  C   UNL     1       0.343  46.410  82.671  1.00  0.00     0.057 A 
ATOM     42  C   UNL     1      -1.757  47.485  82.133  1.00  0.00     0.011 A 
ATOM     43  C   UNL     1       0.221  46.833  84.000  1.00  0.00     0.158 A 
ATOM     44  C   UNL     1      -1.878  47.911  83.459  1.00  0.00     0.051 A 
ATOM     45  C   UNL     1      -0.885  47.592  84.404  1.00  0.00     0.160 A 
BRANCH  43  46
ATOM     46  O   UNL     1       1.206  46.502  84.933  1.00  0.00    -0.504 OA
ATOM     47  H   UNL     1       1.223  45.597  85.389  1.00  0.00     0.293 HD
ENDBRANCH  43  46
BRANCH  45  48
ATOM     48  O   UNL     1      -0.964  48.013  85.741  1.00  0.00    -0.493 OA
ATOM     49  C   UNL     1      -1.355  49.317  86.153  1.00  0.00     0.278 C 
ENDBRANCH  45  48
ENDBRANCH  35  40
ENDBRANCH  26  27
ENDBRANCH   5  26
BRANCH   4  50
ATOM     50  O   UNL     1      -0.319  37.411  82.723  1.00  0.00    -0.384 OA
ATOM     51  H   UNL     1       0.015  36.525  83.012  1.00  0.00     0.211 HD
ENDBRANCH   4  50
TORSDOF 15
ENDMDL
MODEL 6
REMARK VINA RESULT:    -6.590      2.887      6.695
REMARK INTER + INTRA:         -12.831
REMARK INTER:                 -11.147
REMARK INTRA:                  -1.684
REMARK UNBOUND:                -2.004
REMARK SMILES COc1ccc([C@@H]2CC(=O)c3c(O)cc(O[C@@H]4O[C@H](CO[C@H]5O[C@H](C)[C@H](O)[C@H](O)[C@@H]5O)[C@@H](O)[C@H](O)[C@H]4O)cc3O2)cc1O
REMARK SMILES IDX 19 1 32 2 34 3 36 4 17 5 18 6 20 7 21 8 22 9 25 10 24 11
REMARK SMILES IDX 26 12 23 13 28 14 30 15 27 16 29 18 31 20 33 22 35 24 16 26
REMARK SMILES IDX 15 27 14 28 38 29 12 30 39 31 11 32 40 33 9 34 7 35 10 36
REMARK SMILES IDX 8 37 13 38 6 40 41 41 5 42 42 43 4 44 3 45 43 46 2 48 1 49
REMARK SMILES IDX 37 50
REMARK H PARENT 27 17 29 19 31 21 33 23 35 25 13 39 43 47 37 51
REMARK Flexibility Score: inf
ROOT
ATOM      1  C   UNL     1      -0.356  43.383  81.652  1.00  0.00     0.180 C 
ATOM      2  C   UNL     1       0.207  44.748  82.132  1.00  0.00     0.177 C 
ATOM      3  C   UNL     1       1.377  44.536  83.125  1.00  0.00     0.180 C 
ATOM      4  C   UNL     1       1.192  43.235  83.935  1.00  0.00     0.214 C 
ATOM      5  C   UNL     1       0.991  42.014  82.980  1.00  0.00     0.339 C 
ATOM      6  O   UNL     1       0.675  42.412  81.655  1.00  0.00    -0.332 OA
ENDROOT
BRANCH   1   7
ATOM      7  C   UNL     1      -0.970  43.436  80.247  1.00  0.00     0.198 C 
BRANCH   7   8
ATOM      8  O   UNL     1      -0.747  44.700  79.645  1.00  0.00    -0.347 OA
BRANCH   8   9
ATOM      9  C   UNL     1      -1.927  45.175  79.007  1.00  0.00     0.281 C 
ATOM     10  C   UNL     1      -2.340  48.383  80.809  1.00  0.00     0.041 C 
ATOM     11  C   UNL     1      -1.683  47.365  79.853  1.00  0.00     0.150 C 
ATOM     12  C   UNL     1      -1.435  47.976  78.456  1.00  0.00     0.174 C 
ATOM     13  O   UNL     1      -2.519  46.219  79.769  1.00  0.00    -0.344 OA
ATOM     14  C   UNL     1      -0.771  46.913  77.565  1.00  0.00     0.179 C 
ATOM     15  C   UNL     1      -1.602  45.616  77.561  1.00  0.00     0.202 C 
BRANCH  12  16
ATOM     16  O   UNL     1      -2.655  48.393  77.885  1.00  0.00    -0.388 OA
ATOM     17  H   UNL     1      -3.139  48.922  78.574  1.00  0.00     0.211 HD
ENDBRANCH  12  16
BRANCH  14  18
ATOM     18  O   UNL     1      -0.631  47.401  76.255  1.00  0.00    -0.387 OA
ATOM     19  H   UNL     1       0.225  47.901  76.207  1.00  0.00     0.211 HD
ENDBRANCH  14  18
BRANCH  15  20
ATOM     20  O   UNL     1      -2.802  45.811  76.855  1.00  0.00    -0.385 OA
ATOM     21  H   UNL     1      -2.578  45.738  75.886  1.00  0.00     0.211 HD
ENDBRANCH  15  20
ENDBRANCH   8   9
ENDBRANCH   7   8
ENDBRANCH   1   7
BRANCH   2  22
ATOM     22  O   UNL     1      -0.812  45.483  82.757  1.00  0.00    -0.387 OA
ATOM     23  H   UNL     1      -1.583  44.869  82.871  1.00  0.00     0.211 HD
ENDBRANCH   2  22
BRANCH   3  24
ATOM     24  O   UNL     1       2.589  44.474  82.411  1.00  0.00    -0.387 OA
ATOM     25  H   UNL     1       3.190  45.166  82.795  1.00  0.00     0.211 HD
ENDBRANCH   3  24
BRANCH   5  26
ATOM     26  O   UNL     1       2.195  41.244  82.907  1.00  0.00    -0.462 OA
BRANCH  26  27
ATOM     27  C   UNL     1       2.360  39.923  83.359  1.00  0.00     0.130 A 
ATOM     28  C   UNL     1       2.244  38.893  82.419  1.00  0.00     0.093 A 
ATOM     29  C   UNL     1       2.624  39.601  84.699  1.00  0.00     0.094 A 
ATOM     30  C   UNL     1       2.333  37.547  82.810  1.00  0.00     0.133 A 
ATOM     31  C   UNL     1       2.751  38.266  85.097  1.00  0.00     0.138 A 
ATOM     32  C   UNL     1       2.572  37.228  84.164  1.00  0.00     0.102 A 
ATOM     33  O   UNL     1       3.039  37.973  86.435  1.00  0.00    -0.484 OA
ATOM     34  C   UNL     1       2.613  35.830  84.660  1.00  0.00     0.174 C 
ATOM     35  C   UNL     1       3.501  36.688  86.857  1.00  0.00     0.211 C 
ATOM     36  O   UNL     1       2.514  34.855  83.873  1.00  0.00    -0.294 OA
ATOM     37  C   UNL     1       2.710  35.573  86.141  1.00  0.00     0.131 C 
BRANCH  30  38
ATOM     38  O   UNL     1       2.167  36.542  81.854  1.00  0.00    -0.507 OA
ATOM     39  H   UNL     1       2.121  35.564  82.114  1.00  0.00     0.293 HD
ENDBRANCH  30  38
BRANCH  35  40
ATOM     40  C   UNL     1       5.015  36.619  86.708  1.00  0.00    -0.003 A 
ATOM     41  C   UNL     1       5.600  35.352  86.544  1.00  0.00     0.057 A 
ATOM     42  C   UNL     1       5.856  37.749  86.743  1.00  0.00     0.011 A 
ATOM     43  C   UNL     1       6.984  35.214  86.391  1.00  0.00     0.158 A 
ATOM     44  C   UNL     1       7.239  37.614  86.586  1.00  0.00     0.051 A 
ATOM     45  C   UNL     1       7.814  36.343  86.403  1.00  0.00     0.160 A 
BRANCH  43  46
ATOM     46  O   UNL     1       7.549  33.948  86.220  1.00  0.00    -0.504 OA
ATOM     47  H   UNL     1       8.540  33.828  86.041  1.00  0.00     0.293 HD
ENDBRANCH  43  46
BRANCH  45  48
ATOM     48  O   UNL     1       9.196  36.168  86.228  1.00  0.00    -0.493 OA
ATOM     49  C   UNL     1      10.169  36.364  87.246  1.00  0.00     0.278 C 
ENDBRANCH  45  48
ENDBRANCH  35  40
ENDBRANCH  26  27
ENDBRANCH   5  26
BRANCH   4  50
ATOM     50  O   UNL     1       0.073  43.383  84.773  1.00  0.00    -0.384 OA
ATOM     51  H   UNL     1      -0.677  43.699  84.210  1.00  0.00     0.211 HD
ENDBRANCH   4  50
TORSDOF 15
ENDMDL
MODEL 7
REMARK VINA RESULT:    -6.557      2.224      3.265
REMARK INTER + INTRA:         -12.778
REMARK INTER:                 -10.862
REMARK INTRA:                  -1.915
REMARK UNBOUND:                -2.004
REMARK SMILES COc1ccc([C@@H]2CC(=O)c3c(O)cc(O[C@@H]4O[C@H](CO[C@H]5O[C@H](C)[C@H](O)[C@H](O)[C@@H]5O)[C@@H](O)[C@H](O)[C@H]4O)cc3O2)cc1O
REMARK SMILES IDX 19 1 32 2 34 3 36 4 17 5 18 6 20 7 21 8 22 9 25 10 24 11
REMARK SMILES IDX 26 12 23 13 28 14 30 15 27 16 29 18 31 20 33 22 35 24 16 26
REMARK SMILES IDX 15 27 14 28 38 29 12 30 39 31 11 32 40 33 9 34 7 35 10 36
REMARK SMILES IDX 8 37 13 38 6 40 41 41 5 42 42 43 4 44 3 45 43 46 2 48 1 49
REMARK SMILES IDX 37 50
REMARK H PARENT 27 17 29 19 31 21 33 23 35 25 13 39 43 47 37 51
REMARK Flexibility Score: inf
ROOT
ATOM      1  C   UNL     1      -0.589  47.506  82.325  1.00  0.00     0.180 C 
ATOM      2  C   UNL     1      -1.947  47.122  82.970  1.00  0.00     0.177 C 
ATOM      3  C   UNL     1      -1.798  45.843  83.832  1.00  0.00     0.180 C 
ATOM      4  C   UNL     1      -0.707  44.911  83.264  1.00  0.00     0.214 C 
ATOM      5  C   UNL     1       0.644  45.679  83.098  1.00  0.00     0.339 C 
ATOM      6  O   UNL     1       0.475  47.087  83.162  1.00  0.00    -0.332 OA
ENDROOT
BRANCH   1   7
ATOM      7  C   UNL     1      -0.440  49.010  82.066  1.00  0.00     0.198 C 
BRANCH   7   8
ATOM      8  O   UNL     1      -1.487  49.737  82.688  1.00  0.00    -0.347 OA
BRANCH   8   9
ATOM      9  C   UNL     1      -0.973  50.845  83.418  1.00  0.00     0.281 C 
ATOM     10  C   UNL     1      -4.122  52.104  84.905  1.00  0.00     0.041 C 
ATOM     11  C   UNL     1      -2.951  51.125  84.676  1.00  0.00     0.150 C 
ATOM     12  C   UNL     1      -2.270  50.735  86.006  1.00  0.00     0.174 C 
ATOM     13  O   UNL     1      -2.024  51.730  83.785  1.00  0.00    -0.344 OA
ATOM     14  C   UNL     1      -1.125  49.754  85.703  1.00  0.00     0.179 C 
ATOM     15  C   UNL     1      -0.174  50.343  84.643  1.00  0.00     0.202 C 
BRANCH  12  16
ATOM     16  O   UNL     1      -1.765  51.884  86.649  1.00  0.00    -0.388 OA
ATOM     17  H   UNL     1      -1.929  52.657  86.046  1.00  0.00     0.211 HD
ENDBRANCH  12  16
BRANCH  14  18
ATOM     18  O   UNL     1      -0.414  49.463  86.880  1.00  0.00    -0.387 OA
ATOM     19  H   UNL     1       0.137  48.656  86.710  1.00  0.00     0.211 HD
ENDBRANCH  14  18
BRANCH  15  20
ATOM     20  O   UNL     1       0.558  51.412  85.188  1.00  0.00    -0.385 OA
ATOM     21  H   UNL     1       1.273  51.008  85.754  1.00  0.00     0.211 HD
ENDBRANCH  15  20
ENDBRANCH   8   9
ENDBRANCH   7   8
ENDBRANCH   1   7
BRANCH   2  22
ATOM     22  O   UNL     1      -2.899  46.901  81.964  1.00  0.00    -0.387 OA
ATOM     23  H   UNL     1      -2.513  47.248  81.119  1.00  0.00     0.211 HD
ENDBRANCH   2  22
BRANCH   3  24
ATOM     24  O   UNL     1      -1.462  46.206  85.151  1.00  0.00    -0.387 OA
ATOM     25  H   UNL     1      -1.075  45.402  85.586  1.00  0.00     0.211 HD
ENDBRANCH   3  24
BRANCH   5  26
ATOM     26  O   UNL     1       1.545  45.320  84.150  1.00  0.00    -0.462 OA
BRANCH  26  27
ATOM     27  C   UNL     1       1.938  44.014  84.493  1.00  0.00     0.130 A 
ATOM     28  C   UNL     1       1.492  43.499  85.716  1.00  0.00     0.093 A 
ATOM     29  C   UNL     1       2.755  43.222  83.673  1.00  0.00     0.094 A 
ATOM     30  C   UNL     1       1.897  42.227  86.152  1.00  0.00     0.133 A 
ATOM     31  C   UNL     1       3.136  41.938  84.078  1.00  0.00     0.138 A 
ATOM     32  C   UNL     1       2.741  41.445  85.335  1.00  0.00     0.102 A 
ATOM     33  O   UNL     1       3.931  41.159  83.230  1.00  0.00    -0.484 OA
ATOM     34  C   UNL     1       3.261  40.122  85.759  1.00  0.00     0.174 C 
ATOM     35  C   UNL     1       4.093  39.750  83.410  1.00  0.00     0.211 C 
ATOM     36  O   UNL     1       2.905  39.598  86.845  1.00  0.00    -0.294 OA
ATOM     37  C   UNL     1       4.283  39.420  84.905  1.00  0.00     0.131 C 
BRANCH  30  38
ATOM     38  O   UNL     1       1.471  41.762  87.398  1.00  0.00    -0.507 OA
ATOM     39  H   UNL     1       1.571  40.790  87.665  1.00  0.00     0.293 HD
ENDBRANCH  30  38
BRANCH  35  40
ATOM     40  C   UNL     1       2.954  39.016  82.714  1.00  0.00    -0.003 A 
ATOM     41  C   UNL     1       2.718  37.679  83.078  1.00  0.00     0.057 A 
ATOM     42  C   UNL     1       2.140  39.597  81.721  1.00  0.00     0.011 A 
ATOM     43  C   UNL     1       1.681  36.947  82.488  1.00  0.00     0.158 A 
ATOM     44  C   UNL     1       1.103  38.868  81.133  1.00  0.00     0.051 A 
ATOM     45  C   UNL     1       0.861  37.536  81.517  1.00  0.00     0.160 A 
BRANCH  43  46
ATOM     46  O   UNL     1       1.455  35.622  82.866  1.00  0.00    -0.504 OA
ATOM     47  H   UNL     1       2.091  34.878  82.602  1.00  0.00     0.293 HD
ENDBRANCH  43  46
BRANCH  45  48
ATOM     48  O   UNL     1      -0.181  36.777  80.960  1.00  0.00    -0.493 OA
ATOM     49  C   UNL     1      -1.100  37.260  79.989  1.00  0.00     0.278 C 
ENDBRANCH  45  48
ENDBRANCH  35  40
ENDBRANCH  26  27
ENDBRANCH   5  26
BRANCH   4  50
ATOM     50  O   UNL     1      -1.140  44.420  82.020  1.00  0.00    -0.384 OA
ATOM     51  H   UNL     1      -1.014  43.438  82.031  1.00  0.00     0.211 HD
ENDBRANCH   4  50
TORSDOF 15
ENDMDL
MODEL 8
REMARK VINA RESULT:    -6.537      4.604      7.420
REMARK INTER + INTRA:         -12.745
REMARK INTER:                 -10.628
REMARK INTRA:                  -2.117
REMARK UNBOUND:                -2.004
REMARK SMILES COc1ccc([C@@H]2CC(=O)c3c(O)cc(O[C@@H]4O[C@H](CO[C@H]5O[C@H](C)[C@H](O)[C@H](O)[C@@H]5O)[C@@H](O)[C@H](O)[C@H]4O)cc3O2)cc1O
REMARK SMILES IDX 19 1 32 2 34 3 36 4 17 5 18 6 20 7 21 8 22 9 25 10 24 11
REMARK SMILES IDX 26 12 23 13 28 14 30 15 27 16 29 18 31 20 33 22 35 24 16 26
REMARK SMILES IDX 15 27 14 28 38 29 12 30 39 31 11 32 40 33 9 34 7 35 10 36
REMARK SMILES IDX 8 37 13 38 6 40 41 41 5 42 42 43 4 44 3 45 43 46 2 48 1 49
REMARK SMILES IDX 37 50
REMARK H PARENT 27 17 29 19 31 21 33 23 35 25 13 39 43 47 37 51
REMARK Flexibility Score: inf
ROOT
ATOM      1  C   UNL     1       0.959  42.613  83.216  1.00  0.00     0.180 C 
ATOM      2  C   UNL     1      -0.449  42.135  82.771  1.00  0.00     0.177 C 
ATOM      3  C   UNL     1      -0.333  41.065  81.655  1.00  0.00     0.180 C 
ATOM      4  C   UNL     1       0.920  41.299  80.786  1.00  0.00     0.214 C 
ATOM      5  C   UNL     1       2.203  41.373  81.677  1.00  0.00     0.339 C 
ATOM      6  O   UNL     1       1.896  41.564  83.049  1.00  0.00    -0.332 OA
ENDROOT
BRANCH   1   7
ATOM      7  C   UNL     1       1.010  43.084  84.674  1.00  0.00     0.198 C 
BRANCH   7   8
ATOM      8  O   UNL     1       1.961  42.336  85.415  1.00  0.00    -0.347 OA
BRANCH   8   9
ATOM      9  C   UNL     1       2.976  43.183  85.941  1.00  0.00     0.281 C 
ATOM     10  C   UNL     1       4.275  40.980  88.619  1.00  0.00     0.041 C 
ATOM     11  C   UNL     1       3.994  41.446  87.174  1.00  0.00     0.150 C 
ATOM     12  C   UNL     1       5.285  41.475  86.327  1.00  0.00     0.174 C 
ATOM     13  O   UNL     1       3.387  42.731  87.225  1.00  0.00    -0.344 OA
ATOM     14  C   UNL     1       4.927  41.936  84.904  1.00  0.00     0.179 C 
ATOM     15  C   UNL     1       4.156  43.269  84.945  1.00  0.00     0.202 C 
BRANCH  12  16
ATOM     16  O   UNL     1       6.224  42.356  86.900  1.00  0.00    -0.388 OA
ATOM     17  H   UNL     1       6.579  41.919  87.718  1.00  0.00     0.211 HD
ENDBRANCH  12  16
BRANCH  14  18
ATOM     18  O   UNL     1       6.095  42.077  84.135  1.00  0.00    -0.387 OA
ATOM     19  H   UNL     1       6.354  41.177  83.807  1.00  0.00     0.211 HD
ENDBRANCH  14  18
BRANCH  15  20
ATOM     20  O   UNL     1       5.014  44.314  85.332  1.00  0.00    -0.385 OA
ATOM     21  H   UNL     1       5.881  43.891  85.588  1.00  0.00     0.211 HD
ENDBRANCH  15  20
ENDBRANCH   8   9
ENDBRANCH   7   8
ENDBRANCH   1   7
BRANCH   2  22
ATOM     22  O   UNL     1      -1.189  43.229  82.297  1.00  0.00    -0.387 OA
ATOM     23  H   UNL     1      -2.105  42.899  82.109  1.00  0.00     0.211 HD
ENDBRANCH   2  22
BRANCH   3  24
ATOM     24  O   UNL     1      -0.265  39.786  82.241  1.00  0.00    -0.387 OA
ATOM     25  H   UNL     1       0.467  39.294  81.785  1.00  0.00     0.211 HD
ENDBRANCH   3  24
BRANCH   5  26
ATOM     26  O   UNL     1       2.939  40.149  81.581  1.00  0.00    -0.462 OA
BRANCH  26  27
ATOM     27  C   UNL     1       2.888  39.081  82.495  1.00  0.00     0.130 A 
ATOM     28  C   UNL     1       2.426  37.845  82.027  1.00  0.00     0.093 A 
ATOM     29  C   UNL     1       3.269  39.207  83.839  1.00  0.00     0.094 A 
ATOM     30  C   UNL     1       2.287  36.752  82.898  1.00  0.00     0.133 A 
ATOM     31  C   UNL     1       3.171  38.116  84.710  1.00  0.00     0.138 A 
ATOM     32  C   UNL     1       2.647  36.891  84.256  1.00  0.00     0.102 A 
ATOM     33  O   UNL     1       3.582  38.261  86.040  1.00  0.00    -0.484 OA
ATOM     34  C   UNL     1       2.467  35.801  85.246  1.00  0.00     0.174 C 
ATOM     35  C   UNL     1       3.821  37.141  86.895  1.00  0.00     0.211 C 
ATOM     36  O   UNL     1       2.054  34.666  84.899  1.00  0.00    -0.294 OA
ATOM     37  C   UNL     1       2.721  36.077  86.704  1.00  0.00     0.131 C 
BRANCH  30  38
ATOM     38  O   UNL     1       1.780  35.546  82.410  1.00  0.00    -0.507 OA
ATOM     39  H   UNL     1       0.812  35.452  82.128  1.00  0.00     0.293 HD
ENDBRANCH  30  38
BRANCH  35  40
ATOM     40  C   UNL     1       5.250  36.652  86.701  1.00  0.00    -0.003 A 
ATOM     41  C   UNL     1       6.263  37.619  86.581  1.00  0.00     0.057 A 
ATOM     42  C   UNL     1       5.607  35.291  86.619  1.00  0.00     0.011 A 
ATOM     43  C   UNL     1       7.600  37.242  86.411  1.00  0.00     0.158 A 
ATOM     44  C   UNL     1       6.942  34.912  86.453  1.00  0.00     0.051 A 
ATOM     45  C   UNL     1       7.952  35.887  86.353  1.00  0.00     0.160 A 
BRANCH  43  46
ATOM     46  O   UNL     1       8.595  38.216  86.302  1.00  0.00    -0.504 OA
ATOM     47  H   UNL     1       9.556  37.972  86.089  1.00  0.00     0.293 HD
ENDBRANCH  43  46
BRANCH  45  48
ATOM     48  O   UNL     1       9.306  35.546  86.201  1.00  0.00    -0.493 OA
ATOM     49  C   UNL     1       9.917  35.211  84.962  1.00  0.00     0.278 C 
ENDBRANCH  45  48
ENDBRANCH  35  40
ENDBRANCH  26  27
ENDBRANCH   5  26
BRANCH   4  50
ATOM     50  O   UNL     1       0.756  42.499  80.074  1.00  0.00    -0.384 OA
ATOM     51  H   UNL     1       1.198  43.215  80.596  1.00  0.00     0.211 HD
ENDBRANCH   4  50
TORSDOF 15
ENDMDL
MODEL 9
REMARK VINA RESULT:    -6.420      2.512      4.761
REMARK INTER + INTRA:         -12.552
REMARK INTER:                 -10.827
REMARK INTRA:                  -1.725
REMARK UNBOUND:                -2.004
REMARK SMILES COc1ccc([C@@H]2CC(=O)c3c(O)cc(O[C@@H]4O[C@H](CO[C@H]5O[C@H](C)[C@H](O)[C@H](O)[C@@H]5O)[C@@H](O)[C@H](O)[C@H]4O)cc3O2)cc1O
REMARK SMILES IDX 19 1 32 2 34 3 36 4 17 5 18 6 20 7 21 8 22 9 25 10 24 11
REMARK SMILES IDX 26 12 23 13 28 14 30 15 27 16 29 18 31 20 33 22 35 24 16 26
REMARK SMILES IDX 15 27 14 28 38 29 12 30 39 31 11 32 40 33 9 34 7 35 10 36
REMARK SMILES IDX 8 37 13 38 6 40 41 41 5 42 42 43 4 44 3 45 43 46 2 48 1 49
REMARK SMILES IDX 37 50
REMARK H PARENT 27 17 29 19 31 21 33 23 35 25 13 39 43 47 37 51
REMARK Flexibility Score: inf
ROOT
ATOM      1  C   UNL     1       0.060  46.219  82.440  1.00  0.00     0.180 C 
ATOM      2  C   UNL     1      -1.203  45.831  83.254  1.00  0.00     0.177 C 
ATOM      3  C   UNL     1      -1.097  44.370  83.761  1.00  0.00     0.180 C 
ATOM      4  C   UNL     1      -0.279  43.499  82.784  1.00  0.00     0.214 C 
ATOM      5  C   UNL     1       1.121  44.140  82.513  1.00  0.00     0.339 C 
ATOM      6  O   UNL     1       1.180  45.498  82.921  1.00  0.00    -0.332 OA
ENDROOT
BRANCH   1   7
ATOM      7  C   UNL     1       0.386  47.717  82.496  1.00  0.00     0.198 C 
BRANCH   7   8
ATOM      8  O   UNL     1      -0.607  48.424  83.220  1.00  0.00    -0.347 OA
BRANCH   8   9
ATOM      9  C   UNL     1      -0.022  49.442  84.024  1.00  0.00     0.281 C 
ATOM     10  C   UNL     1      -2.704  51.988  83.824  1.00  0.00     0.041 C 
ATOM     11  C   UNL     1      -2.039  50.653  84.223  1.00  0.00     0.150 C 
ATOM     12  C   UNL     1      -2.154  50.393  85.741  1.00  0.00     0.174 C 
ATOM     13  O   UNL     1      -0.679  50.685  83.810  1.00  0.00    -0.344 OA
ATOM     14  C   UNL     1      -1.483  49.046  86.061  1.00  0.00     0.179 C 
ATOM     15  C   UNL     1      -0.044  49.015  85.511  1.00  0.00     0.202 C 
BRANCH  12  16
ATOM     16  O   UNL     1      -1.527  51.429  86.460  1.00  0.00    -0.388 OA
ATOM     17  H   UNL     1      -0.563  51.417  86.217  1.00  0.00     0.211 HD
ENDBRANCH  12  16
BRANCH  14  18
ATOM     18  O   UNL     1      -1.474  48.830  87.449  1.00  0.00    -0.387 OA
ATOM     19  H   UNL     1      -0.997  47.977  87.620  1.00  0.00     0.211 HD
ENDBRANCH  14  18
BRANCH  15  20
ATOM     20  O   UNL     1       0.778  49.880  86.253  1.00  0.00    -0.385 OA
ATOM     21  H   UNL     1       0.268  50.731  86.365  1.00  0.00     0.211 HD
ENDBRANCH  15  20
ENDBRANCH   8   9
ENDBRANCH   7   8
ENDBRANCH   1   7
BRANCH   2  22
ATOM     22  O   UNL     1      -2.342  45.966  82.447  1.00  0.00    -0.387 OA
ATOM     23  H   UNL     1      -2.596  45.055  82.149  1.00  0.00     0.211 HD
ENDBRANCH   2  22
BRANCH   3  24
ATOM     24  O   UNL     1      -0.480  44.359  85.027  1.00  0.00    -0.387 OA
ATOM     25  H   UNL     1      -0.804  43.551  85.503  1.00  0.00     0.211 HD
ENDBRANCH   3  24
BRANCH   5  26
ATOM     26  O   UNL     1       2.131  43.440  83.246  1.00  0.00    -0.462 OA
BRANCH  26  27
ATOM     27  C   UNL     1       2.205  42.048  83.430  1.00  0.00     0.130 A 
ATOM     28  C   UNL     1       2.470  41.255  82.307  1.00  0.00     0.093 A 
ATOM     29  C   UNL     1       2.018  41.430  84.676  1.00  0.00     0.094 A 
ATOM     30  C   UNL     1       2.494  39.854  82.404  1.00  0.00     0.133 A 
ATOM     31  C   UNL     1       2.076  40.038  84.794  1.00  0.00     0.138 A 
ATOM     32  C   UNL     1       2.279  39.237  83.655  1.00  0.00     0.102 A 
ATOM     33  O   UNL     1       1.910  39.448  86.052  1.00  0.00    -0.484 OA
ATOM     34  C   UNL     1       2.225  37.764  83.820  1.00  0.00     0.174 C 
ATOM     35  C   UNL     1       2.271  38.091  86.318  1.00  0.00     0.211 C 
ATOM     36  O   UNL     1       2.450  36.990  82.855  1.00  0.00    -0.294 OA
ATOM     37  C   UNL     1       1.830  37.182  85.151  1.00  0.00     0.131 C 
BRANCH  30  38
ATOM     38  O   UNL     1       2.715  39.091  81.255  1.00  0.00    -0.507 OA
ATOM     39  H   UNL     1       3.248  39.450  80.473  1.00  0.00     0.293 HD
ENDBRANCH  30  38
BRANCH  35  40
ATOM     40  C   UNL     1       3.748  38.022  86.684  1.00  0.00    -0.003 A 
ATOM     41  C   UNL     1       4.350  39.183  87.197  1.00  0.00     0.057 A 
ATOM     42  C   UNL     1       4.541  36.868  86.521  1.00  0.00     0.011 A 
ATOM     43  C   UNL     1       5.701  39.189  87.565  1.00  0.00     0.158 A 
ATOM     44  C   UNL     1       5.889  36.871  86.890  1.00  0.00     0.051 A 
ATOM     45  C   UNL     1       6.479  38.033  87.422  1.00  0.00     0.160 A 
BRANCH  43  46
ATOM     46  O   UNL     1       6.282  40.349  88.081  1.00  0.00    -0.504 OA
ATOM     47  H   UNL     1       7.281  40.514  88.023  1.00  0.00     0.293 HD
ENDBRANCH  43  46
BRANCH  45  48
ATOM     48  O   UNL     1       7.826  38.071  87.818  1.00  0.00    -0.493 OA
ATOM     49  C   UNL     1       8.906  37.551  87.053  1.00  0.00     0.278 C 
ENDBRANCH  45  48
ENDBRANCH  35  40
ENDBRANCH  26  27
ENDBRANCH   5  26
BRANCH   4  50
ATOM     50  O   UNL     1      -0.996  43.378  81.581  1.00  0.00    -0.384 OA
ATOM     51  H   UNL     1      -1.165  44.294  81.246  1.00  0.00     0.211 HD
ENDBRANCH   4  50
TORSDOF 15
ENDMDL
