MODEL 1
REMARK VINA RESULT:    -4.942      0.000      0.000
REMARK INTER + INTRA:          -8.412
REMARK INTER:                  -6.820
REMARK INTRA:                  -1.592
REMARK UNBOUND:                -1.592
REMARK SMILES O=C([O-])[C@@H]1O[C@H](Oc2cc3oc(-c4ccccc4)cc(=O)c3c(O)c2O)[C@H](O)[C@H](O)[C@@H]1O
REMARK SMILES IDX 7 1 6 2 4 3 31 4 5 5 29 6 27 7 2 8 1 9 3 10 32 11 30 13
REMARK SMILES IDX 28 15 8 17 25 18 9 19 23 20 10 21 22 22 11 23 20 24 12 25
REMARK SMILES IDX 19 26 21 27 26 28 24 30 13 32 14 33 18 34 15 35 17 36 16 37
REMARK H PARENT 32 12 30 14 28 16 26 29 24 31
REMARK Flexibility Score: inf
ROOT
ATOM      1  O   UNL     1     -21.565  32.263  21.460  1.00  0.00    -0.458 OA
ENDROOT
BRANCH   1   2
ATOM      2  C   UNL     1     -21.088  32.837  22.684  1.00  0.00     0.339 C 
ATOM      3  C   UNL     1     -21.917  35.025  22.218  1.00  0.00     0.199 C 
ATOM      4  C   UNL     1     -22.992  34.919  23.335  1.00  0.00     0.180 C 
ATOM      5  O   UNL     1     -20.779  34.213  22.493  1.00  0.00    -0.328 OA
ATOM      6  C   UNL     1     -23.377  33.459  23.620  1.00  0.00     0.181 C 
ATOM      7  C   UNL     1     -22.089  32.646  23.849  1.00  0.00     0.214 C 
BRANCH   3   8
ATOM      8  C   UNL     1     -22.403  34.835  20.797  1.00  0.00     0.073 C 
ATOM      9  O   UNL     1     -23.612  34.589  20.541  1.00  0.00    -0.547 OA
ATOM     10  O   UNL     1     -21.510  35.001  19.745  1.00  0.00    -0.547 OA
ENDBRANCH   3   8
BRANCH   4  11
ATOM     11  O   UNL     1     -24.125  35.686  23.014  1.00  0.00    -0.387 OA
ATOM     12  H   UNL     1     -24.901  35.248  23.452  1.00  0.00     0.211 HD
ENDBRANCH   4  11
BRANCH   6  13
ATOM     13  O   UNL     1     -24.123  32.940  22.547  1.00  0.00    -0.387 OA
ATOM     14  H   UNL     1     -23.579  32.223  22.128  1.00  0.00     0.211 HD
ENDBRANCH   6  13
BRANCH   7  15
ATOM     15  O   UNL     1     -22.359  31.289  24.106  1.00  0.00    -0.384 OA
ATOM     16  H   UNL     1     -21.506  30.787  24.058  1.00  0.00     0.211 HD
ENDBRANCH   7  15
ENDBRANCH   1   2
BRANCH   1  17
ATOM     17  C   UNL     1     -21.612  30.899  21.123  1.00  0.00     0.172 A 
ATOM     18  C   UNL     1     -22.751  30.432  20.455  1.00  0.00     0.201 A 
ATOM     19  C   UNL     1     -20.580  29.999  21.430  1.00  0.00     0.098 A 
ATOM     20  C   UNL     1     -22.877  29.076  20.096  1.00  0.00     0.176 A 
ATOM     21  C   UNL     1     -20.665  28.660  21.051  1.00  0.00     0.146 A 
ATOM     22  C   UNL     1     -21.801  28.177  20.353  1.00  0.00     0.111 A 
ATOM     23  O   UNL     1     -19.654  27.851  21.351  1.00  0.00    -0.456 OA
ATOM     24  C   UNL     1     -21.766  26.824  19.938  1.00  0.00     0.197 A 
ATOM     25  C   UNL     1     -19.615  26.568  21.010  1.00  0.00     0.138 A 
ATOM     26  C   UNL     1     -20.682  26.018  20.286  1.00  0.00     0.100 A 
ATOM     27  O   UNL     1     -22.676  26.319  19.230  1.00  0.00    -0.289 OA
BRANCH  18  28
ATOM     28  O   UNL     1     -23.772  31.342  20.170  1.00  0.00    -0.502 OA
ATOM     29  H   UNL     1     -23.630  32.156  19.586  1.00  0.00     0.293 HD
ENDBRANCH  18  28
BRANCH  20  30
ATOM     30  O   UNL     1     -24.088  28.678  19.522  1.00  0.00    -0.504 OA
ATOM     31  H   UNL     1     -24.892  28.356  20.039  1.00  0.00     0.293 HD
ENDBRANCH  20  30
BRANCH  25  32
ATOM     32  C   UNL     1     -18.438  25.758  21.413  1.00  0.00     0.017 A 
ATOM     33  C   UNL     1     -18.108  24.604  20.677  1.00  0.00     0.012 A 
ATOM     34  C   UNL     1     -17.653  26.093  22.535  1.00  0.00     0.012 A 
ATOM     35  C   UNL     1     -17.009  23.820  21.040  1.00  0.00     0.001 A 
ATOM     36  C   UNL     1     -16.555  25.305  22.893  1.00  0.00     0.001 A 
ATOM     37  C   UNL     1     -16.231  24.171  22.145  1.00  0.00     0.000 A 
ENDBRANCH  25  32
ENDBRANCH   1  17
TORSDOF 9
ENDMDL
MODEL 2
REMARK VINA RESULT:    -4.621      1.932      3.805
REMARK INTER + INTRA:          -7.969
REMARK INTER:                  -6.503
REMARK INTRA:                  -1.466
REMARK UNBOUND:                -1.592
REMARK SMILES O=C([O-])[C@@H]1O[C@H](Oc2cc3oc(-c4ccccc4)cc(=O)c3c(O)c2O)[C@H](O)[C@H](O)[C@@H]1O
REMARK SMILES IDX 7 1 6 2 4 3 31 4 5 5 29 6 27 7 2 8 1 9 3 10 32 11 30 13
REMARK SMILES IDX 28 15 8 17 25 18 9 19 23 20 10 21 22 22 11 23 20 24 12 25
REMARK SMILES IDX 19 26 21 27 26 28 24 30 13 32 14 33 18 34 15 35 17 36 16 37
REMARK H PARENT 32 12 30 14 28 16 26 29 24 31
REMARK Flexibility Score: inf
ROOT
ATOM      1  O   UNL     1     -21.841  31.879  21.865  1.00  0.00    -0.458 OA
ENDROOT
BRANCH   1   2
ATOM      2  C   UNL     1     -23.229  31.933  22.217  1.00  0.00     0.339 C 
ATOM      3  C   UNL     1     -23.157  34.192  22.980  1.00  0.00     0.199 C 
ATOM      4  C   UNL     1     -24.013  34.686  21.783  1.00  0.00     0.180 C 
ATOM      5  O   UNL     1     -23.425  32.831  23.304  1.00  0.00    -0.328 OA
ATOM      6  C   UNL     1     -23.875  33.763  20.563  1.00  0.00     0.181 C 
ATOM      7  C   UNL     1     -24.125  32.311  21.013  1.00  0.00     0.214 C 
BRANCH   3   8
ATOM      8  C   UNL     1     -21.668  34.459  22.898  1.00  0.00     0.073 C 
ATOM      9  O   UNL     1     -21.147  34.975  21.874  1.00  0.00    -0.547 OA
ATOM     10  O   UNL     1     -20.868  34.191  24.002  1.00  0.00    -0.547 OA
ENDBRANCH   3   8
BRANCH   4  11
ATOM     11  O   UNL     1     -23.691  36.013  21.450  1.00  0.00    -0.387 OA
ATOM     12  H   UNL     1     -22.791  35.994  21.032  1.00  0.00     0.211 HD
ENDBRANCH   4  11
BRANCH   6  13
ATOM     13  O   UNL     1     -22.597  33.906  19.993  1.00  0.00    -0.387 OA
ATOM     14  H   UNL     1     -22.166  34.687  20.428  1.00  0.00     0.211 HD
ENDBRANCH   6  13
BRANCH   7  15
ATOM     15  O   UNL     1     -24.004  31.399  19.948  1.00  0.00    -0.384 OA
ATOM     16  H   UNL     1     -23.529  30.595  20.279  1.00  0.00     0.211 HD
ENDBRANCH   7  15
ENDBRANCH   1   2
BRANCH   1  17
ATOM     17  C   UNL     1     -21.015  30.741  21.836  1.00  0.00     0.172 A 
ATOM     18  C   UNL     1     -19.845  30.766  22.604  1.00  0.00     0.201 A 
ATOM     19  C   UNL     1     -21.313  29.600  21.075  1.00  0.00     0.098 A 
ATOM     20  C   UNL     1     -18.962  29.669  22.617  1.00  0.00     0.176 A 
ATOM     21  C   UNL     1     -20.473  28.487  21.102  1.00  0.00     0.146 A 
ATOM     22  C   UNL     1     -19.297  28.487  21.893  1.00  0.00     0.111 A 
ATOM     23  O   UNL     1     -20.807  27.424  20.376  1.00  0.00    -0.456 OA
ATOM     24  C   UNL     1     -18.548  27.286  21.922  1.00  0.00     0.197 A 
ATOM     25  C   UNL     1     -20.098  26.301  20.353  1.00  0.00     0.138 A 
ATOM     26  C   UNL     1     -18.940  26.204  21.135  1.00  0.00     0.100 A 
ATOM     27  O   UNL     1     -17.541  27.145  22.665  1.00  0.00    -0.289 OA
BRANCH  18  28
ATOM     28  O   UNL     1     -19.562  31.917  23.345  1.00  0.00    -0.502 OA
ATOM     29  H   UNL     1     -20.283  32.551  23.663  1.00  0.00     0.293 HD
ENDBRANCH  18  28
BRANCH  20  30
ATOM     30  O   UNL     1     -17.769  29.818  23.332  1.00  0.00    -0.504 OA
ATOM     31  H   UNL     1     -17.710  29.958  24.329  1.00  0.00     0.293 HD
ENDBRANCH  20  30
BRANCH  25  32
ATOM     32  C   UNL     1     -20.562  25.183  19.491  1.00  0.00     0.017 A 
ATOM     33  C   UNL     1     -19.613  24.359  18.858  1.00  0.00     0.012 A 
ATOM     34  C   UNL     1     -21.932  24.939  19.262  1.00  0.00     0.012 A 
ATOM     35  C   UNL     1     -20.023  23.305  18.036  1.00  0.00     0.001 A 
ATOM     36  C   UNL     1     -22.336  23.884  18.439  1.00  0.00     0.001 A 
ATOM     37  C   UNL     1     -21.382  23.065  17.829  1.00  0.00     0.000 A 
ENDBRANCH  25  32
ENDBRANCH   1  17
TORSDOF 9
ENDMDL
MODEL 3
REMARK VINA RESULT:    -4.611      1.381      2.750
REMARK INTER + INTRA:          -7.955
REMARK INTER:                  -6.676
REMARK INTRA:                  -1.279
REMARK UNBOUND:                -1.592
REMARK SMILES O=C([O-])[C@@H]1O[C@H](Oc2cc3oc(-c4ccccc4)cc(=O)c3c(O)c2O)[C@H](O)[C@H](O)[C@@H]1O
REMARK SMILES IDX 7 1 6 2 4 3 31 4 5 5 29 6 27 7 2 8 1 9 3 10 32 11 30 13
REMARK SMILES IDX 28 15 8 17 25 18 9 19 23 20 10 21 22 22 11 23 20 24 12 25
REMARK SMILES IDX 19 26 21 27 26 28 24 30 13 32 14 33 18 34 15 35 17 36 16 37
REMARK H PARENT 32 12 30 14 28 16 26 29 24 31
REMARK Flexibility Score: inf
ROOT
ATOM      1  O   UNL     1     -22.057  30.367  21.344  1.00  0.00    -0.458 OA
ENDROOT
BRANCH   1   2
ATOM      2  C   UNL     1     -23.311  30.731  21.937  1.00  0.00     0.339 C 
ATOM      3  C   UNL     1     -22.334  31.955  23.738  1.00  0.00     0.199 C 
ATOM      4  C   UNL     1     -22.843  33.309  23.171  1.00  0.00     0.180 C 
ATOM      5  O   UNL     1     -23.166  30.866  23.347  1.00  0.00    -0.328 OA
ATOM      6  C   UNL     1     -23.044  33.251  21.649  1.00  0.00     0.181 C 
ATOM      7  C   UNL     1     -23.903  32.017  21.312  1.00  0.00     0.214 C 
BRANCH   3   8
ATOM      8  C   UNL     1     -20.870  31.641  23.517  1.00  0.00     0.073 C 
ATOM      9  O   UNL     1     -20.098  32.461  22.951  1.00  0.00    -0.547 OA
ATOM     10  O   UNL     1     -20.348  30.451  24.009  1.00  0.00    -0.547 OA
ENDBRANCH   3   8
BRANCH   4  11
ATOM     11  O   UNL     1     -21.977  34.357  23.525  1.00  0.00    -0.387 OA
ATOM     12  H   UNL     1     -21.906  34.951  22.733  1.00  0.00     0.211 HD
ENDBRANCH   4  11
BRANCH   6  13
ATOM     13  O   UNL     1     -21.797  33.195  21.000  1.00  0.00    -0.387 OA
ATOM     14  H   UNL     1     -21.502  32.247  21.009  1.00  0.00     0.211 HD
ENDBRANCH   6  13
BRANCH   7  15
ATOM     15  O   UNL     1     -24.123  31.887  19.929  1.00  0.00    -0.384 OA
ATOM     16  H   UNL     1     -23.250  31.723  19.488  1.00  0.00     0.211 HD
ENDBRANCH   7  15
ENDBRANCH   1   2
BRANCH   1  17
ATOM     17  C   UNL     1     -21.658  29.086  20.923  1.00  0.00     0.172 A 
ATOM     18  C   UNL     1     -22.430  28.453  19.942  1.00  0.00     0.201 A 
ATOM     19  C   UNL     1     -20.534  28.426  21.444  1.00  0.00     0.098 A 
ATOM     20  C   UNL     1     -22.099  27.165  19.479  1.00  0.00     0.176 A 
ATOM     21  C   UNL     1     -20.165  27.167  20.973  1.00  0.00     0.146 A 
ATOM     22  C   UNL     1     -20.923  26.522  19.963  1.00  0.00     0.111 A 
ATOM     23  O   UNL     1     -19.083  26.590  21.487  1.00  0.00    -0.456 OA
ATOM     24  C   UNL     1     -20.430  25.282  19.490  1.00  0.00     0.197 A 
ATOM     25  C   UNL     1     -18.623  25.409  21.090  1.00  0.00     0.138 A 
ATOM     26  C   UNL     1     -19.293  24.719  20.070  1.00  0.00     0.100 A 
ATOM     27  O   UNL     1     -20.969  24.672  18.530  1.00  0.00    -0.289 OA
BRANCH  18  28
ATOM     28  O   UNL     1     -23.552  29.122  19.447  1.00  0.00    -0.502 OA
ATOM     29  H   UNL     1     -24.380  28.636  19.127  1.00  0.00     0.293 HD
ENDBRANCH  18  28
BRANCH  20  30
ATOM     30  O   UNL     1     -22.981  26.567  18.571  1.00  0.00    -0.504 OA
ATOM     31  H   UNL     1     -22.712  26.173  17.683  1.00  0.00     0.293 HD
ENDBRANCH  20  30
BRANCH  25  32
ATOM     32  C   UNL     1     -17.411  24.857  21.748  1.00  0.00     0.017 A 
ATOM     33  C   UNL     1     -16.910  23.608  21.337  1.00  0.00     0.012 A 
ATOM     34  C   UNL     1     -16.762  25.536  22.799  1.00  0.00     0.012 A 
ATOM     35  C   UNL     1     -15.775  23.063  21.945  1.00  0.00     0.001 A 
ATOM     36  C   UNL     1     -15.628  24.986  23.404  1.00  0.00     0.001 A 
ATOM     37  C   UNL     1     -15.133  23.752  22.975  1.00  0.00     0.000 A 
ENDBRANCH  25  32
ENDBRANCH   1  17
TORSDOF 9
ENDMDL
MODEL 4
REMARK VINA RESULT:    -4.279      2.473      8.593
REMARK INTER + INTRA:          -7.497
REMARK INTER:                  -5.959
REMARK INTRA:                  -1.538
REMARK UNBOUND:                -1.592
REMARK SMILES O=C([O-])[C@@H]1O[C@H](Oc2cc3oc(-c4ccccc4)cc(=O)c3c(O)c2O)[C@H](O)[C@H](O)[C@@H]1O
REMARK SMILES IDX 7 1 6 2 4 3 31 4 5 5 29 6 27 7 2 8 1 9 3 10 32 11 30 13
REMARK SMILES IDX 28 15 8 17 25 18 9 19 23 20 10 21 22 22 11 23 20 24 12 25
REMARK SMILES IDX 19 26 21 27 26 28 24 30 13 32 14 33 18 34 15 35 17 36 16 37
REMARK H PARENT 32 12 30 14 28 16 26 29 24 31
REMARK Flexibility Score: inf
ROOT
ATOM      1  O   UNL     1     -19.474  25.439  21.281  1.00  0.00    -0.458 OA
ENDROOT
BRANCH   1   2
ATOM      2  C   UNL     1     -19.441  24.698  22.507  1.00  0.00     0.339 C 
ATOM      3  C   UNL     1     -18.183  22.879  21.611  1.00  0.00     0.199 C 
ATOM      4  C   UNL     1     -16.932  23.254  22.450  1.00  0.00     0.180 C 
ATOM      5  O   UNL     1     -19.392  23.301  22.235  1.00  0.00    -0.328 OA
ATOM      6  C   UNL     1     -16.909  24.749  22.806  1.00  0.00     0.181 C 
ATOM      7  C   UNL     1     -18.269  25.129  23.421  1.00  0.00     0.214 C 
BRANCH   3   8
ATOM      8  C   UNL     1     -18.152  23.266  20.147  1.00  0.00     0.073 C 
ATOM      9  O   UNL     1     -17.150  23.836  19.637  1.00  0.00    -0.547 OA
ATOM     10  O   UNL     1     -19.223  22.926  19.331  1.00  0.00    -0.547 OA
ENDBRANCH   3   8
BRANCH   4  11
ATOM     11  O   UNL     1     -15.752  22.875  21.788  1.00  0.00    -0.387 OA
ATOM     12  H   UNL     1     -15.497  21.984  22.142  1.00  0.00     0.211 HD
ENDBRANCH   4  11
BRANCH   6  13
ATOM     13  O   UNL     1     -16.639  25.513  21.656  1.00  0.00    -0.387 OA
ATOM     14  H   UNL     1     -16.605  26.464  21.935  1.00  0.00     0.211 HD
ENDBRANCH   6  13
BRANCH   7  15
ATOM     15  O   UNL     1     -18.331  26.492  23.764  1.00  0.00    -0.384 OA
ATOM     16  H   UNL     1     -18.090  27.026  22.964  1.00  0.00     0.211 HD
ENDBRANCH   7  15
ENDBRANCH   1   2
BRANCH   1  17
ATOM     17  C   UNL     1     -20.344  26.493  20.948  1.00  0.00     0.172 A 
ATOM     18  C   UNL     1     -21.361  26.231  20.023  1.00  0.00     0.201 A 
ATOM     19  C   UNL     1     -20.230  27.780  21.497  1.00  0.00     0.098 A 
ATOM     20  C   UNL     1     -22.263  27.239  19.632  1.00  0.00     0.176 A 
ATOM     21  C   UNL     1     -21.134  28.783  21.154  1.00  0.00     0.146 A 
ATOM     22  C   UNL     1     -22.184  28.528  20.236  1.00  0.00     0.111 A 
ATOM     23  O   UNL     1     -20.994  29.981  21.712  1.00  0.00    -0.456 OA
ATOM     24  C   UNL     1     -23.102  29.581  20.008  1.00  0.00     0.197 A 
ATOM     25  C   UNL     1     -21.816  30.999  21.483  1.00  0.00     0.138 A 
ATOM     26  C   UNL     1     -22.903  30.821  20.616  1.00  0.00     0.100 A 
ATOM     27  O   UNL     1     -24.125  29.432  19.289  1.00  0.00    -0.289 OA
BRANCH  18  28
ATOM     28  O   UNL     1     -21.449  24.946  19.480  1.00  0.00    -0.502 OA
ATOM     29  H   UNL     1     -21.750  24.776  18.529  1.00  0.00     0.293 HD
ENDBRANCH  18  28
BRANCH  20  30
ATOM     30  O   UNL     1     -23.185  26.917  18.630  1.00  0.00    -0.504 OA
ATOM     31  H   UNL     1     -23.514  27.558  17.924  1.00  0.00     0.293 HD
ENDBRANCH  20  30
BRANCH  25  32
ATOM     32  C   UNL     1     -21.550  32.297  22.154  1.00  0.00     0.017 A 
ATOM     33  C   UNL     1     -22.224  33.453  21.717  1.00  0.00     0.012 A 
ATOM     34  C   UNL     1     -20.615  32.414  23.203  1.00  0.00     0.012 A 
ATOM     35  C   UNL     1     -21.987  34.688  22.327  1.00  0.00     0.001 A 
ATOM     36  C   UNL     1     -20.381  33.652  23.809  1.00  0.00     0.001 A 
ATOM     37  C   UNL     1     -21.069  34.787  23.374  1.00  0.00     0.000 A 
ENDBRANCH  25  32
ENDBRANCH   1  17
TORSDOF 9
ENDMDL
MODEL 5
REMARK VINA RESULT:    -4.249      2.517      8.619
REMARK INTER + INTRA:          -7.455
REMARK INTER:                  -5.882
REMARK INTRA:                  -1.573
REMARK UNBOUND:                -1.592
REMARK SMILES O=C([O-])[C@@H]1O[C@H](Oc2cc3oc(-c4ccccc4)cc(=O)c3c(O)c2O)[C@H](O)[C@H](O)[C@@H]1O
REMARK SMILES IDX 7 1 6 2 4 3 31 4 5 5 29 6 27 7 2 8 1 9 3 10 32 11 30 13
REMARK SMILES IDX 28 15 8 17 25 18 9 19 23 20 10 21 22 22 11 23 20 24 12 25
REMARK SMILES IDX 19 26 21 27 26 28 24 30 13 32 14 33 18 34 15 35 17 36 16 37
REMARK H PARENT 32 12 30 14 28 16 26 29 24 31
REMARK Flexibility Score: inf
ROOT
ATOM      1  O   UNL     1     -21.003  27.437  21.222  1.00  0.00    -0.458 OA
ENDROOT
BRANCH   1   2
ATOM      2  C   UNL     1     -21.030  27.122  19.824  1.00  0.00     0.339 C 
ATOM      3  C   UNL     1     -21.163  24.762  20.151  1.00  0.00     0.199 C 
ATOM      4  C   UNL     1     -22.622  24.712  19.623  1.00  0.00     0.180 C 
ATOM      5  O   UNL     1     -20.431  25.851  19.595  1.00  0.00    -0.328 OA
ATOM      6  C   UNL     1     -23.346  26.054  19.814  1.00  0.00     0.181 C 
ATOM      7  C   UNL     1     -22.462  27.176  19.239  1.00  0.00     0.214 C 
BRANCH   3   8
ATOM      8  C   UNL     1     -20.988  24.686  21.653  1.00  0.00     0.073 C 
ATOM      9  O   UNL     1     -21.976  24.572  22.426  1.00  0.00    -0.547 OA
ATOM     10  O   UNL     1     -19.706  24.674  22.188  1.00  0.00    -0.547 OA
ENDBRANCH   3   8
BRANCH   4  11
ATOM     11  O   UNL     1     -23.338  23.663  20.225  1.00  0.00    -0.387 OA
ATOM     12  H   UNL     1     -23.464  23.912  21.178  1.00  0.00     0.211 HD
ENDBRANCH   4  11
BRANCH   6  13
ATOM     13  O   UNL     1     -23.613  26.266  21.179  1.00  0.00    -0.387 OA
ATOM     14  H   UNL     1     -23.904  27.210  21.280  1.00  0.00     0.211 HD
ENDBRANCH   6  13
BRANCH   7  15
ATOM     15  O   UNL     1     -23.054  28.444  19.387  1.00  0.00    -0.384 OA
ATOM     16  H   UNL     1     -22.499  28.975  20.015  1.00  0.00     0.211 HD
ENDBRANCH   7  15
ENDBRANCH   1   2
BRANCH   1  17
ATOM     17  C   UNL     1     -20.509  28.610  21.818  1.00  0.00     0.172 A 
ATOM     18  C   UNL     1     -19.338  28.511  22.579  1.00  0.00     0.201 A 
ATOM     19  C   UNL     1     -21.137  29.858  21.686  1.00  0.00     0.098 A 
ATOM     20  C   UNL     1     -18.789  29.640  23.217  1.00  0.00     0.176 A 
ATOM     21  C   UNL     1     -20.592  30.997  22.277  1.00  0.00     0.146 A 
ATOM     22  C   UNL     1     -19.394  30.917  23.031  1.00  0.00     0.111 A 
ATOM     23  O   UNL     1     -21.217  32.158  22.110  1.00  0.00    -0.456 OA
ATOM     24  C   UNL     1     -18.870  32.136  23.526  1.00  0.00     0.197 A 
ATOM     25  C   UNL     1     -20.769  33.309  22.600  1.00  0.00     0.138 A 
ATOM     26  C   UNL     1     -19.571  33.325  23.328  1.00  0.00     0.100 A 
ATOM     27  O   UNL     1     -17.764  32.193  24.125  1.00  0.00    -0.289 OA
BRANCH  18  28
ATOM     28  O   UNL     1     -18.735  27.257  22.707  1.00  0.00    -0.502 OA
ATOM     29  H   UNL     1     -19.057  26.442  22.200  1.00  0.00     0.293 HD
ENDBRANCH  18  28
BRANCH  20  30
ATOM     30  O   UNL     1     -17.675  29.432  24.037  1.00  0.00    -0.504 OA
ATOM     31  H   UNL     1     -17.468  29.959  24.871  1.00  0.00     0.293 HD
ENDBRANCH  20  30
BRANCH  25  32
ATOM     32  C   UNL     1     -21.561  34.543  22.361  1.00  0.00     0.017 A 
ATOM     33  C   UNL     1     -21.932  34.882  21.046  1.00  0.00     0.012 A 
ATOM     34  C   UNL     1     -21.928  35.407  23.413  1.00  0.00     0.012 A 
ATOM     35  C   UNL     1     -22.670  36.041  20.792  1.00  0.00     0.001 A 
ATOM     36  C   UNL     1     -22.667  36.565  23.153  1.00  0.00     0.001 A 
ATOM     37  C   UNL     1     -23.041  36.880  21.845  1.00  0.00     0.000 A 
ENDBRANCH  25  32
ENDBRANCH   1  17
TORSDOF 9
ENDMDL
MODEL 6
REMARK VINA RESULT:    -4.089      2.961      8.744
REMARK INTER + INTRA:          -7.235
REMARK INTER:                  -6.203
REMARK INTRA:                  -1.032
REMARK UNBOUND:                -1.592
REMARK SMILES O=C([O-])[C@@H]1O[C@H](Oc2cc3oc(-c4ccccc4)cc(=O)c3c(O)c2O)[C@H](O)[C@H](O)[C@@H]1O
REMARK SMILES IDX 7 1 6 2 4 3 31 4 5 5 29 6 27 7 2 8 1 9 3 10 32 11 30 13
REMARK SMILES IDX 28 15 8 17 25 18 9 19 23 20 10 21 22 22 11 23 20 24 12 25
REMARK SMILES IDX 19 26 21 27 26 28 24 30 13 32 14 33 18 34 15 35 17 36 16 37
REMARK H PARENT 32 12 30 14 28 16 26 29 24 31
REMARK Flexibility Score: inf
ROOT
ATOM      1  O   UNL     1     -20.227  25.386  20.299  1.00  0.00    -0.458 OA
ENDROOT
BRANCH   1   2
ATOM      2  C   UNL     1     -20.326  24.003  20.662  1.00  0.00     0.339 C 
ATOM      3  C   UNL     1     -22.616  23.791  20.029  1.00  0.00     0.199 C 
ATOM      4  C   UNL     1     -22.260  22.875  18.827  1.00  0.00     0.180 C 
ATOM      5  O   UNL     1     -21.654  23.699  21.075  1.00  0.00    -0.328 OA
ATOM      6  C   UNL     1     -20.830  23.125  18.322  1.00  0.00     0.181 C 
ATOM      7  C   UNL     1     -19.866  23.063  19.522  1.00  0.00     0.214 C 
BRANCH   3   8
ATOM      8  C   UNL     1     -22.942  25.233  19.702  1.00  0.00     0.073 C 
ATOM      9  O   UNL     1     -22.994  25.644  18.512  1.00  0.00    -0.547 OA
ATOM     10  O   UNL     1     -23.258  26.110  20.733  1.00  0.00    -0.547 OA
ENDBRANCH   3   8
BRANCH   4  11
ATOM     11  O   UNL     1     -23.194  23.025  17.788  1.00  0.00    -0.387 OA
ATOM     12  H   UNL     1     -23.841  22.277  17.873  1.00  0.00     0.211 HD
ENDBRANCH   4  11
BRANCH   6  13
ATOM     13  O   UNL     1     -20.758  24.373  17.677  1.00  0.00    -0.387 OA
ATOM     14  H   UNL     1     -21.238  24.286  16.812  1.00  0.00     0.211 HD
ENDBRANCH   6  13
BRANCH   7  15
ATOM     15  O   UNL     1     -18.532  23.295  19.142  1.00  0.00    -0.384 OA
ATOM     16  H   UNL     1     -18.044  23.658  19.924  1.00  0.00     0.211 HD
ENDBRANCH   7  15
ENDBRANCH   1   2
BRANCH   1  17
ATOM     17  C   UNL     1     -19.713  26.436  21.081  1.00  0.00     0.172 A 
ATOM     18  C   UNL     1     -18.537  26.194  21.802  1.00  0.00     0.201 A 
ATOM     19  C   UNL     1     -20.326  27.695  21.169  1.00  0.00     0.098 A 
ATOM     20  C   UNL     1     -17.969  27.193  22.617  1.00  0.00     0.176 A 
ATOM     21  C   UNL     1     -19.761  28.710  21.939  1.00  0.00     0.146 A 
ATOM     22  C   UNL     1     -18.559  28.490  22.657  1.00  0.00     0.111 A 
ATOM     23  O   UNL     1     -20.372  29.890  21.978  1.00  0.00    -0.456 OA
ATOM     24  C   UNL     1     -18.015  29.600  23.347  1.00  0.00     0.197 A 
ATOM     25  C   UNL     1     -19.905  30.936  22.652  1.00  0.00     0.138 A 
ATOM     26  C   UNL     1     -18.702  30.814  23.360  1.00  0.00     0.100 A 
ATOM     27  O   UNL     1     -16.903  29.542  23.935  1.00  0.00    -0.289 OA
BRANCH  18  28
ATOM     28  O   UNL     1     -17.950  24.930  21.710  1.00  0.00    -0.502 OA
ATOM     29  H   UNL     1     -17.813  24.333  22.515  1.00  0.00     0.293 HD
ENDBRANCH  18  28
BRANCH  20  30
ATOM     30  O   UNL     1     -16.851  26.835  23.379  1.00  0.00    -0.504 OA
ATOM     31  H   UNL     1     -15.911  26.762  23.022  1.00  0.00     0.293 HD
ENDBRANCH  20  30
BRANCH  25  32
ATOM     32  C   UNL     1     -20.683  32.201  22.633  1.00  0.00     0.017 A 
ATOM     33  C   UNL     1     -21.751  32.343  21.728  1.00  0.00     0.012 A 
ATOM     34  C   UNL     1     -20.363  33.284  23.478  1.00  0.00     0.012 A 
ATOM     35  C   UNL     1     -22.494  33.526  21.685  1.00  0.00     0.001 A 
ATOM     36  C   UNL     1     -21.109  34.465  23.431  1.00  0.00     0.001 A 
ATOM     37  C   UNL     1     -22.176  34.585  22.537  1.00  0.00     0.000 A 
ENDBRANCH  25  32
ENDBRANCH   1  17
TORSDOF 9
ENDMDL
MODEL 7
REMARK VINA RESULT:    -4.001      3.043      5.238
REMARK INTER + INTRA:          -7.113
REMARK INTER:                  -5.706
REMARK INTRA:                  -1.407
REMARK UNBOUND:                -1.592
REMARK SMILES O=C([O-])[C@@H]1O[C@H](Oc2cc3oc(-c4ccccc4)cc(=O)c3c(O)c2O)[C@H](O)[C@H](O)[C@@H]1O
REMARK SMILES IDX 7 1 6 2 4 3 31 4 5 5 29 6 27 7 2 8 1 9 3 10 32 11 30 13
REMARK SMILES IDX 28 15 8 17 25 18 9 19 23 20 10 21 22 22 11 23 20 24 12 25
REMARK SMILES IDX 19 26 21 27 26 28 24 30 13 32 14 33 18 34 15 35 17 36 16 37
REMARK H PARENT 32 12 30 14 28 16 26 29 24 31
REMARK Flexibility Score: inf
ROOT
ATOM      1  O   UNL     1     -20.821  28.785  22.029  1.00  0.00    -0.458 OA
ENDROOT
BRANCH   1   2
ATOM      2  C   UNL     1     -20.460  30.107  21.609  1.00  0.00     0.339 C 
ATOM      3  C   UNL     1     -22.701  30.803  21.181  1.00  0.00     0.199 C 
ATOM      4  C   UNL     1     -22.688  31.784  22.385  1.00  0.00     0.180 C 
ATOM      5  O   UNL     1     -21.396  30.590  20.651  1.00  0.00    -0.328 OA
ATOM      6  C   UNL     1     -21.688  31.347  23.467  1.00  0.00     0.181 C 
ATOM      7  C   UNL     1     -20.325  31.085  22.800  1.00  0.00     0.214 C 
BRANCH   3   8
ATOM      8  C   UNL     1     -23.436  29.495  21.387  1.00  0.00     0.073 C 
ATOM      9  O   UNL     1     -23.851  29.144  22.524  1.00  0.00    -0.547 OA
ATOM     10  O   UNL     1     -23.719  28.694  20.288  1.00  0.00    -0.547 OA
ENDBRANCH   3   8
BRANCH   4  11
ATOM     11  O   UNL     1     -23.978  31.935  22.923  1.00  0.00    -0.387 OA
ATOM     12  H   UNL     1     -23.969  31.504  23.817  1.00  0.00     0.211 HD
ENDBRANCH   4  11
BRANCH   6  13
ATOM     13  O   UNL     1     -22.162  30.198  24.125  1.00  0.00    -0.387 OA
ATOM     14  H   UNL     1     -23.019  30.441  24.563  1.00  0.00     0.211 HD
ENDBRANCH   6  13
BRANCH   7  15
ATOM     15  O   UNL     1     -19.353  30.667  23.729  1.00  0.00    -0.384 OA
ATOM     16  H   UNL     1     -19.100  31.447  24.286  1.00  0.00     0.211 HD
ENDBRANCH   7  15
ENDBRANCH   1   2
BRANCH   1  17
ATOM     17  C   UNL     1     -20.261  27.571  21.592  1.00  0.00     0.172 A 
ATOM     18  C   UNL     1     -19.390  26.905  22.462  1.00  0.00     0.201 A 
ATOM     19  C   UNL     1     -20.535  27.013  20.333  1.00  0.00     0.098 A 
ATOM     20  C   UNL     1     -18.781  25.691  22.089  1.00  0.00     0.176 A 
ATOM     21  C   UNL     1     -19.974  25.794  19.958  1.00  0.00     0.146 A 
ATOM     22  C   UNL     1     -19.108  25.095  20.836  1.00  0.00     0.111 A 
ATOM     23  O   UNL     1     -20.275  25.299  18.762  1.00  0.00    -0.456 OA
ATOM     24  C   UNL     1     -18.649  23.827  20.404  1.00  0.00     0.197 A 
ATOM     25  C   UNL     1     -19.824  24.132  18.315  1.00  0.00     0.138 A 
ATOM     26  C   UNL     1     -18.992  23.359  19.136  1.00  0.00     0.100 A 
ATOM     27  O   UNL     1     -17.956  23.080  21.144  1.00  0.00    -0.289 OA
BRANCH  18  28
ATOM     28  O   UNL     1     -19.123  27.484  23.705  1.00  0.00    -0.502 OA
ATOM     29  H   UNL     1     -19.492  28.386  23.977  1.00  0.00     0.293 HD
ENDBRANCH  18  28
BRANCH  20  30
ATOM     30  O   UNL     1     -17.849  25.145  22.979  1.00  0.00    -0.504 OA
ATOM     31  H   UNL     1     -17.941  24.247  23.428  1.00  0.00     0.293 HD
ENDBRANCH  20  30
BRANCH  25  32
ATOM     32  C   UNL     1     -20.219  23.688  16.954  1.00  0.00     0.017 A 
ATOM     33  C   UNL     1     -19.249  23.642  15.934  1.00  0.00     0.012 A 
ATOM     34  C   UNL     1     -21.548  23.339  16.641  1.00  0.00     0.012 A 
ATOM     35  C   UNL     1     -19.596  23.235  14.642  1.00  0.00     0.001 A 
ATOM     36  C   UNL     1     -21.889  22.933  15.348  1.00  0.00     0.001 A 
ATOM     37  C   UNL     1     -20.913  22.878  14.350  1.00  0.00     0.000 A 
ENDBRANCH  25  32
ENDBRANCH   1  17
TORSDOF 9
ENDMDL
MODEL 8
REMARK VINA RESULT:    -3.100      1.320      2.166
REMARK INTER + INTRA:          -5.869
REMARK INTER:                  -5.304
REMARK INTRA:                  -0.565
REMARK UNBOUND:                -1.592
REMARK SMILES O=C([O-])[C@@H]1O[C@H](Oc2cc3oc(-c4ccccc4)cc(=O)c3c(O)c2O)[C@H](O)[C@H](O)[C@@H]1O
REMARK SMILES IDX 7 1 6 2 4 3 31 4 5 5 29 6 27 7 2 8 1 9 3 10 32 11 30 13
REMARK SMILES IDX 28 15 8 17 25 18 9 19 23 20 10 21 22 22 11 23 20 24 12 25
REMARK SMILES IDX 19 26 21 27 26 28 24 30 13 32 14 33 18 34 15 35 17 36 16 37
REMARK H PARENT 32 12 30 14 28 16 26 29 24 31
REMARK Flexibility Score: inf
ROOT
ATOM      1  O   UNL     1     -21.700  30.497  21.685  1.00  0.00    -0.458 OA
ENDROOT
BRANCH   1   2
ATOM      2  C   UNL     1     -20.744  31.550  21.867  1.00  0.00     0.339 C 
ATOM      3  C   UNL     1     -22.344  33.310  21.682  1.00  0.00     0.199 C 
ATOM      4  C   UNL     1     -22.203  33.676  23.184  1.00  0.00     0.180 C 
ATOM      5  O   UNL     1     -21.158  32.716  21.162  1.00  0.00    -0.328 OA
ATOM      6  C   UNL     1     -21.741  32.475  24.024  1.00  0.00     0.181 C 
ATOM      7  C   UNL     1     -20.493  31.862  23.362  1.00  0.00     0.214 C 
BRANCH   3   8
ATOM      8  C   UNL     1     -23.576  32.518  21.296  1.00  0.00     0.073 C 
ATOM      9  O   UNL     1     -24.103  32.633  20.158  1.00  0.00    -0.547 OA
ATOM     10  O   UNL     1     -24.098  31.594  22.192  1.00  0.00    -0.547 OA
ENDBRANCH   3   8
BRANCH   4  11
ATOM     11  O   UNL     1     -23.402  34.210  23.685  1.00  0.00    -0.387 OA
ATOM     12  H   UNL     1     -23.494  35.121  23.301  1.00  0.00     0.211 HD
ENDBRANCH   4  11
BRANCH   6  13
ATOM     13  O   UNL     1     -22.780  31.531  24.124  1.00  0.00    -0.387 OA
ATOM     14  H   UNL     1     -22.446  30.682  23.733  1.00  0.00     0.211 HD
ENDBRANCH   6  13
BRANCH   7  15
ATOM     15  O   UNL     1     -20.015  30.744  24.069  1.00  0.00    -0.384 OA
ATOM     16  H   UNL     1     -20.528  29.947  23.777  1.00  0.00     0.211 HD
ENDBRANCH   7  15
ENDBRANCH   1   2
BRANCH   1  17
ATOM     17  C   UNL     1     -21.452  29.200  21.202  1.00  0.00     0.172 A 
ATOM     18  C   UNL     1     -22.320  28.692  20.228  1.00  0.00     0.201 A 
ATOM     19  C   UNL     1     -20.388  28.406  21.656  1.00  0.00     0.098 A 
ATOM     20  C   UNL     1     -22.143  27.396  19.705  1.00  0.00     0.176 A 
ATOM     21  C   UNL     1     -20.171  27.135  21.125  1.00  0.00     0.146 A 
ATOM     22  C   UNL     1     -21.027  26.614  20.122  1.00  0.00     0.111 A 
ATOM     23  O   UNL     1     -19.141  26.427  21.577  1.00  0.00    -0.456 OA
ATOM     24  C   UNL     1     -20.684  25.350  19.584  1.00  0.00     0.197 A 
ATOM     25  C   UNL     1     -18.822  25.221  21.120  1.00  0.00     0.138 A 
ATOM     26  C   UNL     1     -19.595  24.648  20.101  1.00  0.00     0.100 A 
ATOM     27  O   UNL     1     -21.317  24.839  18.623  1.00  0.00    -0.289 OA
BRANCH  18  28
ATOM     28  O   UNL     1     -23.380  29.495  19.799  1.00  0.00    -0.502 OA
ATOM     29  H   UNL     1     -23.414  29.904  18.874  1.00  0.00     0.293 HD
ENDBRANCH  18  28
BRANCH  20  30
ATOM     30  O   UNL     1     -23.113  26.932  18.810  1.00  0.00    -0.504 OA
ATOM     31  H   UNL     1     -23.402  25.969  18.723  1.00  0.00     0.293 HD
ENDBRANCH  20  30
BRANCH  25  32
ATOM     32  C   UNL     1     -17.655  24.519  21.712  1.00  0.00     0.017 A 
ATOM     33  C   UNL     1     -17.332  24.734  23.065  1.00  0.00     0.012 A 
ATOM     34  C   UNL     1     -16.836  23.662  20.948  1.00  0.00     0.012 A 
ATOM     35  C   UNL     1     -16.234  24.092  23.644  1.00  0.00     0.001 A 
ATOM     36  C   UNL     1     -15.739  23.023  21.532  1.00  0.00     0.001 A 
ATOM     37  C   UNL     1     -15.440  23.234  22.880  1.00  0.00     0.000 A 
ENDBRANCH  25  32
ENDBRANCH   1  17
TORSDOF 9
ENDMDL
MODEL 9
REMARK VINA RESULT:    -3.009      0.779      2.409
REMARK INTER + INTRA:          -5.745
REMARK INTER:                  -5.598
REMARK INTRA:                  -0.147
REMARK UNBOUND:                -1.592
REMARK SMILES O=C([O-])[C@@H]1O[C@H](Oc2cc3oc(-c4ccccc4)cc(=O)c3c(O)c2O)[C@H](O)[C@H](O)[C@@H]1O
REMARK SMILES IDX 7 1 6 2 4 3 31 4 5 5 29 6 27 7 2 8 1 9 3 10 32 11 30 13
REMARK SMILES IDX 28 15 8 17 25 18 9 19 23 20 10 21 22 22 11 23 20 24 12 25
REMARK SMILES IDX 19 26 21 27 26 28 24 30 13 32 14 33 18 34 15 35 17 36 16 37
REMARK H PARENT 32 12 30 14 28 16 26 29 24 31
REMARK Flexibility Score: inf
ROOT
ATOM      1  O   UNL     1     -22.036  32.354  21.159  1.00  0.00    -0.458 OA
ENDROOT
BRANCH   1   2
ATOM      2  C   UNL     1     -23.093  33.244  20.777  1.00  0.00     0.339 C 
ATOM      3  C   UNL     1     -23.731  33.772  23.015  1.00  0.00     0.199 C 
ATOM      4  C   UNL     1     -23.209  35.228  22.882  1.00  0.00     0.180 C 
ATOM      5  O   UNL     1     -24.125  33.229  21.758  1.00  0.00    -0.328 OA
ATOM      6  C   UNL     1     -22.097  35.343  21.827  1.00  0.00     0.181 C 
ATOM      7  C   UNL     1     -22.585  34.683  20.524  1.00  0.00     0.214 C 
BRANCH   3   8
ATOM      8  C   UNL     1     -22.850  32.809  23.783  1.00  0.00     0.073 C 
ATOM      9  O   UNL     1     -23.239  31.646  24.071  1.00  0.00    -0.547 OA
ATOM     10  O   UNL     1     -21.557  33.191  24.119  1.00  0.00    -0.547 OA
ENDBRANCH   3   8
BRANCH   4  11
ATOM     11  O   UNL     1     -22.777  35.721  24.125  1.00  0.00    -0.387 OA
ATOM     12  H   UNL     1     -22.084  36.407  23.937  1.00  0.00     0.211 HD
ENDBRANCH   4  11
BRANCH   6  13
ATOM     13  O   UNL     1     -20.922  34.730  22.299  1.00  0.00    -0.387 OA
ATOM     14  H   UNL     1     -20.234  35.440  22.387  1.00  0.00     0.211 HD
ENDBRANCH   6  13
BRANCH   7  15
ATOM     15  O   UNL     1     -21.613  34.737  19.508  1.00  0.00    -0.384 OA
ATOM     16  H   UNL     1     -22.068  34.621  18.635  1.00  0.00     0.211 HD
ENDBRANCH   7  15
ENDBRANCH   1   2
BRANCH   1  17
ATOM     17  C   UNL     1     -21.957  30.972  20.911  1.00  0.00     0.172 A 
ATOM     18  C   UNL     1     -22.999  30.380  20.188  1.00  0.00     0.201 A 
ATOM     19  C   UNL     1     -20.893  30.174  21.359  1.00  0.00     0.098 A 
ATOM     20  C   UNL     1     -22.997  28.999  19.911  1.00  0.00     0.176 A 
ATOM     21  C   UNL     1     -20.850  28.813  21.065  1.00  0.00     0.146 A 
ATOM     22  C   UNL     1     -21.886  28.202  20.313  1.00  0.00     0.111 A 
ATOM     23  O   UNL     1     -19.813  28.103  21.498  1.00  0.00    -0.456 OA
ATOM     24  C   UNL     1     -21.719  26.833  19.993  1.00  0.00     0.197 A 
ATOM     25  C   UNL     1     -19.655  26.808  21.248  1.00  0.00     0.138 A 
ATOM     26  C   UNL     1     -20.614  26.135  20.480  1.00  0.00     0.100 A 
ATOM     27  O   UNL     1     -22.528  26.218  19.250  1.00  0.00    -0.289 OA
BRANCH  18  28
ATOM     28  O   UNL     1     -24.055  31.190  19.762  1.00  0.00    -0.502 OA
ATOM     29  H   UNL     1     -23.922  31.976  19.138  1.00  0.00     0.293 HD
ENDBRANCH  18  28
BRANCH  20  30
ATOM     30  O   UNL     1     -24.125  28.475  19.270  1.00  0.00    -0.504 OA
ATOM     31  H   UNL     1     -25.072  28.777  19.434  1.00  0.00     0.293 HD
ENDBRANCH  20  30
BRANCH  25  32
ATOM     32  C   UNL     1     -18.460  26.116  21.797  1.00  0.00     0.017 A 
ATOM     33  C   UNL     1     -17.800  26.659  22.916  1.00  0.00     0.012 A 
ATOM     34  C   UNL     1     -17.945  24.942  21.211  1.00  0.00     0.012 A 
ATOM     35  C   UNL     1     -16.670  26.032  23.447  1.00  0.00     0.001 A 
ATOM     36  C   UNL     1     -16.814  24.319  21.747  1.00  0.00     0.001 A 
ATOM     37  C   UNL     1     -16.179  24.862  22.866  1.00  0.00     0.000 A 
ENDBRANCH  25  32
ENDBRANCH   1  17
TORSDOF 9
ENDMDL
