MODEL 1
REMARK VINA RESULT:    -4.384      0.000      0.000
REMARK INTER + INTRA:          -9.861
REMARK INTER:                  -7.972
REMARK INTRA:                  -1.889
REMARK UNBOUND:                -1.889
REMARK SMILES CCCCCCCCCCCCCC[C@H](C)C(=O)[O-]
REMARK SMILES IDX 9 1 10 2 11 3 12 4 13 5 14 6 15 7 16 8 17 9 18 10 19 11 8 12
REMARK SMILES IDX 7 13 6 14 5 15 4 16 3 17 2 18 1 19
REMARK H PARENT
REMARK Flexibility Score: inf
ROOT
ATOM      1  C   UNL     1      26.848  -0.392  -7.899  1.00  0.00     0.000 C 
ENDROOT
BRANCH   1   2
ATOM      2  C   UNL     1      26.144  -0.963  -9.141  1.00  0.00     0.000 C 
BRANCH   2   3
ATOM      3  C   UNL     1      24.648  -1.250  -8.908  1.00  0.00     0.000 C 
BRANCH   3   4
ATOM      4  C   UNL     1      23.828  -1.582 -10.169  1.00  0.00     0.000 C 
BRANCH   4   5
ATOM      5  C   UNL     1      24.653  -1.509 -11.463  1.00  0.00     0.001 C 
BRANCH   5   6
ATOM      6  C   UNL     1      24.114  -0.480 -12.479  1.00  0.00     0.009 C 
BRANCH   6   7
ATOM      7  C   UNL     1      24.793  -0.448 -13.874  1.00  0.00     0.032 C 
ATOM      8  C   UNL     1      26.002  -1.392 -13.969  1.00  0.00     0.014 C 
BRANCH   7   9
ATOM      9  C   UNL     1      25.123   0.955 -14.321  1.00  0.00     0.044 C 
ATOM     10  O   UNL     1      24.916   1.925 -13.545  1.00  0.00    -0.550 OA
ATOM     11  O   UNL     1      25.633   1.202 -15.592  1.00  0.00    -0.550 OA
ENDBRANCH   7   9
ENDBRANCH   6   7
ENDBRANCH   5   6
ENDBRANCH   4   5
ENDBRANCH   3   4
ENDBRANCH   2   3
ENDBRANCH   1   2
BRANCH   1  12
ATOM     12  C   UNL     1      27.906  -1.346  -7.315  1.00  0.00     0.000 C 
BRANCH  12  13
ATOM     13  C   UNL     1      27.815  -2.806  -7.797  1.00  0.00    -0.000 C 
BRANCH  13  14
ATOM     14  C   UNL     1      27.114  -3.730  -6.790  1.00  0.00    -0.000 C 
BRANCH  14  15
ATOM     15  C   UNL     1      26.000  -4.537  -7.466  1.00  0.00    -0.000 C 
BRANCH  15  16
ATOM     16  C   UNL     1      26.274  -4.703  -8.968  1.00  0.00    -0.000 C 
BRANCH  16  17
ATOM     17  C   UNL     1      24.988  -4.877  -9.796  1.00  0.00    -0.000 C 
BRANCH  17  18
ATOM     18  C   UNL     1      23.711  -5.107  -8.969  1.00  0.00    -0.003 C 
ATOM     19  C   UNL     1      22.767  -6.132  -9.596  1.00  0.00     0.004 C 
ENDBRANCH  17  18
ENDBRANCH  16  17
ENDBRANCH  15  16
ENDBRANCH  14  15
ENDBRANCH  13  14
ENDBRANCH  12  13
ENDBRANCH   1  12
TORSDOF 14
ENDMDL
MODEL 2
REMARK VINA RESULT:    -4.314      1.597      2.215
REMARK INTER + INTRA:          -9.733
REMARK INTER:                  -7.668
REMARK INTRA:                  -2.066
REMARK UNBOUND:                -1.889
REMARK SMILES CCCCCCCCCCCCCC[C@H](C)C(=O)[O-]
REMARK SMILES IDX 9 1 10 2 11 3 12 4 13 5 14 6 15 7 16 8 17 9 18 10 19 11 8 12
REMARK SMILES IDX 7 13 6 14 5 15 4 16 3 17 2 18 1 19
REMARK H PARENT
REMARK Flexibility Score: inf
ROOT
ATOM      1  C   UNL     1      28.799  -1.022  -7.026  1.00  0.00     0.000 C 
ENDROOT
BRANCH   1   2
ATOM      2  C   UNL     1      27.526  -0.304  -7.504  1.00  0.00     0.000 C 
BRANCH   2   3
ATOM      3  C   UNL     1      26.710  -1.131  -8.515  1.00  0.00     0.000 C 
BRANCH   3   4
ATOM      4  C   UNL     1      25.465  -0.436  -9.098  1.00  0.00     0.000 C 
BRANCH   4   5
ATOM      5  C   UNL     1      24.391  -1.424  -9.579  1.00  0.00     0.001 C 
BRANCH   5   6
ATOM      6  C   UNL     1      24.061  -1.292 -11.079  1.00  0.00     0.009 C 
BRANCH   6   7
ATOM      7  C   UNL     1      25.047  -0.465 -11.945  1.00  0.00     0.032 C 
ATOM      8  C   UNL     1      24.332   0.471 -12.932  1.00  0.00     0.014 C 
BRANCH   7   9
ATOM      9  C   UNL     1      26.083  -1.329 -12.623  1.00  0.00     0.044 C 
ATOM     10  O   UNL     1      27.030  -1.815 -11.950  1.00  0.00    -0.550 OA
ATOM     11  O   UNL     1      26.024  -1.582 -13.990  1.00  0.00    -0.550 OA
ENDBRANCH   7   9
ENDBRANCH   6   7
ENDBRANCH   5   6
ENDBRANCH   4   5
ENDBRANCH   3   4
ENDBRANCH   2   3
ENDBRANCH   1   2
BRANCH   1  12
ATOM     12  C   UNL     1      28.527  -2.443  -6.500  1.00  0.00     0.000 C 
BRANCH  12  13
ATOM     13  C   UNL     1      29.101  -3.585  -7.359  1.00  0.00    -0.000 C 
BRANCH  13  14
ATOM     14  C   UNL     1      28.114  -4.746  -7.552  1.00  0.00    -0.000 C 
BRANCH  14  15
ATOM     15  C   UNL     1      26.828  -4.514  -6.751  1.00  0.00    -0.000 C 
BRANCH  15  16
ATOM     16  C   UNL     1      25.605  -4.460  -7.678  1.00  0.00    -0.000 C 
BRANCH  16  17
ATOM     17  C   UNL     1      25.954  -4.743  -9.150  1.00  0.00    -0.000 C 
BRANCH  17  18
ATOM     18  C   UNL     1      24.746  -5.026 -10.060  1.00  0.00    -0.003 C 
ATOM     19  C   UNL     1      23.437  -5.178  -9.286  1.00  0.00     0.004 C 
ENDBRANCH  17  18
ENDBRANCH  16  17
ENDBRANCH  15  16
ENDBRANCH  14  15
ENDBRANCH  13  14
ENDBRANCH  12  13
ENDBRANCH   1  12
TORSDOF 14
ENDMDL
MODEL 3
REMARK VINA RESULT:    -4.304      2.591      5.789
REMARK INTER + INTRA:          -9.715
REMARK INTER:                  -7.942
REMARK INTRA:                  -1.772
REMARK UNBOUND:                -1.889
REMARK SMILES CCCCCCCCCCCCCC[C@H](C)C(=O)[O-]
REMARK SMILES IDX 9 1 10 2 11 3 12 4 13 5 14 6 15 7 16 8 17 9 18 10 19 11 8 12
REMARK SMILES IDX 7 13 6 14 5 15 4 16 3 17 2 18 1 19
REMARK H PARENT
REMARK Flexibility Score: inf
ROOT
ATOM      1  C   UNL     1      28.276  -0.960  -7.671  1.00  0.00     0.000 C 
ENDROOT
BRANCH   1   2
ATOM      2  C   UNL     1      28.389  -1.844  -6.418  1.00  0.00     0.000 C 
BRANCH   2   3
ATOM      3  C   UNL     1      28.379  -3.351  -6.740  1.00  0.00     0.000 C 
BRANCH   3   4
ATOM      4  C   UNL     1      26.989  -4.012  -6.801  1.00  0.00     0.000 C 
BRANCH   4   5
ATOM      5  C   UNL     1      27.048  -5.516  -7.110  1.00  0.00     0.001 C 
BRANCH   5   6
ATOM      6  C   UNL     1      25.909  -5.999  -8.031  1.00  0.00     0.009 C 
BRANCH   6   7
ATOM      7  C   UNL     1      25.207  -4.926  -8.904  1.00  0.00     0.032 C 
ATOM      8  C   UNL     1      23.692  -5.151  -9.020  1.00  0.00     0.014 C 
BRANCH   7   9
ATOM      9  C   UNL     1      25.867  -4.758 -10.252  1.00  0.00     0.044 C 
ATOM     10  O   UNL     1      25.231  -5.048 -11.299  1.00  0.00    -0.550 OA
ATOM     11  O   UNL     1      27.179  -4.310 -10.358  1.00  0.00    -0.550 OA
ENDBRANCH   7   9
ENDBRANCH   6   7
ENDBRANCH   5   6
ENDBRANCH   4   5
ENDBRANCH   3   4
ENDBRANCH   2   3
ENDBRANCH   1   2
BRANCH   1  12
ATOM     12  C   UNL     1      26.840  -0.470  -7.934  1.00  0.00     0.000 C 
BRANCH  12  13
ATOM     13  C   UNL     1      26.126  -1.131  -9.127  1.00  0.00    -0.000 C 
BRANCH  13  14
ATOM     14  C   UNL     1      24.609  -1.268  -8.920  1.00  0.00    -0.000 C 
BRANCH  14  15
ATOM     15  C   UNL     1      23.910  -1.665 -10.225  1.00  0.00    -0.000 C 
BRANCH  15  16
ATOM     16  C   UNL     1      24.751  -1.264 -11.445  1.00  0.00    -0.000 C 
BRANCH  16  17
ATOM     17  C   UNL     1      23.972  -0.400 -12.454  1.00  0.00    -0.000 C 
BRANCH  17  18
ATOM     18  C   UNL     1      24.740   0.820 -12.991  1.00  0.00    -0.003 C 
ATOM     19  C   UNL     1      24.997   0.750 -14.496  1.00  0.00     0.004 C 
ENDBRANCH  17  18
ENDBRANCH  16  17
ENDBRANCH  15  16
ENDBRANCH  14  15
ENDBRANCH  13  14
ENDBRANCH  12  13
ENDBRANCH   1  12
TORSDOF 14
ENDMDL
MODEL 4
REMARK VINA RESULT:    -4.256      2.763      6.328
REMARK INTER + INTRA:          -9.628
REMARK INTER:                  -7.747
REMARK INTRA:                  -1.880
REMARK UNBOUND:                -1.889
REMARK SMILES CCCCCCCCCCCCCC[C@H](C)C(=O)[O-]
REMARK SMILES IDX 9 1 10 2 11 3 12 4 13 5 14 6 15 7 16 8 17 9 18 10 19 11 8 12
REMARK SMILES IDX 7 13 6 14 5 15 4 16 3 17 2 18 1 19
REMARK H PARENT
REMARK Flexibility Score: inf
ROOT
ATOM      1  C   UNL     1      25.620  -0.729 -10.741  1.00  0.00     0.000 C 
ENDROOT
BRANCH   1   2
ATOM      2  C   UNL     1      25.521  -0.401  -9.241  1.00  0.00     0.000 C 
BRANCH   2   3
ATOM      3  C   UNL     1      26.646  -1.042  -8.408  1.00  0.00     0.000 C 
BRANCH   3   4
ATOM      4  C   UNL     1      26.390  -2.486  -7.937  1.00  0.00     0.000 C 
BRANCH   4   5
ATOM      5  C   UNL     1      24.899  -2.859  -7.916  1.00  0.00     0.001 C 
BRANCH   5   6
ATOM      6  C   UNL     1      24.634  -4.352  -8.200  1.00  0.00     0.009 C 
BRANCH   6   7
ATOM      7  C   UNL     1      24.077  -4.713  -9.602  1.00  0.00     0.032 C 
ATOM      8  C   UNL     1      22.932  -5.736  -9.542  1.00  0.00     0.014 C 
BRANCH   7   9
ATOM      9  C   UNL     1      25.165  -5.124 -10.565  1.00  0.00     0.044 C 
ATOM     10  O   UNL     1      25.741  -6.235 -10.420  1.00  0.00    -0.550 OA
ATOM     11  O   UNL     1      25.562  -4.285 -11.600  1.00  0.00    -0.550 OA
ENDBRANCH   7   9
ENDBRANCH   6   7
ENDBRANCH   5   6
ENDBRANCH   4   5
ENDBRANCH   3   4
ENDBRANCH   2   3
ENDBRANCH   1   2
BRANCH   1  12
ATOM     12  C   UNL     1      24.258  -1.064 -11.375  1.00  0.00     0.000 C 
BRANCH  12  13
ATOM     13  C   UNL     1      23.904  -0.259 -12.639  1.00  0.00    -0.000 C 
BRANCH  13  14
ATOM     14  C   UNL     1      24.904   0.869 -12.933  1.00  0.00    -0.000 C 
BRANCH  14  15
ATOM     15  C   UNL     1      25.070   1.078 -14.443  1.00  0.00    -0.000 C 
BRANCH  15  16
ATOM     16  C   UNL     1      25.279  -0.262 -15.164  1.00  0.00    -0.000 C 
BRANCH  16  17
ATOM     17  C   UNL     1      26.705  -0.818 -14.995  1.00  0.00    -0.000 C 
BRANCH  17  18
ATOM     18  C   UNL     1      26.797  -2.133 -14.202  1.00  0.00    -0.003 C 
ATOM     19  C   UNL     1      27.936  -2.140 -13.183  1.00  0.00     0.004 C 
ENDBRANCH  17  18
ENDBRANCH  16  17
ENDBRANCH  15  16
ENDBRANCH  14  15
ENDBRANCH  13  14
ENDBRANCH  12  13
ENDBRANCH   1  12
TORSDOF 14
ENDMDL
MODEL 5
REMARK VINA RESULT:    -4.214      3.498      6.110
REMARK INTER + INTRA:          -9.552
REMARK INTER:                  -7.387
REMARK INTRA:                  -2.165
REMARK UNBOUND:                -1.889
REMARK SMILES CCCCCCCCCCCCCC[C@H](C)C(=O)[O-]
REMARK SMILES IDX 9 1 10 2 11 3 12 4 13 5 14 6 15 7 16 8 17 9 18 10 19 11 8 12
REMARK SMILES IDX 7 13 6 14 5 15 4 16 3 17 2 18 1 19
REMARK H PARENT
REMARK Flexibility Score: inf
ROOT
ATOM      1  C   UNL     1      26.904  -2.522  -7.767  1.00  0.00     0.000 C 
ENDROOT
BRANCH   1   2
ATOM      2  C   UNL     1      27.960  -3.289  -8.580  1.00  0.00     0.000 C 
BRANCH   2   3
ATOM      3  C   UNL     1      27.928  -2.951 -10.082  1.00  0.00     0.000 C 
BRANCH   3   4
ATOM      4  C   UNL     1      27.291  -4.018 -10.994  1.00  0.00     0.000 C 
BRANCH   4   5
ATOM      5  C   UNL     1      26.437  -5.038 -10.224  1.00  0.00     0.001 C 
BRANCH   5   6
ATOM      6  C   UNL     1      25.027  -5.232 -10.819  1.00  0.00     0.009 C 
BRANCH   6   7
ATOM      7  C   UNL     1      23.851  -5.350  -9.815  1.00  0.00     0.032 C 
ATOM      8  C   UNL     1      24.251  -4.965  -8.382  1.00  0.00     0.014 C 
BRANCH   7   9
ATOM      9  C   UNL     1      23.172  -6.696  -9.879  1.00  0.00     0.044 C 
ATOM     10  O   UNL     1      23.862  -7.738 -10.034  1.00  0.00    -0.550 OA
ATOM     11  O   UNL     1      21.788  -6.807  -9.793  1.00  0.00    -0.550 OA
ENDBRANCH   7   9
ENDBRANCH   6   7
ENDBRANCH   5   6
ENDBRANCH   4   5
ENDBRANCH   3   4
ENDBRANCH   2   3
ENDBRANCH   1   2
BRANCH   1  12
ATOM     12  C   UNL     1      26.852  -1.022  -8.112  1.00  0.00     0.000 C 
BRANCH  12  13
ATOM     13  C   UNL     1      25.719  -0.606  -9.069  1.00  0.00    -0.000 C 
BRANCH  13  14
ATOM     14  C   UNL     1      24.430  -1.415  -8.864  1.00  0.00    -0.000 C 
BRANCH  14  15
ATOM     15  C   UNL     1      23.777  -1.760 -10.207  1.00  0.00    -0.000 C 
BRANCH  15  16
ATOM     16  C   UNL     1      24.689  -1.371 -11.379  1.00  0.00    -0.000 C 
BRANCH  16  17
ATOM     17  C   UNL     1      24.058  -0.314 -12.304  1.00  0.00    -0.000 C 
BRANCH  17  18
ATOM     18  C   UNL     1      24.972   0.180 -13.440  1.00  0.00    -0.003 C 
ATOM     19  C   UNL     1      24.887   1.690 -13.662  1.00  0.00     0.004 C 
ENDBRANCH  17  18
ENDBRANCH  16  17
ENDBRANCH  15  16
ENDBRANCH  14  15
ENDBRANCH  13  14
ENDBRANCH  12  13
ENDBRANCH   1  12
TORSDOF 14
ENDMDL
MODEL 6
REMARK VINA RESULT:    -4.134      3.247      6.462
REMARK INTER + INTRA:          -9.407
REMARK INTER:                  -7.750
REMARK INTRA:                  -1.657
REMARK UNBOUND:                -1.889
REMARK SMILES CCCCCCCCCCCCCC[C@H](C)C(=O)[O-]
REMARK SMILES IDX 9 1 10 2 11 3 12 4 13 5 14 6 15 7 16 8 17 9 18 10 19 11 8 12
REMARK SMILES IDX 7 13 6 14 5 15 4 16 3 17 2 18 1 19
REMARK H PARENT
REMARK Flexibility Score: inf
ROOT
ATOM      1  C   UNL     1      27.001  -0.315  -7.835  1.00  0.00     0.000 C 
ENDROOT
BRANCH   1   2
ATOM      2  C   UNL     1      28.115  -1.105  -7.129  1.00  0.00     0.000 C 
BRANCH   2   3
ATOM      3  C   UNL     1      28.203  -2.571  -7.593  1.00  0.00     0.000 C 
BRANCH   3   4
ATOM      4  C   UNL     1      28.293  -3.623  -6.471  1.00  0.00     0.000 C 
BRANCH   4   5
ATOM      5  C   UNL     1      27.408  -4.854  -6.725  1.00  0.00     0.001 C 
BRANCH   5   6
ATOM      6  C   UNL     1      26.203  -4.566  -7.645  1.00  0.00     0.009 C 
BRANCH   6   7
ATOM      7  C   UNL     1      26.080  -5.425  -8.931  1.00  0.00     0.032 C 
ATOM      8  C   UNL     1      26.263  -4.601 -10.216  1.00  0.00     0.014 C 
BRANCH   7   9
ATOM      9  C   UNL     1      24.817  -6.251  -8.953  1.00  0.00     0.044 C 
ATOM     10  O   UNL     1      24.893  -7.508  -8.969  1.00  0.00    -0.550 OA
ATOM     11  O   UNL     1      23.565  -5.647  -8.982  1.00  0.00    -0.550 OA
ENDBRANCH   7   9
ENDBRANCH   6   7
ENDBRANCH   5   6
ENDBRANCH   4   5
ENDBRANCH   3   4
ENDBRANCH   2   3
ENDBRANCH   1   2
BRANCH   1  12
ATOM     12  C   UNL     1      26.335  -1.104  -8.978  1.00  0.00     0.000 C 
BRANCH  12  13
ATOM     13  C   UNL     1      24.849  -1.447  -8.764  1.00  0.00    -0.000 C 
BRANCH  13  14
ATOM     14  C   UNL     1      24.072  -1.602 -10.080  1.00  0.00    -0.000 C 
BRANCH  14  15
ATOM     15  C   UNL     1      24.867  -1.030 -11.259  1.00  0.00    -0.000 C 
BRANCH  15  16
ATOM     16  C   UNL     1      23.930  -0.425 -12.314  1.00  0.00    -0.000 C 
BRANCH  16  17
ATOM     17  C   UNL     1      24.438  -0.626 -13.753  1.00  0.00    -0.000 C 
BRANCH  17  18
ATOM     18  C   UNL     1      25.432   0.442 -14.244  1.00  0.00    -0.003 C 
ATOM     19  C   UNL     1      25.221   1.804 -13.583  1.00  0.00     0.004 C 
ENDBRANCH  17  18
ENDBRANCH  16  17
ENDBRANCH  15  16
ENDBRANCH  14  15
ENDBRANCH  13  14
ENDBRANCH  12  13
ENDBRANCH   1  12
TORSDOF 14
ENDMDL
MODEL 7
REMARK VINA RESULT:    -4.006      2.796      6.442
REMARK INTER + INTRA:          -9.173
REMARK INTER:                  -7.252
REMARK INTRA:                  -1.921
REMARK UNBOUND:                -1.889
REMARK SMILES CCCCCCCCCCCCCC[C@H](C)C(=O)[O-]
REMARK SMILES IDX 9 1 10 2 11 3 12 4 13 5 14 6 15 7 16 8 17 9 18 10 19 11 8 12
REMARK SMILES IDX 7 13 6 14 5 15 4 16 3 17 2 18 1 19
REMARK H PARENT
REMARK Flexibility Score: inf
ROOT
ATOM      1  C   UNL     1      24.855  -4.647 -10.060  1.00  0.00     0.000 C 
ENDROOT
BRANCH   1   2
ATOM      2  C   UNL     1      24.550  -5.934  -9.275  1.00  0.00     0.000 C 
BRANCH   2   3
ATOM      3  C   UNL     1      25.632  -6.275  -8.233  1.00  0.00     0.000 C 
BRANCH   3   4
ATOM      4  C   UNL     1      26.081  -5.111  -7.330  1.00  0.00     0.000 C 
BRANCH   4   5
ATOM      5  C   UNL     1      27.529  -5.253  -6.835  1.00  0.00     0.001 C 
BRANCH   5   6
ATOM      6  C   UNL     1      28.340  -3.944  -6.920  1.00  0.00     0.009 C 
BRANCH   6   7
ATOM      7  C   UNL     1      27.756  -2.813  -7.807  1.00  0.00     0.032 C 
ATOM      8  C   UNL     1      28.262  -2.874  -9.257  1.00  0.00     0.014 C 
BRANCH   7   9
ATOM      9  C   UNL     1      27.940  -1.446  -7.193  1.00  0.00     0.044 C 
ATOM     10  O   UNL     1      27.412  -0.440  -7.736  1.00  0.00    -0.550 OA
ATOM     11  O   UNL     1      28.706  -1.272  -6.045  1.00  0.00    -0.550 OA
ENDBRANCH   7   9
ENDBRANCH   6   7
ENDBRANCH   5   6
ENDBRANCH   4   5
ENDBRANCH   3   4
ENDBRANCH   2   3
ENDBRANCH   1   2
BRANCH   1  12
ATOM     12  C   UNL     1      23.883  -3.499  -9.735  1.00  0.00     0.000 C 
BRANCH  12  13
ATOM     13  C   UNL     1      24.528  -2.245  -9.116  1.00  0.00    -0.000 C 
BRANCH  13  14
ATOM     14  C   UNL     1      24.380  -0.995  -9.996  1.00  0.00    -0.000 C 
BRANCH  14  15
ATOM     15  C   UNL     1      25.656  -0.738 -10.806  1.00  0.00    -0.000 C 
BRANCH  15  16
ATOM     16  C   UNL     1      25.538  -1.324 -12.221  1.00  0.00    -0.000 C 
BRANCH  16  17
ATOM     17  C   UNL     1      24.406  -0.680 -13.043  1.00  0.00    -0.000 C 
BRANCH  17  18
ATOM     18  C   UNL     1      24.539   0.839 -13.250  1.00  0.00    -0.003 C 
ATOM     19  C   UNL     1      25.371   1.205 -14.479  1.00  0.00     0.004 C 
ENDBRANCH  17  18
ENDBRANCH  16  17
ENDBRANCH  15  16
ENDBRANCH  14  15
ENDBRANCH  13  14
ENDBRANCH  12  13
ENDBRANCH   1  12
TORSDOF 14
ENDMDL
MODEL 8
REMARK VINA RESULT:    -3.990      2.785      6.133
REMARK INTER + INTRA:          -9.145
REMARK INTER:                  -6.747
REMARK INTRA:                  -2.398
REMARK UNBOUND:                -1.889
REMARK SMILES CCCCCCCCCCCCCC[C@H](C)C(=O)[O-]
REMARK SMILES IDX 9 1 10 2 11 3 12 4 13 5 14 6 15 7 16 8 17 9 18 10 19 11 8 12
REMARK SMILES IDX 7 13 6 14 5 15 4 16 3 17 2 18 1 19
REMARK H PARENT
REMARK Flexibility Score: inf
ROOT
ATOM      1  C   UNL     1      25.219  -5.922 -10.898  1.00  0.00     0.000 C 
ENDROOT
BRANCH   1   2
ATOM      2  C   UNL     1      25.928  -6.077  -9.543  1.00  0.00     0.000 C 
BRANCH   2   3
ATOM      3  C   UNL     1      25.115  -5.502  -8.367  1.00  0.00     0.000 C 
BRANCH   3   4
ATOM      4  C   UNL     1      24.233  -4.283  -8.699  1.00  0.00     0.000 C 
BRANCH   4   5
ATOM      5  C   UNL     1      24.861  -2.948  -8.269  1.00  0.00     0.001 C 
BRANCH   5   6
ATOM      6  C   UNL     1      26.173  -3.113  -7.474  1.00  0.00     0.009 C 
BRANCH   6   7
ATOM      7  C   UNL     1      27.449  -2.476  -8.085  1.00  0.00     0.032 C 
ATOM      8  C   UNL     1      28.668  -3.410  -8.021  1.00  0.00     0.014 C 
BRANCH   7   9
ATOM      9  C   UNL     1      27.741  -1.110  -7.513  1.00  0.00     0.044 C 
ATOM     10  O   UNL     1      28.708  -0.958  -6.721  1.00  0.00    -0.550 OA
ATOM     11  O   UNL     1      26.943  -0.015  -7.827  1.00  0.00    -0.550 OA
ENDBRANCH   7   9
ENDBRANCH   6   7
ENDBRANCH   5   6
ENDBRANCH   4   5
ENDBRANCH   3   4
ENDBRANCH   2   3
ENDBRANCH   1   2
BRANCH   1  12
ATOM     12  C   UNL     1      26.083  -5.201 -11.950  1.00  0.00     0.000 C 
BRANCH  12  13
ATOM     13  C   UNL     1      26.704  -3.869 -11.490  1.00  0.00    -0.000 C 
BRANCH  13  14
ATOM     14  C   UNL     1      26.008  -2.640 -12.095  1.00  0.00    -0.000 C 
BRANCH  14  15
ATOM     15  C   UNL     1      26.376  -1.366 -11.327  1.00  0.00    -0.000 C 
BRANCH  15  16
ATOM     16  C   UNL     1      25.133  -0.505 -11.059  1.00  0.00    -0.000 C 
BRANCH  16  17
ATOM     17  C   UNL     1      24.196  -0.411 -12.278  1.00  0.00    -0.000 C 
BRANCH  17  18
ATOM     18  C   UNL     1      24.450   0.796 -13.198  1.00  0.00    -0.003 C 
ATOM     19  C   UNL     1      25.353   0.464 -14.385  1.00  0.00     0.004 C 
ENDBRANCH  17  18
ENDBRANCH  16  17
ENDBRANCH  15  16
ENDBRANCH  14  15
ENDBRANCH  13  14
ENDBRANCH  12  13
ENDBRANCH   1  12
TORSDOF 14
ENDMDL
MODEL 9
REMARK VINA RESULT:    -3.936      1.604      2.643
REMARK INTER + INTRA:          -9.046
REMARK INTER:                  -6.692
REMARK INTRA:                  -2.353
REMARK UNBOUND:                -1.889
REMARK SMILES CCCCCCCCCCCCCC[C@H](C)C(=O)[O-]
REMARK SMILES IDX 9 1 10 2 11 3 12 4 13 5 14 6 15 7 16 8 17 9 18 10 19 11 8 12
REMARK SMILES IDX 7 13 6 14 5 15 4 16 3 17 2 18 1 19
REMARK H PARENT
REMARK Flexibility Score: inf
ROOT
ATOM      1  C   UNL     1      25.619  -0.748  -9.028  1.00  0.00     0.000 C 
ENDROOT
BRANCH   1   2
ATOM      2  C   UNL     1      25.558  -0.661 -10.562  1.00  0.00     0.000 C 
BRANCH   2   3
ATOM      3  C   UNL     1      24.168  -1.001 -11.131  1.00  0.00     0.000 C 
BRANCH   3   4
ATOM      4  C   UNL     1      23.787  -0.281 -12.439  1.00  0.00     0.000 C 
BRANCH   4   5
ATOM      5  C   UNL     1      25.005   0.252 -13.211  1.00  0.00     0.001 C 
BRANCH   5   6
ATOM      6  C   UNL     1      25.142  -0.341 -14.628  1.00  0.00     0.009 C 
BRANCH   6   7
ATOM      7  C   UNL     1      26.460  -1.095 -14.949  1.00  0.00     0.032 C 
ATOM      8  C   UNL     1      26.956  -1.952 -13.773  1.00  0.00     0.014 C 
BRANCH   7   9
ATOM      9  C   UNL     1      27.533  -0.179 -15.483  1.00  0.00     0.044 C 
ATOM     10  O   UNL     1      28.730  -0.569 -15.515  1.00  0.00    -0.550 OA
ATOM     11  O   UNL     1      27.227   1.105 -15.922  1.00  0.00    -0.550 OA
ENDBRANCH   7   9
ENDBRANCH   6   7
ENDBRANCH   5   6
ENDBRANCH   4   5
ENDBRANCH   3   4
ENDBRANCH   2   3
ENDBRANCH   1   2
BRANCH   1  12
ATOM     12  C   UNL     1      26.745  -1.668  -8.521  1.00  0.00     0.000 C 
BRANCH  12  13
ATOM     13  C   UNL     1      26.284  -2.861  -7.663  1.00  0.00    -0.000 C 
BRANCH  13  14
ATOM     14  C   UNL     1      24.796  -3.195  -7.847  1.00  0.00    -0.000 C 
BRANCH  14  15
ATOM     15  C   UNL     1      24.617  -4.575  -8.490  1.00  0.00    -0.000 C 
BRANCH  15  16
ATOM     16  C   UNL     1      24.034  -4.452  -9.905  1.00  0.00    -0.000 C 
BRANCH  16  17
ATOM     17  C   UNL     1      25.117  -4.431 -11.000  1.00  0.00    -0.000 C 
BRANCH  17  18
ATOM     18  C   UNL     1      26.427  -5.146 -10.628  1.00  0.00    -0.003 C 
ATOM     19  C   UNL     1      27.672  -4.312 -10.931  1.00  0.00     0.004 C 
ENDBRANCH  17  18
ENDBRANCH  16  17
ENDBRANCH  15  16
ENDBRANCH  14  15
ENDBRANCH  13  14
ENDBRANCH  12  13
ENDBRANCH   1  12
TORSDOF 14
ENDMDL
