MODEL 1
REMARK VINA RESULT:    -4.073      0.000      0.000
REMARK INTER + INTRA:          -4.469
REMARK INTER:                  -4.431
REMARK INTRA:                  -0.038
REMARK UNBOUND:                -0.038
REMARK SMILES COc1ccccc1O
REMARK SMILES IDX 3 1 4 2 5 3 6 4 7 5 8 6 2 7 1 8 9 9
REMARK H PARENT 9 10
REMARK Flexibility Score: inf
ROOT
ATOM      1  C   UNL     1      37.936  20.172  54.547  1.00  0.00     0.160 A 
ATOM      2  C   UNL     1      36.674  19.735  54.097  1.00  0.00     0.050 A 
ATOM      3  C   UNL     1      36.546  18.502  53.449  1.00  0.00     0.004 A 
ATOM      4  C   UNL     1      37.669  17.698  53.244  1.00  0.00     0.004 A 
ATOM      5  C   UNL     1      38.923  18.123  53.687  1.00  0.00     0.050 A 
ATOM      6  C   UNL     1      39.060  19.357  54.338  1.00  0.00     0.157 A 
ENDROOT
BRANCH   1   7
ATOM      7  O   UNL     1      38.112  21.401  55.202  1.00  0.00    -0.493 OA
ATOM      8  C   UNL     1      37.389  21.806  56.360  1.00  0.00     0.278 C 
ENDBRANCH   1   7
BRANCH   6   9
ATOM      9  O   UNL     1      40.311  19.784  54.780  1.00  0.00    -0.504 OA
ATOM     10  H   UNL     1      41.095  19.145  54.849  1.00  0.00     0.293 HD
ENDBRANCH   6   9
TORSDOF 2
ENDMDL
MODEL 2
REMARK VINA RESULT:    -4.066      1.617      3.312
REMARK INTER + INTRA:          -4.461
REMARK INTER:                  -4.434
REMARK INTRA:                  -0.027
REMARK UNBOUND:                -0.038
REMARK SMILES COc1ccccc1O
REMARK SMILES IDX 3 1 4 2 5 3 6 4 7 5 8 6 2 7 1 8 9 9
REMARK H PARENT 9 10
REMARK Flexibility Score: inf
ROOT
ATOM      1  C   UNL     1      39.040  18.674  54.000  1.00  0.00     0.160 A 
ATOM      2  C   UNL     1      37.671  18.615  54.329  1.00  0.00     0.050 A 
ATOM      3  C   UNL     1      37.020  19.742  54.840  1.00  0.00     0.004 A 
ATOM      4  C   UNL     1      37.724  20.934  55.027  1.00  0.00     0.004 A 
ATOM      5  C   UNL     1      39.080  21.002  54.703  1.00  0.00     0.050 A 
ATOM      6  C   UNL     1      39.741  19.877  54.190  1.00  0.00     0.157 A 
ENDROOT
BRANCH   1   7
ATOM      7  O   UNL     1      39.735  17.569  53.485  1.00  0.00    -0.493 OA
ATOM      8  C   UNL     1      39.127  16.331  53.128  1.00  0.00     0.278 C 
ENDBRANCH   1   7
BRANCH   6   9
ATOM      9  O   UNL     1      41.095  19.943  53.867  1.00  0.00    -0.504 OA
ATOM     10  H   UNL     1      41.810  19.625  54.511  1.00  0.00     0.293 HD
ENDBRANCH   6   9
TORSDOF 2
ENDMDL
MODEL 3
REMARK VINA RESULT:    -4.037      1.648      2.754
REMARK INTER + INTRA:          -4.429
REMARK INTER:                  -4.383
REMARK INTRA:                  -0.046
REMARK UNBOUND:                -0.038
REMARK SMILES COc1ccccc1O
REMARK SMILES IDX 3 1 4 2 5 3 6 4 7 5 8 6 2 7 1 8 9 9
REMARK H PARENT 9 10
REMARK Flexibility Score: inf
ROOT
ATOM      1  C   UNL     1      39.647  20.213  54.215  1.00  0.00     0.160 A 
ATOM      2  C   UNL     1      38.694  21.103  54.748  1.00  0.00     0.050 A 
ATOM      3  C   UNL     1      37.402  20.658  55.043  1.00  0.00     0.004 A 
ATOM      4  C   UNL     1      37.049  19.326  54.812  1.00  0.00     0.004 A 
ATOM      5  C   UNL     1      37.987  18.437  54.286  1.00  0.00     0.050 A 
ATOM      6  C   UNL     1      39.286  18.875  53.987  1.00  0.00     0.157 A 
ENDROOT
BRANCH   1   7
ATOM      7  O   UNL     1      40.956  20.615  53.904  1.00  0.00    -0.493 OA
ATOM      8  C   UNL     1      41.305  21.416  52.779  1.00  0.00     0.278 C 
ENDBRANCH   1   7
BRANCH   6   9
ATOM      9  O   UNL     1      40.224  17.989  53.460  1.00  0.00    -0.504 OA
ATOM     10  H   UNL     1      39.961  17.276  52.789  1.00  0.00     0.293 HD
ENDBRANCH   6   9
TORSDOF 2
ENDMDL
MODEL 4
REMARK VINA RESULT:    -3.952      1.342      2.828
REMARK INTER + INTRA:          -4.337
REMARK INTER:                  -4.297
REMARK INTRA:                  -0.039
REMARK UNBOUND:                -0.038
REMARK SMILES COc1ccccc1O
REMARK SMILES IDX 3 1 4 2 5 3 6 4 7 5 8 6 2 7 1 8 9 9
REMARK H PARENT 9 10
REMARK Flexibility Score: inf
ROOT
ATOM      1  C   UNL     1      39.427  19.970  54.187  1.00  0.00     0.160 A 
ATOM      2  C   UNL     1      39.233  18.604  53.900  1.00  0.00     0.050 A 
ATOM      3  C   UNL     1      37.975  18.019  54.075  1.00  0.00     0.004 A 
ATOM      4  C   UNL     1      36.903  18.787  54.534  1.00  0.00     0.004 A 
ATOM      5  C   UNL     1      37.085  20.141  54.819  1.00  0.00     0.050 A 
ATOM      6  C   UNL     1      38.343  20.736  54.647  1.00  0.00     0.157 A 
ENDROOT
BRANCH   1   7
ATOM      7  O   UNL     1      40.671  20.599  54.026  1.00  0.00    -0.493 OA
ATOM      8  C   UNL     1      41.150  21.134  52.796  1.00  0.00     0.278 C 
ENDBRANCH   1   7
BRANCH   6   9
ATOM      9  O   UNL     1      38.528  22.088  54.932  1.00  0.00    -0.504 OA
ATOM     10  H   UNL     1      38.312  22.807  54.251  1.00  0.00     0.293 HD
ENDBRANCH   6   9
TORSDOF 2
ENDMDL
MODEL 5
REMARK VINA RESULT:    -3.880      7.136      7.860
REMARK INTER + INTRA:          -4.258
REMARK INTER:                  -4.212
REMARK INTRA:                  -0.046
REMARK UNBOUND:                -0.038
REMARK SMILES COc1ccccc1O
REMARK SMILES IDX 3 1 4 2 5 3 6 4 7 5 8 6 2 7 1 8 9 9
REMARK H PARENT 9 10
REMARK Flexibility Score: inf
ROOT
ATOM      1  C   UNL     1      42.156  25.948  53.117  1.00  0.00     0.160 A 
ATOM      2  C   UNL     1      42.027  25.861  51.717  1.00  0.00     0.050 A 
ATOM      3  C   UNL     1      43.055  25.305  50.948  1.00  0.00     0.004 A 
ATOM      4  C   UNL     1      44.216  24.833  51.565  1.00  0.00     0.004 A 
ATOM      5  C   UNL     1      44.351  24.914  52.952  1.00  0.00     0.050 A 
ATOM      6  C   UNL     1      43.326  25.469  53.731  1.00  0.00     0.157 A 
ENDROOT
BRANCH   1   7
ATOM      7  O   UNL     1      41.151  26.497  53.929  1.00  0.00    -0.493 OA
ATOM      8  C   UNL     1      39.920  25.850  54.234  1.00  0.00     0.278 C 
ENDBRANCH   1   7
BRANCH   6   9
ATOM      9  O   UNL     1      43.459  25.552  55.116  1.00  0.00    -0.504 OA
ATOM     10  H   UNL     1      44.229  25.106  55.601  1.00  0.00     0.293 HD
ENDBRANCH   6   9
TORSDOF 2
ENDMDL
MODEL 6
REMARK VINA RESULT:    -3.862      2.157      2.961
REMARK INTER + INTRA:          -4.239
REMARK INTER:                  -4.203
REMARK INTRA:                  -0.036
REMARK UNBOUND:                -0.038
REMARK SMILES COc1ccccc1O
REMARK SMILES IDX 3 1 4 2 5 3 6 4 7 5 8 6 2 7 1 8 9 9
REMARK H PARENT 9 10
REMARK Flexibility Score: inf
ROOT
ATOM      1  C   UNL     1      38.470  19.953  53.791  1.00  0.00     0.160 A 
ATOM      2  C   UNL     1      37.690  20.388  52.701  1.00  0.00     0.050 A 
ATOM      3  C   UNL     1      38.058  21.531  51.984  1.00  0.00     0.004 A 
ATOM      4  C   UNL     1      39.202  22.247  52.343  1.00  0.00     0.004 A 
ATOM      5  C   UNL     1      39.981  21.822  53.421  1.00  0.00     0.050 A 
ATOM      6  C   UNL     1      39.620  20.677  54.146  1.00  0.00     0.157 A 
ENDROOT
BRANCH   1   7
ATOM      7  O   UNL     1      38.139  18.812  54.539  1.00  0.00    -0.493 OA
ATOM      8  C   UNL     1      36.845  18.545  55.069  1.00  0.00     0.278 C 
ENDBRANCH   1   7
BRANCH   6   9
ATOM      9  O   UNL     1      40.396  20.252  55.222  1.00  0.00    -0.504 OA
ATOM     10  H   UNL     1      40.860  19.351  55.218  1.00  0.00     0.293 HD
ENDBRANCH   6   9
TORSDOF 2
ENDMDL
MODEL 7
REMARK VINA RESULT:    -3.820     16.444     17.914
REMARK INTER + INTRA:          -4.193
REMARK INTER:                  -4.150
REMARK INTRA:                  -0.043
REMARK UNBOUND:                -0.038
REMARK SMILES COc1ccccc1O
REMARK SMILES IDX 3 1 4 2 5 3 6 4 7 5 8 6 2 7 1 8 9 9
REMARK H PARENT 9 10
REMARK Flexibility Score: inf
ROOT
ATOM      1  C   UNL     1      47.453  33.518  61.029  1.00  0.00     0.160 A 
ATOM      2  C   UNL     1      47.795  33.921  62.335  1.00  0.00     0.050 A 
ATOM      3  C   UNL     1      47.088  33.423  63.434  1.00  0.00     0.004 A 
ATOM      4  C   UNL     1      46.037  32.523  63.242  1.00  0.00     0.004 A 
ATOM      5  C   UNL     1      45.692  32.118  61.952  1.00  0.00     0.050 A 
ATOM      6  C   UNL     1      46.396  32.611  60.844  1.00  0.00     0.157 A 
ENDROOT
BRANCH   1   7
ATOM      7  O   UNL     1      48.135  33.991  59.896  1.00  0.00    -0.493 OA
ATOM      8  C   UNL     1      49.364  33.456  59.416  1.00  0.00     0.278 C 
ENDBRANCH   1   7
BRANCH   6   9
ATOM      9  O   UNL     1      46.052  32.209  59.555  1.00  0.00    -0.504 OA
ATOM     10  H   UNL     1      45.799  31.249  59.350  1.00  0.00     0.293 HD
ENDBRANCH   6   9
TORSDOF 2
ENDMDL
MODEL 8
REMARK VINA RESULT:    -3.774      1.076      2.300
REMARK INTER + INTRA:          -4.144
REMARK INTER:                  -4.173
REMARK INTRA:                   0.029
REMARK UNBOUND:                -0.038
REMARK SMILES COc1ccccc1O
REMARK SMILES IDX 3 1 4 2 5 3 6 4 7 5 8 6 2 7 1 8 9 9
REMARK H PARENT 9 10
REMARK Flexibility Score: inf
ROOT
ATOM      1  C   UNL     1      37.994  20.376  54.324  1.00  0.00     0.160 A 
ATOM      2  C   UNL     1      38.943  19.333  54.335  1.00  0.00     0.050 A 
ATOM      3  C   UNL     1      38.770  18.216  53.511  1.00  0.00     0.004 A 
ATOM      4  C   UNL     1      37.656  18.128  52.673  1.00  0.00     0.004 A 
ATOM      5  C   UNL     1      36.712  19.156  52.656  1.00  0.00     0.050 A 
ATOM      6  C   UNL     1      36.877  20.280  53.479  1.00  0.00     0.157 A 
ENDROOT
BRANCH   1   7
ATOM      7  O   UNL     1      38.126  21.515  55.134  1.00  0.00    -0.493 OA
ATOM      8  C   UNL     1      37.465  21.696  56.382  1.00  0.00     0.278 C 
ENDBRANCH   1   7
BRANCH   6   9
ATOM      9  O   UNL     1      35.935  21.308  53.464  1.00  0.00    -0.504 OA
ATOM     10  H   UNL     1      35.089  21.242  52.910  1.00  0.00     0.293 HD
ENDBRANCH   6   9
TORSDOF 2
ENDMDL
MODEL 9
REMARK VINA RESULT:    -3.741      2.450      3.353
REMARK INTER + INTRA:          -4.108
REMARK INTER:                  -4.074
REMARK INTRA:                  -0.034
REMARK UNBOUND:                -0.038
REMARK SMILES COc1ccccc1O
REMARK SMILES IDX 3 1 4 2 5 3 6 4 7 5 8 6 2 7 1 8 9 9
REMARK H PARENT 9 10
REMARK Flexibility Score: inf
ROOT
ATOM      1  C   UNL     1      39.959  21.144  53.079  1.00  0.00     0.160 A 
ATOM      2  C   UNL     1      39.022  21.463  52.076  1.00  0.00     0.050 A 
ATOM      3  C   UNL     1      37.657  21.254  52.296  1.00  0.00     0.004 A 
ATOM      4  C   UNL     1      37.215  20.726  53.512  1.00  0.00     0.004 A 
ATOM      5  C   UNL     1      38.137  20.408  54.511  1.00  0.00     0.050 A 
ATOM      6  C   UNL     1      39.507  20.616  54.299  1.00  0.00     0.157 A 
ENDROOT
BRANCH   1   7
ATOM      7  O   UNL     1      41.338  21.338  52.903  1.00  0.00    -0.493 OA
ATOM      8  C   UNL     1      41.921  22.505  52.331  1.00  0.00     0.278 C 
ENDBRANCH   1   7
BRANCH   6   9
ATOM      9  O   UNL     1      40.429  20.298  55.295  1.00  0.00    -0.504 OA
ATOM     10  H   UNL     1      40.152  20.212  56.266  1.00  0.00     0.293 HD
ENDBRANCH   6   9
TORSDOF 2
ENDMDL
