MODEL 1
REMARK VINA RESULT:    -4.872      0.000      0.000
REMARK INTER + INTRA:          -5.015
REMARK INTER:                  -5.015
REMARK INTRA:                   0.000
REMARK UNBOUND:                 0.000
REMARK SMILES Nc1ncnc2nc[nH]c12
REMARK SMILES IDX 8 1 7 2 6 3 5 4 4 5 3 6 2 7 10 8 9 9 1 11
REMARK H PARENT 9 10 1 12 1 13
REMARK Flexibility Score: inf
ROOT
ATOM      1  C   UNL     1     -11.015 -11.678  18.031  1.00  0.00     0.199 A 
ATOM      2  N   UNL     1     -10.150 -11.281  17.058  1.00  0.00    -0.217 NA
ATOM      3  C   UNL     1     -10.422 -12.144  16.066  1.00  0.00     0.182 A 
ATOM      4  N   UNL     1      -9.829 -12.186  14.849  1.00  0.00    -0.215 NA
ATOM      5  C   UNL     1     -10.243 -13.144  13.963  1.00  0.00     0.226 A 
ATOM      6  N   UNL     1     -11.231 -14.031  14.308  1.00  0.00    -0.217 NA
ATOM      7  C   UNL     1     -11.829 -13.988  15.536  1.00  0.00     0.152 A 
ATOM      8  C   UNL     1     -11.397 -13.009  16.426  1.00  0.00     0.127 A 
ATOM      9  N   UNL     1     -11.792 -12.732  17.674  1.00  0.00    -0.340 N 
ATOM     10  H   UNL     1     -12.523 -13.207  18.249  1.00  0.00     0.168 HD
ENDROOT
BRANCH   7  11
ATOM     11  N   UNL     1     -12.856 -14.923  15.873  1.00  0.00    -0.382 N 
ATOM     12  H   UNL     1     -13.701 -14.632  16.412  1.00  0.00     0.158 HD
ATOM     13  H   UNL     1     -12.770 -15.921  15.580  1.00  0.00     0.158 HD
ENDBRANCH   7  11
TORSDOF 1
ENDMDL
MODEL 2
REMARK VINA RESULT:    -4.702      1.024      3.845
REMARK INTER + INTRA:          -4.839
REMARK INTER:                  -4.839
REMARK INTRA:                   0.000
REMARK UNBOUND:                 0.000
REMARK SMILES Nc1ncnc2nc[nH]c12
REMARK SMILES IDX 8 1 7 2 6 3 5 4 4 5 3 6 2 7 10 8 9 9 1 11
REMARK H PARENT 9 10 1 12 1 13
REMARK Flexibility Score: inf
ROOT
ATOM      1  C   UNL     1     -11.179 -13.832  14.010  1.00  0.00     0.199 A 
ATOM      2  N   UNL     1     -11.741 -14.225  15.186  1.00  0.00    -0.217 NA
ATOM      3  C   UNL     1     -11.360 -13.246  16.024  1.00  0.00     0.182 A 
ATOM      4  N   UNL     1     -11.657 -13.152  17.342  1.00  0.00    -0.215 NA
ATOM      5  C   UNL     1     -11.175 -12.075  18.036  1.00  0.00     0.226 A 
ATOM      6  N   UNL     1     -10.415 -11.124  17.405  1.00  0.00    -0.217 NA
ATOM      7  C   UNL     1     -10.115 -11.218  16.075  1.00  0.00     0.152 A 
ATOM      8  C   UNL     1     -10.612 -12.320  15.383  1.00  0.00     0.127 A 
ATOM      9  N   UNL     1     -10.482 -12.671  14.098  1.00  0.00    -0.340 N 
ATOM     10  H   UNL     1      -9.970 -12.178  13.334  1.00  0.00     0.168 HD
ENDROOT
BRANCH   7  11
ATOM     11  N   UNL     1      -9.320 -10.215  15.439  1.00  0.00    -0.382 N 
ATOM     12  H   UNL     1      -9.680  -9.247  15.296  1.00  0.00     0.158 HD
ATOM     13  H   UNL     1      -8.358 -10.445  15.107  1.00  0.00     0.158 HD
ENDBRANCH   7  11
TORSDOF 1
ENDMDL
MODEL 3
REMARK VINA RESULT:    -4.671      1.215      3.152
REMARK INTER + INTRA:          -4.807
REMARK INTER:                  -4.807
REMARK INTRA:                   0.000
REMARK UNBOUND:                 0.000
REMARK SMILES Nc1ncnc2nc[nH]c12
REMARK SMILES IDX 8 1 7 2 6 3 5 4 4 5 3 6 2 7 10 8 9 9 1 11
REMARK H PARENT 9 10 1 12 1 13
REMARK Flexibility Score: inf
ROOT
ATOM      1  C   UNL     1     -11.605 -13.753  15.022  1.00  0.00     0.199 A 
ATOM      2  N   UNL     1     -10.595 -12.989  14.521  1.00  0.00    -0.217 NA
ATOM      3  C   UNL     1     -10.371 -12.122  15.522  1.00  0.00     0.182 A 
ATOM      4  N   UNL     1      -9.451 -11.129  15.538  1.00  0.00    -0.215 NA
ATOM      5  C   UNL     1      -9.370 -10.342  16.655  1.00  0.00     0.226 A 
ATOM      6  N   UNL     1     -10.203 -10.562  17.723  1.00  0.00    -0.217 NA
ATOM      7  C   UNL     1     -11.132 -11.564  17.707  1.00  0.00     0.152 A 
ATOM      8  C   UNL     1     -11.201 -12.355  16.564  1.00  0.00     0.127 A 
ATOM      9  N   UNL     1     -11.998 -13.390  16.269  1.00  0.00    -0.340 N 
ATOM     10  H   UNL     1     -12.747 -13.824  16.851  1.00  0.00     0.168 HD
ENDROOT
BRANCH   7  11
ATOM     11  N   UNL     1     -11.989 -11.773  18.831  1.00  0.00    -0.382 N 
ATOM     12  H   UNL     1     -12.944 -11.356  18.872  1.00  0.00     0.158 HD
ATOM     13  H   UNL     1     -11.663 -12.354  19.635  1.00  0.00     0.158 HD
ENDBRANCH   7  11
TORSDOF 1
ENDMDL
MODEL 4
REMARK VINA RESULT:    -4.667      2.108      3.374
REMARK INTER + INTRA:          -4.803
REMARK INTER:                  -4.803
REMARK INTRA:                   0.000
REMARK UNBOUND:                 0.000
REMARK SMILES Nc1ncnc2nc[nH]c12
REMARK SMILES IDX 8 1 7 2 6 3 5 4 4 5 3 6 2 7 10 8 9 9 1 11
REMARK H PARENT 9 10 1 12 1 13
REMARK Flexibility Score: inf
ROOT
ATOM      1  C   UNL     1      -9.074  -9.040  18.140  1.00  0.00     0.199 A 
ATOM      2  N   UNL     1      -8.610 -10.006  17.300  1.00  0.00    -0.217 NA
ATOM      3  C   UNL     1      -9.566 -10.945  17.391  1.00  0.00     0.182 A 
ATOM      4  N   UNL     1      -9.592 -12.134  16.745  1.00  0.00    -0.215 NA
ATOM      5  C   UNL     1     -10.657 -12.965  16.966  1.00  0.00     0.226 A 
ATOM      6  N   UNL     1     -11.662 -12.595  17.822  1.00  0.00    -0.217 NA
ATOM      7  C   UNL     1     -11.636 -11.395  18.475  1.00  0.00     0.152 A 
ATOM      8  C   UNL     1     -10.547 -10.561  18.239  1.00  0.00     0.127 A 
ATOM      9  N   UNL     1     -10.257  -9.350  18.729  1.00  0.00    -0.340 N 
ATOM     10  H   UNL     1     -10.801  -8.770  19.404  1.00  0.00     0.168 HD
ENDROOT
BRANCH   7  11
ATOM     11  N   UNL     1     -12.696 -11.031  19.362  1.00  0.00    -0.382 N 
ATOM     12  H   UNL     1     -12.629 -11.204  20.388  1.00  0.00     0.158 HD
ATOM     13  H   UNL     1     -13.560 -10.581  18.986  1.00  0.00     0.158 HD
ENDBRANCH   7  11
TORSDOF 1
ENDMDL
MODEL 5
REMARK VINA RESULT:    -4.594      2.253      3.062
REMARK INTER + INTRA:          -4.729
REMARK INTER:                  -4.729
REMARK INTRA:                   0.000
REMARK UNBOUND:                 0.000
REMARK SMILES Nc1ncnc2nc[nH]c12
REMARK SMILES IDX 8 1 7 2 6 3 5 4 4 5 3 6 2 7 10 8 9 9 1 11
REMARK H PARENT 9 10 1 12 1 13
REMARK Flexibility Score: inf
ROOT
ATOM      1  C   UNL     1      -7.819 -13.151  18.238  1.00  0.00     0.199 A 
ATOM      2  N   UNL     1      -8.015 -14.124  17.306  1.00  0.00    -0.217 NA
ATOM      3  C   UNL     1      -9.341 -14.057  17.100  1.00  0.00     0.182 A 
ATOM      4  N   UNL     1     -10.065 -14.825  16.251  1.00  0.00    -0.215 NA
ATOM      5  C   UNL     1     -11.414 -14.609  16.177  1.00  0.00     0.226 A 
ATOM      6  N   UNL     1     -12.007 -13.640  16.946  1.00  0.00    -0.217 NA
ATOM      7  C   UNL     1     -11.277 -12.865  17.803  1.00  0.00     0.152 A 
ATOM      8  C   UNL     1      -9.906 -13.097  17.866  1.00  0.00     0.127 A 
ATOM      9  N   UNL     1      -8.957 -12.505  18.601  1.00  0.00    -0.340 N 
ATOM     10  H   UNL     1      -9.054 -11.730  19.293  1.00  0.00     0.168 HD
ENDROOT
BRANCH   7  11
ATOM     11  N   UNL     1     -11.917 -11.862  18.594  1.00  0.00    -0.382 N 
ATOM     12  H   UNL     1     -11.453 -11.456  19.436  1.00  0.00     0.158 HD
ATOM     13  H   UNL     1     -12.868 -11.521  18.335  1.00  0.00     0.158 HD
ENDBRANCH   7  11
TORSDOF 1
ENDMDL
MODEL 6
REMARK VINA RESULT:    -4.573      1.798      3.737
REMARK INTER + INTRA:          -4.706
REMARK INTER:                  -4.706
REMARK INTRA:                   0.000
REMARK UNBOUND:                 0.000
REMARK SMILES Nc1ncnc2nc[nH]c12
REMARK SMILES IDX 8 1 7 2 6 3 5 4 4 5 3 6 2 7 10 8 9 9 1 11
REMARK H PARENT 9 10 1 12 1 13
REMARK Flexibility Score: inf
ROOT
ATOM      1  C   UNL     1     -11.590 -13.140  17.364  1.00  0.00     0.199 A 
ATOM      2  N   UNL     1     -11.026 -12.839  16.162  1.00  0.00    -0.217 NA
ATOM      3  C   UNL     1     -10.416 -11.670  16.418  1.00  0.00     0.182 A 
ATOM      4  N   UNL     1      -9.697 -10.927  15.544  1.00  0.00    -0.215 NA
ATOM      5  C   UNL     1      -9.148  -9.756  15.992  1.00  0.00     0.226 A 
ATOM      6  N   UNL     1      -9.327  -9.356  17.292  1.00  0.00    -0.217 NA
ATOM      7  C   UNL     1     -10.053 -10.105  18.174  1.00  0.00     0.152 A 
ATOM      8  C   UNL     1     -10.605 -11.293  17.703  1.00  0.00     0.127 A 
ATOM      9  N   UNL     1     -11.350 -12.214  18.327  1.00  0.00    -0.340 N 
ATOM     10  H   UNL     1     -11.677 -12.229  19.318  1.00  0.00     0.168 HD
ENDROOT
BRANCH   7  11
ATOM     11  N   UNL     1     -10.227  -9.668  19.523  1.00  0.00    -0.382 N 
ATOM     12  H   UNL     1      -9.418  -9.350  20.101  1.00  0.00     0.158 HD
ATOM     13  H   UNL     1     -11.179  -9.661  19.951  1.00  0.00     0.158 HD
ENDBRANCH   7  11
TORSDOF 1
ENDMDL
MODEL 7
REMARK VINA RESULT:    -4.562      1.083      2.458
REMARK INTER + INTRA:          -4.695
REMARK INTER:                  -4.695
REMARK INTRA:                   0.000
REMARK UNBOUND:                 0.000
REMARK SMILES Nc1ncnc2nc[nH]c12
REMARK SMILES IDX 8 1 7 2 6 3 5 4 4 5 3 6 2 7 10 8 9 9 1 11
REMARK H PARENT 9 10 1 12 1 13
REMARK Flexibility Score: inf
ROOT
ATOM      1  C   UNL     1      -9.750 -10.563  16.651  1.00  0.00     0.199 A 
ATOM      2  N   UNL     1     -10.455 -11.296  17.556  1.00  0.00    -0.217 NA
ATOM      3  C   UNL     1     -10.861 -12.344  16.820  1.00  0.00     0.182 A 
ATOM      4  N   UNL     1     -11.611 -13.387  17.247  1.00  0.00    -0.215 NA
ATOM      5  C   UNL     1     -11.928 -14.366  16.344  1.00  0.00     0.226 A 
ATOM      6  N   UNL     1     -11.494 -14.282  15.046  1.00  0.00    -0.217 NA
ATOM      7  C   UNL     1     -10.737 -13.229  14.615  1.00  0.00     0.152 A 
ATOM      8  C   UNL     1     -10.423 -12.242  15.545  1.00  0.00     0.127 A 
ATOM      9  N   UNL     1      -9.712 -11.116  15.412  1.00  0.00    -0.340 N 
ATOM     10  H   UNL     1      -9.237 -10.739  14.562  1.00  0.00     0.168 HD
ENDROOT
BRANCH   7  11
ATOM     11  N   UNL     1     -10.296 -13.163  13.257  1.00  0.00    -0.382 N 
ATOM     12  H   UNL     1     -10.937 -13.392  12.466  1.00  0.00     0.158 HD
ATOM     13  H   UNL     1      -9.315 -12.882  13.040  1.00  0.00     0.158 HD
ENDBRANCH   7  11
TORSDOF 1
ENDMDL
MODEL 8
REMARK VINA RESULT:    -4.522      2.019      2.932
REMARK INTER + INTRA:          -4.654
REMARK INTER:                  -4.654
REMARK INTRA:                   0.000
REMARK UNBOUND:                 0.000
REMARK SMILES Nc1ncnc2nc[nH]c12
REMARK SMILES IDX 8 1 7 2 6 3 5 4 4 5 3 6 2 7 10 8 9 9 1 11
REMARK H PARENT 9 10 1 12 1 13
REMARK Flexibility Score: inf
ROOT
ATOM      1  C   UNL     1      -9.589  -8.756  18.640  1.00  0.00     0.199 A 
ATOM      2  N   UNL     1      -9.037  -8.920  17.407  1.00  0.00    -0.217 NA
ATOM      3  C   UNL     1      -9.597 -10.068  16.994  1.00  0.00     0.182 A 
ATOM      4  N   UNL     1      -9.383 -10.690  15.810  1.00  0.00    -0.215 NA
ATOM      5  C   UNL     1     -10.049 -11.861  15.567  1.00  0.00     0.226 A 
ATOM      6  N   UNL     1     -10.907 -12.381  16.502  1.00  0.00    -0.217 NA
ATOM      7  C   UNL     1     -11.123 -11.754  17.697  1.00  0.00     0.152 A 
ATOM      8  C   UNL     1     -10.438 -10.564  17.929  1.00  0.00     0.127 A 
ATOM      9  N   UNL     1     -10.451  -9.746  18.989  1.00  0.00    -0.340 N 
ATOM     10  H   UNL     1     -10.990  -9.836  19.878  1.00  0.00     0.168 HD
ENDROOT
BRANCH   7  11
ATOM     11  N   UNL     1     -12.021 -12.315  18.656  1.00  0.00    -0.382 N 
ATOM     12  H   UNL     1     -11.741 -13.120  19.258  1.00  0.00     0.158 HD
ATOM     13  H   UNL     1     -12.981 -11.920  18.767  1.00  0.00     0.158 HD
ENDBRANCH   7  11
TORSDOF 1
ENDMDL
MODEL 9
REMARK VINA RESULT:    -4.493      1.907      3.434
REMARK INTER + INTRA:          -4.625
REMARK INTER:                  -4.625
REMARK INTRA:                   0.000
REMARK UNBOUND:                 0.000
REMARK SMILES Nc1ncnc2nc[nH]c12
REMARK SMILES IDX 8 1 7 2 6 3 5 4 4 5 3 6 2 7 10 8 9 9 1 11
REMARK H PARENT 9 10 1 12 1 13
REMARK Flexibility Score: inf
ROOT
ATOM      1  C   UNL     1     -11.287 -14.607  15.979  1.00  0.00     0.199 A 
ATOM      2  N   UNL     1     -11.279 -13.403  15.345  1.00  0.00    -0.217 NA
ATOM      3  C   UNL     1     -10.440 -12.684  16.109  1.00  0.00     0.182 A 
ATOM      4  N   UNL     1     -10.078 -11.393  15.916  1.00  0.00    -0.215 NA
ATOM      5  C   UNL     1      -9.206 -10.828  16.807  1.00  0.00     0.226 A 
ATOM      6  N   UNL     1      -8.719 -11.556  17.862  1.00  0.00    -0.217 NA
ATOM      7  C   UNL     1      -9.084 -12.858  18.057  1.00  0.00     0.152 A 
ATOM      8  C   UNL     1      -9.971 -13.419  17.143  1.00  0.00     0.127 A 
ATOM      9  N   UNL     1     -10.496 -14.649  17.082  1.00  0.00    -0.340 N 
ATOM     10  H   UNL     1     -10.343 -15.458  17.724  1.00  0.00     0.168 HD
ENDROOT
BRANCH   7  11
ATOM     11  N   UNL     1      -8.564 -13.597  19.164  1.00  0.00    -0.382 N 
ATOM     12  H   UNL     1      -7.552 -13.843  19.227  1.00  0.00     0.158 HD
ATOM     13  H   UNL     1      -9.200 -13.903  19.933  1.00  0.00     0.158 HD
ENDBRANCH   7  11
TORSDOF 1
ENDMDL
