MODEL 1
REMARK VINA RESULT:    -4.299      0.000      0.000
REMARK INTER + INTRA:          -5.346
REMARK INTER:                  -5.052
REMARK INTRA:                  -0.293
REMARK UNBOUND:                -0.293
REMARK SMILES O=c1cc(-c2ccc(O)c(O)c2)oc2cc(O)cc(O)c12
REMARK SMILES IDX 4 1 3 2 2 3 1 4 21 5 19 6 18 7 16 8 15 9 14 10 13 11 5 12
REMARK SMILES IDX 6 13 7 14 8 15 12 16 10 17 9 18 11 20 20 22 17 24
REMARK H PARENT 9 19 11 21 20 23 17 25
REMARK Flexibility Score: inf
ROOT
ATOM      1  C   UNL     1     -21.028 -26.105   1.736  1.00  0.00     0.138 A 
ATOM      2  C   UNL     1     -21.015 -27.418   2.234  1.00  0.00     0.100 A 
ATOM      3  C   UNL     1     -21.237 -28.485   1.363  1.00  0.00     0.197 A 
ATOM      4  O   UNL     1     -21.223 -29.660   1.820  1.00  0.00    -0.289 OA
ATOM      5  C   UNL     1     -21.468 -28.230  -0.004  1.00  0.00     0.107 A 
ATOM      6  C   UNL     1     -21.703 -29.253  -0.952  1.00  0.00     0.134 A 
ATOM      7  C   UNL     1     -21.919 -28.917  -2.297  1.00  0.00     0.093 A 
ATOM      8  C   UNL     1     -21.904 -27.583  -2.710  1.00  0.00     0.123 A 
ATOM      9  C   UNL     1     -21.672 -26.567  -1.775  1.00  0.00     0.094 A 
ATOM     10  C   UNL     1     -21.456 -26.882  -0.431  1.00  0.00     0.146 A 
ATOM     11  O   UNL     1     -21.239 -25.899   0.438  1.00  0.00    -0.456 OA
ENDROOT
BRANCH   1  12
ATOM     12  C   UNL     1     -20.796 -24.931   2.616  1.00  0.00     0.021 A 
ATOM     13  C   UNL     1     -19.752 -24.968   3.557  1.00  0.00     0.016 A 
ATOM     14  C   UNL     1     -19.508 -23.874   4.392  1.00  0.00     0.051 A 
ATOM     15  C   UNL     1     -20.297 -22.722   4.294  1.00  0.00     0.157 A 
ATOM     16  C   UNL     1     -21.577 -23.762   2.514  1.00  0.00     0.062 A 
ATOM     17  C   UNL     1     -21.329 -22.665   3.351  1.00  0.00     0.158 A 
BRANCH  15  18
ATOM     18  O   UNL     1     -20.057 -21.630   5.125  1.00  0.00    -0.504 OA
ATOM     19  H   UNL     1     -20.392 -20.702   4.893  1.00  0.00     0.293 HD
ENDBRANCH  15  18
BRANCH  17  20
ATOM     20  O   UNL     1     -22.105 -21.510   3.248  1.00  0.00    -0.504 OA
ATOM     21  H   UNL     1     -22.951 -21.389   3.792  1.00  0.00     0.293 HD
ENDBRANCH  17  20
ENDBRANCH   1  12
BRANCH   6  22
ATOM     22  O   UNL     1     -21.724 -30.596  -0.571  1.00  0.00    -0.507 OA
ATOM     23  H   UNL     1     -21.028 -30.982   0.057  1.00  0.00     0.293 HD
ENDBRANCH   6  22
BRANCH   8  24
ATOM     24  O   UNL     1     -22.121 -27.275  -4.051  1.00  0.00    -0.508 OA
ATOM     25  H   UNL     1     -22.870 -27.707  -4.580  1.00  0.00     0.293 HD
ENDBRANCH   8  24
TORSDOF 5
ENDMDL
MODEL 2
REMARK VINA RESULT:    -4.293      1.188      2.712
REMARK INTER + INTRA:          -5.339
REMARK INTER:                  -5.059
REMARK INTRA:                  -0.281
REMARK UNBOUND:                -0.293
REMARK SMILES O=c1cc(-c2ccc(O)c(O)c2)oc2cc(O)cc(O)c12
REMARK SMILES IDX 4 1 3 2 2 3 1 4 21 5 19 6 18 7 16 8 15 9 14 10 13 11 5 12
REMARK SMILES IDX 6 13 7 14 8 15 12 16 10 17 9 18 11 20 20 22 17 24
REMARK H PARENT 9 19 11 21 20 23 17 25
REMARK Flexibility Score: inf
ROOT
ATOM      1  C   UNL     1     -21.150 -26.115   1.268  1.00  0.00     0.138 A 
ATOM      2  C   UNL     1     -21.366 -25.828  -0.090  1.00  0.00     0.100 A 
ATOM      3  C   UNL     1     -21.573 -26.875  -0.989  1.00  0.00     0.197 A 
ATOM      4  O   UNL     1     -21.766 -26.608  -2.205  1.00  0.00    -0.289 OA
ATOM      5  C   UNL     1     -21.566 -28.205  -0.521  1.00  0.00     0.107 A 
ATOM      6  C   UNL     1     -21.766 -29.323  -1.364  1.00  0.00     0.134 A 
ATOM      7  C   UNL     1     -21.750 -30.615  -0.819  1.00  0.00     0.093 A 
ATOM      8  C   UNL     1     -21.539 -30.811   0.548  1.00  0.00     0.123 A 
ATOM      9  C   UNL     1     -21.340 -29.708   1.386  1.00  0.00     0.094 A 
ATOM     10  C   UNL     1     -21.352 -28.412   0.862  1.00  0.00     0.146 A 
ATOM     11  O   UNL     1     -21.160 -27.381   1.679  1.00  0.00    -0.456 OA
ENDROOT
BRANCH   1  12
ATOM     12  C   UNL     1     -20.926 -25.041   2.269  1.00  0.00     0.021 A 
ATOM     13  C   UNL     1     -19.948 -25.218   3.264  1.00  0.00     0.016 A 
ATOM     14  C   UNL     1     -19.712 -24.220   4.214  1.00  0.00     0.051 A 
ATOM     15  C   UNL     1     -20.442 -23.026   4.179  1.00  0.00     0.157 A 
ATOM     16  C   UNL     1     -21.647 -23.832   2.233  1.00  0.00     0.062 A 
ATOM     17  C   UNL     1     -21.408 -22.830   3.185  1.00  0.00     0.158 A 
BRANCH  15  18
ATOM     18  O   UNL     1     -20.210 -22.029   5.125  1.00  0.00    -0.504 OA
ATOM     19  H   UNL     1     -19.383 -21.446   5.089  1.00  0.00     0.293 HD
ENDBRANCH  15  18
BRANCH  17  20
ATOM     20  O   UNL     1     -22.125 -21.635   3.147  1.00  0.00    -0.504 OA
ATOM     21  H   UNL     1     -21.832 -20.824   3.680  1.00  0.00     0.293 HD
ENDBRANCH  17  20
ENDBRANCH   1  12
BRANCH   6  22
ATOM     22  O   UNL     1     -21.979 -29.161  -2.734  1.00  0.00    -0.507 OA
ATOM     23  H   UNL     1     -22.148 -29.952  -3.344  1.00  0.00     0.293 HD
ENDBRANCH   6  22
BRANCH   8  24
ATOM     24  O   UNL     1     -21.528 -32.105   1.064  1.00  0.00    -0.508 OA
ATOM     25  H   UNL     1     -20.692 -32.507   1.470  1.00  0.00     0.293 HD
ENDBRANCH   8  24
TORSDOF 5
ENDMDL
MODEL 3
REMARK VINA RESULT:    -4.039      5.885      7.175
REMARK INTER + INTRA:          -5.041
REMARK INTER:                  -4.750
REMARK INTRA:                  -0.292
REMARK UNBOUND:                -0.293
REMARK SMILES O=c1cc(-c2ccc(O)c(O)c2)oc2cc(O)cc(O)c12
REMARK SMILES IDX 4 1 3 2 2 3 1 4 21 5 19 6 18 7 16 8 15 9 14 10 13 11 5 12
REMARK SMILES IDX 6 13 7 14 8 15 12 16 10 17 9 18 11 20 20 22 17 24
REMARK H PARENT 9 19 11 21 20 23 17 25
REMARK Flexibility Score: inf
ROOT
ATOM      1  C   UNL     1     -17.226 -30.575   1.798  1.00  0.00     0.138 A 
ATOM      2  C   UNL     1     -17.911 -30.564   3.024  1.00  0.00     0.100 A 
ATOM      3  C   UNL     1     -19.275 -30.858   3.051  1.00  0.00     0.197 A 
ATOM      4  O   UNL     1     -19.882 -30.846   4.156  1.00  0.00    -0.289 OA
ATOM      5  C   UNL     1     -19.945 -31.163   1.849  1.00  0.00     0.107 A 
ATOM      6  C   UNL     1     -21.324 -31.470   1.788  1.00  0.00     0.134 A 
ATOM      7  C   UNL     1     -21.915 -31.769   0.551  1.00  0.00     0.093 A 
ATOM      8  C   UNL     1     -21.156 -31.768  -0.621  1.00  0.00     0.123 A 
ATOM      9  C   UNL     1     -19.791 -31.465  -0.566  1.00  0.00     0.094 A 
ATOM     10  C   UNL     1     -19.184 -31.163   0.656  1.00  0.00     0.146 A 
ATOM     11  O   UNL     1     -17.886 -30.878   0.683  1.00  0.00    -0.456 OA
ENDROOT
BRANCH   1  12
ATOM     12  C   UNL     1     -15.775 -30.272   1.710  1.00  0.00     0.021 A 
ATOM     13  C   UNL     1     -15.236 -29.826   0.490  1.00  0.00     0.016 A 
ATOM     14  C   UNL     1     -13.874 -29.527   0.382  1.00  0.00     0.051 A 
ATOM     15  C   UNL     1     -13.032 -29.661   1.492  1.00  0.00     0.157 A 
ATOM     16  C   UNL     1     -14.924 -30.391   2.826  1.00  0.00     0.062 A 
ATOM     17  C   UNL     1     -13.559 -30.089   2.716  1.00  0.00     0.158 A 
BRANCH  15  18
ATOM     18  O   UNL     1     -11.675 -29.365   1.388  1.00  0.00    -0.504 OA
ATOM     19  H   UNL     1     -11.323 -28.732   0.679  1.00  0.00     0.293 HD
ENDBRANCH  15  18
BRANCH  17  20
ATOM     20  O   UNL     1     -12.718 -30.209   3.823  1.00  0.00    -0.504 OA
ATOM     21  H   UNL     1     -13.087 -30.376   4.752  1.00  0.00     0.293 HD
ENDBRANCH  17  20
ENDBRANCH   1  12
BRANCH   6  22
ATOM     22  O   UNL     1     -22.110 -31.479   2.942  1.00  0.00    -0.507 OA
ATOM     23  H   UNL     1     -21.717 -31.689   3.852  1.00  0.00     0.293 HD
ENDBRANCH   6  22
BRANCH   8  24
ATOM     24  O   UNL     1     -21.767 -32.069  -1.837  1.00  0.00    -0.508 OA
ATOM     25  H   UNL     1     -21.490 -31.612  -2.697  1.00  0.00     0.293 HD
ENDBRANCH   8  24
TORSDOF 5
ENDMDL
MODEL 4
REMARK VINA RESULT:    -3.911      4.882      7.768
REMARK INTER + INTRA:          -4.891
REMARK INTER:                  -4.627
REMARK INTRA:                  -0.264
REMARK UNBOUND:                -0.293
REMARK SMILES O=c1cc(-c2ccc(O)c(O)c2)oc2cc(O)cc(O)c12
REMARK SMILES IDX 4 1 3 2 2 3 1 4 21 5 19 6 18 7 16 8 15 9 14 10 13 11 5 12
REMARK SMILES IDX 6 13 7 14 8 15 12 16 10 17 9 18 11 20 20 22 17 24
REMARK H PARENT 9 19 11 21 20 23 17 25
REMARK Flexibility Score: inf
ROOT
ATOM      1  C   UNL     1     -17.464 -28.978   3.183  1.00  0.00     0.138 A 
ATOM      2  C   UNL     1     -18.736 -29.510   2.917  1.00  0.00     0.100 A 
ATOM      3  C   UNL     1     -19.868 -28.725   3.142  1.00  0.00     0.197 A 
ATOM      4  O   UNL     1     -21.006 -29.211   2.901  1.00  0.00    -0.289 OA
ATOM      5  C   UNL     1     -19.719 -27.411   3.628  1.00  0.00     0.107 A 
ATOM      6  C   UNL     1     -20.812 -26.551   3.884  1.00  0.00     0.134 A 
ATOM      7  C   UNL     1     -20.578 -25.253   4.362  1.00  0.00     0.093 A 
ATOM      8  C   UNL     1     -19.277 -24.800   4.588  1.00  0.00     0.123 A 
ATOM      9  C   UNL     1     -18.191 -25.647   4.337  1.00  0.00     0.094 A 
ATOM     10  C   UNL     1     -18.404 -26.944   3.861  1.00  0.00     0.146 A 
ATOM     11  O   UNL     1     -17.356 -27.730   3.631  1.00  0.00    -0.456 OA
ENDROOT
BRANCH   1  12
ATOM     12  C   UNL     1     -16.224 -29.766   2.961  1.00  0.00     0.021 A 
ATOM     13  C   UNL     1     -15.640 -30.452   4.040  1.00  0.00     0.016 A 
ATOM     14  C   UNL     1     -14.477 -31.207   3.857  1.00  0.00     0.051 A 
ATOM     15  C   UNL     1     -13.886 -31.296   2.591  1.00  0.00     0.157 A 
ATOM     16  C   UNL     1     -15.631 -29.871   1.688  1.00  0.00     0.062 A 
ATOM     17  C   UNL     1     -14.466 -30.630   1.505  1.00  0.00     0.158 A 
BRANCH  15  18
ATOM     18  O   UNL     1     -12.727 -32.046   2.405  1.00  0.00    -0.504 OA
ATOM     19  H   UNL     1     -12.298 -32.142   1.492  1.00  0.00     0.293 HD
ENDBRANCH  15  18
BRANCH  17  20
ATOM     20  O   UNL     1     -13.880 -30.731   0.243  1.00  0.00    -0.504 OA
ATOM     21  H   UNL     1     -13.655 -29.908  -0.304  1.00  0.00     0.293 HD
ENDBRANCH  17  20
ENDBRANCH   1  12
BRANCH   6  22
ATOM     22  O   UNL     1     -22.125 -26.974   3.668  1.00  0.00    -0.507 OA
ATOM     23  H   UNL     1     -22.874 -26.316   3.485  1.00  0.00     0.293 HD
ENDBRANCH   6  22
BRANCH   8  24
ATOM     24  O   UNL     1     -19.071 -23.506   5.063  1.00  0.00    -0.508 OA
ATOM     25  H   UNL     1     -18.140 -23.138   5.210  1.00  0.00     0.293 HD
ENDBRANCH   8  24
TORSDOF 5
ENDMDL
MODEL 5
REMARK VINA RESULT:    -3.877      2.653      4.179
REMARK INTER + INTRA:          -4.851
REMARK INTER:                  -4.565
REMARK INTRA:                  -0.286
REMARK UNBOUND:                -0.293
REMARK SMILES O=c1cc(-c2ccc(O)c(O)c2)oc2cc(O)cc(O)c12
REMARK SMILES IDX 4 1 3 2 2 3 1 4 21 5 19 6 18 7 16 8 15 9 14 10 13 11 5 12
REMARK SMILES IDX 6 13 7 14 8 15 12 16 10 17 9 18 11 20 20 22 17 24
REMARK H PARENT 9 19 11 21 20 23 17 25
REMARK Flexibility Score: inf
ROOT
ATOM      1  C   UNL     1     -20.240 -26.408   3.010  1.00  0.00     0.138 A 
ATOM      2  C   UNL     1     -21.148 -27.210   2.299  1.00  0.00     0.100 A 
ATOM      3  C   UNL     1     -20.839 -28.549   2.057  1.00  0.00     0.197 A 
ATOM      4  O   UNL     1     -21.660 -29.261   1.419  1.00  0.00    -0.289 OA
ATOM      5  C   UNL     1     -19.621 -29.078   2.531  1.00  0.00     0.107 A 
ATOM      6  C   UNL     1     -19.231 -30.422   2.328  1.00  0.00     0.134 A 
ATOM      7  C   UNL     1     -18.004 -30.874   2.837  1.00  0.00     0.093 A 
ATOM      8  C   UNL     1     -17.164 -30.010   3.543  1.00  0.00     0.123 A 
ATOM      9  C   UNL     1     -17.546 -28.679   3.747  1.00  0.00     0.094 A 
ATOM     10  C   UNL     1     -18.764 -28.210   3.247  1.00  0.00     0.146 A 
ATOM     11  O   UNL     1     -19.104 -26.942   3.452  1.00  0.00    -0.456 OA
ENDROOT
BRANCH   1  12
ATOM     12  C   UNL     1     -20.517 -24.978   3.298  1.00  0.00     0.021 A 
ATOM     13  C   UNL     1     -20.057 -24.414   4.501  1.00  0.00     0.016 A 
ATOM     14  C   UNL     1     -20.298 -23.069   4.794  1.00  0.00     0.051 A 
ATOM     15  C   UNL     1     -20.993 -22.263   3.885  1.00  0.00     0.157 A 
ATOM     16  C   UNL     1     -21.204 -24.157   2.383  1.00  0.00     0.062 A 
ATOM     17  C   UNL     1     -21.443 -22.807   2.676  1.00  0.00     0.158 A 
BRANCH  15  18
ATOM     18  O   UNL     1     -21.236 -20.921   4.173  1.00  0.00    -0.504 OA
ATOM     19  H   UNL     1     -22.067 -20.628   4.673  1.00  0.00     0.293 HD
ENDBRANCH  15  18
BRANCH  17  20
ATOM     20  O   UNL     1     -22.125 -21.997   1.768  1.00  0.00    -0.504 OA
ATOM     21  H   UNL     1     -22.987 -21.528   2.019  1.00  0.00     0.293 HD
ENDBRANCH  17  20
ENDBRANCH   1  12
BRANCH   6  22
ATOM     22  O   UNL     1     -20.048 -31.310   1.626  1.00  0.00    -0.507 OA
ATOM     23  H   UNL     1     -20.927 -31.014   1.215  1.00  0.00     0.293 HD
ENDBRANCH   6  22
BRANCH   8  24
ATOM     24  O   UNL     1     -15.951 -30.484   4.040  1.00  0.00    -0.508 OA
ATOM     25  H   UNL     1     -15.576 -31.381   3.755  1.00  0.00     0.293 HD
ENDBRANCH   8  24
TORSDOF 5
ENDMDL
MODEL 6
REMARK VINA RESULT:    -3.857      5.150      7.700
REMARK INTER + INTRA:          -4.827
REMARK INTER:                  -4.563
REMARK INTRA:                  -0.264
REMARK UNBOUND:                -0.293
REMARK SMILES O=c1cc(-c2ccc(O)c(O)c2)oc2cc(O)cc(O)c12
REMARK SMILES IDX 4 1 3 2 2 3 1 4 21 5 19 6 18 7 16 8 15 9 14 10 13 11 5 12
REMARK SMILES IDX 6 13 7 14 8 15 12 16 10 17 9 18 11 20 20 22 17 24
REMARK H PARENT 9 19 11 21 20 23 17 25
REMARK Flexibility Score: inf
ROOT
ATOM      1  C   UNL     1     -17.230 -29.161   2.842  1.00  0.00     0.138 A 
ATOM      2  C   UNL     1     -18.251 -30.116   2.970  1.00  0.00     0.100 A 
ATOM      3  C   UNL     1     -19.503 -29.724   3.447  1.00  0.00     0.197 A 
ATOM      4  O   UNL     1     -20.413 -30.589   3.558  1.00  0.00    -0.289 OA
ATOM      5  C   UNL     1     -19.725 -28.375   3.790  1.00  0.00     0.107 A 
ATOM      6  C   UNL     1     -20.962 -27.896   4.282  1.00  0.00     0.134 A 
ATOM      7  C   UNL     1     -21.104 -26.536   4.595  1.00  0.00     0.093 A 
ATOM      8  C   UNL     1     -20.038 -25.650   4.427  1.00  0.00     0.123 A 
ATOM      9  C   UNL     1     -18.812 -26.119   3.941  1.00  0.00     0.094 A 
ATOM     10  C   UNL     1     -18.650 -27.471   3.623  1.00  0.00     0.146 A 
ATOM     11  O   UNL     1     -17.476 -27.893   3.165  1.00  0.00    -0.456 OA
ENDROOT
BRANCH   1  12
ATOM     12  C   UNL     1     -15.880 -29.520   2.338  1.00  0.00     0.021 A 
ATOM     13  C   UNL     1     -15.509 -29.151   1.033  1.00  0.00     0.016 A 
ATOM     14  C   UNL     1     -14.242 -29.471   0.538  1.00  0.00     0.051 A 
ATOM     15  C   UNL     1     -13.321 -30.154   1.341  1.00  0.00     0.157 A 
ATOM     16  C   UNL     1     -14.944 -30.196   3.145  1.00  0.00     0.062 A 
ATOM     17  C   UNL     1     -13.672 -30.514   2.648  1.00  0.00     0.158 A 
BRANCH  15  18
ATOM     18  O   UNL     1     -12.058 -30.475   0.850  1.00  0.00    -0.504 OA
ATOM     19  H   UNL     1     -11.721 -30.105  -0.031  1.00  0.00     0.293 HD
ENDBRANCH  15  18
BRANCH  17  20
ATOM     20  O   UNL     1     -12.748 -31.184   3.449  1.00  0.00    -0.504 OA
ATOM     21  H   UNL     1     -13.000 -32.021   3.961  1.00  0.00     0.293 HD
ENDBRANCH  17  20
ENDBRANCH   1  12
BRANCH   6  22
ATOM     22  O   UNL     1     -22.046 -28.757   4.461  1.00  0.00    -0.507 OA
ATOM     23  H   UNL     1     -22.226 -29.208   5.351  1.00  0.00     0.293 HD
ENDBRANCH   6  22
BRANCH   8  24
ATOM     24  O   UNL     1     -20.206 -24.304   4.745  1.00  0.00    -0.508 OA
ATOM     25  H   UNL     1     -20.579 -23.643   4.074  1.00  0.00     0.293 HD
ENDBRANCH   8  24
TORSDOF 5
ENDMDL
MODEL 7
REMARK VINA RESULT:    -3.822      2.546      3.430
REMARK INTER + INTRA:          -4.785
REMARK INTER:                  -4.478
REMARK INTRA:                  -0.307
REMARK UNBOUND:                -0.293
REMARK SMILES O=c1cc(-c2ccc(O)c(O)c2)oc2cc(O)cc(O)c12
REMARK SMILES IDX 4 1 3 2 2 3 1 4 21 5 19 6 18 7 16 8 15 9 14 10 13 11 5 12
REMARK SMILES IDX 6 13 7 14 8 15 12 16 10 17 9 18 11 20 20 22 17 24
REMARK H PARENT 9 19 11 21 20 23 17 25
REMARK Flexibility Score: inf
ROOT
ATOM      1  C   UNL     1     -19.832 -26.370   3.304  1.00  0.00     0.138 A 
ATOM      2  C   UNL     1     -18.648 -26.898   3.845  1.00  0.00     0.100 A 
ATOM      3  C   UNL     1     -18.326 -28.236   3.618  1.00  0.00     0.197 A 
ATOM      4  O   UNL     1     -17.262 -28.701   4.107  1.00  0.00    -0.289 OA
ATOM      5  C   UNL     1     -19.191 -29.038   2.845  1.00  0.00     0.107 A 
ATOM      6  C   UNL     1     -18.940 -30.402   2.568  1.00  0.00     0.134 A 
ATOM      7  C   UNL     1     -19.848 -31.130   1.786  1.00  0.00     0.093 A 
ATOM      8  C   UNL     1     -20.998 -30.523   1.276  1.00  0.00     0.123 A 
ATOM      9  C   UNL     1     -21.251 -29.173   1.547  1.00  0.00     0.094 A 
ATOM     10  C   UNL     1     -20.358 -28.431   2.326  1.00  0.00     0.146 A 
ATOM     11  O   UNL     1     -20.621 -27.151   2.571  1.00  0.00    -0.456 OA
ENDROOT
BRANCH   1  12
ATOM     12  C   UNL     1     -20.224 -24.953   3.513  1.00  0.00     0.021 A 
ATOM     13  C   UNL     1     -19.784 -24.276   4.664  1.00  0.00     0.016 A 
ATOM     14  C   UNL     1     -20.134 -22.940   4.880  1.00  0.00     0.051 A 
ATOM     15  C   UNL     1     -20.920 -22.256   3.946  1.00  0.00     0.157 A 
ATOM     16  C   UNL     1     -21.004 -24.253   2.570  1.00  0.00     0.062 A 
ATOM     17  C   UNL     1     -21.352 -22.913   2.787  1.00  0.00     0.158 A 
BRANCH  15  18
ATOM     18  O   UNL     1     -21.271 -20.925   4.158  1.00  0.00    -0.504 OA
ATOM     19  H   UNL     1     -22.202 -20.582   3.953  1.00  0.00     0.293 HD
ENDBRANCH  15  18
BRANCH  17  20
ATOM     20  O   UNL     1     -22.125 -22.224   1.853  1.00  0.00    -0.504 OA
ATOM     21  H   UNL     1     -22.140 -21.211   1.821  1.00  0.00     0.293 HD
ENDBRANCH  17  20
ENDBRANCH   1  12
BRANCH   6  22
ATOM     22  O   UNL     1     -17.800 -31.038   3.063  1.00  0.00    -0.507 OA
ATOM     23  H   UNL     1     -16.869 -30.774   2.760  1.00  0.00     0.293 HD
ENDBRANCH   6  22
BRANCH   8  24
ATOM     24  O   UNL     1     -21.883 -31.268   0.501  1.00  0.00    -0.508 OA
ATOM     25  H   UNL     1     -21.790 -32.273   0.407  1.00  0.00     0.293 HD
ENDBRANCH   8  24
TORSDOF 5
ENDMDL
MODEL 8
REMARK VINA RESULT:    -3.699      6.216      8.731
REMARK INTER + INTRA:          -4.641
REMARK INTER:                  -4.327
REMARK INTRA:                  -0.314
REMARK UNBOUND:                -0.293
REMARK SMILES O=c1cc(-c2ccc(O)c(O)c2)oc2cc(O)cc(O)c12
REMARK SMILES IDX 4 1 3 2 2 3 1 4 21 5 19 6 18 7 16 8 15 9 14 10 13 11 5 12
REMARK SMILES IDX 6 13 7 14 8 15 12 16 10 17 9 18 11 20 20 22 17 24
REMARK H PARENT 9 19 11 21 20 23 17 25
REMARK Flexibility Score: inf
ROOT
ATOM      1  C   UNL     1     -17.540 -30.999   1.357  1.00  0.00     0.138 A 
ATOM      2  C   UNL     1     -17.622 -31.275   2.731  1.00  0.00     0.100 A 
ATOM      3  C   UNL     1     -16.480 -31.157   3.525  1.00  0.00     0.197 A 
ATOM      4  O   UNL     1     -16.564 -31.406   4.758  1.00  0.00    -0.289 OA
ATOM      5  C   UNL     1     -15.263 -30.758   2.937  1.00  0.00     0.107 A 
ATOM      6  C   UNL     1     -14.060 -30.615   3.668  1.00  0.00     0.134 A 
ATOM      7  C   UNL     1     -12.891 -30.209   3.009  1.00  0.00     0.093 A 
ATOM      8  C   UNL     1     -12.900 -29.943   1.638  1.00  0.00     0.123 A 
ATOM      9  C   UNL     1     -14.087 -30.083   0.910  1.00  0.00     0.094 A 
ATOM     10  C   UNL     1     -15.263 -30.488   1.548  1.00  0.00     0.146 A 
ATOM     11  O   UNL     1     -16.378 -30.615   0.835  1.00  0.00    -0.456 OA
ENDROOT
BRANCH   1  12
ATOM     12  C   UNL     1     -18.722 -31.106   0.464  1.00  0.00     0.021 A 
ATOM     13  C   UNL     1     -19.854 -31.818   0.900  1.00  0.00     0.016 A 
ATOM     14  C   UNL     1     -20.982 -31.928   0.083  1.00  0.00     0.051 A 
ATOM     15  C   UNL     1     -21.002 -31.321  -1.179  1.00  0.00     0.157 A 
ATOM     16  C   UNL     1     -18.755 -30.487  -0.800  1.00  0.00     0.062 A 
ATOM     17  C   UNL     1     -19.889 -30.596  -1.618  1.00  0.00     0.158 A 
BRANCH  15  18
ATOM     18  O   UNL     1     -22.125 -31.430  -1.996  1.00  0.00    -0.504 OA
ATOM     19  H   UNL     1     -22.920 -30.811  -1.890  1.00  0.00     0.293 HD
ENDBRANCH  15  18
BRANCH  17  20
ATOM     20  O   UNL     1     -19.917 -29.983  -2.871  1.00  0.00    -0.504 OA
ATOM     21  H   UNL     1     -20.692 -29.396  -3.156  1.00  0.00     0.293 HD
ENDBRANCH  17  20
ENDBRANCH   1  12
BRANCH   6  22
ATOM     22  O   UNL     1     -14.018 -30.874   5.039  1.00  0.00    -0.507 OA
ATOM     23  H   UNL     1     -14.666 -30.435   5.684  1.00  0.00     0.293 HD
ENDBRANCH   6  22
BRANCH   8  24
ATOM     24  O   UNL     1     -11.725 -29.540   1.007  1.00  0.00    -0.508 OA
ATOM     25  H   UNL     1     -11.525 -28.562   0.835  1.00  0.00     0.293 HD
ENDBRANCH   8  24
TORSDOF 5
ENDMDL
MODEL 9
REMARK VINA RESULT:    -3.379      1.659      6.995
REMARK INTER + INTRA:          -4.266
REMARK INTER:                  -3.970
REMARK INTRA:                  -0.295
REMARK UNBOUND:                -0.293
REMARK SMILES O=c1cc(-c2ccc(O)c(O)c2)oc2cc(O)cc(O)c12
REMARK SMILES IDX 4 1 3 2 2 3 1 4 21 5 19 6 18 7 16 8 15 9 14 10 13 11 5 12
REMARK SMILES IDX 6 13 7 14 8 15 12 16 10 17 9 18 11 20 20 22 17 24
REMARK H PARENT 9 19 11 21 20 23 17 25
REMARK Flexibility Score: inf
ROOT
ATOM      1  C   UNL     1     -21.152 -27.529   0.839  1.00  0.00     0.138 A 
ATOM      2  C   UNL     1     -20.592 -27.962   2.052  1.00  0.00     0.100 A 
ATOM      3  C   UNL     1     -20.385 -27.041   3.080  1.00  0.00     0.197 A 
ATOM      4  O   UNL     1     -19.882 -27.440   4.166  1.00  0.00    -0.289 OA
ATOM      5  C   UNL     1     -20.742 -25.691   2.888  1.00  0.00     0.107 A 
ATOM      6  C   UNL     1     -20.564 -24.696   3.876  1.00  0.00     0.134 A 
ATOM      7  C   UNL     1     -20.951 -23.374   3.609  1.00  0.00     0.093 A 
ATOM      8  C   UNL     1     -21.512 -23.031   2.376  1.00  0.00     0.123 A 
ATOM      9  C   UNL     1     -21.690 -24.013   1.395  1.00  0.00     0.094 A 
ATOM     10  C   UNL     1     -21.310 -25.335   1.642  1.00  0.00     0.146 A 
ATOM     11  O   UNL     1     -21.488 -26.249   0.694  1.00  0.00    -0.456 OA
ENDROOT
BRANCH   1  12
ATOM     12  C   UNL     1     -21.397 -28.464  -0.288  1.00  0.00     0.021 A 
ATOM     13  C   UNL     1     -21.715 -27.947  -1.557  1.00  0.00     0.016 A 
ATOM     14  C   UNL     1     -21.943 -28.805  -2.636  1.00  0.00     0.051 A 
ATOM     15  C   UNL     1     -21.848 -30.192  -2.468  1.00  0.00     0.157 A 
ATOM     16  C   UNL     1     -21.290 -29.859  -0.130  1.00  0.00     0.062 A 
ATOM     17  C   UNL     1     -21.517 -30.719  -1.215  1.00  0.00     0.158 A 
BRANCH  15  18
ATOM     18  O   UNL     1     -22.076 -31.050  -3.542  1.00  0.00    -0.504 OA
ATOM     19  H   UNL     1     -21.357 -31.679  -3.880  1.00  0.00     0.293 HD
ENDBRANCH  15  18
BRANCH  17  20
ATOM     20  O   UNL     1     -21.411 -32.100  -1.054  1.00  0.00    -0.504 OA
ATOM     21  H   UNL     1     -21.835 -32.577  -0.267  1.00  0.00     0.293 HD
ENDBRANCH  17  20
ENDBRANCH   1  12
BRANCH   6  22
ATOM     22  O   UNL     1     -20.006 -25.007   5.118  1.00  0.00    -0.507 OA
ATOM     23  H   UNL     1     -19.561 -25.901   5.293  1.00  0.00     0.293 HD
ENDBRANCH   6  22
BRANCH   8  24
ATOM     24  O   UNL     1     -21.889 -21.712   2.136  1.00  0.00    -0.508 OA
ATOM     25  H   UNL     1     -21.320 -21.092   1.572  1.00  0.00     0.293 HD
ENDBRANCH   8  24
TORSDOF 5
ENDMDL
