MODEL 1
REMARK VINA RESULT:    -3.451      0.000      0.000
REMARK INTER + INTRA:          -6.687
REMARK INTER:                  -5.267
REMARK INTRA:                  -1.420
REMARK UNBOUND:                -1.420
REMARK SMILES CCCCCCCCCC=CC(=O)[O-]
REMARK SMILES IDX 7 1 8 2 9 3 10 4 11 5 12 6 13 7 14 8 6 9 5 10 4 11 3 12 2 13
REMARK SMILES IDX 1 14
REMARK H PARENT
REMARK Flexibility Score: inf
ROOT
ATOM      1  C   UNL     1      62.082  32.761  59.647  1.00  0.00     0.000 C 
ENDROOT
BRANCH   1   2
ATOM      2  C   UNL     1      61.432  32.527  61.018  1.00  0.00     0.004 C 
BRANCH   2   3
ATOM      3  C   UNL     1      61.021  31.059  61.186  1.00  0.00     0.027 C 
BRANCH   3   4
ATOM      4  C   UNL     1      61.951  30.335  62.121  1.00  0.00    -0.025 C 
ATOM      5  C   UNL     1      62.998  29.573  61.762  1.00  0.00     0.020 C 
BRANCH   5   6
ATOM      6  C   UNL     1      63.478  29.328  60.386  1.00  0.00     0.064 C 
ATOM      7  O   UNL     1      62.851  28.513  59.659  1.00  0.00    -0.545 OA
ATOM      8  O   UNL     1      64.612  29.945  59.874  1.00  0.00    -0.545 OA
ENDBRANCH   5   6
ENDBRANCH   3   4
ENDBRANCH   2   3
ENDBRANCH   1   2
BRANCH   1   9
ATOM      9  C   UNL     1      63.535  33.259  59.751  1.00  0.00     0.000 C 
BRANCH   9  10
ATOM     10  C   UNL     1      64.105  33.317  61.183  1.00  0.00     0.000 C 
BRANCH  10  11
ATOM     11  C   UNL     1      64.424  34.729  61.703  1.00  0.00    -0.000 C 
BRANCH  11  12
ATOM     12  C   UNL     1      63.931  35.838  60.762  1.00  0.00    -0.000 C 
BRANCH  12  13
ATOM     13  C   UNL     1      62.822  36.665  61.422  1.00  0.00    -0.003 C 
ATOM     14  C   UNL     1      61.443  36.217  60.947  1.00  0.00     0.004 C 
ENDBRANCH  12  13
ENDBRANCH  11  12
ENDBRANCH  10  11
ENDBRANCH   9  10
ENDBRANCH   1   9
TORSDOF 9
ENDMDL
MODEL 2
REMARK VINA RESULT:    -3.285      1.599      2.654
REMARK INTER + INTRA:          -6.433
REMARK INTER:                  -5.064
REMARK INTRA:                  -1.369
REMARK UNBOUND:                -1.420
REMARK SMILES CCCCCCCCCC=CC(=O)[O-]
REMARK SMILES IDX 7 1 8 2 9 3 10 4 11 5 12 6 13 7 14 8 6 9 5 10 4 11 3 12 2 13
REMARK SMILES IDX 1 14
REMARK H PARENT
REMARK Flexibility Score: inf
ROOT
ATOM      1  C   UNL     1      61.961  32.154  58.608  1.00  0.00     0.000 C 
ENDROOT
BRANCH   1   2
ATOM      2  C   UNL     1      63.454  32.407  58.863  1.00  0.00     0.004 C 
BRANCH   2   3
ATOM      3  C   UNL     1      64.153  31.128  59.342  1.00  0.00     0.027 C 
BRANCH   3   4
ATOM      4  C   UNL     1      64.565  31.239  60.785  1.00  0.00    -0.025 C 
ATOM      5  C   UNL     1      63.922  30.700  61.834  1.00  0.00     0.020 C 
BRANCH   5   6
ATOM      6  C   UNL     1      62.711  29.853  61.786  1.00  0.00     0.064 C 
ATOM      7  O   UNL     1      62.845  28.608  61.657  1.00  0.00    -0.545 OA
ATOM      8  O   UNL     1      61.430  30.385  61.854  1.00  0.00    -0.545 OA
ENDBRANCH   5   6
ENDBRANCH   3   4
ENDBRANCH   2   3
ENDBRANCH   1   2
BRANCH   1   9
ATOM      9  C   UNL     1      61.049  33.089  59.422  1.00  0.00     0.000 C 
BRANCH   9  10
ATOM     10  C   UNL     1      61.687  33.676  60.698  1.00  0.00     0.000 C 
BRANCH  10  11
ATOM     11  C   UNL     1      61.615  35.208  60.819  1.00  0.00    -0.000 C 
BRANCH  11  12
ATOM     12  C   UNL     1      63.001  35.870  60.846  1.00  0.00    -0.000 C 
BRANCH  12  13
ATOM     13  C   UNL     1      64.029  34.963  61.531  1.00  0.00    -0.003 C 
ATOM     14  C   UNL     1      65.272  35.748  61.938  1.00  0.00     0.004 C 
ENDBRANCH  12  13
ENDBRANCH  11  12
ENDBRANCH  10  11
ENDBRANCH   9  10
ENDBRANCH   1   9
TORSDOF 9
ENDMDL
MODEL 3
REMARK VINA RESULT:    -3.276      1.436      2.652
REMARK INTER + INTRA:          -6.421
REMARK INTER:                  -5.003
REMARK INTRA:                  -1.418
REMARK UNBOUND:                -1.420
REMARK SMILES CCCCCCCCCC=CC(=O)[O-]
REMARK SMILES IDX 7 1 8 2 9 3 10 4 11 5 12 6 13 7 14 8 6 9 5 10 4 11 3 12 2 13
REMARK SMILES IDX 1 14
REMARK H PARENT
REMARK Flexibility Score: inf
ROOT
ATOM      1  C   UNL     1      63.860  32.992  60.932  1.00  0.00     0.000 C 
ENDROOT
BRANCH   1   2
ATOM      2  C   UNL     1      63.133  32.998  59.579  1.00  0.00     0.004 C 
BRANCH   2   3
ATOM      3  C   UNL     1      61.889  32.101  59.621  1.00  0.00     0.027 C 
BRANCH   3   4
ATOM      4  C   UNL     1      61.224  32.153  60.970  1.00  0.00    -0.025 C 
ATOM      5  C   UNL     1      61.103  31.130  61.831  1.00  0.00     0.020 C 
BRANCH   5   6
ATOM      6  C   UNL     1      61.636  29.762  61.656  1.00  0.00     0.064 C 
ATOM      7  O   UNL     1      62.829  29.528  61.983  1.00  0.00    -0.545 OA
ATOM      8  O   UNL     1      60.875  28.732  61.119  1.00  0.00    -0.545 OA
ENDBRANCH   5   6
ENDBRANCH   3   4
ENDBRANCH   2   3
ENDBRANCH   1   2
BRANCH   1   9
ATOM      9  C   UNL     1      64.141  34.408  61.467  1.00  0.00     0.000 C 
BRANCH   9  10
ATOM     10  C   UNL     1      63.497  35.551  60.657  1.00  0.00     0.000 C 
BRANCH  10  11
ATOM     11  C   UNL     1      62.300  36.240  61.336  1.00  0.00    -0.000 C 
BRANCH  11  12
ATOM     12  C   UNL     1      60.949  35.804  60.750  1.00  0.00    -0.000 C 
BRANCH  12  13
ATOM     13  C   UNL     1      60.955  35.908  59.221  1.00  0.00    -0.003 C 
ATOM     14  C   UNL     1      59.829  35.082  58.607  1.00  0.00     0.004 C 
ENDBRANCH  12  13
ENDBRANCH  11  12
ENDBRANCH  10  11
ENDBRANCH   9  10
ENDBRANCH   1   9
TORSDOF 9
ENDMDL
MODEL 4
REMARK VINA RESULT:    -3.242      1.533      3.182
REMARK INTER + INTRA:          -6.368
REMARK INTER:                  -4.827
REMARK INTRA:                  -1.541
REMARK UNBOUND:                -1.420
REMARK SMILES CCCCCCCCCC=CC(=O)[O-]
REMARK SMILES IDX 7 1 8 2 9 3 10 4 11 5 12 6 13 7 14 8 6 9 5 10 4 11 3 12 2 13
REMARK SMILES IDX 1 14
REMARK H PARENT
REMARK Flexibility Score: inf
ROOT
ATOM      1  C   UNL     1      61.158  34.002  60.770  1.00  0.00     0.000 C 
ENDROOT
BRANCH   1   2
ATOM      2  C   UNL     1      61.012  33.057  59.568  1.00  0.00     0.004 C 
BRANCH   2   3
ATOM      3  C   UNL     1      60.760  31.616  60.031  1.00  0.00     0.027 C 
BRANCH   3   4
ATOM      4  C   UNL     1      60.920  31.486  61.522  1.00  0.00    -0.025 C 
ATOM      5  C   UNL     1      61.382  30.408  62.176  1.00  0.00     0.020 C 
BRANCH   5   6
ATOM      6  C   UNL     1      61.872  29.152  61.569  1.00  0.00     0.064 C 
ATOM      7  O   UNL     1      63.090  28.855  61.685  1.00  0.00    -0.545 OA
ATOM      8  O   UNL     1      61.040  28.300  60.855  1.00  0.00    -0.545 OA
ENDBRANCH   5   6
ENDBRANCH   3   4
ENDBRANCH   2   3
ENDBRANCH   1   2
BRANCH   1   9
ATOM      9  C   UNL     1      62.337  34.981  60.621  1.00  0.00     0.000 C 
BRANCH   9  10
ATOM     10  C   UNL     1      63.653  34.522  61.281  1.00  0.00     0.000 C 
BRANCH  10  11
ATOM     11  C   UNL     1      64.489  33.530  60.453  1.00  0.00    -0.000 C 
BRANCH  11  12
ATOM     12  C   UNL     1      64.450  32.102  61.016  1.00  0.00    -0.000 C 
BRANCH  12  13
ATOM     13  C   UNL     1      65.087  31.109  60.038  1.00  0.00    -0.003 C 
ATOM     14  C   UNL     1      64.159  30.821  58.862  1.00  0.00     0.004 C 
ENDBRANCH  12  13
ENDBRANCH  11  12
ENDBRANCH  10  11
ENDBRANCH   9  10
ENDBRANCH   1   9
TORSDOF 9
ENDMDL
MODEL 5
REMARK VINA RESULT:    -3.241      1.310      2.312
REMARK INTER + INTRA:          -6.366
REMARK INTER:                  -5.511
REMARK INTRA:                  -0.856
REMARK UNBOUND:                -1.420
REMARK SMILES CCCCCCCCCC=CC(=O)[O-]
REMARK SMILES IDX 7 1 8 2 9 3 10 4 11 5 12 6 13 7 14 8 6 9 5 10 4 11 3 12 2 13
REMARK SMILES IDX 1 14
REMARK H PARENT
REMARK Flexibility Score: inf
ROOT
ATOM      1  C   UNL     1      61.062  32.799  58.767  1.00  0.00     0.000 C 
ENDROOT
BRANCH   1   2
ATOM      2  C   UNL     1      60.481  31.866  59.840  1.00  0.00     0.004 C 
BRANCH   2   3
ATOM      3  C   UNL     1      61.216  32.042  61.175  1.00  0.00     0.027 C 
BRANCH   3   4
ATOM      4  C   UNL     1      61.139  30.793  62.010  1.00  0.00    -0.025 C 
ATOM      5  C   UNL     1      62.072  29.829  62.079  1.00  0.00     0.020 C 
BRANCH   5   6
ATOM      6  C   UNL     1      63.380  29.819  61.391  1.00  0.00     0.064 C 
ATOM      7  O   UNL     1      63.612  28.921  60.539  1.00  0.00    -0.545 OA
ATOM      8  O   UNL     1      64.372  30.750  61.669  1.00  0.00    -0.545 OA
ENDBRANCH   5   6
ENDBRANCH   3   4
ENDBRANCH   2   3
ENDBRANCH   1   2
BRANCH   1   9
ATOM      9  C   UNL     1      60.351  34.162  58.711  1.00  0.00     0.000 C 
BRANCH   9  10
ATOM     10  C   UNL     1      61.187  35.356  59.215  1.00  0.00     0.000 C 
BRANCH  10  11
ATOM     11  C   UNL     1      61.104  35.620  60.729  1.00  0.00    -0.000 C 
BRANCH  11  12
ATOM     12  C   UNL     1      62.458  36.010  61.341  1.00  0.00    -0.000 C 
BRANCH  12  13
ATOM     13  C   UNL     1      63.461  34.856  61.233  1.00  0.00    -0.003 C 
ATOM     14  C   UNL     1      64.824  35.257  61.791  1.00  0.00     0.004 C 
ENDBRANCH  12  13
ENDBRANCH  11  12
ENDBRANCH  10  11
ENDBRANCH   9  10
ENDBRANCH   1   9
TORSDOF 9
ENDMDL
MODEL 6
REMARK VINA RESULT:    -3.216     12.139     13.591
REMARK INTER + INTRA:          -6.328
REMARK INTER:                  -5.452
REMARK INTRA:                  -0.876
REMARK UNBOUND:                -1.420
REMARK SMILES CCCCCCCCCC=CC(=O)[O-]
REMARK SMILES IDX 7 1 8 2 9 3 10 4 11 5 12 6 13 7 14 8 6 9 5 10 4 11 3 12 2 13
REMARK SMILES IDX 1 14
REMARK H PARENT
REMARK Flexibility Score: inf
ROOT
ATOM      1  C   UNL     1      60.027  28.214  50.351  1.00  0.00     0.000 C 
ENDROOT
BRANCH   1   2
ATOM      2  C   UNL     1      60.651  27.006  49.636  1.00  0.00     0.004 C 
BRANCH   2   3
ATOM      3  C   UNL     1      59.579  25.967  49.280  1.00  0.00     0.027 C 
BRANCH   3   4
ATOM      4  C   UNL     1      59.260  25.087  50.458  1.00  0.00    -0.025 C 
ATOM      5  C   UNL     1      59.851  23.918  50.754  1.00  0.00     0.020 C 
BRANCH   5   6
ATOM      6  C   UNL     1      60.964  23.281  50.017  1.00  0.00     0.064 C 
ATOM      7  O   UNL     1      62.143  23.652  50.257  1.00  0.00    -0.545 OA
ATOM      8  O   UNL     1      60.753  22.306  49.052  1.00  0.00    -0.545 OA
ENDBRANCH   5   6
ENDBRANCH   3   4
ENDBRANCH   2   3
ENDBRANCH   1   2
BRANCH   1   9
ATOM      9  C   UNL     1      59.027  28.981  49.467  1.00  0.00     0.000 C 
BRANCH   9  10
ATOM     10  C   UNL     1      57.649  29.237  50.112  1.00  0.00     0.000 C 
BRANCH  10  11
ATOM     11  C   UNL     1      56.775  27.985  50.306  1.00  0.00    -0.000 C 
BRANCH  11  12
ATOM     12  C   UNL     1      55.297  28.322  50.551  1.00  0.00    -0.000 C 
BRANCH  12  13
ATOM     13  C   UNL     1      54.384  27.235  49.972  1.00  0.00    -0.003 C 
ATOM     14  C   UNL     1      55.161  25.950  49.700  1.00  0.00     0.004 C 
ENDBRANCH  12  13
ENDBRANCH  11  12
ENDBRANCH  10  11
ENDBRANCH   9  10
ENDBRANCH   1   9
TORSDOF 9
ENDMDL
MODEL 7
REMARK VINA RESULT:    -3.213      3.078      5.665
REMARK INTER + INTRA:          -6.323
REMARK INTER:                  -5.304
REMARK INTRA:                  -1.019
REMARK UNBOUND:                -1.420
REMARK SMILES CCCCCCCCCC=CC(=O)[O-]
REMARK SMILES IDX 7 1 8 2 9 3 10 4 11 5 12 6 13 7 14 8 6 9 5 10 4 11 3 12 2 13
REMARK SMILES IDX 1 14
REMARK H PARENT
REMARK Flexibility Score: inf
ROOT
ATOM      1  C   UNL     1      61.904  33.190  60.158  1.00  0.00     0.000 C 
ENDROOT
BRANCH   1   2
ATOM      2  C   UNL     1      62.593  34.322  60.935  1.00  0.00     0.004 C 
BRANCH   2   3
ATOM      3  C   UNL     1      64.058  33.971  61.228  1.00  0.00     0.027 C 
BRANCH   3   4
ATOM      4  C   UNL     1      64.757  35.099  61.939  1.00  0.00    -0.025 C 
ATOM      5  C   UNL     1      65.429  36.104  61.356  1.00  0.00     0.020 C 
BRANCH   5   6
ATOM      6  C   UNL     1      65.582  36.338  59.904  1.00  0.00     0.064 C 
ATOM      7  O   UNL     1      64.616  36.830  59.262  1.00  0.00    -0.545 OA
ATOM      8  O   UNL     1      66.743  36.010  59.218  1.00  0.00    -0.545 OA
ENDBRANCH   5   6
ENDBRANCH   3   4
ENDBRANCH   2   3
ENDBRANCH   1   2
BRANCH   1   9
ATOM      9  C   UNL     1      60.983  32.331  61.044  1.00  0.00     0.000 C 
BRANCH   9  10
ATOM     10  C   UNL     1      61.183  30.808  60.909  1.00  0.00     0.000 C 
BRANCH  10  11
ATOM     11  C   UNL     1      61.983  30.149  62.046  1.00  0.00    -0.000 C 
BRANCH  11  12
ATOM     12  C   UNL     1      63.258  29.451  61.552  1.00  0.00    -0.000 C 
BRANCH  12  13
ATOM     13  C   UNL     1      64.345  30.474  61.206  1.00  0.00    -0.003 C 
ATOM     14  C   UNL     1      64.693  30.429  59.721  1.00  0.00     0.004 C 
ENDBRANCH  12  13
ENDBRANCH  11  12
ENDBRANCH  10  11
ENDBRANCH   9  10
ENDBRANCH   1   9
TORSDOF 9
ENDMDL
MODEL 8
REMARK VINA RESULT:    -3.188     11.783     13.526
REMARK INTER + INTRA:          -6.286
REMARK INTER:                  -5.548
REMARK INTRA:                  -0.738
REMARK UNBOUND:                -1.420
REMARK SMILES CCCCCCCCCC=CC(=O)[O-]
REMARK SMILES IDX 7 1 8 2 9 3 10 4 11 5 12 6 13 7 14 8 6 9 5 10 4 11 3 12 2 13
REMARK SMILES IDX 1 14
REMARK H PARENT
REMARK Flexibility Score: inf
ROOT
ATOM      1  C   UNL     1      58.556  29.035  51.070  1.00  0.00     0.000 C 
ENDROOT
BRANCH   1   2
ATOM      2  C   UNL     1      58.728  29.127  49.546  1.00  0.00     0.004 C 
BRANCH   2   3
ATOM      3  C   UNL     1      59.793  28.138  49.055  1.00  0.00     0.027 C 
BRANCH   3   4
ATOM      4  C   UNL     1      59.386  26.715  49.329  1.00  0.00    -0.025 C 
ATOM      5  C   UNL     1      60.150  25.771  49.902  1.00  0.00     0.020 C 
BRANCH   5   6
ATOM      6  C   UNL     1      61.523  25.944  50.421  1.00  0.00     0.064 C 
ATOM      7  O   UNL     1      62.456  25.270  49.910  1.00  0.00    -0.545 OA
ATOM      8  O   UNL     1      61.817  26.804  51.471  1.00  0.00    -0.545 OA
ENDBRANCH   5   6
ENDBRANCH   3   4
ENDBRANCH   2   3
ENDBRANCH   1   2
BRANCH   1   9
ATOM      9  C   UNL     1      57.089  28.847  51.496  1.00  0.00     0.000 C 
BRANCH   9  10
ATOM     10  C   UNL     1      56.077  28.769  50.335  1.00  0.00     0.000 C 
BRANCH  10  11
ATOM     11  C   UNL     1      54.604  28.628  50.760  1.00  0.00    -0.000 C 
BRANCH  11  12
ATOM     12  C   UNL     1      53.845  27.574  49.941  1.00  0.00    -0.000 C 
BRANCH  12  13
ATOM     13  C   UNL     1      54.664  26.285  49.813  1.00  0.00    -0.003 C 
ATOM     14  C   UNL     1      53.809  25.139  49.279  1.00  0.00     0.004 C 
ENDBRANCH  12  13
ENDBRANCH  11  12
ENDBRANCH  10  11
ENDBRANCH   9  10
ENDBRANCH   1   9
TORSDOF 9
ENDMDL
MODEL 9
REMARK VINA RESULT:    -3.109     11.145     12.932
REMARK INTER + INTRA:          -6.164
REMARK INTER:                  -4.433
REMARK INTRA:                  -1.731
REMARK UNBOUND:                -1.420
REMARK SMILES CCCCCCCCCC=CC(=O)[O-]
REMARK SMILES IDX 7 1 8 2 9 3 10 4 11 5 12 6 13 7 14 8 6 9 5 10 4 11 3 12 2 13
REMARK SMILES IDX 1 14
REMARK H PARENT
REMARK Flexibility Score: inf
ROOT
ATOM      1  C   UNL     1      59.072  27.650  52.787  1.00  0.00     0.000 C 
ENDROOT
BRANCH   1   2
ATOM      2  C   UNL     1      58.151  28.752  52.242  1.00  0.00     0.004 C 
BRANCH   2   3
ATOM      3  C   UNL     1      58.889  29.626  51.220  1.00  0.00     0.027 C 
BRANCH   3   4
ATOM      4  C   UNL     1      58.492  29.273  49.812  1.00  0.00    -0.025 C 
ATOM      5  C   UNL     1      59.143  28.427  48.997  1.00  0.00     0.020 C 
BRANCH   5   6
ATOM      6  C   UNL     1      60.347  27.636  49.327  1.00  0.00     0.064 C 
ATOM      7  O   UNL     1      61.453  28.228  49.437  1.00  0.00    -0.545 OA
ATOM      8  O   UNL     1      60.307  26.258  49.495  1.00  0.00    -0.545 OA
ENDBRANCH   5   6
ENDBRANCH   3   4
ENDBRANCH   2   3
ENDBRANCH   1   2
BRANCH   1   9
ATOM      9  C   UNL     1      58.519  26.234  52.546  1.00  0.00     0.000 C 
BRANCH   9  10
ATOM     10  C   UNL     1      57.079  26.181  51.996  1.00  0.00     0.000 C 
BRANCH  10  11
ATOM     11  C   UNL     1      56.959  25.788  50.513  1.00  0.00    -0.000 C 
BRANCH  11  12
ATOM     12  C   UNL     1      55.696  26.352  49.846  1.00  0.00    -0.000 C 
BRANCH  12  13
ATOM     13  C   UNL     1      54.912  27.239  50.819  1.00  0.00    -0.003 C 
ATOM     14  C   UNL     1      54.847  28.680  50.321  1.00  0.00     0.004 C 
ENDBRANCH  12  13
ENDBRANCH  11  12
ENDBRANCH  10  11
ENDBRANCH   9  10
ENDBRANCH   1   9
TORSDOF 9
ENDMDL
