MODEL 1
REMARK VINA RESULT:    -4.419      0.000      0.000
REMARK INTER + INTRA:          -7.519
REMARK INTER:                  -6.745
REMARK INTRA:                  -0.775
REMARK UNBOUND:                -0.775
REMARK SMILES O=C([O-])CCCCCCCCC(=O)[O-]
REMARK SMILES IDX 7 1 6 2 5 3 4 4 2 5 1 6 3 7 8 8 9 9 10 10 11 11 12 12 13 13
REMARK SMILES IDX 14 14
REMARK H PARENT
REMARK Flexibility Score: inf
ROOT
ATOM      1  C   UNL     1      27.626 -10.431  15.688  1.00  0.00     0.000 C 
ENDROOT
BRANCH   1   2
ATOM      2  C   UNL     1      27.046 -10.753  14.306  1.00  0.00     0.000 C 
BRANCH   2   3
ATOM      3  C   UNL     1      27.101 -12.262  14.023  1.00  0.00     0.006 C 
BRANCH   3   4
ATOM      4  C   UNL     1      28.223 -12.959  14.803  1.00  0.00     0.053 C 
BRANCH   4   5
ATOM      5  C   UNL     1      28.038 -14.446  14.832  1.00  0.00     0.041 C 
ATOM      6  O   UNL     1      27.006 -14.967  14.335  1.00  0.00    -0.550 OA
ATOM      7  O   UNL     1      29.023 -15.257  15.381  1.00  0.00    -0.550 OA
ENDBRANCH   4   5
ENDBRANCH   3   4
ENDBRANCH   2   3
ENDBRANCH   1   2
BRANCH   1   8
ATOM      8  C   UNL     1      28.227  -9.018  15.720  1.00  0.00     0.000 C 
BRANCH   8   9
ATOM      9  C   UNL     1      29.492  -8.942  16.601  1.00  0.00     0.000 C 
BRANCH   9  10
ATOM     10  C   UNL     1      30.777  -9.365  15.871  1.00  0.00     0.006 C 
BRANCH  10  11
ATOM     11  C   UNL     1      30.754  -9.026  14.375  1.00  0.00     0.053 C 
BRANCH  11  12
ATOM     12  C   UNL     1      31.021 -10.249  13.557  1.00  0.00     0.041 C 
ATOM     13  O   UNL     1      32.134 -10.832  13.633  1.00  0.00    -0.550 OA
ATOM     14  O   UNL     1      30.056 -10.719  12.674  1.00  0.00    -0.550 OA
ENDBRANCH  11  12
ENDBRANCH  10  11
ENDBRANCH   9  10
ENDBRANCH   8   9
ENDBRANCH   1   8
TORSDOF 9
ENDMDL
MODEL 2
REMARK VINA RESULT:    -4.351      3.766      5.048
REMARK INTER + INTRA:          -7.415
REMARK INTER:                  -6.904
REMARK INTRA:                  -0.511
REMARK UNBOUND:                -0.775
REMARK SMILES O=C([O-])CCCCCCCCC(=O)[O-]
REMARK SMILES IDX 7 1 6 2 5 3 4 4 2 5 1 6 3 7 8 8 9 9 10 10 11 11 12 12 13 13
REMARK SMILES IDX 14 14
REMARK H PARENT
REMARK Flexibility Score: inf
ROOT
ATOM      1  C   UNL     1      31.221  -8.291  12.831  1.00  0.00     0.000 C 
ENDROOT
BRANCH   1   2
ATOM      2  C   UNL     1      30.262  -9.295  13.483  1.00  0.00     0.000 C 
BRANCH   2   3
ATOM      3  C   UNL     1      29.836  -8.822  14.881  1.00  0.00     0.006 C 
BRANCH   3   4
ATOM      4  C   UNL     1      28.337  -9.034  15.133  1.00  0.00     0.053 C 
BRANCH   4   5
ATOM      5  C   UNL     1      27.973 -10.487  15.125  1.00  0.00     0.041 C 
ATOM      6  O   UNL     1      28.492 -11.276  15.956  1.00  0.00    -0.550 OA
ATOM      7  O   UNL     1      27.033 -10.962  14.218  1.00  0.00    -0.550 OA
ENDBRANCH   4   5
ENDBRANCH   3   4
ENDBRANCH   2   3
ENDBRANCH   1   2
BRANCH   1   8
ATOM      8  C   UNL     1      30.454  -7.096  12.244  1.00  0.00     0.000 C 
BRANCH   8   9
ATOM      9  C   UNL     1      31.214  -6.433  11.076  1.00  0.00     0.000 C 
BRANCH   9  10
ATOM     10  C   UNL     1      32.118  -5.268  11.512  1.00  0.00     0.006 C 
BRANCH  10  11
ATOM     11  C   UNL     1      33.484  -5.279  10.815  1.00  0.00     0.053 C 
BRANCH  11  12
ATOM     12  C   UNL     1      34.211  -6.553  11.108  1.00  0.00     0.041 C 
ATOM     13  O   UNL     1      34.435  -6.895  12.298  1.00  0.00    -0.550 OA
ATOM     14  O   UNL     1      34.683  -7.340  10.065  1.00  0.00    -0.550 OA
ENDBRANCH  11  12
ENDBRANCH  10  11
ENDBRANCH   9  10
ENDBRANCH   8   9
ENDBRANCH   1   8
TORSDOF 9
ENDMDL
MODEL 3
REMARK VINA RESULT:    -4.348      2.190      5.268
REMARK INTER + INTRA:          -7.410
REMARK INTER:                  -6.636
REMARK INTRA:                  -0.773
REMARK UNBOUND:                -0.775
REMARK SMILES O=C([O-])CCCCCCCCC(=O)[O-]
REMARK SMILES IDX 7 1 6 2 5 3 4 4 2 5 1 6 3 7 8 8 9 9 10 10 11 11 12 12 13 13
REMARK SMILES IDX 14 14
REMARK H PARENT
REMARK Flexibility Score: inf
ROOT
ATOM      1  C   UNL     1      29.211 -10.172  14.389  1.00  0.00     0.000 C 
ENDROOT
BRANCH   1   2
ATOM      2  C   UNL     1      28.174  -9.610  15.368  1.00  0.00     0.000 C 
BRANCH   2   3
ATOM      3  C   UNL     1      28.833  -9.205  16.696  1.00  0.00     0.006 C 
BRANCH   3   4
ATOM      4  C   UNL     1      30.226  -8.595  16.491  1.00  0.00     0.053 C 
BRANCH   4   5
ATOM      5  C   UNL     1      31.217  -9.131  17.478  1.00  0.00     0.041 C 
ATOM      6  O   UNL     1      31.343  -8.591  18.609  1.00  0.00    -0.550 OA
ATOM      7  O   UNL     1      31.979 -10.248  17.160  1.00  0.00    -0.550 OA
ENDBRANCH   4   5
ENDBRANCH   3   4
ENDBRANCH   2   3
ENDBRANCH   1   2
BRANCH   1   8
ATOM      8  C   UNL     1      28.580 -11.214  13.453  1.00  0.00     0.000 C 
BRANCH   8   9
ATOM      9  C   UNL     1      27.129 -11.554  13.854  1.00  0.00     0.000 C 
BRANCH   9  10
ATOM     10  C   UNL     1      26.883 -13.058  14.056  1.00  0.00     0.006 C 
BRANCH  10  11
ATOM     11  C   UNL     1      26.971 -13.486  15.526  1.00  0.00     0.053 C 
BRANCH  11  12
ATOM     12  C   UNL     1      28.384 -13.812  15.892  1.00  0.00     0.041 C 
ATOM     13  O   UNL     1      28.890 -14.911  15.546  1.00  0.00    -0.550 OA
ATOM     14  O   UNL     1      29.128 -12.921  16.656  1.00  0.00    -0.550 OA
ENDBRANCH  11  12
ENDBRANCH  10  11
ENDBRANCH   9  10
ENDBRANCH   8   9
ENDBRANCH   1   8
TORSDOF 9
ENDMDL
MODEL 4
REMARK VINA RESULT:    -4.331      3.772      7.053
REMARK INTER + INTRA:          -7.385
REMARK INTER:                  -6.933
REMARK INTRA:                  -0.452
REMARK UNBOUND:                -0.775
REMARK SMILES O=C([O-])CCCCCCCCC(=O)[O-]
REMARK SMILES IDX 7 1 6 2 5 3 4 4 2 5 1 6 3 7 8 8 9 9 10 10 11 11 12 12 13 13
REMARK SMILES IDX 14 14
REMARK H PARENT
REMARK Flexibility Score: inf
ROOT
ATOM      1  C   UNL     1      31.100  -8.630  12.376  1.00  0.00     0.000 C 
ENDROOT
BRANCH   1   2
ATOM      2  C   UNL     1      30.610  -7.183  12.502  1.00  0.00     0.000 C 
BRANCH   2   3
ATOM      3  C   UNL     1      30.939  -6.378  11.236  1.00  0.00     0.006 C 
BRANCH   3   4
ATOM      4  C   UNL     1      32.255  -5.602  11.366  1.00  0.00     0.053 C 
BRANCH   4   5
ATOM      5  C   UNL     1      33.114  -5.757  10.148  1.00  0.00     0.041 C 
ATOM      6  O   UNL     1      32.590  -5.985   9.027  1.00  0.00    -0.550 OA
ATOM      7  O   UNL     1      34.493  -5.617  10.248  1.00  0.00    -0.550 OA
ENDBRANCH   4   5
ENDBRANCH   3   4
ENDBRANCH   2   3
ENDBRANCH   1   2
BRANCH   1   8
ATOM      8  C   UNL     1      30.442  -9.531  13.432  1.00  0.00     0.000 C 
BRANCH   8   9
ATOM      9  C   UNL     1      29.927  -8.727  14.645  1.00  0.00     0.000 C 
BRANCH   9  10
ATOM     10  C   UNL     1      28.543  -9.178  15.140  1.00  0.00     0.006 C 
BRANCH  10  11
ATOM     11  C   UNL     1      28.109 -10.527  14.552  1.00  0.00     0.053 C 
BRANCH  11  12
ATOM     12  C   UNL     1      28.191 -11.600  15.591  1.00  0.00     0.041 C 
ATOM     13  O   UNL     1      27.299 -12.486  15.659  1.00  0.00    -0.550 OA
ATOM     14  O   UNL     1      29.229 -11.596  16.514  1.00  0.00    -0.550 OA
ENDBRANCH  11  12
ENDBRANCH  10  11
ENDBRANCH   9  10
ENDBRANCH   8   9
ENDBRANCH   1   8
TORSDOF 9
ENDMDL
MODEL 5
REMARK VINA RESULT:    -4.325      3.624      4.280
REMARK INTER + INTRA:          -7.375
REMARK INTER:                  -7.099
REMARK INTRA:                  -0.276
REMARK UNBOUND:                -0.775
REMARK SMILES O=C([O-])CCCCCCCCC(=O)[O-]
REMARK SMILES IDX 7 1 6 2 5 3 4 4 2 5 1 6 3 7 8 8 9 9 10 10 11 11 12 12 13 13
REMARK SMILES IDX 14 14
REMARK H PARENT
REMARK Flexibility Score: inf
ROOT
ATOM      1  C   UNL     1      30.221  -8.886  14.320  1.00  0.00     0.000 C 
ENDROOT
BRANCH   1   2
ATOM      2  C   UNL     1      29.481 -10.215  14.126  1.00  0.00     0.000 C 
BRANCH   2   3
ATOM      3  C   UNL     1      28.064 -10.148  14.714  1.00  0.00     0.006 C 
BRANCH   3   4
ATOM      4  C   UNL     1      27.103 -11.128  14.029  1.00  0.00     0.053 C 
BRANCH   4   5
ATOM      5  C   UNL     1      27.232 -12.513  14.587  1.00  0.00     0.041 C 
ATOM      6  O   UNL     1      27.446 -13.488  13.821  1.00  0.00    -0.550 OA
ATOM      7  O   UNL     1      27.149 -12.719  15.958  1.00  0.00    -0.550 OA
ENDBRANCH   4   5
ENDBRANCH   3   4
ENDBRANCH   2   3
ENDBRANCH   1   2
BRANCH   1   8
ATOM      8  C   UNL     1      30.898  -8.435  13.016  1.00  0.00     0.000 C 
BRANCH   8   9
ATOM      9  C   UNL     1      30.286  -7.131  12.462  1.00  0.00     0.000 C 
BRANCH   9  10
ATOM     10  C   UNL     1      30.917  -6.668  11.139  1.00  0.00     0.006 C 
BRANCH  10  11
ATOM     11  C   UNL     1      32.055  -5.660  11.341  1.00  0.00     0.053 C 
BRANCH  11  12
ATOM     12  C   UNL     1      33.000  -5.699  10.181  1.00  0.00     0.041 C 
ATOM     13  O   UNL     1      34.195  -5.331  10.325  1.00  0.00    -0.550 OA
ATOM     14  O   UNL     1      32.547  -6.097   8.929  1.00  0.00    -0.550 OA
ENDBRANCH  11  12
ENDBRANCH  10  11
ENDBRANCH   9  10
ENDBRANCH   8   9
ENDBRANCH   1   8
TORSDOF 9
ENDMDL
MODEL 6
REMARK VINA RESULT:    -4.289      2.942      6.716
REMARK INTER + INTRA:          -7.321
REMARK INTER:                  -7.006
REMARK INTRA:                  -0.314
REMARK UNBOUND:                -0.775
REMARK SMILES O=C([O-])CCCCCCCCC(=O)[O-]
REMARK SMILES IDX 7 1 6 2 5 3 4 4 2 5 1 6 3 7 8 8 9 9 10 10 11 11 12 12 13 13
REMARK SMILES IDX 14 14
REMARK H PARENT
REMARK Flexibility Score: inf
ROOT
ATOM      1  C   UNL     1      30.770 -10.202  13.443  1.00  0.00     0.000 C 
ENDROOT
BRANCH   1   2
ATOM      2  C   UNL     1      30.585  -8.681  13.489  1.00  0.00     0.000 C 
BRANCH   2   3
ATOM      3  C   UNL     1      31.538  -7.980  12.509  1.00  0.00     0.006 C 
BRANCH   3   4
ATOM      4  C   UNL     1      30.860  -6.822  11.766  1.00  0.00     0.053 C 
BRANCH   4   5
ATOM      5  C   UNL     1      31.860  -5.928  11.100  1.00  0.00     0.041 C 
ATOM      6  O   UNL     1      32.599  -5.178  11.790  1.00  0.00    -0.550 OA
ATOM      7  O   UNL     1      31.998  -5.948   9.717  1.00  0.00    -0.550 OA
ENDBRANCH   4   5
ENDBRANCH   3   4
ENDBRANCH   2   3
ENDBRANCH   1   2
BRANCH   1   8
ATOM      8  C   UNL     1      29.417 -10.926  13.514  1.00  0.00     0.000 C 
BRANCH   8   9
ATOM      9  C   UNL     1      29.021 -11.283  14.962  1.00  0.00     0.000 C 
BRANCH   9  10
ATOM     10  C   UNL     1      27.591 -11.834  15.091  1.00  0.00     0.006 C 
BRANCH  10  11
ATOM     11  C   UNL     1      27.534 -13.178  15.827  1.00  0.00     0.053 C 
BRANCH  11  12
ATOM     12  C   UNL     1      28.102 -14.267  14.973  1.00  0.00     0.041 C 
ATOM     13  O   UNL     1      28.930 -15.084  15.455  1.00  0.00    -0.550 OA
ATOM     14  O   UNL     1      27.753 -14.351  13.630  1.00  0.00    -0.550 OA
ENDBRANCH  11  12
ENDBRANCH  10  11
ENDBRANCH   9  10
ENDBRANCH   8   9
ENDBRANCH   1   8
TORSDOF 9
ENDMDL
MODEL 7
REMARK VINA RESULT:    -4.287      3.958      5.105
REMARK INTER + INTRA:          -7.317
REMARK INTER:                  -6.848
REMARK INTRA:                  -0.469
REMARK UNBOUND:                -0.775
REMARK SMILES O=C([O-])CCCCCCCCC(=O)[O-]
REMARK SMILES IDX 7 1 6 2 5 3 4 4 2 5 1 6 3 7 8 8 9 9 10 10 11 11 12 12 13 13
REMARK SMILES IDX 14 14
REMARK H PARENT
REMARK Flexibility Score: inf
ROOT
ATOM      1  C   UNL     1      31.244  -8.248  12.597  1.00  0.00     0.000 C 
ENDROOT
BRANCH   1   2
ATOM      2  C   UNL     1      30.429  -8.881  13.730  1.00  0.00     0.000 C 
BRANCH   2   3
ATOM      3  C   UNL     1      30.261 -10.392  13.510  1.00  0.00     0.006 C 
BRANCH   3   4
ATOM      4  C   UNL     1      28.861 -10.885  13.901  1.00  0.00     0.053 C 
BRANCH   4   5
ATOM      5  C   UNL     1      28.561 -10.616  15.344  1.00  0.00     0.041 C 
ATOM      6  O   UNL     1      27.536  -9.961  15.667  1.00  0.00    -0.550 OA
ATOM      7  O   UNL     1      29.399 -11.117  16.332  1.00  0.00    -0.550 OA
ENDBRANCH   4   5
ENDBRANCH   3   4
ENDBRANCH   2   3
ENDBRANCH   1   2
BRANCH   1   8
ATOM      8  C   UNL     1      30.593  -6.944  12.110  1.00  0.00     0.000 C 
BRANCH   8   9
ATOM      9  C   UNL     1      31.429  -6.250  11.013  1.00  0.00     0.000 C 
BRANCH   9  10
ATOM     10  C   UNL     1      32.461  -5.252  11.565  1.00  0.00     0.006 C 
BRANCH  10  11
ATOM     11  C   UNL     1      33.770  -5.244  10.765  1.00  0.00     0.053 C 
BRANCH  11  12
ATOM     12  C   UNL     1      34.500  -6.538  10.944  1.00  0.00     0.041 C 
ATOM     13  O   UNL     1      34.908  -7.178   9.940  1.00  0.00    -0.550 OA
ATOM     14  O   UNL     1      34.688  -7.059  12.217  1.00  0.00    -0.550 OA
ENDBRANCH  11  12
ENDBRANCH  10  11
ENDBRANCH   9  10
ENDBRANCH   8   9
ENDBRANCH   1   8
TORSDOF 9
ENDMDL
MODEL 8
REMARK VINA RESULT:    -4.268      3.878      7.132
REMARK INTER + INTRA:          -7.288
REMARK INTER:                  -6.842
REMARK INTRA:                  -0.446
REMARK UNBOUND:                -0.775
REMARK SMILES O=C([O-])CCCCCCCCC(=O)[O-]
REMARK SMILES IDX 7 1 6 2 5 3 4 4 2 5 1 6 3 7 8 8 9 9 10 10 11 11 12 12 13 13
REMARK SMILES IDX 14 14
REMARK H PARENT
REMARK Flexibility Score: inf
ROOT
ATOM      1  C   UNL     1      30.598  -6.972  12.176  1.00  0.00     0.000 C 
ENDROOT
BRANCH   1   2
ATOM      2  C   UNL     1      31.465  -6.444  11.028  1.00  0.00     0.000 C 
BRANCH   2   3
ATOM      3  C   UNL     1      32.333  -5.263  11.490  1.00  0.00     0.006 C 
BRANCH   3   4
ATOM      4  C   UNL     1      33.744  -5.309  10.891  1.00  0.00     0.053 C 
BRANCH   4   5
ATOM      5  C   UNL     1      34.386  -6.648  11.086  1.00  0.00     0.041 C 
ATOM      6  O   UNL     1      34.767  -7.321  10.092  1.00  0.00    -0.550 OA
ATOM      7  O   UNL     1      34.593  -7.139  12.369  1.00  0.00    -0.550 OA
ENDBRANCH   4   5
ENDBRANCH   3   4
ENDBRANCH   2   3
ENDBRANCH   1   2
BRANCH   1   8
ATOM      8  C   UNL     1      31.179  -8.270  12.756  1.00  0.00     0.000 C 
BRANCH   8   9
ATOM      9  C   UNL     1      30.208  -8.956  13.740  1.00  0.00     0.000 C 
BRANCH   9  10
ATOM     10  C   UNL     1      29.967 -10.443  13.432  1.00  0.00     0.006 C 
BRANCH  10  11
ATOM     11  C   UNL     1      28.660 -10.974  14.034  1.00  0.00     0.053 C 
BRANCH  11  12
ATOM     12  C   UNL     1      28.581 -10.638  15.490  1.00  0.00     0.041 C 
ATOM     13  O   UNL     1      29.359 -11.191  16.311  1.00  0.00    -0.550 OA
ATOM     14  O   UNL     1      27.616  -9.750  15.947  1.00  0.00    -0.550 OA
ENDBRANCH  11  12
ENDBRANCH  10  11
ENDBRANCH   9  10
ENDBRANCH   8   9
ENDBRANCH   1   8
TORSDOF 9
ENDMDL
MODEL 9
REMARK VINA RESULT:    -4.258      1.967      5.656
REMARK INTER + INTRA:          -7.274
REMARK INTER:                  -6.739
REMARK INTRA:                  -0.535
REMARK UNBOUND:                -0.775
REMARK SMILES O=C([O-])CCCCCCCCC(=O)[O-]
REMARK SMILES IDX 7 1 6 2 5 3 4 4 2 5 1 6 3 7 8 8 9 9 10 10 11 11 12 12 13 13
REMARK SMILES IDX 14 14
REMARK H PARENT
REMARK Flexibility Score: inf
ROOT
ATOM      1  C   UNL     1      28.410  -9.016  15.099  1.00  0.00     0.000 C 
ENDROOT
BRANCH   1   2
ATOM      2  C   UNL     1      29.899  -9.372  15.034  1.00  0.00     0.000 C 
BRANCH   2   3
ATOM      3  C   UNL     1      30.423  -9.291  13.592  1.00  0.00     0.006 C 
BRANCH   3   4
ATOM      4  C   UNL     1      30.530  -7.844  13.093  1.00  0.00     0.053 C 
BRANCH   4   5
ATOM      5  C   UNL     1      31.003  -7.780  11.673  1.00  0.00     0.041 C 
ATOM      6  O   UNL     1      31.419  -8.817  11.095  1.00  0.00    -0.550 OA
ATOM      7  O   UNL     1      30.952  -6.577  10.979  1.00  0.00    -0.550 OA
ENDBRANCH   4   5
ENDBRANCH   3   4
ENDBRANCH   2   3
ENDBRANCH   1   2
BRANCH   1   8
ATOM      8  C   UNL     1      27.558 -10.255  15.416  1.00  0.00     0.000 C 
BRANCH   8   9
ATOM      9  C   UNL     1      27.054 -10.958  14.139  1.00  0.00     0.000 C 
BRANCH   9  10
ATOM     10  C   UNL     1      27.399 -12.455  14.083  1.00  0.00     0.006 C 
BRANCH  10  11
ATOM     11  C   UNL     1      27.215 -13.161  15.433  1.00  0.00     0.053 C 
BRANCH  11  12
ATOM     12  C   UNL     1      28.513 -13.738  15.903  1.00  0.00     0.041 C 
ATOM     13  O   UNL     1      28.852 -14.900  15.559  1.00  0.00    -0.550 OA
ATOM     14  O   UNL     1      29.328 -13.008  16.760  1.00  0.00    -0.550 OA
ENDBRANCH  11  12
ENDBRANCH  10  11
ENDBRANCH   9  10
ENDBRANCH   8   9
ENDBRANCH   1   8
TORSDOF 9
ENDMDL
