MODEL 1
REMARK VINA RESULT:    -5.671      0.000      0.000
REMARK INTER + INTRA:          -6.297
REMARK INTER:                  -6.003
REMARK INTRA:                  -0.295
REMARK UNBOUND:                -0.295
REMARK SMILES CC1=CC[C@@]23[C@@H]([C@@H](C(C)C)CC[C@H]2C)[C@H]13
REMARK SMILES IDX 14 1 13 2 12 3 11 4 7 5 6 6 5 7 15 8 2 9 3 10 4 11 1 12 8 13
REMARK SMILES IDX 9 14 10 15
REMARK H PARENT
REMARK Flexibility Score: inf
ROOT
ATOM      1  C   UNL     1      12.493  10.041  22.734  1.00  0.00     0.008 C 
ATOM      2  C   UNL     1      13.417   8.811  22.699  1.00  0.00    -0.007 C 
ATOM      3  C   UNL     1      12.580   7.511  22.653  1.00  0.00     0.004 C 
ATOM      4  C   UNL     1      12.043   7.132  24.034  1.00  0.00     0.004 C 
ATOM      5  C   UNL     1      13.196   6.761  24.986  1.00  0.00    -0.004 C 
ATOM      6  C   UNL     1      14.276   7.873  25.058  1.00  0.00     0.007 C 
ATOM      7  C   UNL     1      14.423   8.856  23.885  1.00  0.00    -0.013 C 
ATOM      8  C   UNL     1      15.387   7.678  24.016  1.00  0.00     0.025 C 
ATOM      9  C   UNL     1      16.699   8.301  24.345  1.00  0.00    -0.073 C 
ATOM     10  C   UNL     1      16.638   9.624  24.401  1.00  0.00    -0.027 C 
ATOM     11  C   UNL     1      15.265  10.125  24.120  1.00  0.00     0.035 C 
ATOM     12  C   UNL     1      17.949   7.519  24.601  1.00  0.00     0.039 C 
ENDROOT
BRANCH   5  13
ATOM     13  C   UNL     1      12.666   6.346  26.392  1.00  0.00    -0.014 C 
ATOM     14  C   UNL     1      13.820   6.080  27.371  1.00  0.00     0.007 C 
ATOM     15  C   UNL     1      11.670   7.349  27.004  1.00  0.00     0.007 C 
ENDBRANCH   5  13
TORSDOF 1
ENDMDL
MODEL 2
REMARK VINA RESULT:    -5.551      1.437      4.247
REMARK INTER + INTRA:          -6.170
REMARK INTER:                  -5.858
REMARK INTRA:                  -0.312
REMARK UNBOUND:                -0.295
REMARK SMILES CC1=CC[C@@]23[C@@H]([C@@H](C(C)C)CC[C@H]2C)[C@H]13
REMARK SMILES IDX 14 1 13 2 12 3 11 4 7 5 6 6 5 7 15 8 2 9 3 10 4 11 1 12 8 13
REMARK SMILES IDX 9 14 10 15
REMARK H PARENT
REMARK Flexibility Score: inf
ROOT
ATOM      1  C   UNL     1      13.512   8.046  21.494  1.00  0.00     0.008 C 
ATOM      2  C   UNL     1      13.145   8.980  22.660  1.00  0.00    -0.007 C 
ATOM      3  C   UNL     1      14.177  10.125  22.778  1.00  0.00     0.004 C 
ATOM      4  C   UNL     1      15.456   9.667  23.480  1.00  0.00     0.004 C 
ATOM      5  C   UNL     1      15.174   9.311  24.952  1.00  0.00    -0.004 C 
ATOM      6  C   UNL     1      14.021   8.281  25.094  1.00  0.00     0.007 C 
ATOM      7  C   UNL     1      12.976   8.164  23.974  1.00  0.00    -0.013 C 
ATOM      8  C   UNL     1      12.650   8.955  25.240  1.00  0.00     0.025 C 
ATOM      9  C   UNL     1      11.603   8.148  25.927  1.00  0.00    -0.073 C 
ATOM     10  C   UNL     1      11.275   7.055  25.254  1.00  0.00    -0.027 C 
ATOM     11  C   UNL     1      12.050   6.932  23.990  1.00  0.00     0.035 C 
ATOM     12  C   UNL     1      10.997   8.523  27.243  1.00  0.00     0.039 C 
ENDROOT
BRANCH   5  13
ATOM     13  C   UNL     1      16.472   8.867  25.692  1.00  0.00    -0.014 C 
ATOM     14  C   UNL     1      16.160   7.884  26.831  1.00  0.00     0.007 C 
ATOM     15  C   UNL     1      17.550   8.277  24.762  1.00  0.00     0.007 C 
ENDBRANCH   5  13
TORSDOF 1
ENDMDL
MODEL 3
REMARK VINA RESULT:    -5.447      3.360      7.228
REMARK INTER + INTRA:          -6.060
REMARK INTER:                  -5.780
REMARK INTRA:                  -0.281
REMARK UNBOUND:                -0.295
REMARK SMILES CC1=CC[C@@]23[C@@H]([C@@H](C(C)C)CC[C@H]2C)[C@H]13
REMARK SMILES IDX 14 1 13 2 12 3 11 4 7 5 6 6 5 7 15 8 2 9 3 10 4 11 1 12 8 13
REMARK SMILES IDX 9 14 10 15
REMARK H PARENT
REMARK Flexibility Score: inf
ROOT
ATOM      1  C   UNL     1       9.751   3.774  30.023  1.00  0.00     0.008 C 
ATOM      2  C   UNL     1       9.128   4.958  29.264  1.00  0.00    -0.007 C 
ATOM      3  C   UNL     1       9.062   4.652  27.750  1.00  0.00     0.004 C 
ATOM      4  C   UNL     1      10.416   4.862  27.069  1.00  0.00     0.004 C 
ATOM      5  C   UNL     1      10.818   6.349  27.098  1.00  0.00    -0.004 C 
ATOM      6  C   UNL     1      10.783   6.936  28.535  1.00  0.00     0.007 C 
ATOM      7  C   UNL     1       9.889   6.274  29.596  1.00  0.00    -0.013 C 
ATOM      8  C   UNL     1       9.416   7.541  28.886  1.00  0.00     0.025 C 
ATOM      9  C   UNL     1       9.427   8.590  29.944  1.00  0.00    -0.073 C 
ATOM     10  C   UNL     1       9.804   8.122  31.125  1.00  0.00    -0.027 C 
ATOM     11  C   UNL     1      10.118   6.669  31.068  1.00  0.00     0.035 C 
ATOM     12  C   UNL     1       9.065  10.021  29.698  1.00  0.00     0.039 C 
ENDROOT
BRANCH   5  13
ATOM     13  C   UNL     1      12.183   6.586  26.385  1.00  0.00    -0.014 C 
ATOM     14  C   UNL     1      12.356   8.058  25.979  1.00  0.00     0.007 C 
ATOM     15  C   UNL     1      13.403   6.113  27.199  1.00  0.00     0.007 C 
ENDBRANCH   5  13
TORSDOF 1
ENDMDL
MODEL 4
REMARK VINA RESULT:    -5.326      1.414      4.594
REMARK INTER + INTRA:          -5.932
REMARK INTER:                  -5.622
REMARK INTRA:                  -0.310
REMARK UNBOUND:                -0.295
REMARK SMILES CC1=CC[C@@]23[C@@H]([C@@H](C(C)C)CC[C@H]2C)[C@H]13
REMARK SMILES IDX 14 1 13 2 12 3 11 4 7 5 6 6 5 7 15 8 2 9 3 10 4 11 1 12 8 13
REMARK SMILES IDX 9 14 10 15
REMARK H PARENT
REMARK Flexibility Score: inf
ROOT
ATOM      1  C   UNL     1      10.921   7.904  27.315  1.00  0.00     0.008 C 
ATOM      2  C   UNL     1      11.355   6.907  26.226  1.00  0.00    -0.007 C 
ATOM      3  C   UNL     1      12.577   6.088  26.702  1.00  0.00     0.004 C 
ATOM      4  C   UNL     1      13.879   6.879  26.567  1.00  0.00     0.004 C 
ATOM      5  C   UNL     1      14.205   7.146  25.086  1.00  0.00    -0.004 C 
ATOM      6  C   UNL     1      13.024   7.822  24.339  1.00  0.00     0.007 C 
ATOM      7  C   UNL     1      11.595   7.648  24.879  1.00  0.00    -0.013 C 
ATOM      8  C   UNL     1      12.073   6.799  23.702  1.00  0.00     0.025 C 
ATOM      9  C   UNL     1      11.281   7.289  22.540  1.00  0.00    -0.073 C 
ATOM     10  C   UNL     1      10.430   8.251  22.869  1.00  0.00    -0.027 C 
ATOM     11  C   UNL     1      10.503   8.579  24.318  1.00  0.00     0.035 C 
ATOM     12  C   UNL     1      11.439   6.765  21.147  1.00  0.00     0.039 C 
ENDROOT
BRANCH   5  13
ATOM     13  C   UNL     1      15.543   7.930  24.928  1.00  0.00    -0.014 C 
ATOM     14  C   UNL     1      15.358   9.186  24.061  1.00  0.00     0.007 C 
ATOM     15  C   UNL     1      16.211   8.301  26.265  1.00  0.00     0.007 C 
ENDBRANCH   5  13
TORSDOF 1
ENDMDL
MODEL 5
REMARK VINA RESULT:    -5.186      1.551      3.764
REMARK INTER + INTRA:          -5.784
REMARK INTER:                  -5.555
REMARK INTRA:                  -0.229
REMARK UNBOUND:                -0.295
REMARK SMILES CC1=CC[C@@]23[C@@H]([C@@H](C(C)C)CC[C@H]2C)[C@H]13
REMARK SMILES IDX 14 1 13 2 12 3 11 4 7 5 6 6 5 7 15 8 2 9 3 10 4 11 1 12 8 13
REMARK SMILES IDX 9 14 10 15
REMARK H PARENT
REMARK Flexibility Score: inf
ROOT
ATOM      1  C   UNL     1      11.585   7.372  26.203  1.00  0.00     0.008 C 
ATOM      2  C   UNL     1      12.212   8.637  25.590  1.00  0.00    -0.007 C 
ATOM      3  C   UNL     1      11.198   9.345  24.663  1.00  0.00     0.004 C 
ATOM      4  C   UNL     1      11.108   8.665  23.295  1.00  0.00     0.004 C 
ATOM      5  C   UNL     1      12.433   8.811  22.524  1.00  0.00    -0.004 C 
ATOM      6  C   UNL     1      13.649   8.315  23.352  1.00  0.00     0.007 C 
ATOM      7  C   UNL     1      13.554   8.288  24.885  1.00  0.00    -0.013 C 
ATOM      8  C   UNL     1      14.284   9.435  24.187  1.00  0.00     0.025 C 
ATOM      9  C   UNL     1      15.717   9.241  24.546  1.00  0.00    -0.073 C 
ATOM     10  C   UNL     1      15.910   8.196  25.339  1.00  0.00    -0.027 C 
ATOM     11  C   UNL     1      14.633   7.499  25.653  1.00  0.00     0.035 C 
ATOM     12  C   UNL     1      16.823  10.120  24.052  1.00  0.00     0.039 C 
ENDROOT
BRANCH   5  13
ATOM     13  C   UNL     1      12.352   8.147  21.117  1.00  0.00    -0.014 C 
ATOM     14  C   UNL     1      11.680   6.766  21.186  1.00  0.00     0.007 C 
ATOM     15  C   UNL     1      11.661   9.020  20.052  1.00  0.00     0.007 C 
ENDBRANCH   5  13
TORSDOF 1
ENDMDL
MODEL 6
REMARK VINA RESULT:    -5.050      9.781     12.083
REMARK INTER + INTRA:          -5.640
REMARK INTER:                  -5.387
REMARK INTRA:                  -0.254
REMARK UNBOUND:                -0.295
REMARK SMILES CC1=CC[C@@]23[C@@H]([C@@H](C(C)C)CC[C@H]2C)[C@H]13
REMARK SMILES IDX 14 1 13 2 12 3 11 4 7 5 6 6 5 7 15 8 2 9 3 10 4 11 1 12 8 13
REMARK SMILES IDX 9 14 10 15
REMARK H PARENT
REMARK Flexibility Score: inf
ROOT
ATOM      1  C   UNL     1       5.894   8.934  15.327  1.00  0.00     0.008 C 
ATOM      2  C   UNL     1       5.365   7.840  16.270  1.00  0.00    -0.007 C 
ATOM      3  C   UNL     1       3.958   7.380  15.824  1.00  0.00     0.004 C 
ATOM      4  C   UNL     1       2.872   8.361  16.272  1.00  0.00     0.004 C 
ATOM      5  C   UNL     1       2.753   8.381  17.807  1.00  0.00    -0.004 C 
ATOM      6  C   UNL     1       4.117   8.656  18.496  1.00  0.00     0.007 C 
ATOM      7  C   UNL     1       5.417   8.326  17.747  1.00  0.00    -0.013 C 
ATOM      8  C   UNL     1       4.885   7.364  18.808  1.00  0.00     0.025 C 
ATOM      9  C   UNL     1       5.870   7.451  19.921  1.00  0.00    -0.073 C 
ATOM     10  C   UNL     1       6.871   8.280  19.657  1.00  0.00    -0.027 C 
ATOM     11  C   UNL     1       6.731   8.901  18.312  1.00  0.00     0.035 C 
ATOM     12  C   UNL     1       5.739   6.697  21.207  1.00  0.00     0.039 C 
ENDROOT
BRANCH   5  13
ATOM     13  C   UNL     1       1.633   9.357  18.280  1.00  0.00    -0.014 C 
ATOM     14  C   UNL     1       0.287   8.631  18.439  1.00  0.00     0.007 C 
ATOM     15  C   UNL     1       1.977  10.124  19.571  1.00  0.00     0.007 C 
ENDBRANCH   5  13
TORSDOF 1
ENDMDL
MODEL 7
REMARK VINA RESULT:    -5.028      1.790      4.138
REMARK INTER + INTRA:          -5.617
REMARK INTER:                  -5.411
REMARK INTRA:                  -0.206
REMARK UNBOUND:                -0.295
REMARK SMILES CC1=CC[C@@]23[C@@H]([C@@H](C(C)C)CC[C@H]2C)[C@H]13
REMARK SMILES IDX 14 1 13 2 12 3 11 4 7 5 6 6 5 7 15 8 2 9 3 10 4 11 1 12 8 13
REMARK SMILES IDX 9 14 10 15
REMARK H PARENT
REMARK Flexibility Score: inf
ROOT
ATOM      1  C   UNL     1      14.734   9.434  22.861  1.00  0.00     0.008 C 
ATOM      2  C   UNL     1      13.210   9.418  23.075  1.00  0.00    -0.007 C 
ATOM      3  C   UNL     1      12.868   9.769  24.541  1.00  0.00     0.004 C 
ATOM      4  C   UNL     1      13.062   8.572  25.473  1.00  0.00     0.004 C 
ATOM      5  C   UNL     1      12.051   7.456  25.146  1.00  0.00    -0.004 C 
ATOM      6  C   UNL     1      12.091   7.051  23.648  1.00  0.00     0.007 C 
ATOM      7  C   UNL     1      12.613   8.058  22.611  1.00  0.00    -0.013 C 
ATOM      8  C   UNL     1      11.108   7.867  22.796  1.00  0.00     0.025 C 
ATOM      9  C   UNL     1      10.655   7.218  21.534  1.00  0.00    -0.073 C 
ATOM     10  C   UNL     1      11.642   7.033  20.669  1.00  0.00    -0.027 C 
ATOM     11  C   UNL     1      12.941   7.525  21.202  1.00  0.00     0.035 C 
ATOM     12  C   UNL     1       9.239   6.806  21.275  1.00  0.00     0.039 C 
ENDROOT
BRANCH   5  13
ATOM     13  C   UNL     1      12.217   6.237  26.103  1.00  0.00    -0.014 C 
ATOM     14  C   UNL     1      13.481   6.370  26.967  1.00  0.00     0.007 C 
ATOM     15  C   UNL     1      10.990   5.972  26.995  1.00  0.00     0.007 C 
ENDBRANCH   5  13
TORSDOF 1
ENDMDL
MODEL 8
REMARK VINA RESULT:    -4.955      9.206     12.052
REMARK INTER + INTRA:          -5.539
REMARK INTER:                  -5.279
REMARK INTRA:                  -0.261
REMARK UNBOUND:                -0.295
REMARK SMILES CC1=CC[C@@]23[C@@H]([C@@H](C(C)C)CC[C@H]2C)[C@H]13
REMARK SMILES IDX 14 1 13 2 12 3 11 4 7 5 6 6 5 7 15 8 2 9 3 10 4 11 1 12 8 13
REMARK SMILES IDX 9 14 10 15
REMARK H PARENT
REMARK Flexibility Score: inf
ROOT
ATOM      1  C   UNL     1       5.668   8.842  22.257  1.00  0.00     0.008 C 
ATOM      2  C   UNL     1       4.792   7.985  21.327  1.00  0.00    -0.007 C 
ATOM      3  C   UNL     1       5.623   6.834  20.714  1.00  0.00     0.004 C 
ATOM      4  C   UNL     1       6.483   7.315  19.544  1.00  0.00     0.004 C 
ATOM      5  C   UNL     1       5.600   7.762  18.364  1.00  0.00    -0.004 C 
ATOM      6  C   UNL     1       4.542   8.815  18.792  1.00  0.00     0.007 C 
ATOM      7  C   UNL     1       4.097   8.880  20.261  1.00  0.00    -0.013 C 
ATOM      8  C   UNL     1       3.220   8.171  19.231  1.00  0.00     0.025 C 
ATOM      9  C   UNL     1       2.010   9.032  19.112  1.00  0.00    -0.073 C 
ATOM     10  C   UNL     1       2.052  10.088  19.912  1.00  0.00    -0.027 C 
ATOM     11  C   UNL     1       3.306  10.124  20.712  1.00  0.00     0.035 C 
ATOM     12  C   UNL     1       0.876   8.745  18.179  1.00  0.00     0.039 C 
ENDROOT
BRANCH   5  13
ATOM     13  C   UNL     1       6.460   8.232  17.152  1.00  0.00    -0.014 C 
ATOM     14  C   UNL     1       6.550   7.141  16.073  1.00  0.00     0.007 C 
ATOM     15  C   UNL     1       5.989   9.559  16.529  1.00  0.00     0.007 C 
ENDBRANCH   5  13
TORSDOF 1
ENDMDL
MODEL 9
REMARK VINA RESULT:    -4.910      8.797     11.152
REMARK INTER + INTRA:          -5.492
REMARK INTER:                  -5.222
REMARK INTRA:                  -0.270
REMARK UNBOUND:                -0.295
REMARK SMILES CC1=CC[C@@]23[C@@H]([C@@H](C(C)C)CC[C@H]2C)[C@H]13
REMARK SMILES IDX 14 1 13 2 12 3 11 4 7 5 6 6 5 7 15 8 2 9 3 10 4 11 1 12 8 13
REMARK SMILES IDX 9 14 10 15
REMARK H PARENT
REMARK Flexibility Score: inf
ROOT
ATOM      1  C   UNL     1       3.554  10.121  17.225  1.00  0.00     0.008 C 
ATOM      2  C   UNL     1       4.058   8.707  16.887  1.00  0.00    -0.007 C 
ATOM      3  C   UNL     1       3.761   7.737  18.054  1.00  0.00     0.004 C 
ATOM      4  C   UNL     1       4.778   7.884  19.188  1.00  0.00     0.004 C 
ATOM      5  C   UNL     1       6.179   7.441  18.726  1.00  0.00    -0.004 C 
ATOM      6  C   UNL     1       6.627   8.173  17.432  1.00  0.00     0.007 C 
ATOM      7  C   UNL     1       5.561   8.749  16.487  1.00  0.00    -0.013 C 
ATOM      8  C   UNL     1       6.225   7.413  16.161  1.00  0.00     0.025 C 
ATOM      9  C   UNL     1       7.052   7.690  14.953  1.00  0.00    -0.073 C 
ATOM     10  C   UNL     1       6.948   8.944  14.538  1.00  0.00    -0.027 C 
ATOM     11  C   UNL     1       6.030   9.736  15.400  1.00  0.00     0.035 C 
ATOM     12  C   UNL     1       7.919   6.667  14.288  1.00  0.00     0.039 C 
ENDROOT
BRANCH   5  13
ATOM     13  C   UNL     1       7.224   7.559  19.876  1.00  0.00    -0.014 C 
ATOM     14  C   UNL     1       7.875   8.951  19.901  1.00  0.00     0.007 C 
ATOM     15  C   UNL     1       6.664   7.209  21.267  1.00  0.00     0.007 C 
ENDBRANCH   5  13
TORSDOF 1
ENDMDL
