MODEL 1
REMARK VINA RESULT:    -4.577      0.000      0.000
REMARK INTER + INTRA:          -9.992
REMARK INTER:                  -8.323
REMARK INTRA:                  -1.669
REMARK UNBOUND:                -1.669
REMARK SMILES CCCCCCCCCCCCCC[C@H](C)C(=O)[O-]
REMARK SMILES IDX 9 1 10 2 11 3 12 4 13 5 14 6 15 7 16 8 17 9 18 10 19 11 8 12
REMARK SMILES IDX 7 13 6 14 5 15 4 16 3 17 2 18 1 19
REMARK H PARENT
REMARK Flexibility Score: inf
ROOT
ATOM      1  C   UNL     1       5.689  11.466   5.448  1.00  0.00     0.000 C 
ENDROOT
BRANCH   1   2
ATOM      2  C   UNL     1       5.455  10.378   6.508  1.00  0.00     0.000 C 
BRANCH   2   3
ATOM      3  C   UNL     1       3.964  10.154   6.811  1.00  0.00     0.000 C 
BRANCH   3   4
ATOM      4  C   UNL     1       3.734   9.389   8.126  1.00  0.00     0.000 C 
BRANCH   4   5
ATOM      5  C   UNL     1       3.865  10.274   9.385  1.00  0.00     0.001 C 
BRANCH   5   6
ATOM      6  C   UNL     1       3.172  11.649   9.241  1.00  0.00     0.009 C 
BRANCH   6   7
ATOM      7  C   UNL     1       1.823  11.741   9.991  1.00  0.00     0.032 C 
ATOM      8  C   UNL     1       1.520  10.482  10.811  1.00  0.00     0.014 C 
BRANCH   7   9
ATOM      9  C   UNL     1       0.709  11.994   9.012  1.00  0.00     0.044 C 
ATOM     10  O   UNL     1       0.522  11.214   8.040  1.00  0.00    -0.550 OA
ATOM     11  O   UNL     1      -0.122  13.095   9.176  1.00  0.00    -0.550 OA
ENDBRANCH   7   9
ENDBRANCH   6   7
ENDBRANCH   5   6
ENDBRANCH   4   5
ENDBRANCH   3   4
ENDBRANCH   2   3
ENDBRANCH   1   2
BRANCH   1  12
ATOM     12  C   UNL     1       6.455  12.678   6.007  1.00  0.00     0.000 C 
BRANCH  12  13
ATOM     13  C   UNL     1       6.483  12.699   7.544  1.00  0.00    -0.000 C 
BRANCH  13  14
ATOM     14  C   UNL     1       7.906  12.568   8.113  1.00  0.00    -0.000 C 
BRANCH  14  15
ATOM     15  C   UNL     1       8.830  11.733   7.211  1.00  0.00    -0.000 C 
BRANCH  15  16
ATOM     16  C   UNL     1      10.121  12.482   6.835  1.00  0.00    -0.000 C 
BRANCH  16  17
ATOM     17  C   UNL     1      10.125  12.951   5.371  1.00  0.00    -0.000 C 
BRANCH  17  18
ATOM     18  C   UNL     1       9.362  11.998   4.441  1.00  0.00    -0.003 C 
ATOM     19  C   UNL     1       9.017  12.680   3.118  1.00  0.00     0.004 C 
ENDBRANCH  17  18
ENDBRANCH  16  17
ENDBRANCH  15  16
ENDBRANCH  14  15
ENDBRANCH  13  14
ENDBRANCH  12  13
ENDBRANCH   1  12
TORSDOF 14
ENDMDL
MODEL 2
REMARK VINA RESULT:    -4.555      1.277      2.266
REMARK INTER + INTRA:          -9.952
REMARK INTER:                  -8.134
REMARK INTRA:                  -1.818
REMARK UNBOUND:                -1.669
REMARK SMILES CCCCCCCCCCCCCC[C@H](C)C(=O)[O-]
REMARK SMILES IDX 9 1 10 2 11 3 12 4 13 5 14 6 15 7 16 8 17 9 18 10 19 11 8 12
REMARK SMILES IDX 7 13 6 14 5 15 4 16 3 17 2 18 1 19
REMARK H PARENT
REMARK Flexibility Score: inf
ROOT
ATOM      1  C   UNL     1       6.677  11.813   8.869  1.00  0.00     0.000 C 
ENDROOT
BRANCH   1   2
ATOM      2  C   UNL     1       6.789  10.526   8.035  1.00  0.00     0.000 C 
BRANCH   2   3
ATOM      3  C   UNL     1       5.534  10.258   7.187  1.00  0.00     0.000 C 
BRANCH   3   4
ATOM      4  C   UNL     1       4.590   9.229   7.832  1.00  0.00     0.000 C 
BRANCH   4   5
ATOM      5  C   UNL     1       3.608   9.849   8.851  1.00  0.00     0.001 C 
BRANCH   5   6
ATOM      6  C   UNL     1       2.360  10.479   8.192  1.00  0.00     0.009 C 
BRANCH   6   7
ATOM      7  C   UNL     1       2.114  11.947   8.613  1.00  0.00     0.032 C 
ATOM      8  C   UNL     1       3.348  12.585   9.262  1.00  0.00     0.014 C 
BRANCH   7   9
ATOM      9  C   UNL     1       0.945  12.021   9.557  1.00  0.00     0.044 C 
ATOM     10  O   UNL     1       1.040  11.571  10.731  1.00  0.00    -0.550 OA
ATOM     11  O   UNL     1      -0.252  12.586   9.136  1.00  0.00    -0.550 OA
ENDBRANCH   7   9
ENDBRANCH   6   7
ENDBRANCH   5   6
ENDBRANCH   4   5
ENDBRANCH   3   4
ENDBRANCH   2   3
ENDBRANCH   1   2
BRANCH   1  12
ATOM     12  C   UNL     1       7.638  12.913   8.386  1.00  0.00     0.000 C 
BRANCH  12  13
ATOM     13  C   UNL     1       9.072  12.397   8.184  1.00  0.00    -0.000 C 
BRANCH  13  14
ATOM     14  C   UNL     1       9.658  12.793   6.819  1.00  0.00    -0.000 C 
BRANCH  14  15
ATOM     15  C   UNL     1       9.795  11.597   5.862  1.00  0.00    -0.000 C 
BRANCH  15  16
ATOM     16  C   UNL     1       8.788  11.652   4.701  1.00  0.00    -0.000 C 
BRANCH  16  17
ATOM     17  C   UNL     1       8.212  13.061   4.486  1.00  0.00    -0.000 C 
BRANCH  17  18
ATOM     18  C   UNL     1       6.696  13.125   4.725  1.00  0.00    -0.003 C 
ATOM     19  C   UNL     1       6.027  11.802   4.360  1.00  0.00     0.004 C 
ENDBRANCH  17  18
ENDBRANCH  16  17
ENDBRANCH  15  16
ENDBRANCH  14  15
ENDBRANCH  13  14
ENDBRANCH  12  13
ENDBRANCH   1  12
TORSDOF 14
ENDMDL
MODEL 3
REMARK VINA RESULT:    -4.395      3.715      8.176
REMARK INTER + INTRA:          -9.661
REMARK INTER:                  -9.062
REMARK INTRA:                  -0.599
REMARK UNBOUND:                -1.669
REMARK SMILES CCCCCCCCCCCCCC[C@H](C)C(=O)[O-]
REMARK SMILES IDX 9 1 10 2 11 3 12 4 13 5 14 6 15 7 16 8 17 9 18 10 19 11 8 12
REMARK SMILES IDX 7 13 6 14 5 15 4 16 3 17 2 18 1 19
REMARK H PARENT
REMARK Flexibility Score: inf
ROOT
ATOM      1  C   UNL     1       3.349   9.667   7.718  1.00  0.00     0.000 C 
ENDROOT
BRANCH   1   2
ATOM      2  C   UNL     1       4.780  10.009   7.271  1.00  0.00     0.000 C 
BRANCH   2   3
ATOM      3  C   UNL     1       5.732  10.243   8.456  1.00  0.00     0.000 C 
BRANCH   3   4
ATOM      4  C   UNL     1       6.863  11.230   8.122  1.00  0.00     0.000 C 
BRANCH   4   5
ATOM      5  C   UNL     1       6.458  12.305   7.089  1.00  0.00     0.001 C 
BRANCH   5   6
ATOM      6  C   UNL     1       7.662  12.916   6.337  1.00  0.00     0.009 C 
BRANCH   6   7
ATOM      7  C   UNL     1       7.463  12.982   4.805  1.00  0.00     0.032 C 
ATOM      8  C   UNL     1       6.449  11.950   4.299  1.00  0.00     0.014 C 
BRANCH   7   9
ATOM      9  C   UNL     1       8.782  12.787   4.108  1.00  0.00     0.044 C 
ATOM     10  O   UNL     1       8.822  12.384   2.914  1.00  0.00    -0.550 OA
ATOM     11  O   UNL     1       9.969  13.050   4.781  1.00  0.00    -0.550 OA
ENDBRANCH   7   9
ENDBRANCH   6   7
ENDBRANCH   5   6
ENDBRANCH   4   5
ENDBRANCH   3   4
ENDBRANCH   2   3
ENDBRANCH   1   2
BRANCH   1  12
ATOM     12  C   UNL     1       2.921  10.447   8.973  1.00  0.00     0.000 C 
BRANCH  12  13
ATOM     13  C   UNL     1       3.266  11.943   8.884  1.00  0.00    -0.000 C 
BRANCH  13  14
ATOM     14  C   UNL     1       2.228  12.834   9.586  1.00  0.00    -0.000 C 
BRANCH  14  15
ATOM     15  C   UNL     1       0.823  12.208   9.602  1.00  0.00    -0.000 C 
BRANCH  15  16
ATOM     16  C   UNL     1      -0.238  13.125   8.969  1.00  0.00    -0.000 C 
BRANCH  16  17
ATOM     17  C   UNL     1      -1.463  12.346   8.464  1.00  0.00    -0.000 C 
BRANCH  17  18
ATOM     18  C   UNL     1      -2.788  13.060   8.773  1.00  0.00    -0.003 C 
ATOM     19  C   UNL     1      -3.822  12.793   7.682  1.00  0.00     0.004 C 
ENDBRANCH  17  18
ENDBRANCH  16  17
ENDBRANCH  15  16
ENDBRANCH  14  15
ENDBRANCH  13  14
ENDBRANCH  12  13
ENDBRANCH   1  12
TORSDOF 14
ENDMDL
MODEL 4
REMARK VINA RESULT:    -4.369      1.014      2.204
REMARK INTER + INTRA:          -9.615
REMARK INTER:                  -8.143
REMARK INTRA:                  -1.472
REMARK UNBOUND:                -1.669
REMARK SMILES CCCCCCCCCCCCCC[C@H](C)C(=O)[O-]
REMARK SMILES IDX 9 1 10 2 11 3 12 4 13 5 14 6 15 7 16 8 17 9 18 10 19 11 8 12
REMARK SMILES IDX 7 13 6 14 5 15 4 16 3 17 2 18 1 19
REMARK H PARENT
REMARK Flexibility Score: inf
ROOT
ATOM      1  C   UNL     1       4.855  10.897   5.894  1.00  0.00     0.000 C 
ENDROOT
BRANCH   1   2
ATOM      2  C   UNL     1       4.851   9.723   6.888  1.00  0.00     0.000 C 
BRANCH   2   3
ATOM      3  C   UNL     1       5.437  10.103   8.258  1.00  0.00     0.000 C 
BRANCH   3   4
ATOM      4  C   UNL     1       5.007  11.507   8.718  1.00  0.00     0.000 C 
BRANCH   4   5
ATOM      5  C   UNL     1       3.782  11.498   9.659  1.00  0.00     0.001 C 
BRANCH   5   6
ATOM      6  C   UNL     1       2.691  12.516   9.255  1.00  0.00     0.009 C 
BRANCH   6   7
ATOM      7  C   UNL     1       1.324  12.256   9.928  1.00  0.00     0.032 C 
ATOM      8  C   UNL     1       1.318  10.974  10.769  1.00  0.00     0.014 C 
BRANCH   7   9
ATOM      9  C   UNL     1       0.243  12.186   8.884  1.00  0.00     0.044 C 
ATOM     10  O   UNL     1       0.259  11.282   8.005  1.00  0.00    -0.550 OA
ATOM     11  O   UNL     1      -0.781  13.125   8.881  1.00  0.00    -0.550 OA
ENDBRANCH   7   9
ENDBRANCH   6   7
ENDBRANCH   5   6
ENDBRANCH   4   5
ENDBRANCH   3   4
ENDBRANCH   2   3
ENDBRANCH   1   2
BRANCH   1  12
ATOM     12  C   UNL     1       6.223  11.092   5.218  1.00  0.00     0.000 C 
BRANCH  12  13
ATOM     13  C   UNL     1       6.403  12.510   4.651  1.00  0.00    -0.000 C 
BRANCH  13  14
ATOM     14  C   UNL     1       7.644  12.636   3.751  1.00  0.00    -0.000 C 
BRANCH  14  15
ATOM     15  C   UNL     1       8.899  12.011   4.381  1.00  0.00    -0.000 C 
BRANCH  15  16
ATOM     16  C   UNL     1       9.920  13.068   4.834  1.00  0.00    -0.000 C 
BRANCH  16  17
ATOM     17  C   UNL     1      10.125  13.075   6.358  1.00  0.00    -0.000 C 
BRANCH  17  18
ATOM     18  C   UNL     1       9.589  11.804   7.034  1.00  0.00    -0.003 C 
ATOM     19  C   UNL     1       8.424  12.129   7.967  1.00  0.00     0.004 C 
ENDBRANCH  17  18
ENDBRANCH  16  17
ENDBRANCH  15  16
ENDBRANCH  14  15
ENDBRANCH  13  14
ENDBRANCH  12  13
ENDBRANCH   1  12
TORSDOF 14
ENDMDL
MODEL 5
REMARK VINA RESULT:    -4.327      2.893      7.481
REMARK INTER + INTRA:          -9.537
REMARK INTER:                  -8.386
REMARK INTRA:                  -1.151
REMARK UNBOUND:                -1.669
REMARK SMILES CCCCCCCCCCCCCC[C@H](C)C(=O)[O-]
REMARK SMILES IDX 9 1 10 2 11 3 12 4 13 5 14 6 15 7 16 8 17 9 18 10 19 11 8 12
REMARK SMILES IDX 7 13 6 14 5 15 4 16 3 17 2 18 1 19
REMARK H PARENT
REMARK Flexibility Score: inf
ROOT
ATOM      1  C   UNL     1       3.890   9.923   6.909  1.00  0.00     0.000 C 
ENDROOT
BRANCH   1   2
ATOM      2  C   UNL     1       4.929  10.986   6.519  1.00  0.00     0.000 C 
BRANCH   2   3
ATOM      3  C   UNL     1       5.540  10.738   5.129  1.00  0.00     0.000 C 
BRANCH   3   4
ATOM      4  C   UNL     1       5.878  12.042   4.388  1.00  0.00     0.000 C 
BRANCH   4   5
ATOM      5  C   UNL     1       7.388  12.370   4.376  1.00  0.00     0.001 C 
BRANCH   5   6
ATOM      6  C   UNL     1       7.880  13.037   5.681  1.00  0.00     0.009 C 
BRANCH   6   7
ATOM      7  C   UNL     1       8.976  12.227   6.412  1.00  0.00     0.032 C 
ATOM      8  C   UNL     1       9.079  10.785   5.902  1.00  0.00     0.014 C 
BRANCH   7   9
ATOM      9  C   UNL     1       8.712  12.228   7.893  1.00  0.00     0.044 C 
ATOM     10  O   UNL     1       9.281  13.065   8.644  1.00  0.00    -0.550 OA
ATOM     11  O   UNL     1       7.836  11.300   8.442  1.00  0.00    -0.550 OA
ENDBRANCH   7   9
ENDBRANCH   6   7
ENDBRANCH   5   6
ENDBRANCH   4   5
ENDBRANCH   3   4
ENDBRANCH   2   3
ENDBRANCH   1   2
BRANCH   1  12
ATOM     12  C   UNL     1       4.112   9.375   8.329  1.00  0.00     0.000 C 
BRANCH  12  13
ATOM     13  C   UNL     1       3.720  10.387   9.418  1.00  0.00    -0.000 C 
BRANCH  13  14
ATOM     14  C   UNL     1       2.595   9.871  10.331  1.00  0.00    -0.000 C 
BRANCH  14  15
ATOM     15  C   UNL     1       1.364  10.793  10.335  1.00  0.00    -0.000 C 
BRANCH  15  16
ATOM     16  C   UNL     1       1.744  12.283  10.322  1.00  0.00    -0.000 C 
BRANCH  16  17
ATOM     17  C   UNL     1       0.808  13.123   9.438  1.00  0.00    -0.000 C 
BRANCH  17  18
ATOM     18  C   UNL     1      -0.269  12.277   8.744  1.00  0.00    -0.003 C 
ATOM     19  C   UNL     1      -1.608  13.011   8.711  1.00  0.00     0.004 C 
ENDBRANCH  17  18
ENDBRANCH  16  17
ENDBRANCH  15  16
ENDBRANCH  14  15
ENDBRANCH  13  14
ENDBRANCH  12  13
ENDBRANCH   1  12
TORSDOF 14
ENDMDL
MODEL 6
REMARK VINA RESULT:    -4.274      1.193      2.814
REMARK INTER + INTRA:          -9.441
REMARK INTER:                  -7.886
REMARK INTRA:                  -1.554
REMARK UNBOUND:                -1.669
REMARK SMILES CCCCCCCCCCCCCC[C@H](C)C(=O)[O-]
REMARK SMILES IDX 9 1 10 2 11 3 12 4 13 5 14 6 15 7 16 8 17 9 18 10 19 11 8 12
REMARK SMILES IDX 7 13 6 14 5 15 4 16 3 17 2 18 1 19
REMARK H PARENT
REMARK Flexibility Score: inf
ROOT
ATOM      1  C   UNL     1       6.784  11.199   4.871  1.00  0.00     0.000 C 
ENDROOT
BRANCH   1   2
ATOM      2  C   UNL     1       5.270  11.352   5.088  1.00  0.00     0.000 C 
BRANCH   2   3
ATOM      3  C   UNL     1       4.861  11.185   6.561  1.00  0.00     0.000 C 
BRANCH   3   4
ATOM      4  C   UNL     1       5.039   9.743   7.067  1.00  0.00     0.000 C 
BRANCH   4   5
ATOM      5  C   UNL     1       4.931   9.611   8.602  1.00  0.00     0.001 C 
BRANCH   5   6
ATOM      6  C   UNL     1       3.498   9.300   9.090  1.00  0.00     0.009 C 
BRANCH   6   7
ATOM      7  C   UNL     1       2.918  10.381  10.031  1.00  0.00     0.032 C 
ATOM      8  C   UNL     1       1.885   9.814  11.012  1.00  0.00     0.014 C 
BRANCH   7   9
ATOM      9  C   UNL     1       2.300  11.488   9.222  1.00  0.00     0.044 C 
ATOM     10  O   UNL     1       2.812  12.640   9.216  1.00  0.00    -0.550 OA
ATOM     11  O   UNL     1       1.155  11.244   8.473  1.00  0.00    -0.550 OA
ENDBRANCH   7   9
ENDBRANCH   6   7
ENDBRANCH   5   6
ENDBRANCH   4   5
ENDBRANCH   3   4
ENDBRANCH   2   3
ENDBRANCH   1   2
BRANCH   1  12
ATOM     12  C   UNL     1       7.460  12.524   4.477  1.00  0.00     0.000 C 
BRANCH  12  13
ATOM     13  C   UNL     1       8.609  12.323   3.475  1.00  0.00    -0.000 C 
BRANCH  13  14
ATOM     14  C   UNL     1       9.989  12.618   4.089  1.00  0.00    -0.000 C 
BRANCH  14  15
ATOM     15  C   UNL     1       9.897  13.122   5.539  1.00  0.00    -0.000 C 
BRANCH  15  16
ATOM     16  C   UNL     1      10.031  11.986   6.567  1.00  0.00    -0.000 C 
BRANCH  16  17
ATOM     17  C   UNL     1       9.446  12.360   7.939  1.00  0.00    -0.000 C 
BRANCH  17  18
ATOM     18  C   UNL     1       8.076  11.716   8.195  1.00  0.00    -0.003 C 
ATOM     19  C   UNL     1       7.167  12.654   8.986  1.00  0.00     0.004 C 
ENDBRANCH  17  18
ENDBRANCH  16  17
ENDBRANCH  15  16
ENDBRANCH  14  15
ENDBRANCH  13  14
ENDBRANCH  12  13
ENDBRANCH   1  12
TORSDOF 14
ENDMDL
MODEL 7
REMARK VINA RESULT:    -3.989      2.336      6.847
REMARK INTER + INTRA:          -8.924
REMARK INTER:                  -7.896
REMARK INTRA:                  -1.028
REMARK UNBOUND:                -1.669
REMARK SMILES CCCCCCCCCCCCCC[C@H](C)C(=O)[O-]
REMARK SMILES IDX 9 1 10 2 11 3 12 4 13 5 14 6 15 7 16 8 17 9 18 10 19 11 8 12
REMARK SMILES IDX 7 13 6 14 5 15 4 16 3 17 2 18 1 19
REMARK H PARENT
REMARK Flexibility Score: inf
ROOT
ATOM      1  C   UNL     1       5.392  10.722   4.689  1.00  0.00     0.000 C 
ENDROOT
BRANCH   1   2
ATOM      2  C   UNL     1       6.044  11.956   4.045  1.00  0.00     0.000 C 
BRANCH   2   3
ATOM      3  C   UNL     1       7.094  12.616   4.954  1.00  0.00     0.000 C 
BRANCH   3   4
ATOM      4  C   UNL     1       8.443  11.876   4.937  1.00  0.00     0.000 C 
BRANCH   4   5
ATOM      5  C   UNL     1       9.506  12.511   5.860  1.00  0.00     0.001 C 
BRANCH   5   6
ATOM      6  C   UNL     1       9.480  11.951   7.300  1.00  0.00     0.009 C 
BRANCH   6   7
ATOM      7  C   UNL     1       8.508  12.704   8.237  1.00  0.00     0.032 C 
ATOM      8  C   UNL     1       9.165  13.107   9.563  1.00  0.00     0.014 C 
BRANCH   7   9
ATOM      9  C   UNL     1       7.295  11.856   8.506  1.00  0.00     0.044 C 
ATOM     10  O   UNL     1       6.302  12.334   9.117  1.00  0.00    -0.550 OA
ATOM     11  O   UNL     1       7.264  10.534   8.080  1.00  0.00    -0.550 OA
ENDBRANCH   7   9
ENDBRANCH   6   7
ENDBRANCH   5   6
ENDBRANCH   4   5
ENDBRANCH   3   4
ENDBRANCH   2   3
ENDBRANCH   1   2
BRANCH   1  12
ATOM     12  C   UNL     1       4.402  11.093   5.806  1.00  0.00     0.000 C 
BRANCH  12  13
ATOM     13  C   UNL     1       4.247   9.976   6.851  1.00  0.00    -0.000 C 
BRANCH  13  14
ATOM     14  C   UNL     1       3.017  10.174   7.753  1.00  0.00    -0.000 C 
BRANCH  14  15
ATOM     15  C   UNL     1       3.224   9.612   9.169  1.00  0.00    -0.000 C 
BRANCH  15  16
ATOM     16  C   UNL     1       2.840  10.620  10.266  1.00  0.00    -0.000 C 
BRANCH  16  17
ATOM     17  C   UNL     1       1.376  11.075  10.162  1.00  0.00    -0.000 C 
BRANCH  17  18
ATOM     18  C   UNL     1       1.236  12.509   9.631  1.00  0.00    -0.003 C 
ATOM     19  C   UNL     1      -0.148  12.739   9.029  1.00  0.00     0.004 C 
ENDBRANCH  17  18
ENDBRANCH  16  17
ENDBRANCH  15  16
ENDBRANCH  14  15
ENDBRANCH  13  14
ENDBRANCH  12  13
ENDBRANCH   1  12
TORSDOF 14
ENDMDL
MODEL 8
REMARK VINA RESULT:    -3.796      2.812      7.425
REMARK INTER + INTRA:          -8.573
REMARK INTER:                  -7.131
REMARK INTRA:                  -1.442
REMARK UNBOUND:                -1.669
REMARK SMILES CCCCCCCCCCCCCC[C@H](C)C(=O)[O-]
REMARK SMILES IDX 9 1 10 2 11 3 12 4 13 5 14 6 15 7 16 8 17 9 18 10 19 11 8 12
REMARK SMILES IDX 7 13 6 14 5 15 4 16 3 17 2 18 1 19
REMARK H PARENT
REMARK Flexibility Score: inf
ROOT
ATOM      1  C   UNL     1       4.779  11.863   7.900  1.00  0.00     0.000 C 
ENDROOT
BRANCH   1   2
ATOM      2  C   UNL     1       5.755  12.202   9.038  1.00  0.00     0.000 C 
BRANCH   2   3
ATOM      3  C   UNL     1       6.899  13.125   8.584  1.00  0.00     0.000 C 
BRANCH   3   4
ATOM      4  C   UNL     1       8.262  12.710   9.164  1.00  0.00     0.000 C 
BRANCH   4   5
ATOM      5  C   UNL     1       9.329  12.421   8.085  1.00  0.00     0.001 C 
BRANCH   5   6
ATOM      6  C   UNL     1       8.874  11.380   7.037  1.00  0.00     0.009 C 
BRANCH   6   7
ATOM      7  C   UNL     1       9.242  11.764   5.585  1.00  0.00     0.032 C 
ATOM      8  C   UNL     1      10.013  13.087   5.506  1.00  0.00     0.014 C 
BRANCH   7   9
ATOM      9  C   UNL     1       7.998  11.847   4.745  1.00  0.00     0.044 C 
ATOM     10  O   UNL     1       7.958  12.594   3.731  1.00  0.00    -0.550 OA
ATOM     11  O   UNL     1       6.879  11.096   5.086  1.00  0.00    -0.550 OA
ENDBRANCH   7   9
ENDBRANCH   6   7
ENDBRANCH   5   6
ENDBRANCH   4   5
ENDBRANCH   3   4
ENDBRANCH   2   3
ENDBRANCH   1   2
BRANCH   1  12
ATOM     12  C   UNL     1       4.758  10.361   7.569  1.00  0.00     0.000 C 
BRANCH  12  13
ATOM     13  C   UNL     1       3.584   9.627   8.236  1.00  0.00    -0.000 C 
BRANCH  13  14
ATOM     14  C   UNL     1       3.792   9.422   9.746  1.00  0.00    -0.000 C 
BRANCH  14  15
ATOM     15  C   UNL     1       2.727  10.136  10.594  1.00  0.00    -0.000 C 
BRANCH  15  16
ATOM     16  C   UNL     1       1.686  10.874   9.734  1.00  0.00    -0.000 C 
BRANCH  16  17
ATOM     17  C   UNL     1       1.774  12.401   9.885  1.00  0.00    -0.000 C 
BRANCH  17  18
ATOM     18  C   UNL     1       0.545  13.125   9.316  1.00  0.00    -0.003 C 
ATOM     19  C   UNL     1      -0.428  12.135   8.677  1.00  0.00     0.004 C 
ENDBRANCH  17  18
ENDBRANCH  16  17
ENDBRANCH  15  16
ENDBRANCH  14  15
ENDBRANCH  13  14
ENDBRANCH  12  13
ENDBRANCH   1  12
TORSDOF 14
ENDMDL
