MODEL 1
REMARK VINA RESULT:    -3.213      0.000      0.000
REMARK INTER + INTRA:          -8.267
REMARK INTER:                  -5.842
REMARK INTRA:                  -2.425
REMARK UNBOUND:                -2.425
REMARK SMILES CCCCCCCCCCCCCC[C@@H](C)C(=O)[O-]
REMARK SMILES IDX 9 1 10 2 11 3 12 4 13 5 14 6 15 7 16 8 17 9 18 10 19 11 8 12
REMARK SMILES IDX 7 13 6 14 5 15 4 16 3 17 2 18 1 19
REMARK H PARENT
REMARK Flexibility Score: inf
ROOT
ATOM      1  C   UNL     1     164.782 170.021 153.212  1.00  0.00     0.000 C 
ENDROOT
BRANCH   1   2
ATOM      2  C   UNL     1     166.083 170.807 153.441  1.00  0.00     0.000 C 
BRANCH   2   3
ATOM      3  C   UNL     1     167.284 169.893 153.735  1.00  0.00     0.000 C 
BRANCH   3   4
ATOM      4  C   UNL     1     167.420 168.750 152.716  1.00  0.00     0.000 C 
BRANCH   4   5
ATOM      5  C   UNL     1     168.683 168.873 151.844  1.00  0.00     0.001 C 
BRANCH   5   6
ATOM      6  C   UNL     1     168.750 170.129 150.951  1.00  0.00     0.009 C 
BRANCH   6   7
ATOM      7  C   UNL     1     170.040 170.270 150.110  1.00  0.00     0.032 C 
ATOM      8  C   UNL     1     170.846 168.965 150.056  1.00  0.00     0.014 C 
BRANCH   7   9
ATOM      9  C   UNL     1     169.685 170.702 148.714  1.00  0.00     0.044 C 
ATOM     10  O   UNL     1     168.478 170.824 148.377  1.00  0.00    -0.550 OA
ATOM     11  O   UNL     1     170.685 170.960 147.783  1.00  0.00    -0.550 OA
ENDBRANCH   7   9
ENDBRANCH   6   7
ENDBRANCH   5   6
ENDBRANCH   4   5
ENDBRANCH   3   4
ENDBRANCH   2   3
ENDBRANCH   1   2
BRANCH   1  12
ATOM     12  C   UNL     1     164.098 170.463 151.913  1.00  0.00     0.000 C 
BRANCH  12  13
ATOM     13  C   UNL     1     165.105 171.115 150.954  1.00  0.00    -0.000 C 
BRANCH  13  14
ATOM     14  C   UNL     1     165.107 170.470 149.558  1.00  0.00    -0.000 C 
BRANCH  14  15
ATOM     15  C   UNL     1     165.548 168.991 149.561  1.00  0.00    -0.000 C 
BRANCH  15  16
ATOM     16  C   UNL     1     164.472 168.065 148.965  1.00  0.00    -0.000 C 
BRANCH  16  17
ATOM     17  C   UNL     1     164.351 166.736 149.726  1.00  0.00    -0.000 C 
BRANCH  17  18
ATOM     18  C   UNL     1     164.774 166.862 151.198  1.00  0.00    -0.003 C 
ATOM     19  C   UNL     1     163.664 166.386 152.130  1.00  0.00     0.004 C 
ENDBRANCH  17  18
ENDBRANCH  16  17
ENDBRANCH  15  16
ENDBRANCH  14  15
ENDBRANCH  13  14
ENDBRANCH  12  13
ENDBRANCH   1  12
TORSDOF 14
ENDMDL
MODEL 2
REMARK VINA RESULT:    -3.119      1.775      3.323
REMARK INTER + INTRA:          -8.097
REMARK INTER:                  -5.915
REMARK INTRA:                  -2.183
REMARK UNBOUND:                -2.425
REMARK SMILES CCCCCCCCCCCCCC[C@@H](C)C(=O)[O-]
REMARK SMILES IDX 9 1 10 2 11 3 12 4 13 5 14 6 15 7 16 8 17 9 18 10 19 11 8 12
REMARK SMILES IDX 7 13 6 14 5 15 4 16 3 17 2 18 1 19
REMARK H PARENT
REMARK Flexibility Score: inf
ROOT
ATOM      1  C   UNL     1     166.512 170.830 155.211  1.00  0.00     0.000 C 
ENDROOT
BRANCH   1   2
ATOM      2  C   UNL     1     167.818 170.215 154.683  1.00  0.00     0.000 C 
BRANCH   2   3
ATOM      3  C   UNL     1     168.231 170.783 153.315  1.00  0.00     0.000 C 
BRANCH   3   4
ATOM      4  C   UNL     1     168.376 169.692 152.242  1.00  0.00     0.000 C 
BRANCH   4   5
ATOM      5  C   UNL     1     169.345 170.088 151.113  1.00  0.00     0.001 C 
BRANCH   5   6
ATOM      6  C   UNL     1     169.914 168.916 150.287  1.00  0.00     0.009 C 
BRANCH   6   7
ATOM      7  C   UNL     1     169.540 168.925 148.787  1.00  0.00     0.032 C 
ATOM      8  C   UNL     1     168.858 170.233 148.364  1.00  0.00     0.014 C 
BRANCH   7   9
ATOM      9  C   UNL     1     170.777 168.709 147.960  1.00  0.00     0.044 C 
ATOM     10  O   UNL     1     170.754 168.922 146.719  1.00  0.00    -0.550 OA
ATOM     11  O   UNL     1     171.952 168.263 148.556  1.00  0.00    -0.550 OA
ENDBRANCH   7   9
ENDBRANCH   6   7
ENDBRANCH   5   6
ENDBRANCH   4   5
ENDBRANCH   3   4
ENDBRANCH   2   3
ENDBRANCH   1   2
BRANCH   1  12
ATOM     12  C   UNL     1     165.471 169.741 155.494  1.00  0.00     0.000 C 
BRANCH  12  13
ATOM     13  C   UNL     1     165.608 168.577 154.502  1.00  0.00    -0.000 C 
BRANCH  13  14
ATOM     14  C   UNL     1     164.361 168.391 153.620  1.00  0.00    -0.000 C 
BRANCH  14  15
ATOM     15  C   UNL     1     163.560 169.692 153.402  1.00  0.00    -0.000 C 
BRANCH  15  16
ATOM     16  C   UNL     1     163.678 170.209 151.957  1.00  0.00    -0.000 C 
BRANCH  16  17
ATOM     17  C   UNL     1     164.923 171.084 151.743  1.00  0.00    -0.000 C 
BRANCH  17  18
ATOM     18  C   UNL     1     165.495 170.951 150.323  1.00  0.00    -0.003 C 
ATOM     19  C   UNL     1     165.463 169.500 149.852  1.00  0.00     0.004 C 
ENDBRANCH  17  18
ENDBRANCH  16  17
ENDBRANCH  15  16
ENDBRANCH  14  15
ENDBRANCH  13  14
ENDBRANCH  12  13
ENDBRANCH   1  12
TORSDOF 14
ENDMDL
MODEL 3
REMARK VINA RESULT:    -3.097      1.934      3.493
REMARK INTER + INTRA:          -8.056
REMARK INTER:                  -5.656
REMARK INTRA:                  -2.401
REMARK UNBOUND:                -2.425
REMARK SMILES CCCCCCCCCCCCCC[C@@H](C)C(=O)[O-]
REMARK SMILES IDX 9 1 10 2 11 3 12 4 13 5 14 6 15 7 16 8 17 9 18 10 19 11 8 12
REMARK SMILES IDX 7 13 6 14 5 15 4 16 3 17 2 18 1 19
REMARK H PARENT
REMARK Flexibility Score: inf
ROOT
ATOM      1  C   UNL     1     167.556 169.684 154.933  1.00  0.00     0.000 C 
ENDROOT
BRANCH   1   2
ATOM      2  C   UNL     1     168.038 171.001 154.304  1.00  0.00     0.000 C 
BRANCH   2   3
ATOM      3  C   UNL     1     168.296 170.877 152.793  1.00  0.00     0.000 C 
BRANCH   3   4
ATOM      4  C   UNL     1     168.242 169.420 152.302  1.00  0.00     0.000 C 
BRANCH   4   5
ATOM      5  C   UNL     1     168.693 169.265 150.838  1.00  0.00     0.001 C 
BRANCH   5   6
ATOM      6  C   UNL     1     167.803 169.971 149.793  1.00  0.00     0.009 C 
BRANCH   6   7
ATOM      7  C   UNL     1     166.507 169.216 149.417  1.00  0.00     0.032 C 
ATOM      8  C   UNL     1     165.310 170.161 149.251  1.00  0.00     0.014 C 
BRANCH   7   9
ATOM      9  C   UNL     1     166.726 168.449 148.141  1.00  0.00     0.044 C 
ATOM     10  O   UNL     1     165.766 167.846 147.593  1.00  0.00    -0.550 OA
ATOM     11  O   UNL     1     167.990 168.391 147.565  1.00  0.00    -0.550 OA
ENDBRANCH   7   9
ENDBRANCH   6   7
ENDBRANCH   5   6
ENDBRANCH   4   5
ENDBRANCH   3   4
ENDBRANCH   2   3
ENDBRANCH   1   2
BRANCH   1  12
ATOM     12  C   UNL     1     166.307 169.914 155.793  1.00  0.00     0.000 C 
BRANCH  12  13
ATOM     13  C   UNL     1     165.293 170.806 155.064  1.00  0.00    -0.000 C 
BRANCH  13  14
ATOM     14  C   UNL     1     164.225 170.002 154.303  1.00  0.00    -0.000 C 
BRANCH  14  15
ATOM     15  C   UNL     1     164.597 169.720 152.831  1.00  0.00    -0.000 C 
BRANCH  15  16
ATOM     16  C   UNL     1     164.275 168.273 152.420  1.00  0.00    -0.000 C 
BRANCH  16  17
ATOM     17  C   UNL     1     163.928 167.381 153.623  1.00  0.00    -0.000 C 
BRANCH  17  18
ATOM     18  C   UNL     1     165.156 166.641 154.176  1.00  0.00    -0.003 C 
ATOM     19  C   UNL     1     166.196 166.409 153.083  1.00  0.00     0.004 C 
ENDBRANCH  17  18
ENDBRANCH  16  17
ENDBRANCH  15  16
ENDBRANCH  14  15
ENDBRANCH  13  14
ENDBRANCH  12  13
ENDBRANCH   1  12
TORSDOF 14
ENDMDL
MODEL 4
REMARK VINA RESULT:    -3.039     15.276     17.064
REMARK INTER + INTRA:          -7.952
REMARK INTER:                  -5.084
REMARK INTRA:                  -2.868
REMARK UNBOUND:                -2.425
REMARK SMILES CCCCCCCCCCCCCC[C@@H](C)C(=O)[O-]
REMARK SMILES IDX 9 1 10 2 11 3 12 4 13 5 14 6 15 7 16 8 17 9 18 10 19 11 8 12
REMARK SMILES IDX 7 13 6 14 5 15 4 16 3 17 2 18 1 19
REMARK H PARENT
REMARK Flexibility Score: inf
ROOT
ATOM      1  C   UNL     1     168.623 151.837 154.813  1.00  0.00     0.000 C 
ENDROOT
BRANCH   1   2
ATOM      2  C   UNL     1     169.573 151.556 155.988  1.00  0.00     0.000 C 
BRANCH   2   3
ATOM      3  C   UNL     1     170.936 151.010 155.532  1.00  0.00     0.000 C 
BRANCH   3   4
ATOM      4  C   UNL     1     172.110 151.630 156.306  1.00  0.00     0.000 C 
BRANCH   4   5
ATOM      5  C   UNL     1     171.858 153.097 156.701  1.00  0.00     0.001 C 
BRANCH   5   6
ATOM      6  C   UNL     1     172.122 154.136 155.590  1.00  0.00     0.009 C 
BRANCH   6   7
ATOM      7  C   UNL     1     171.027 155.216 155.427  1.00  0.00     0.032 C 
ATOM      8  C   UNL     1     169.995 155.176 156.562  1.00  0.00     0.014 C 
BRANCH   7   9
ATOM      9  C   UNL     1     171.668 156.575 155.374  1.00  0.00     0.044 C 
ATOM     10  O   UNL     1     172.746 156.792 155.988  1.00  0.00    -0.550 OA
ATOM     11  O   UNL     1     171.070 157.606 154.658  1.00  0.00    -0.550 OA
ENDBRANCH   7   9
ENDBRANCH   6   7
ENDBRANCH   5   6
ENDBRANCH   4   5
ENDBRANCH   3   4
ENDBRANCH   2   3
ENDBRANCH   1   2
BRANCH   1  12
ATOM     12  C   UNL     1     169.351 152.584 153.689  1.00  0.00     0.000 C 
BRANCH  12  13
ATOM     13  C   UNL     1     169.300 151.789 152.376  1.00  0.00    -0.000 C 
BRANCH  13  14
ATOM     14  C   UNL     1     170.517 152.047 151.471  1.00  0.00    -0.000 C 
BRANCH  14  15
ATOM     15  C   UNL     1     171.864 152.011 152.224  1.00  0.00    -0.000 C 
BRANCH  15  16
ATOM     16  C   UNL     1     172.666 153.311 152.035  1.00  0.00    -0.000 C 
BRANCH  16  17
ATOM     17  C   UNL     1     171.999 154.277 151.044  1.00  0.00    -0.000 C 
BRANCH  17  18
ATOM     18  C   UNL     1     171.642 155.625 151.689  1.00  0.00    -0.003 C 
ATOM     19  C   UNL     1     170.135 155.861 151.668  1.00  0.00     0.004 C 
ENDBRANCH  17  18
ENDBRANCH  16  17
ENDBRANCH  15  16
ENDBRANCH  14  15
ENDBRANCH  13  14
ENDBRANCH  12  13
ENDBRANCH   1  12
TORSDOF 14
ENDMDL
MODEL 5
REMARK VINA RESULT:    -2.988      8.240     10.281
REMARK INTER + INTRA:          -7.859
REMARK INTER:                  -5.121
REMARK INTRA:                  -2.738
REMARK UNBOUND:                -2.425
REMARK SMILES CCCCCCCCCCCCCC[C@@H](C)C(=O)[O-]
REMARK SMILES IDX 9 1 10 2 11 3 12 4 13 5 14 6 15 7 16 8 17 9 18 10 19 11 8 12
REMARK SMILES IDX 7 13 6 14 5 15 4 16 3 17 2 18 1 19
REMARK H PARENT
REMARK Flexibility Score: inf
ROOT
ATOM      1  C   UNL     1     169.787 163.602 145.801  1.00  0.00     0.000 C 
ENDROOT
BRANCH   1   2
ATOM      2  C   UNL     1     171.015 163.822 146.699  1.00  0.00     0.000 C 
BRANCH   2   3
ATOM      3  C   UNL     1     171.573 165.251 146.601  1.00  0.00     0.000 C 
BRANCH   3   4
ATOM      4  C   UNL     1     172.928 165.307 145.876  1.00  0.00     0.000 C 
BRANCH   4   5
ATOM      5  C   UNL     1     172.938 166.301 144.700  1.00  0.00     0.001 C 
BRANCH   5   6
ATOM      6  C   UNL     1     171.564 166.895 144.325  1.00  0.00     0.009 C 
BRANCH   6   7
ATOM      7  C   UNL     1     170.884 166.251 143.095  1.00  0.00     0.032 C 
ATOM      8  C   UNL     1     169.354 166.237 143.216  1.00  0.00     0.014 C 
BRANCH   7   9
ATOM      9  C   UNL     1     171.286 166.995 141.852  1.00  0.00     0.044 C 
ATOM     10  O   UNL     1     170.837 168.151 141.633  1.00  0.00    -0.550 OA
ATOM     11  O   UNL     1     172.146 166.410 140.929  1.00  0.00    -0.550 OA
ENDBRANCH   7   9
ENDBRANCH   6   7
ENDBRANCH   5   6
ENDBRANCH   4   5
ENDBRANCH   3   4
ENDBRANCH   2   3
ENDBRANCH   1   2
BRANCH   1  12
ATOM     12  C   UNL     1     169.201 162.201 146.009  1.00  0.00     0.000 C 
BRANCH  12  13
ATOM     13  C   UNL     1     170.276 161.223 146.505  1.00  0.00    -0.000 C 
BRANCH  13  14
ATOM     14  C   UNL     1     170.478 160.025 145.561  1.00  0.00    -0.000 C 
BRANCH  14  15
ATOM     15  C   UNL     1     171.908 159.925 144.988  1.00  0.00    -0.000 C 
BRANCH  15  16
ATOM     16  C   UNL     1     172.647 161.274 145.040  1.00  0.00    -0.000 C 
BRANCH  16  17
ATOM     17  C   UNL     1     173.118 161.742 143.654  1.00  0.00    -0.000 C 
BRANCH  17  18
ATOM     18  C   UNL     1     172.317 162.948 143.140  1.00  0.00    -0.003 C 
ATOM     19  C   UNL     1     171.004 162.503 142.502  1.00  0.00     0.004 C 
ENDBRANCH  17  18
ENDBRANCH  16  17
ENDBRANCH  15  16
ENDBRANCH  14  15
ENDBRANCH  13  14
ENDBRANCH  12  13
ENDBRANCH   1  12
TORSDOF 14
ENDMDL
MODEL 6
REMARK VINA RESULT:    -2.982      2.070      5.664
REMARK INTER + INTRA:          -7.847
REMARK INTER:                  -5.960
REMARK INTRA:                  -1.888
REMARK UNBOUND:                -2.425
REMARK SMILES CCCCCCCCCCCCCC[C@@H](C)C(=O)[O-]
REMARK SMILES IDX 9 1 10 2 11 3 12 4 13 5 14 6 15 7 16 8 17 9 18 10 19 11 8 12
REMARK SMILES IDX 7 13 6 14 5 15 4 16 3 17 2 18 1 19
REMARK H PARENT
REMARK Flexibility Score: inf
ROOT
ATOM      1  C   UNL     1     167.536 170.009 155.011  1.00  0.00     0.000 C 
ENDROOT
BRANCH   1   2
ATOM      2  C   UNL     1     166.359 170.984 155.174  1.00  0.00     0.000 C 
BRANCH   2   3
ATOM      3  C   UNL     1     165.221 170.404 156.030  1.00  0.00     0.000 C 
BRANCH   3   4
ATOM      4  C   UNL     1     164.457 169.279 155.313  1.00  0.00     0.000 C 
BRANCH   4   5
ATOM      5  C   UNL     1     163.733 169.762 154.043  1.00  0.00     0.001 C 
BRANCH   5   6
ATOM      6  C   UNL     1     163.906 168.864 152.800  1.00  0.00     0.009 C 
BRANCH   6   7
ATOM      7  C   UNL     1     164.181 169.618 151.479  1.00  0.00     0.032 C 
ATOM      8  C   UNL     1     164.499 171.101 151.708  1.00  0.00     0.014 C 
BRANCH   7   9
ATOM      9  C   UNL     1     165.325 168.962 150.755  1.00  0.00     0.044 C 
ATOM     10  O   UNL     1     166.037 169.629 149.960  1.00  0.00    -0.550 OA
ATOM     11  O   UNL     1     165.597 167.612 150.950  1.00  0.00    -0.550 OA
ENDBRANCH   7   9
ENDBRANCH   6   7
ENDBRANCH   5   6
ENDBRANCH   4   5
ENDBRANCH   3   4
ENDBRANCH   2   3
ENDBRANCH   1   2
BRANCH   1  12
ATOM     12  C   UNL     1     167.738 169.638 153.538  1.00  0.00     0.000 C 
BRANCH  12  13
ATOM     13  C   UNL     1     167.934 170.892 152.675  1.00  0.00    -0.000 C 
BRANCH  13  14
ATOM     14  C   UNL     1     169.135 170.782 151.720  1.00  0.00    -0.000 C 
BRANCH  14  15
ATOM     15  C   UNL     1     169.356 169.357 151.170  1.00  0.00    -0.000 C 
BRANCH  15  16
ATOM     16  C   UNL     1     170.370 169.335 150.012  1.00  0.00    -0.000 C 
BRANCH  16  17
ATOM     17  C   UNL     1     171.043 170.698 149.791  1.00  0.00    -0.000 C 
BRANCH  17  18
ATOM     18  C   UNL     1     172.561 170.647 150.023  1.00  0.00    -0.003 C 
ATOM     19  C   UNL     1     173.125 169.275 149.667  1.00  0.00     0.004 C 
ENDBRANCH  17  18
ENDBRANCH  16  17
ENDBRANCH  15  16
ENDBRANCH  14  15
ENDBRANCH  13  14
ENDBRANCH  12  13
ENDBRANCH   1  12
TORSDOF 14
ENDMDL
MODEL 7
REMARK VINA RESULT:    -2.978     14.749     16.616
REMARK INTER + INTRA:          -7.840
REMARK INTER:                  -5.205
REMARK INTRA:                  -2.635
REMARK UNBOUND:                -2.425
REMARK SMILES CCCCCCCCCCCCCC[C@@H](C)C(=O)[O-]
REMARK SMILES IDX 9 1 10 2 11 3 12 4 13 5 14 6 15 7 16 8 17 9 18 10 19 11 8 12
REMARK SMILES IDX 7 13 6 14 5 15 4 16 3 17 2 18 1 19
REMARK H PARENT
REMARK Flexibility Score: inf
ROOT
ATOM      1  C   UNL     1     170.628 152.722 152.536  1.00  0.00     0.000 C 
ENDROOT
BRANCH   1   2
ATOM      2  C   UNL     1     172.102 152.315 152.382  1.00  0.00     0.000 C 
BRANCH   2   3
ATOM      3  C   UNL     1     173.069 153.487 152.614  1.00  0.00     0.000 C 
BRANCH   3   4
ATOM      4  C   UNL     1     172.674 154.744 151.822  1.00  0.00     0.000 C 
BRANCH   4   5
ATOM      5  C   UNL     1     172.476 155.980 152.720  1.00  0.00     0.001 C 
BRANCH   5   6
ATOM      6  C   UNL     1     171.404 156.981 152.242  1.00  0.00     0.009 C 
BRANCH   6   7
ATOM      7  C   UNL     1     170.002 156.789 152.865  1.00  0.00     0.032 C 
ATOM      8  C   UNL     1     169.538 158.024 153.648  1.00  0.00     0.014 C 
BRANCH   7   9
ATOM      9  C   UNL     1     169.008 156.476 151.780  1.00  0.00     0.044 C 
ATOM     10  O   UNL     1     167.926 157.115 151.709  1.00  0.00    -0.550 OA
ATOM     11  O   UNL     1     169.272 155.472 150.855  1.00  0.00    -0.550 OA
ENDBRANCH   7   9
ENDBRANCH   6   7
ENDBRANCH   5   6
ENDBRANCH   4   5
ENDBRANCH   3   4
ENDBRANCH   2   3
ENDBRANCH   1   2
BRANCH   1  12
ATOM     12  C   UNL     1     170.120 152.409 153.948  1.00  0.00     0.000 C 
BRANCH  12  13
ATOM     13  C   UNL     1     170.737 151.109 154.481  1.00  0.00    -0.000 C 
BRANCH  13  14
ATOM     14  C   UNL     1     171.128 151.196 155.966  1.00  0.00    -0.000 C 
BRANCH  14  15
ATOM     15  C   UNL     1     172.497 151.867 156.206  1.00  0.00    -0.000 C 
BRANCH  15  16
ATOM     16  C   UNL     1     172.366 153.185 156.988  1.00  0.00    -0.000 C 
BRANCH  16  17
ATOM     17  C   UNL     1     172.443 154.421 156.078  1.00  0.00    -0.000 C 
BRANCH  17  18
ATOM     18  C   UNL     1     171.178 155.290 156.162  1.00  0.00    -0.003 C 
ATOM     19  C   UNL     1     170.127 154.644 157.060  1.00  0.00     0.004 C 
ENDBRANCH  17  18
ENDBRANCH  16  17
ENDBRANCH  15  16
ENDBRANCH  14  15
ENDBRANCH  13  14
ENDBRANCH  12  13
ENDBRANCH   1  12
TORSDOF 14
ENDMDL
MODEL 8
REMARK VINA RESULT:    -2.924     14.902     16.840
REMARK INTER + INTRA:          -7.742
REMARK INTER:                  -5.047
REMARK INTRA:                  -2.696
REMARK UNBOUND:                -2.425
REMARK SMILES CCCCCCCCCCCCCC[C@@H](C)C(=O)[O-]
REMARK SMILES IDX 9 1 10 2 11 3 12 4 13 5 14 6 15 7 16 8 17 9 18 10 19 11 8 12
REMARK SMILES IDX 7 13 6 14 5 15 4 16 3 17 2 18 1 19
REMARK H PARENT
REMARK Flexibility Score: inf
ROOT
ATOM      1  C   UNL     1     171.869 152.373 153.217  1.00  0.00     0.000 C 
ENDROOT
BRANCH   1   2
ATOM      2  C   UNL     1     173.125 152.564 154.082  1.00  0.00     0.000 C 
BRANCH   2   3
ATOM      3  C   UNL     1     172.823 152.502 155.588  1.00  0.00     0.000 C 
BRANCH   3   4
ATOM      4  C   UNL     1     171.434 151.915 155.888  1.00  0.00     0.000 C 
BRANCH   4   5
ATOM      5  C   UNL     1     170.576 152.834 156.778  1.00  0.00     0.001 C 
BRANCH   5   6
ATOM      6  C   UNL     1     169.172 153.164 156.229  1.00  0.00     0.009 C 
BRANCH   6   7
ATOM      7  C   UNL     1     169.140 154.212 155.093  1.00  0.00     0.032 C 
ATOM      8  C   UNL     1     168.534 153.652 153.800  1.00  0.00     0.014 C 
BRANCH   7   9
ATOM      9  C   UNL     1     168.353 155.413 155.541  1.00  0.00     0.044 C 
ATOM     10  O   UNL     1     168.922 156.343 156.172  1.00  0.00    -0.550 OA
ATOM     11  O   UNL     1     166.992 155.502 155.272  1.00  0.00    -0.550 OA
ENDBRANCH   7   9
ENDBRANCH   6   7
ENDBRANCH   5   6
ENDBRANCH   4   5
ENDBRANCH   3   4
ENDBRANCH   2   3
ENDBRANCH   1   2
BRANCH   1  12
ATOM     12  C   UNL     1     172.234 152.315 151.729  1.00  0.00     0.000 C 
BRANCH  12  13
ATOM     13  C   UNL     1     172.344 153.725 151.133  1.00  0.00    -0.000 C 
BRANCH  13  14
ATOM     14  C   UNL     1     171.020 154.228 150.534  1.00  0.00    -0.000 C 
BRANCH  14  15
ATOM     15  C   UNL     1     170.467 155.489 151.231  1.00  0.00    -0.000 C 
BRANCH  15  16
ATOM     16  C   UNL     1     171.584 156.339 151.862  1.00  0.00    -0.000 C 
BRANCH  16  17
ATOM     17  C   UNL     1     171.380 156.557 153.369  1.00  0.00    -0.000 C 
BRANCH  17  18
ATOM     18  C   UNL     1     172.557 156.028 154.203  1.00  0.00    -0.003 C 
ATOM     19  C   UNL     1     172.399 156.401 155.674  1.00  0.00     0.004 C 
ENDBRANCH  17  18
ENDBRANCH  16  17
ENDBRANCH  15  16
ENDBRANCH  14  15
ENDBRANCH  13  14
ENDBRANCH  12  13
ENDBRANCH   1  12
TORSDOF 14
ENDMDL
MODEL 9
REMARK VINA RESULT:    -2.911     14.578     16.437
REMARK INTER + INTRA:          -7.718
REMARK INTER:                  -5.326
REMARK INTRA:                  -2.392
REMARK UNBOUND:                -2.425
REMARK SMILES CCCCCCCCCCCCCC[C@@H](C)C(=O)[O-]
REMARK SMILES IDX 9 1 10 2 11 3 12 4 13 5 14 6 15 7 16 8 17 9 18 10 19 11 8 12
REMARK SMILES IDX 7 13 6 14 5 15 4 16 3 17 2 18 1 19
REMARK H PARENT
REMARK Flexibility Score: inf
ROOT
ATOM      1  C   UNL     1     172.447 153.884 155.248  1.00  0.00     0.000 C 
ENDROOT
BRANCH   1   2
ATOM      2  C   UNL     1     173.114 154.200 153.900  1.00  0.00     0.000 C 
BRANCH   2   3
ATOM      3  C   UNL     1     172.334 153.630 152.704  1.00  0.00     0.000 C 
BRANCH   3   4
ATOM      4  C   UNL     1     172.389 154.547 151.472  1.00  0.00     0.000 C 
BRANCH   4   5
ATOM      5  C   UNL     1     171.171 155.485 151.370  1.00  0.00     0.001 C 
BRANCH   5   6
ATOM      6  C   UNL     1     171.393 156.918 151.897  1.00  0.00     0.009 C 
BRANCH   6   7
ATOM      7  C   UNL     1     170.130 157.617 152.452  1.00  0.00     0.032 C 
ATOM      8  C   UNL     1     168.835 156.965 151.950  1.00  0.00     0.014 C 
BRANCH   7   9
ATOM      9  C   UNL     1     170.161 157.589 153.955  1.00  0.00     0.044 C 
ATOM     10  O   UNL     1     171.178 157.159 154.560  1.00  0.00    -0.550 OA
ATOM     11  O   UNL     1     169.063 158.026 154.688  1.00  0.00    -0.550 OA
ENDBRANCH   7   9
ENDBRANCH   6   7
ENDBRANCH   5   6
ENDBRANCH   4   5
ENDBRANCH   3   4
ENDBRANCH   2   3
ENDBRANCH   1   2
BRANCH   1  12
ATOM     12  C   UNL     1     173.124 152.687 155.926  1.00  0.00     0.000 C 
BRANCH  12  13
ATOM     13  C   UNL     1     172.082 151.684 156.441  1.00  0.00    -0.000 C 
BRANCH  13  14
ATOM     14  C   UNL     1     171.159 151.155 155.330  1.00  0.00    -0.000 C 
BRANCH  14  15
ATOM     15  C   UNL     1     169.670 151.110 155.734  1.00  0.00    -0.000 C 
BRANCH  15  16
ATOM     16  C   UNL     1     169.206 152.428 156.380  1.00  0.00    -0.000 C 
BRANCH  16  17
ATOM     17  C   UNL     1     168.217 153.202 155.495  1.00  0.00    -0.000 C 
BRANCH  17  18
ATOM     18  C   UNL     1     168.918 153.952 154.351  1.00  0.00    -0.003 C 
ATOM     19  C   UNL     1     168.588 153.323 153.000  1.00  0.00     0.004 C 
ENDBRANCH  17  18
ENDBRANCH  16  17
ENDBRANCH  15  16
ENDBRANCH  14  15
ENDBRANCH  13  14
ENDBRANCH  12  13
ENDBRANCH   1  12
TORSDOF 14
ENDMDL
