MODEL 1
REMARK VINA RESULT:     6.558      0.000      0.000
REMARK INTER + INTRA:          10.885
REMARK INTER:                  10.008
REMARK INTRA:                   0.877
REMARK UNBOUND:                 0.877
REMARK SMILES O=C([O-])CCCCCCCCC(=O)[O-]
REMARK SMILES IDX 7 1 6 2 5 3 4 4 2 5 1 6 3 7 8 8 9 9 10 10 11 11 12 12 13 13
REMARK SMILES IDX 14 14
REMARK H PARENT
REMARK Flexibility Score: inf
ROOT
ATOM      1  C   UNL     1       8.536  17.476  29.876  1.00  0.00     0.000 C 
ENDROOT
BRANCH   1   2
ATOM      2  C   UNL     1       9.182  17.694  31.256  1.00  0.00     0.000 C 
BRANCH   2   3
ATOM      3  C   UNL     1       8.463  17.005  32.435  1.00  0.00     0.006 C 
BRANCH   3   4
ATOM      4  C   UNL     1       7.395  17.870  33.125  1.00  0.00     0.053 C 
BRANCH   4   5
ATOM      5  C   UNL     1       7.554  19.323  32.799  1.00  0.00     0.041 C 
ATOM      6  O   UNL     1       8.644  19.752  32.340  1.00  0.00    -0.550 OA
ATOM      7  O   UNL     1       6.488  20.196  32.972  1.00  0.00    -0.550 OA
ENDBRANCH   4   5
ENDBRANCH   3   4
ENDBRANCH   2   3
ENDBRANCH   1   2
BRANCH   1   8
ATOM      8  C   UNL     1       9.475  17.837  28.712  1.00  0.00     0.000 C 
BRANCH   8   9
ATOM      9  C   UNL     1       9.324  16.884  27.515  1.00  0.00     0.000 C 
BRANCH   9  10
ATOM     10  C   UNL     1       7.871  16.770  27.027  1.00  0.00     0.006 C 
BRANCH  10  11
ATOM     11  C   UNL     1       7.524  17.916  26.073  1.00  0.00     0.053 C 
BRANCH  11  12
ATOM     12  C   UNL     1       6.089  18.311  26.225  1.00  0.00     0.041 C 
ATOM     13  O   UNL     1       5.534  19.035  25.357  1.00  0.00    -0.550 OA
ATOM     14  O   UNL     1       5.348  17.837  27.300  1.00  0.00    -0.550 OA
ENDBRANCH  11  12
ENDBRANCH  10  11
ENDBRANCH   9  10
ENDBRANCH   8   9
ENDBRANCH   1   8
TORSDOF 9
ENDMDL
MODEL 2
REMARK VINA RESULT:     6.586      0.734      5.782
REMARK INTER + INTRA:          10.928
REMARK INTER:                  11.203
REMARK INTRA:                  -0.275
REMARK UNBOUND:                 0.877
REMARK SMILES O=C([O-])CCCCCCCCC(=O)[O-]
REMARK SMILES IDX 7 1 6 2 5 3 4 4 2 5 1 6 3 7 8 8 9 9 10 10 11 11 12 12 13 13
REMARK SMILES IDX 14 14
REMARK H PARENT
REMARK Flexibility Score: inf
ROOT
ATOM      1  C   UNL     1       9.244  18.214  28.607  1.00  0.00     0.000 C 
ENDROOT
BRANCH   1   2
ATOM      2  C   UNL     1       9.108  17.123  27.529  1.00  0.00     0.000 C 
BRANCH   2   3
ATOM      3  C   UNL     1       7.769  17.118  26.763  1.00  0.00     0.006 C 
BRANCH   3   4
ATOM      4  C   UNL     1       6.550  17.525  27.606  1.00  0.00     0.053 C 
BRANCH   4   5
ATOM      5  C   UNL     1       5.457  18.111  26.766  1.00  0.00     0.041 C 
ATOM      6  O   UNL     1       4.251  17.920  27.074  1.00  0.00    -0.550 OA
ATOM      7  O   UNL     1       5.770  18.895  25.664  1.00  0.00    -0.550 OA
ENDBRANCH   4   5
ENDBRANCH   3   4
ENDBRANCH   2   3
ENDBRANCH   1   2
BRANCH   1   8
ATOM      8  C   UNL     1       9.587  17.645  29.994  1.00  0.00     0.000 C 
BRANCH   8   9
ATOM      9  C   UNL     1       8.336  17.253  30.798  1.00  0.00     0.000 C 
BRANCH   9  10
ATOM     10  C   UNL     1       8.602  17.177  32.309  1.00  0.00     0.006 C 
BRANCH  10  11
ATOM     11  C   UNL     1       7.512  17.915  33.093  1.00  0.00     0.053 C 
BRANCH  11  12
ATOM     12  C   UNL     1       7.598  19.388  32.850  1.00  0.00     0.041 C 
ATOM     13  O   UNL     1       8.644  19.891  32.362  1.00  0.00    -0.550 OA
ATOM     14  O   UNL     1       6.503  20.201  33.114  1.00  0.00    -0.550 OA
ENDBRANCH  11  12
ENDBRANCH  10  11
ENDBRANCH   9  10
ENDBRANCH   8   9
ENDBRANCH   1   8
TORSDOF 9
ENDMDL
MODEL 3
REMARK VINA RESULT:     6.724      1.408      1.846
REMARK INTER + INTRA:          11.139
REMARK INTER:                  11.184
REMARK INTRA:                  -0.045
REMARK UNBOUND:                 0.877
REMARK SMILES O=C([O-])CCCCCCCCC(=O)[O-]
REMARK SMILES IDX 7 1 6 2 5 3 4 4 2 5 1 6 3 7 8 8 9 9 10 10 11 11 12 12 13 13
REMARK SMILES IDX 14 14
REMARK H PARENT
REMARK Flexibility Score: inf
ROOT
ATOM      1  C   UNL     1       9.453  18.033  28.602  1.00  0.00     0.000 C 
ENDROOT
BRANCH   1   2
ATOM      2  C   UNL     1       8.789  17.728  29.957  1.00  0.00     0.000 C 
BRANCH   2   3
ATOM      3  C   UNL     1       9.661  18.017  31.196  1.00  0.00     0.006 C 
BRANCH   3   4
ATOM      4  C   UNL     1       9.399  17.087  32.392  1.00  0.00     0.053 C 
BRANCH   4   5
ATOM      5  C   UNL     1       7.980  17.165  32.863  1.00  0.00     0.041 C 
ATOM      6  O   UNL     1       7.318  16.111  33.053  1.00  0.00    -0.550 OA
ATOM      7  O   UNL     1       7.400  18.399  33.125  1.00  0.00    -0.550 OA
ENDBRANCH   4   5
ENDBRANCH   3   4
ENDBRANCH   2   3
ENDBRANCH   1   2
BRANCH   1   8
ATOM      8  C   UNL     1       9.804  16.763  27.808  1.00  0.00     0.000 C 
BRANCH   8   9
ATOM      9  C   UNL     1       8.618  16.237  26.982  1.00  0.00     0.000 C 
BRANCH   9  10
ATOM     10  C   UNL     1       7.706  17.362  26.471  1.00  0.00     0.006 C 
BRANCH  10  11
ATOM     11  C   UNL     1       6.518  17.573  27.414  1.00  0.00     0.053 C 
BRANCH  11  12
ATOM     12  C   UNL     1       5.360  18.166  26.675  1.00  0.00     0.041 C 
ATOM     13  O   UNL     1       5.553  18.837  25.627  1.00  0.00    -0.550 OA
ATOM     14  O   UNL     1       4.062  17.935  27.115  1.00  0.00    -0.550 OA
ENDBRANCH  11  12
ENDBRANCH  10  11
ENDBRANCH   9  10
ENDBRANCH   8   9
ENDBRANCH   1   8
TORSDOF 9
ENDMDL
MODEL 4
REMARK VINA RESULT:     7.139      1.407      5.737
REMARK INTER + INTRA:          11.772
REMARK INTER:                  12.221
REMARK INTRA:                  -0.449
REMARK UNBOUND:                 0.877
REMARK SMILES O=C([O-])CCCCCCCCC(=O)[O-]
REMARK SMILES IDX 7 1 6 2 5 3 4 4 2 5 1 6 3 7 8 8 9 9 10 10 11 11 12 12 13 13
REMARK SMILES IDX 14 14
REMARK H PARENT
REMARK Flexibility Score: inf
ROOT
ATOM      1  C   UNL     1       9.794  16.755  27.938  1.00  0.00     0.000 C 
ENDROOT
BRANCH   1   2
ATOM      2  C   UNL     1       8.797  16.289  26.861  1.00  0.00     0.000 C 
BRANCH   2   3
ATOM      3  C   UNL     1       7.748  17.338  26.439  1.00  0.00     0.006 C 
BRANCH   3   4
ATOM      4  C   UNL     1       6.567  17.488  27.411  1.00  0.00     0.053 C 
BRANCH   4   5
ATOM      5  C   UNL     1       5.360  18.071  26.743  1.00  0.00     0.041 C 
ATOM      6  O   UNL     1       4.215  17.882  27.230  1.00  0.00    -0.550 OA
ATOM      7  O   UNL     1       5.504  18.850  25.603  1.00  0.00    -0.550 OA
ENDBRANCH   4   5
ENDBRANCH   3   4
ENDBRANCH   2   3
ENDBRANCH   1   2
BRANCH   1   8
ATOM      8  C   UNL     1       9.691  18.260  28.238  1.00  0.00     0.000 C 
BRANCH   8   9
ATOM      9  C   UNL     1       9.469  18.550  29.731  1.00  0.00     0.000 C 
BRANCH   9  10
ATOM     10  C   UNL     1       9.084  17.294  30.529  1.00  0.00     0.006 C 
BRANCH  10  11
ATOM     11  C   UNL     1       9.357  17.490  32.023  1.00  0.00     0.053 C 
BRANCH  11  12
ATOM     12  C   UNL     1       8.077  17.486  32.796  1.00  0.00     0.041 C 
ATOM     13  O   UNL     1       7.522  18.572  33.110  1.00  0.00    -0.550 OA
ATOM     14  O   UNL     1       7.467  16.282  33.125  1.00  0.00    -0.550 OA
ENDBRANCH  11  12
ENDBRANCH  10  11
ENDBRANCH   9  10
ENDBRANCH   8   9
ENDBRANCH   1   8
TORSDOF 9
ENDMDL
