MODEL 1
REMARK VINA RESULT:     5.696      0.000      0.000
REMARK INTER + INTRA:           6.569
REMARK INTER:                   6.695
REMARK INTRA:                  -0.127
REMARK UNBOUND:                -0.127
REMARK SMILES O=C([O-])C=Cc1ccc(O)c(O)c1
REMARK SMILES IDX 6 1 13 2 7 3 11 4 8 5 9 6 5 7 4 8 2 9 1 10 3 11 12 12 10 14
REMARK H PARENT 12 13 10 15
REMARK Flexibility Score: inf
ROOT
ATOM      1  C   UNL     1       1.283  -1.313   0.479  1.00  0.00    -0.022 A 
ATOM      2  C   UNL     1       2.682  -1.151   0.405  1.00  0.00     0.058 A 
ATOM      3  C   UNL     1       0.614  -0.902   1.643  1.00  0.00     0.012 A 
ATOM      4  C   UNL     1       3.389  -0.566   1.466  1.00  0.00     0.157 A 
ATOM      5  C   UNL     1       1.318  -0.318   2.698  1.00  0.00     0.051 A 
ATOM      6  C   UNL     1       2.702  -0.144   2.616  1.00  0.00     0.157 A 
ENDROOT
BRANCH   1   7
ATOM      7  C   UNL     1       0.493  -1.937  -0.612  1.00  0.00     0.010 C 
ATOM      8  C   UNL     1      -0.134  -1.241  -1.571  1.00  0.00     0.025 C 
BRANCH   8   9
ATOM      9  C   UNL     1      -0.919  -1.894  -2.630  1.00  0.00     0.064 C 
ATOM     10  O   UNL     1      -1.960  -1.357  -3.097  1.00  0.00    -0.545 OA
ATOM     11  O   UNL     1      -0.507  -3.125  -3.125  1.00  0.00    -0.545 OA
ENDBRANCH   8   9
ENDBRANCH   1   7
BRANCH   4  12
ATOM     12  O   UNL     1       4.772  -0.407   1.382  1.00  0.00    -0.504 OA
ATOM     13  H   UNL     1       5.240   0.395   1.788  1.00  0.00     0.293 HD
ENDBRANCH   4  12
BRANCH   6  14
ATOM     14  O   UNL     1       3.377   0.444   3.684  1.00  0.00    -0.504 OA
ATOM     15  H   UNL     1       3.972  -0.091   4.305  1.00  0.00     0.293 HD
ENDBRANCH   6  14
TORSDOF 4
ENDMDL
MODEL 2
REMARK VINA RESULT:     5.711      1.396      6.006
REMARK INTER + INTRA:           6.586
REMARK INTER:                   6.739
REMARK INTRA:                  -0.153
REMARK UNBOUND:                -0.127
REMARK SMILES O=C([O-])C=Cc1ccc(O)c(O)c1
REMARK SMILES IDX 6 1 13 2 7 3 11 4 8 5 9 6 5 7 4 8 2 9 1 10 3 11 12 12 10 14
REMARK H PARENT 12 13 10 15
REMARK Flexibility Score: inf
ROOT
ATOM      1  C   UNL     1       0.782  -1.628   0.022  1.00  0.00    -0.022 A 
ATOM      2  C   UNL     1      -0.498  -2.120   0.351  1.00  0.00     0.058 A 
ATOM      3  C   UNL     1       1.200  -1.671  -1.317  1.00  0.00     0.012 A 
ATOM      4  C   UNL     1      -1.349  -2.619  -0.647  1.00  0.00     0.157 A 
ATOM      5  C   UNL     1       0.353  -2.166  -2.311  1.00  0.00     0.051 A 
ATOM      6  C   UNL     1      -0.921  -2.638  -1.985  1.00  0.00     0.157 A 
ENDROOT
BRANCH   1   7
ATOM      7  C   UNL     1       1.720  -1.102   1.043  1.00  0.00     0.010 C 
ATOM      8  C   UNL     1       3.023  -0.879   0.815  1.00  0.00     0.025 C 
BRANCH   8   9
ATOM      9  C   UNL     1       3.927  -0.367   1.857  1.00  0.00     0.064 C 
ATOM     10  O   UNL     1       3.483   0.254   2.859  1.00  0.00    -0.545 OA
ATOM     11  O   UNL     1       5.295  -0.571   1.733  1.00  0.00    -0.545 OA
ENDBRANCH   8   9
ENDBRANCH   1   7
BRANCH   4  12
ATOM     12  O   UNL     1      -2.614  -3.100  -0.313  1.00  0.00    -0.504 OA
ATOM     13  H   UNL     1      -3.441  -2.517  -0.386  1.00  0.00     0.293 HD
ENDBRANCH   4  12
BRANCH   6  14
ATOM     14  O   UNL     1      -1.745  -3.125  -2.999  1.00  0.00    -0.504 OA
ATOM     15  H   UNL     1      -2.340  -3.934  -2.867  1.00  0.00     0.293 HD
ENDBRANCH   6  14
TORSDOF 4
ENDMDL
MODEL 3
REMARK VINA RESULT:     7.540      1.174      1.446
REMARK INTER + INTRA:           8.735
REMARK INTER:                   8.858
REMARK INTRA:                  -0.122
REMARK UNBOUND:                -0.127
REMARK SMILES O=C([O-])C=Cc1ccc(O)c(O)c1
REMARK SMILES IDX 6 1 13 2 7 3 11 4 8 5 9 6 5 7 4 8 2 9 1 10 3 11 12 12 10 14
REMARK H PARENT 12 13 10 15
REMARK Flexibility Score: inf
ROOT
ATOM      1  C   UNL     1       1.769  -1.008   0.369  1.00  0.00    -0.022 A 
ATOM      2  C   UNL     1       3.047  -1.135  -0.213  1.00  0.00     0.058 A 
ATOM      3  C   UNL     1       1.675  -0.641   1.721  1.00  0.00     0.012 A 
ATOM      4  C   UNL     1       4.203  -0.875   0.538  1.00  0.00     0.157 A 
ATOM      5  C   UNL     1       2.825  -0.381   2.469  1.00  0.00     0.051 A 
ATOM      6  C   UNL     1       4.090  -0.492   1.885  1.00  0.00     0.157 A 
ENDROOT
BRANCH   1   7
ATOM      7  C   UNL     1       0.519  -1.283  -0.381  1.00  0.00     0.010 C 
ATOM      8  C   UNL     1       0.337  -2.360  -1.158  1.00  0.00     0.025 C 
BRANCH   8   9
ATOM      9  C   UNL     1      -0.914  -2.594  -1.898  1.00  0.00     0.064 C 
ATOM     10  O   UNL     1      -1.007  -2.320  -3.125  1.00  0.00    -0.545 OA
ATOM     11  O   UNL     1      -2.011  -3.125  -1.232  1.00  0.00    -0.545 OA
ENDBRANCH   8   9
ENDBRANCH   1   7
BRANCH   4  12
ATOM     12  O   UNL     1       5.461  -1.000  -0.048  1.00  0.00    -0.504 OA
ATOM     13  H   UNL     1       5.748  -0.411  -0.822  1.00  0.00     0.293 HD
ENDBRANCH   4  12
BRANCH   6  14
ATOM     14  O   UNL     1       5.220  -0.224   2.656  1.00  0.00    -0.504 OA
ATOM     15  H   UNL     1       5.276   0.581   3.268  1.00  0.00     0.293 HD
ENDBRANCH   6  14
TORSDOF 4
ENDMDL
MODEL 4
REMARK VINA RESULT:     8.567      2.103      5.774
REMARK INTER + INTRA:           9.943
REMARK INTER:                  10.074
REMARK INTRA:                  -0.131
REMARK UNBOUND:                -0.127
REMARK SMILES O=C([O-])C=Cc1ccc(O)c(O)c1
REMARK SMILES IDX 6 1 13 2 7 3 11 4 8 5 9 6 5 7 4 8 2 9 1 10 3 11 12 12 10 14
REMARK H PARENT 12 13 10 15
REMARK Flexibility Score: inf
ROOT
ATOM      1  C   UNL     1       1.663  -1.380   0.654  1.00  0.00    -0.022 A 
ATOM      2  C   UNL     1       0.799  -1.997   1.582  1.00  0.00     0.058 A 
ATOM      3  C   UNL     1       1.277  -1.323  -0.695  1.00  0.00     0.012 A 
ATOM      4  C   UNL     1      -0.436  -2.521   1.170  1.00  0.00     0.157 A 
ATOM      5  C   UNL     1       0.048  -1.843  -1.106  1.00  0.00     0.051 A 
ATOM      6  C   UNL     1      -0.814  -2.439  -0.181  1.00  0.00     0.157 A 
ENDROOT
BRANCH   1   7
ATOM      7  C   UNL     1       2.982  -0.823   1.040  1.00  0.00     0.010 C 
ATOM      8  C   UNL     1       4.134  -1.505   0.957  1.00  0.00     0.025 C 
BRANCH   8   9
ATOM      9  C   UNL     1       5.423  -0.922   1.361  1.00  0.00     0.064 C 
ATOM     10  O   UNL     1       6.478  -1.612   1.366  1.00  0.00    -0.545 OA
ATOM     11  O   UNL     1       5.480   0.411   1.744  1.00  0.00    -0.545 OA
ENDBRANCH   8   9
ENDBRANCH   1   7
BRANCH   4  12
ATOM     12  O   UNL     1      -1.285  -3.125   2.096  1.00  0.00    -0.504 OA
ATOM     13  H   UNL     1      -2.201  -2.745   2.304  1.00  0.00     0.293 HD
ENDBRANCH   4  12
BRANCH   6  14
ATOM     14  O   UNL     1      -2.035  -2.947  -0.620  1.00  0.00    -0.504 OA
ATOM     15  H   UNL     1      -2.677  -2.399  -1.178  1.00  0.00     0.293 HD
ENDBRANCH   6  14
TORSDOF 4
ENDMDL
