MODEL 1
REMARK VINA RESULT:    -3.159      0.000      0.000
REMARK INTER + INTRA:          -7.337
REMARK INTER:                  -5.467
REMARK INTRA:                  -1.870
REMARK UNBOUND:                -1.870
REMARK SMILES CCCCCCCCCCCCCCO
REMARK SMILES IDX 8 1 7 2 6 3 5 4 4 5 3 6 2 7 1 8 9 9 10 10 11 11 12 12 13 13
REMARK SMILES IDX 14 14 15 15
REMARK H PARENT 15 16
REMARK Flexibility Score: inf
ROOT
ATOM      1  C   UNL     1     113.978 116.174 119.636  1.00  0.00     0.000 C 
ENDROOT
BRANCH   1   2
ATOM      2  C   UNL     1     114.602 114.779 119.454  1.00  0.00    -0.000 C 
BRANCH   2   3
ATOM      3  C   UNL     1     116.014 114.829 118.852  1.00  0.00    -0.000 C 
BRANCH   3   4
ATOM      4  C   UNL     1     116.995 113.995 119.688  1.00  0.00    -0.000 C 
BRANCH   4   5
ATOM      5  C   UNL     1     118.168 114.827 120.231  1.00  0.00    -0.000 C 
BRANCH   5   6
ATOM      6  C   UNL     1     118.217 114.850 121.766  1.00  0.00    -0.000 C 
BRANCH   6   7
ATOM      7  C   UNL     1     117.410 116.028 122.323  1.00  0.00    -0.003 C 
ATOM      8  C   UNL     1     116.150 115.546 123.038  1.00  0.00     0.004 C 
ENDBRANCH   6   7
ENDBRANCH   5   6
ENDBRANCH   4   5
ENDBRANCH   3   4
ENDBRANCH   2   3
ENDBRANCH   1   2
BRANCH   1   9
ATOM      9  C   UNL     1     114.980 117.300 119.962  1.00  0.00     0.000 C 
BRANCH   9  10
ATOM     10  C   UNL     1     114.903 118.530 119.041  1.00  0.00     0.000 C 
BRANCH  10  11
ATOM     11  C   UNL     1     116.238 119.283 118.937  1.00  0.00     0.000 C 
BRANCH  11  12
ATOM     12  C   UNL     1     117.362 118.503 119.636  1.00  0.00     0.002 C 
BRANCH  12  13
ATOM     13  C   UNL     1     118.454 118.039 118.661  1.00  0.00     0.028 C 
BRANCH  13  14
ATOM     14  C   UNL     1     119.860 118.458 119.100  1.00  0.00     0.156 C 
BRANCH  14  15
ATOM     15  O   UNL     1     120.360 117.520 120.012  1.00  0.00    -0.396 OA
ATOM     16  H   UNL     1     119.782 117.582 120.816  1.00  0.00     0.210 HD
ENDBRANCH  14  15
ENDBRANCH  13  14
ENDBRANCH  12  13
ENDBRANCH  11  12
ENDBRANCH  10  11
ENDBRANCH   9  10
ENDBRANCH   1   9
TORSDOF 13
ENDMDL
MODEL 2
REMARK VINA RESULT:    -3.137      1.805      4.355
REMARK INTER + INTRA:          -7.299
REMARK INTER:                  -5.486
REMARK INTRA:                  -1.813
REMARK UNBOUND:                -1.870
REMARK SMILES CCCCCCCCCCCCCCO
REMARK SMILES IDX 8 1 7 2 6 3 5 4 4 5 3 6 2 7 1 8 9 9 10 10 11 11 12 12 13 13
REMARK SMILES IDX 14 14 15 15
REMARK H PARENT 15 16
REMARK Flexibility Score: inf
ROOT
ATOM      1  C   UNL     1     114.767 117.936 121.042  1.00  0.00     0.000 C 
ENDROOT
BRANCH   1   2
ATOM      2  C   UNL     1     114.400 116.923 119.943  1.00  0.00    -0.000 C 
BRANCH   2   3
ATOM      3  C   UNL     1     115.086 117.220 118.602  1.00  0.00    -0.000 C 
BRANCH   3   4
ATOM      4  C   UNL     1     115.247 118.733 118.393  1.00  0.00    -0.000 C 
BRANCH   4   5
ATOM      5  C   UNL     1     116.687 119.132 118.032  1.00  0.00    -0.000 C 
BRANCH   5   6
ATOM      6  C   UNL     1     117.695 118.765 119.132  1.00  0.00    -0.000 C 
BRANCH   6   7
ATOM      7  C   UNL     1     118.871 117.969 118.554  1.00  0.00    -0.003 C 
ATOM      8  C   UNL     1     120.079 118.015 119.485  1.00  0.00     0.004 C 
ENDBRANCH   6   7
ENDBRANCH   5   6
ENDBRANCH   4   5
ENDBRANCH   3   4
ENDBRANCH   2   3
ENDBRANCH   1   2
BRANCH   1   9
ATOM      9  C   UNL     1     115.434 117.329 122.294  1.00  0.00     0.000 C 
BRANCH   9  10
ATOM     10  C   UNL     1     116.180 116.004 122.058  1.00  0.00     0.000 C 
BRANCH  10  11
ATOM     11  C   UNL     1     117.690 116.197 121.858  1.00  0.00     0.000 C 
BRANCH  11  12
ATOM     12  C   UNL     1     118.267 115.099 120.951  1.00  0.00     0.002 C 
BRANCH  12  13
ATOM     13  C   UNL     1     117.213 114.494 120.011  1.00  0.00     0.028 C 
BRANCH  13  14
ATOM     14  C   UNL     1     117.756 113.328 119.181  1.00  0.00     0.156 C 
BRANCH  14  15
ATOM     15  O   UNL     1     117.948 112.216 120.012  1.00  0.00    -0.396 OA
ATOM     16  H   UNL     1     117.460 112.414 120.852  1.00  0.00     0.210 HD
ENDBRANCH  14  15
ENDBRANCH  13  14
ENDBRANCH  12  13
ENDBRANCH  11  12
ENDBRANCH  10  11
ENDBRANCH   9  10
ENDBRANCH   1   9
TORSDOF 13
ENDMDL
MODEL 3
REMARK VINA RESULT:    -3.126      2.137      4.362
REMARK INTER + INTRA:          -7.281
REMARK INTER:                  -5.402
REMARK INTRA:                  -1.878
REMARK UNBOUND:                -1.870
REMARK SMILES CCCCCCCCCCCCCCO
REMARK SMILES IDX 8 1 7 2 6 3 5 4 4 5 3 6 2 7 1 8 9 9 10 10 11 11 12 12 13 13
REMARK SMILES IDX 14 14 15 15
REMARK H PARENT 15 16
REMARK Flexibility Score: inf
ROOT
ATOM      1  C   UNL     1     114.329 115.848 120.105  1.00  0.00     0.000 C 
ENDROOT
BRANCH   1   2
ATOM      2  C   UNL     1     114.472 117.301 119.621  1.00  0.00    -0.000 C 
BRANCH   2   3
ATOM      3  C   UNL     1     115.228 118.192 120.619  1.00  0.00    -0.000 C 
BRANCH   3   4
ATOM      4  C   UNL     1     115.747 117.367 121.805  1.00  0.00    -0.000 C 
BRANCH   4   5
ATOM      5  C   UNL     1     117.279 117.404 121.927  1.00  0.00    -0.000 C 
BRANCH   5   6
ATOM      6  C   UNL     1     117.940 118.248 120.826  1.00  0.00    -0.000 C 
BRANCH   6   7
ATOM      7  C   UNL     1     118.826 117.378 119.926  1.00  0.00    -0.003 C 
ATOM      8  C   UNL     1     118.340 117.406 118.480  1.00  0.00     0.004 C 
ENDBRANCH   6   7
ENDBRANCH   5   6
ENDBRANCH   4   5
ENDBRANCH   3   4
ENDBRANCH   2   3
ENDBRANCH   1   2
BRANCH   1   9
ATOM      9  C   UNL     1     114.543 114.774 119.018  1.00  0.00     0.000 C 
BRANCH   9  10
ATOM     10  C   UNL     1     116.012 114.403 118.747  1.00  0.00     0.000 C 
BRANCH  10  11
ATOM     11  C   UNL     1     116.826 114.208 120.034  1.00  0.00     0.000 C 
BRANCH  11  12
ATOM     12  C   UNL     1     118.104 113.402 119.757  1.00  0.00     0.002 C 
BRANCH  12  13
ATOM     13  C   UNL     1     118.410 113.276 118.257  1.00  0.00     0.028 C 
BRANCH  13  14
ATOM     14  C   UNL     1     119.044 111.932 117.891  1.00  0.00     0.156 C 
BRANCH  14  15
ATOM     15  O   UNL     1     120.161 112.152 117.075  1.00  0.00    -0.396 OA
ATOM     16  H   UNL     1     120.353 111.285 116.631  1.00  0.00     0.210 HD
ENDBRANCH  14  15
ENDBRANCH  13  14
ENDBRANCH  12  13
ENDBRANCH  11  12
ENDBRANCH  10  11
ENDBRANCH   9  10
ENDBRANCH   1   9
TORSDOF 13
ENDMDL
MODEL 4
REMARK VINA RESULT:    -3.122      2.112      4.831
REMARK INTER + INTRA:          -7.274
REMARK INTER:                  -5.419
REMARK INTRA:                  -1.855
REMARK UNBOUND:                -1.870
REMARK SMILES CCCCCCCCCCCCCCO
REMARK SMILES IDX 8 1 7 2 6 3 5 4 4 5 3 6 2 7 1 8 9 9 10 10 11 11 12 12 13 13
REMARK SMILES IDX 14 14 15 15
REMARK H PARENT 15 16
REMARK Flexibility Score: inf
ROOT
ATOM      1  C   UNL     1     116.229 117.152 122.303  1.00  0.00     0.000 C 
ENDROOT
BRANCH   1   2
ATOM      2  C   UNL     1     117.632 117.766 122.151  1.00  0.00    -0.000 C 
BRANCH   2   3
ATOM      3  C   UNL     1     118.175 117.668 120.717  1.00  0.00    -0.000 C 
BRANCH   3   4
ATOM      4  C   UNL     1     117.458 118.662 119.792  1.00  0.00    -0.000 C 
BRANCH   4   5
ATOM      5  C   UNL     1     116.574 117.964 118.746  1.00  0.00    -0.000 C 
BRANCH   5   6
ATOM      6  C   UNL     1     115.120 118.459 118.776  1.00  0.00    -0.000 C 
BRANCH   6   7
ATOM      7  C   UNL     1     114.997 119.749 119.596  1.00  0.00    -0.003 C 
ATOM      8  C   UNL     1     114.604 120.929 118.712  1.00  0.00     0.004 C 
ENDBRANCH   6   7
ENDBRANCH   5   6
ENDBRANCH   4   5
ENDBRANCH   3   4
ENDBRANCH   2   3
ENDBRANCH   1   2
BRANCH   1   9
ATOM      9  C   UNL     1     116.142 115.640 122.004  1.00  0.00     0.000 C 
BRANCH   9  10
ATOM     10  C   UNL     1     115.178 115.254 120.869  1.00  0.00     0.000 C 
BRANCH  10  11
ATOM     11  C   UNL     1     115.869 114.483 119.735  1.00  0.00     0.000 C 
BRANCH  11  12
ATOM     12  C   UNL     1     117.342 114.210 120.077  1.00  0.00     0.002 C 
BRANCH  12  13
ATOM     13  C   UNL     1     118.248 114.216 118.836  1.00  0.00     0.028 C 
BRANCH  13  14
ATOM     14  C   UNL     1     118.628 112.808 118.372  1.00  0.00     0.156 C 
BRANCH  14  15
ATOM     15  O   UNL     1     118.286 111.883 119.367  1.00  0.00    -0.396 OA
ATOM     16  H   UNL     1     117.873 111.113 118.895  1.00  0.00     0.210 HD
ENDBRANCH  14  15
ENDBRANCH  13  14
ENDBRANCH  12  13
ENDBRANCH  11  12
ENDBRANCH  10  11
ENDBRANCH   9  10
ENDBRANCH   1   9
TORSDOF 13
ENDMDL
MODEL 5
REMARK VINA RESULT:    -3.122      3.209      5.622
REMARK INTER + INTRA:          -7.272
REMARK INTER:                  -5.704
REMARK INTRA:                  -1.569
REMARK UNBOUND:                -1.870
REMARK SMILES CCCCCCCCCCCCCCO
REMARK SMILES IDX 8 1 7 2 6 3 5 4 4 5 3 6 2 7 1 8 9 9 10 10 11 11 12 12 13 13
REMARK SMILES IDX 14 14 15 15
REMARK H PARENT 15 16
REMARK Flexibility Score: inf
ROOT
ATOM      1  C   UNL     1     117.165 114.590 119.601  1.00  0.00     0.000 C 
ENDROOT
BRANCH   1   2
ATOM      2  C   UNL     1     118.523 115.300 119.465  1.00  0.00    -0.000 C 
BRANCH   2   3
ATOM      3  C   UNL     1     118.408 116.698 118.839  1.00  0.00    -0.000 C 
BRANCH   3   4
ATOM      4  C   UNL     1     118.655 117.790 119.890  1.00  0.00    -0.000 C 
BRANCH   4   5
ATOM      5  C   UNL     1     117.368 118.530 120.290  1.00  0.00    -0.000 C 
BRANCH   5   6
ATOM      6  C   UNL     1     116.396 118.702 119.113  1.00  0.00    -0.000 C 
BRANCH   6   7
ATOM      7  C   UNL     1     114.946 118.495 119.566  1.00  0.00    -0.003 C 
ATOM      8  C   UNL     1     114.830 118.541 121.087  1.00  0.00     0.004 C 
ENDBRANCH   6   7
ENDBRANCH   5   6
ENDBRANCH   4   5
ENDBRANCH   3   4
ENDBRANCH   2   3
ENDBRANCH   1   2
BRANCH   1   9
ATOM      9  C   UNL     1     116.338 114.995 120.839  1.00  0.00     0.000 C 
BRANCH   9  10
ATOM     10  C   UNL     1     114.812 114.913 120.660  1.00  0.00     0.000 C 
BRANCH  10  11
ATOM     11  C   UNL     1     114.387 114.834 119.186  1.00  0.00     0.000 C 
BRANCH  11  12
ATOM     12  C   UNL     1     112.858 114.897 119.053  1.00  0.00     0.002 C 
BRANCH  12  13
ATOM     13  C   UNL     1     112.372 114.536 117.641  1.00  0.00     0.028 C 
BRANCH  13  14
ATOM     14  C   UNL     1     111.098 113.686 117.651  1.00  0.00     0.156 C 
BRANCH  14  15
ATOM     15  O   UNL     1     111.434 112.344 117.431  1.00  0.00    -0.396 OA
ATOM     16  H   UNL     1     111.059 112.109 116.543  1.00  0.00     0.210 HD
ENDBRANCH  14  15
ENDBRANCH  13  14
ENDBRANCH  12  13
ENDBRANCH  11  12
ENDBRANCH  10  11
ENDBRANCH   9  10
ENDBRANCH   1   9
TORSDOF 13
ENDMDL
MODEL 6
REMARK VINA RESULT:    -3.085      2.505      4.296
REMARK INTER + INTRA:          -7.209
REMARK INTER:                  -5.548
REMARK INTRA:                  -1.661
REMARK UNBOUND:                -1.870
REMARK SMILES CCCCCCCCCCCCCCO
REMARK SMILES IDX 8 1 7 2 6 3 5 4 4 5 3 6 2 7 1 8 9 9 10 10 11 11 12 12 13 13
REMARK SMILES IDX 14 14 15 15
REMARK H PARENT 15 16
REMARK Flexibility Score: inf
ROOT
ATOM      1  C   UNL     1     117.552 118.448 118.560  1.00  0.00     0.000 C 
ENDROOT
BRANCH   1   2
ATOM      2  C   UNL     1     119.053 118.565 118.879  1.00  0.00    -0.000 C 
BRANCH   2   3
ATOM      3  C   UNL     1     119.600 117.347 119.637  1.00  0.00    -0.000 C 
BRANCH   3   4
ATOM      4  C   UNL     1     118.868 116.065 119.214  1.00  0.00    -0.000 C 
BRANCH   4   5
ATOM      5  C   UNL     1     118.396 115.228 120.414  1.00  0.00    -0.000 C 
BRANCH   5   6
ATOM      6  C   UNL     1     116.865 115.143 120.510  1.00  0.00    -0.000 C 
BRANCH   6   7
ATOM      7  C   UNL     1     116.380 115.557 121.904  1.00  0.00    -0.003 C 
ATOM      8  C   UNL     1     117.124 116.793 122.403  1.00  0.00     0.004 C 
ENDBRANCH   6   7
ENDBRANCH   5   6
ENDBRANCH   4   5
ENDBRANCH   3   4
ENDBRANCH   2   3
ENDBRANCH   1   2
BRANCH   1   9
ATOM      9  C   UNL     1     116.611 119.087 119.603  1.00  0.00     0.000 C 
BRANCH   9  10
ATOM     10  C   UNL     1     115.115 119.038 119.249  1.00  0.00     0.000 C 
BRANCH  10  11
ATOM     11  C   UNL     1     114.490 117.655 119.485  1.00  0.00     0.000 C 
BRANCH  11  12
ATOM     12  C   UNL     1     114.471 116.834 118.186  1.00  0.00     0.002 C 
BRANCH  12  13
ATOM     13  C   UNL     1     113.349 115.784 118.167  1.00  0.00     0.028 C 
BRANCH  13  14
ATOM     14  C   UNL     1     113.306 114.938 119.441  1.00  0.00     0.156 C 
BRANCH  14  15
ATOM     15  O   UNL     1     112.053 115.081 120.051  1.00  0.00    -0.396 OA
ATOM     16  H   UNL     1     111.383 114.811 119.371  1.00  0.00     0.210 HD
ENDBRANCH  14  15
ENDBRANCH  13  14
ENDBRANCH  12  13
ENDBRANCH  11  12
ENDBRANCH  10  11
ENDBRANCH   9  10
ENDBRANCH   1   9
TORSDOF 13
ENDMDL
MODEL 7
REMARK VINA RESULT:    -3.053      2.216      4.572
REMARK INTER + INTRA:          -7.153
REMARK INTER:                  -5.124
REMARK INTRA:                  -2.030
REMARK UNBOUND:                -1.870
REMARK SMILES CCCCCCCCCCCCCCO
REMARK SMILES IDX 8 1 7 2 6 3 5 4 4 5 3 6 2 7 1 8 9 9 10 10 11 11 12 12 13 13
REMARK SMILES IDX 14 14 15 15
REMARK H PARENT 15 16
REMARK Flexibility Score: inf
ROOT
ATOM      1  C   UNL     1     116.541 117.979 119.925  1.00  0.00     0.000 C 
ENDROOT
BRANCH   1   2
ATOM      2  C   UNL     1     115.232 117.539 120.606  1.00  0.00    -0.000 C 
BRANCH   2   3
ATOM      3  C   UNL     1     115.399 116.277 121.465  1.00  0.00    -0.000 C 
BRANCH   3   4
ATOM      4  C   UNL     1     114.718 115.071 120.801  1.00  0.00    -0.000 C 
BRANCH   4   5
ATOM      5  C   UNL     1     113.500 115.470 119.953  1.00  0.00    -0.000 C 
BRANCH   5   6
ATOM      6  C   UNL     1     113.543 114.872 118.539  1.00  0.00    -0.000 C 
BRANCH   6   7
ATOM      7  C   UNL     1     114.989 114.618 118.095  1.00  0.00    -0.003 C 
ATOM      8  C   UNL     1     115.445 115.662 117.079  1.00  0.00     0.004 C 
ENDBRANCH   6   7
ENDBRANCH   5   6
ENDBRANCH   4   5
ENDBRANCH   3   4
ENDBRANCH   2   3
ENDBRANCH   1   2
BRANCH   1   9
ATOM      9  C   UNL     1     117.821 117.727 120.749  1.00  0.00     0.000 C 
BRANCH   9  10
ATOM     10  C   UNL     1     118.933 116.962 120.009  1.00  0.00     0.000 C 
BRANCH  10  11
ATOM     11  C   UNL     1     118.424 115.686 119.322  1.00  0.00     0.000 C 
BRANCH  11  12
ATOM     12  C   UNL     1     118.298 114.535 120.331  1.00  0.00     0.002 C 
BRANCH  12  13
ATOM     13  C   UNL     1     118.009 113.185 119.655  1.00  0.00     0.028 C 
BRANCH  13  14
ATOM     14  C   UNL     1     118.463 113.143 118.194  1.00  0.00     0.156 C 
BRANCH  14  15
ATOM     15  O   UNL     1     117.728 112.168 117.507  1.00  0.00    -0.396 OA
ATOM     16  H   UNL     1     118.264 111.335 117.556  1.00  0.00     0.210 HD
ENDBRANCH  14  15
ENDBRANCH  13  14
ENDBRANCH  12  13
ENDBRANCH  11  12
ENDBRANCH  10  11
ENDBRANCH   9  10
ENDBRANCH   1   9
TORSDOF 13
ENDMDL
MODEL 8
REMARK VINA RESULT:    -3.049      1.786      3.356
REMARK INTER + INTRA:          -7.147
REMARK INTER:                  -4.920
REMARK INTRA:                  -2.227
REMARK UNBOUND:                -1.870
REMARK SMILES CCCCCCCCCCCCCCO
REMARK SMILES IDX 8 1 7 2 6 3 5 4 4 5 3 6 2 7 1 8 9 9 10 10 11 11 12 12 13 13
REMARK SMILES IDX 14 14 15 15
REMARK H PARENT 15 16
REMARK Flexibility Score: inf
ROOT
ATOM      1  C   UNL     1     117.073 113.989 119.802  1.00  0.00     0.000 C 
ENDROOT
BRANCH   1   2
ATOM      2  C   UNL     1     116.251 114.366 118.557  1.00  0.00    -0.000 C 
BRANCH   2   3
ATOM      3  C   UNL     1     114.837 114.859 118.900  1.00  0.00    -0.000 C 
BRANCH   3   4
ATOM      4  C   UNL     1     114.737 116.383 118.745  1.00  0.00    -0.000 C 
BRANCH   4   5
ATOM      5  C   UNL     1     114.426 117.095 120.072  1.00  0.00    -0.000 C 
BRANCH   5   6
ATOM      6  C   UNL     1     115.693 117.554 120.808  1.00  0.00    -0.000 C 
BRANCH   6   7
ATOM      7  C   UNL     1     115.912 116.734 122.085  1.00  0.00    -0.003 C 
ATOM      8  C   UNL     1     117.250 117.073 122.736  1.00  0.00     0.004 C 
ENDBRANCH   6   7
ENDBRANCH   5   6
ENDBRANCH   4   5
ENDBRANCH   3   4
ENDBRANCH   2   3
ENDBRANCH   1   2
BRANCH   1   9
ATOM      9  C   UNL     1     118.384 114.782 119.983  1.00  0.00     0.000 C 
BRANCH   9  10
ATOM     10  C   UNL     1     118.584 115.946 118.997  1.00  0.00     0.000 C 
BRANCH  10  11
ATOM     11  C   UNL     1     119.284 117.155 119.635  1.00  0.00     0.000 C 
BRANCH  11  12
ATOM     12  C   UNL     1     118.821 118.465 118.978  1.00  0.00     0.002 C 
BRANCH  12  13
ATOM     13  C   UNL     1     117.879 118.229 117.787  1.00  0.00     0.028 C 
BRANCH  13  14
ATOM     14  C   UNL     1     116.779 119.288 117.681  1.00  0.00     0.156 C 
BRANCH  14  15
ATOM     15  O   UNL     1     117.075 120.160 116.625  1.00  0.00    -0.396 OA
ATOM     16  H   UNL     1     117.400 119.590 115.881  1.00  0.00     0.210 HD
ENDBRANCH  14  15
ENDBRANCH  13  14
ENDBRANCH  12  13
ENDBRANCH  11  12
ENDBRANCH  10  11
ENDBRANCH   9  10
ENDBRANCH   1   9
TORSDOF 13
ENDMDL
MODEL 9
REMARK VINA RESULT:    -3.025      2.053      3.995
REMARK INTER + INTRA:          -7.105
REMARK INTER:                  -4.820
REMARK INTRA:                  -2.285
REMARK UNBOUND:                -1.870
REMARK SMILES CCCCCCCCCCCCCCO
REMARK SMILES IDX 8 1 7 2 6 3 5 4 4 5 3 6 2 7 1 8 9 9 10 10 11 11 12 12 13 13
REMARK SMILES IDX 14 14 15 15
REMARK H PARENT 15 16
REMARK Flexibility Score: inf
ROOT
ATOM      1  C   UNL     1     116.255 114.688 119.502  1.00  0.00     0.000 C 
ENDROOT
BRANCH   1   2
ATOM      2  C   UNL     1     116.354 115.048 120.995  1.00  0.00    -0.000 C 
BRANCH   2   3
ATOM      3  C   UNL     1     117.623 115.843 121.336  1.00  0.00    -0.000 C 
BRANCH   3   4
ATOM      4  C   UNL     1     118.361 116.269 120.059  1.00  0.00    -0.000 C 
BRANCH   4   5
ATOM      5  C   UNL     1     118.630 117.782 120.006  1.00  0.00    -0.000 C 
BRANCH   5   6
ATOM      6  C   UNL     1     118.352 118.384 118.620  1.00  0.00    -0.000 C 
BRANCH   6   7
ATOM      7  C   UNL     1     118.253 117.285 117.556  1.00  0.00    -0.003 C 
ATOM      8  C   UNL     1     117.032 117.490 116.663  1.00  0.00     0.004 C 
ENDBRANCH   6   7
ENDBRANCH   5   6
ENDBRANCH   4   5
ENDBRANCH   3   4
ENDBRANCH   2   3
ENDBRANCH   1   2
BRANCH   1   9
ATOM      9  C   UNL     1     114.931 115.089 118.820  1.00  0.00     0.000 C 
BRANCH   9  10
ATOM     10  C   UNL     1     114.116 116.166 119.558  1.00  0.00     0.000 C 
BRANCH  10  11
ATOM     11  C   UNL     1     114.397 117.585 119.043  1.00  0.00     0.000 C 
BRANCH  11  12
ATOM     12  C   UNL     1     114.962 118.472 120.162  1.00  0.00     0.002 C 
BRANCH  12  13
ATOM     13  C   UNL     1     115.203 119.920 119.705  1.00  0.00     0.028 C 
BRANCH  13  14
ATOM     14  C   UNL     1     114.725 120.178 118.275  1.00  0.00     0.156 C 
BRANCH  14  15
ATOM     15  O   UNL     1     115.766 120.752 117.533  1.00  0.00    -0.396 OA
ATOM     16  H   UNL     1     116.582 120.662 118.091  1.00  0.00     0.210 HD
ENDBRANCH  14  15
ENDBRANCH  13  14
ENDBRANCH  12  13
ENDBRANCH  11  12
ENDBRANCH  10  11
ENDBRANCH   9  10
ENDBRANCH   1   9
TORSDOF 13
ENDMDL
