MODEL 1
REMARK VINA RESULT:    -2.705      0.000      0.000
REMARK INTER + INTRA:          -2.942
REMARK INTER:                  -2.942
REMARK INTRA:                   0.000
REMARK UNBOUND:                 0.000
REMARK SMILES [NH3+]CC(=O)[O-]
REMARK SMILES IDX 2 1 1 2 3 6 4 7 5 8
REMARK H PARENT 1 3 1 4 1 5
REMARK Flexibility Score: inf
ROOT
ATOM      1  C   UNL     1      54.432  -2.094  19.413  1.00  0.00     0.312 C 
ENDROOT
BRANCH   1   2
ATOM      2  N   UNL     1      53.768  -2.581  20.621  1.00  0.00    -0.353 N 
ATOM      3  H   UNL     1      53.720  -1.818  21.336  1.00  0.00     0.344 HD
ATOM      4  H   UNL     1      54.317  -3.379  21.014  1.00  0.00     0.344 HD
ATOM      5  H   UNL     1      52.803  -2.912  20.392  1.00  0.00     0.344 HD
ENDBRANCH   1   2
BRANCH   1   6
ATOM      6  C   UNL     1      54.878  -3.241  18.557  1.00  0.00     0.096 C 
ATOM      7  O   UNL     1      54.029  -4.032  18.067  1.00  0.00    -0.544 OA
ATOM      8  O   UNL     1      56.225  -3.405  18.262  1.00  0.00    -0.544 OA
ENDBRANCH   1   6
TORSDOF 2
ENDMDL
MODEL 2
REMARK VINA RESULT:    -2.685      0.171      1.454
REMARK INTER + INTRA:          -2.921
REMARK INTER:                  -2.921
REMARK INTRA:                   0.000
REMARK UNBOUND:                 0.000
REMARK SMILES [NH3+]CC(=O)[O-]
REMARK SMILES IDX 2 1 1 2 3 6 4 7 5 8
REMARK H PARENT 1 3 1 4 1 5
REMARK Flexibility Score: inf
ROOT
ATOM      1  C   UNL     1      54.459  -2.021  19.505  1.00  0.00     0.312 C 
ENDROOT
BRANCH   1   2
ATOM      2  N   UNL     1      53.736  -2.621  20.626  1.00  0.00    -0.353 N 
ATOM      3  H   UNL     1      53.887  -2.056  21.493  1.00  0.00     0.344 HD
ATOM      4  H   UNL     1      54.096  -3.589  20.785  1.00  0.00     0.344 HD
ATOM      5  H   UNL     1      52.714  -2.669  20.409  1.00  0.00     0.344 HD
ENDBRANCH   1   2
BRANCH   1   6
ATOM      6  C   UNL     1      54.999  -3.082  18.597  1.00  0.00     0.096 C 
ATOM      7  O   UNL     1      56.237  -3.159  18.380  1.00  0.00    -0.544 OA
ATOM      8  O   UNL     1      54.140  -4.016  18.031  1.00  0.00    -0.544 OA
ENDBRANCH   1   6
TORSDOF 2
ENDMDL
MODEL 3
REMARK VINA RESULT:    -2.658     17.966     18.234
REMARK INTER + INTRA:          -2.891
REMARK INTER:                  -2.891
REMARK INTRA:                   0.000
REMARK UNBOUND:                 0.000
REMARK SMILES [NH3+]CC(=O)[O-]
REMARK SMILES IDX 2 1 1 2 3 6 4 7 5 8
REMARK H PARENT 1 3 1 4 1 5
REMARK Flexibility Score: inf
ROOT
ATOM      1  C   UNL     1      49.994  15.268  18.762  1.00  0.00     0.312 C 
ENDROOT
BRANCH   1   2
ATOM      2  N   UNL     1      48.838  15.991  19.291  1.00  0.00    -0.353 N 
ATOM      3  H   UNL     1      48.014  15.350  19.356  1.00  0.00     0.344 HD
ATOM      4  H   UNL     1      48.604  16.780  18.646  1.00  0.00     0.344 HD
ATOM      5  H   UNL     1      49.060  16.380  20.237  1.00  0.00     0.344 HD
ENDBRANCH   1   2
BRANCH   1   6
ATOM      6  C   UNL     1      49.612  13.871  18.378  1.00  0.00     0.096 C 
ATOM      7  O   UNL     1      50.248  13.267  17.474  1.00  0.00    -0.544 OA
ATOM      8  O   UNL     1      48.587  13.221  19.053  1.00  0.00    -0.544 OA
ENDBRANCH   1   6
TORSDOF 2
ENDMDL
MODEL 4
REMARK VINA RESULT:    -2.653     18.460     18.719
REMARK INTER + INTRA:          -2.886
REMARK INTER:                  -2.886
REMARK INTRA:                   0.000
REMARK UNBOUND:                 0.000
REMARK SMILES [NH3+]CC(=O)[O-]
REMARK SMILES IDX 2 1 1 2 3 6 4 7 5 8
REMARK H PARENT 1 3 1 4 1 5
REMARK Flexibility Score: inf
ROOT
ATOM      1  C   UNL     1      49.617  13.734  18.381  1.00  0.00     0.312 C 
ENDROOT
BRANCH   1   2
ATOM      2  N   UNL     1      48.213  13.568  18.754  1.00  0.00    -0.353 N 
ATOM      3  H   UNL     1      47.918  14.344  19.392  1.00  0.00     0.344 HD
ATOM      4  H   UNL     1      48.099  12.656  19.254  1.00  0.00     0.344 HD
ATOM      5  H   UNL     1      47.612  13.564  17.898  1.00  0.00     0.344 HD
ENDBRANCH   1   2
BRANCH   1   6
ATOM      6  C   UNL     1      50.003  15.181  18.408  1.00  0.00     0.096 C 
ATOM      7  O   UNL     1      50.380  15.716  19.484  1.00  0.00    -0.544 OA
ATOM      8  O   UNL     1      49.992  15.925  17.235  1.00  0.00    -0.544 OA
ENDBRANCH   1   6
TORSDOF 2
ENDMDL
MODEL 5
REMARK VINA RESULT:    -2.651      2.258      2.400
REMARK INTER + INTRA:          -2.884
REMARK INTER:                  -2.884
REMARK INTRA:                   0.000
REMARK UNBOUND:                 0.000
REMARK SMILES [NH3+]CC(=O)[O-]
REMARK SMILES IDX 2 1 1 2 3 6 4 7 5 8
REMARK H PARENT 1 3 1 4 1 5
REMARK Flexibility Score: inf
ROOT
ATOM      1  C   UNL     1      54.530  -2.540  18.928  1.00  0.00     0.312 C 
ENDROOT
BRANCH   1   2
ATOM      2  N   UNL     1      54.001  -2.935  20.233  1.00  0.00    -0.353 N 
ATOM      3  H   UNL     1      54.138  -3.962  20.379  1.00  0.00     0.344 HD
ATOM      4  H   UNL     1      52.978  -2.721  20.265  1.00  0.00     0.344 HD
ATOM      5  H   UNL     1      54.484  -2.401  20.992  1.00  0.00     0.344 HD
ENDBRANCH   1   2
BRANCH   1   6
ATOM      6  C   UNL     1      54.893  -1.087  18.923  1.00  0.00     0.096 C 
ATOM      7  O   UNL     1      54.011  -0.213  19.136  1.00  0.00    -0.544 OA
ATOM      8  O   UNL     1      56.213  -0.701  18.733  1.00  0.00    -0.544 OA
ENDBRANCH   1   6
TORSDOF 2
ENDMDL
MODEL 6
REMARK VINA RESULT:    -2.642      2.113      2.294
REMARK INTER + INTRA:          -2.873
REMARK INTER:                  -2.873
REMARK INTRA:                   0.000
REMARK UNBOUND:                 0.000
REMARK SMILES [NH3+]CC(=O)[O-]
REMARK SMILES IDX 2 1 1 2 3 6 4 7 5 8
REMARK H PARENT 1 3 1 4 1 5
REMARK Flexibility Score: inf
ROOT
ATOM      1  C   UNL     1      55.999  -1.778  19.041  1.00  0.00     0.312 C 
ENDROOT
BRANCH   1   2
ATOM      2  N   UNL     1      56.760  -1.967  20.275  1.00  0.00    -0.353 N 
ATOM      3  H   UNL     1      57.449  -2.745  20.155  1.00  0.00     0.344 HD
ATOM      4  H   UNL     1      56.100  -2.215  21.048  1.00  0.00     0.344 HD
ATOM      5  H   UNL     1      57.262  -1.085  20.526  1.00  0.00     0.344 HD
ENDBRANCH   1   2
BRANCH   1   6
ATOM      6  C   UNL     1      54.614  -2.332  19.184  1.00  0.00     0.096 C 
ATOM      7  O   UNL     1      54.228  -3.271  18.440  1.00  0.00    -0.544 OA
ATOM      8  O   UNL     1      53.770  -1.842  20.172  1.00  0.00    -0.544 OA
ENDBRANCH   1   6
TORSDOF 2
ENDMDL
MODEL 7
REMARK VINA RESULT:    -2.625      1.681      1.932
REMARK INTER + INTRA:          -2.855
REMARK INTER:                  -2.855
REMARK INTRA:                   0.000
REMARK UNBOUND:                 0.000
REMARK SMILES [NH3+]CC(=O)[O-]
REMARK SMILES IDX 2 1 1 2 3 6 4 7 5 8
REMARK H PARENT 1 3 1 4 1 5
REMARK Flexibility Score: inf
ROOT
ATOM      1  C   UNL     1      54.412  -2.742  19.001  1.00  0.00     0.312 C 
ENDROOT
BRANCH   1   2
ATOM      2  N   UNL     1      53.942  -2.759  20.385  1.00  0.00    -0.353 N 
ATOM      3  H   UNL     1      53.040  -3.286  20.451  1.00  0.00     0.344 HD
ATOM      4  H   UNL     1      53.783  -1.776  20.704  1.00  0.00     0.344 HD
ATOM      5  H   UNL     1      54.658  -3.205  21.003  1.00  0.00     0.344 HD
ENDBRANCH   1   2
BRANCH   1   6
ATOM      6  C   UNL     1      55.708  -1.998  18.893  1.00  0.00     0.096 C 
ATOM      7  O   UNL     1      55.709  -0.753  18.704  1.00  0.00    -0.544 OA
ATOM      8  O   UNL     1      56.912  -2.672  19.052  1.00  0.00    -0.544 OA
ENDBRANCH   1   6
TORSDOF 2
ENDMDL
MODEL 8
REMARK VINA RESULT:    -2.581     17.609     17.885
REMARK INTER + INTRA:          -2.807
REMARK INTER:                  -2.807
REMARK INTRA:                   0.000
REMARK UNBOUND:                 0.000
REMARK SMILES [NH3+]CC(=O)[O-]
REMARK SMILES IDX 2 1 1 2 3 6 4 7 5 8
REMARK H PARENT 1 3 1 4 1 5
REMARK Flexibility Score: inf
ROOT
ATOM      1  C   UNL     1      49.449  13.880  16.592  1.00  0.00     0.312 C 
ENDROOT
BRANCH   1   2
ATOM      2  N   UNL     1      48.127  13.544  16.064  1.00  0.00    -0.353 N 
ATOM      3  H   UNL     1      47.384  14.000  16.642  1.00  0.00     0.344 HD
ATOM      4  H   UNL     1      47.998  12.507  16.102  1.00  0.00     0.344 HD
ATOM      5  H   UNL     1      48.047  13.861  15.070  1.00  0.00     0.344 HD
ENDBRANCH   1   2
BRANCH   1   6
ATOM      6  C   UNL     1      49.466  13.760  18.085  1.00  0.00     0.096 C 
ATOM      7  O   UNL     1      50.101  14.598  18.780  1.00  0.00    -0.544 OA
ATOM      8  O   UNL     1      48.742  12.754  18.710  1.00  0.00    -0.544 OA
ENDBRANCH   1   6
TORSDOF 2
ENDMDL
MODEL 9
REMARK VINA RESULT:    -2.533     17.549     17.793
REMARK INTER + INTRA:          -2.755
REMARK INTER:                  -2.755
REMARK INTRA:                   0.000
REMARK UNBOUND:                 0.000
REMARK SMILES [NH3+]CC(=O)[O-]
REMARK SMILES IDX 2 1 1 2 3 6 4 7 5 8
REMARK H PARENT 1 3 1 4 1 5
REMARK Flexibility Score: inf
ROOT
ATOM      1  C   UNL     1      49.959  13.329  17.682  1.00  0.00     0.312 C 
ENDROOT
BRANCH   1   2
ATOM      2  N   UNL     1      50.470  12.116  18.319  1.00  0.00    -0.353 N 
ATOM      3  H   UNL     1      50.368  11.301  17.671  1.00  0.00     0.344 HD
ATOM      4  H   UNL     1      49.920  11.929  19.189  1.00  0.00     0.344 HD
ATOM      5  H   UNL     1      51.477  12.242  18.574  1.00  0.00     0.344 HD
ENDBRANCH   1   2
BRANCH   1   6
ATOM      6  C   UNL     1      49.490  14.309  18.714  1.00  0.00     0.096 C 
ATOM      7  O   UNL     1      48.439  14.083  19.371  1.00  0.00    -0.544 OA
ATOM      8  O   UNL     1      50.240  15.446  18.984  1.00  0.00    -0.544 OA
ENDBRANCH   1   6
TORSDOF 2
ENDMDL
