MODEL 1
REMARK VINA RESULT:    -3.909      0.000      0.000
REMARK INTER + INTRA:          -5.394
REMARK INTER:                  -5.965
REMARK INTRA:                   0.571
REMARK UNBOUND:                 0.571
REMARK SMILES CC1=CCC[C@@H](C)C(=O)C[C@@H](C(C)C)C(=O)C1
REMARK SMILES IDX 8 1 9 2 6 3 7 4 5 5 4 6 3 7 2 8 1 9 10 11 11 12 15 13 16 14
REMARK SMILES IDX 17 15 12 17 13 18 14 19
REMARK H PARENT
REMARK Flexibility Score: 70.00
ROOT
ATOM      1  C   UNL     1      21.201  25.720  28.722  1.00  0.00     0.136 C 
ATOM      2  O   UNL     1      21.258  25.582  29.934  1.00  0.00    -0.299 OA
ENDROOT
BRANCH   1   3
ATOM      3  C   UNL     1      20.273  24.767  27.924  1.00  0.00     0.053 C 
ATOM      4  C   UNL     1      20.949  24.283  26.634  1.00  0.00     0.016 C 
BRANCH   3   5
ATOM      5  C   UNL     1      18.840  25.344  27.635  1.00  0.00     0.015 C 
BRANCH   5   6
ATOM      6  C   UNL     1      18.899  26.843  27.809  1.00  0.00     0.028 C 
BRANCH   6   7
ATOM      7  C   UNL     1      18.317  27.602  28.936  1.00  0.00    -0.028 C 
ATOM      8  C   UNL     1      18.871  28.811  29.232  1.00  0.00    -0.070 CG0
ATOM      9  C   UNL     1      18.195  29.661  30.274  1.00  0.00     0.039 C 
ATOM     10  G   UNL     1      20.226  29.277  28.641  1.00  0.00     0.000 G0
ENDBRANCH   6   7
ENDBRANCH   5   6
ENDBRANCH   3   5
ENDBRANCH   1   3
BRANCH   1  11
ATOM     11  C   UNL     1      22.032  26.851  28.086  1.00  0.00     0.087 C 
BRANCH  11  12
ATOM     12  C   UNL     1      22.555  27.949  29.100  1.00  0.00     0.066 C 
BRANCH  12  13
ATOM     13  C   UNL     1      21.474  28.969  29.531  1.00  0.00     0.140 C 
ATOM     14  O   UNL     1      21.596  29.565  30.591  1.00  0.00    -0.299 OA
BRANCH  13  15
ATOM     15  C   UNL     1      20.248  29.273  28.661  1.00  0.00     0.106 CG0
ATOM     16  G   UNL     1      18.882  28.808  29.229  1.00  0.00     0.000 G0
ENDBRANCH  13  15
ENDBRANCH  12  13
BRANCH  12  17
ATOM     17  C   UNL     1      23.829  28.667  28.556  1.00  0.00    -0.006 C 
ATOM     18  C   UNL     1      24.847  29.031  29.650  1.00  0.00     0.008 C 
ATOM     19  C   UNL     1      24.512  27.846  27.451  1.00  0.00     0.008 C 
ENDBRANCH  12  17
ENDBRANCH  11  12
ENDBRANCH   1  11
TORSDOF 1
ENDMDL
MODEL 2
REMARK VINA RESULT:    -3.903      2.734      5.276
REMARK INTER + INTRA:          -5.385
REMARK INTER:                  -5.488
REMARK INTRA:                   0.103
REMARK UNBOUND:                 0.571
REMARK SMILES CC1=CCC[C@@H](C)C(=O)C[C@@H](C(C)C)C(=O)C1
REMARK SMILES IDX 8 1 9 2 6 3 7 4 5 5 4 6 3 7 2 8 1 9 10 11 11 12 15 13 16 14
REMARK SMILES IDX 17 15 12 17 13 18 14 19
REMARK H PARENT
REMARK Flexibility Score: 70.00
ROOT
ATOM      1  C   UNL     1      17.595  28.795  29.375  1.00  0.00     0.136 C 
ATOM      2  O   UNL     1      16.612  28.076  29.285  1.00  0.00    -0.299 OA
ENDROOT
BRANCH   1   3
ATOM      3  C   UNL     1      18.806  28.493  28.454  1.00  0.00     0.053 C 
ATOM      4  C   UNL     1      18.393  27.620  27.260  1.00  0.00     0.016 C 
BRANCH   3   5
ATOM      5  C   UNL     1      20.054  27.890  29.195  1.00  0.00     0.015 C 
BRANCH   5   6
ATOM      6  C   UNL     1      21.220  28.825  28.977  1.00  0.00     0.028 C 
BRANCH   6   7
ATOM      7  C   UNL     1      22.092  29.376  30.037  1.00  0.00    -0.028 C 
ATOM      8  C   UNL     1      21.807  30.625  30.498  1.00  0.00    -0.070 CG0
ATOM      9  C   UNL     1      22.589  31.137  31.678  1.00  0.00     0.039 C 
ATOM     10  G   UNL     1      20.815  31.576  29.781  1.00  0.00     0.000 G0
ENDBRANCH   6   7
ENDBRANCH   5   6
ENDBRANCH   3   5
ENDBRANCH   1   3
BRANCH   1  11
ATOM     11  C   UNL     1      17.541  29.966  30.375  1.00  0.00     0.087 C 
BRANCH  11  12
ATOM     12  C   UNL     1      18.107  31.340  29.829  1.00  0.00     0.066 C 
BRANCH  12  13
ATOM     13  C   UNL     1      19.444  31.769  30.481  1.00  0.00     0.140 C 
ATOM     14  O   UNL     1      19.438  32.270  31.596  1.00  0.00    -0.299 OA
BRANCH  13  15
ATOM     15  C   UNL     1      20.793  31.574  29.778  1.00  0.00     0.106 CG0
ATOM     16  G   UNL     1      21.799  30.634  30.491  1.00  0.00     0.000 G0
ENDBRANCH  13  15
ENDBRANCH  12  13
BRANCH  12  17
ATOM     17  C   UNL     1      17.041  32.475  29.924  1.00  0.00    -0.006 C 
ATOM     18  C   UNL     1      16.997  33.385  28.684  1.00  0.00     0.008 C 
ATOM     19  C   UNL     1      15.640  31.911  30.214  1.00  0.00     0.008 C 
ENDBRANCH  12  17
ENDBRANCH  11  12
ENDBRANCH   1  11
TORSDOF 1
ENDMDL
MODEL 3
REMARK VINA RESULT:    -3.847      2.984      5.431
REMARK INTER + INTRA:          -5.300
REMARK INTER:                  -5.316
REMARK INTRA:                   0.016
REMARK UNBOUND:                 0.571
REMARK SMILES CC1=CCC[C@@H](C)C(=O)C[C@@H](C(C)C)C(=O)C1
REMARK SMILES IDX 8 1 9 2 6 3 7 4 5 5 4 6 3 7 2 8 1 9 10 11 11 12 15 13 16 14
REMARK SMILES IDX 17 15 12 17 13 18 14 19
REMARK H PARENT
REMARK Flexibility Score: 70.00
ROOT
ATOM      1  C   UNL     1      22.789  28.170  29.340  1.00  0.00     0.136 C 
ATOM      2  O   UNL     1      22.450  27.032  29.055  1.00  0.00    -0.299 OA
ENDROOT
BRANCH   1   3
ATOM      3  C   UNL     1      24.033  28.759  28.625  1.00  0.00     0.053 C 
ATOM      4  C   UNL     1      24.267  28.085  27.266  1.00  0.00     0.016 C 
BRANCH   3   5
ATOM      5  C   UNL     1      25.344  28.761  29.493  1.00  0.00     0.015 C 
BRANCH   5   6
ATOM      6  C   UNL     1      25.238  29.888  30.491  1.00  0.00     0.028 C 
BRANCH   6   7
ATOM      7  C   UNL     1      25.299  31.331  30.170  1.00  0.00    -0.028 C 
ATOM      8  C   UNL     1      24.324  32.130  30.685  1.00  0.00    -0.070 CG0
ATOM      9  C   UNL     1      24.457  33.618  30.495  1.00  0.00     0.039 C 
ATOM     10  G   UNL     1      23.033  31.565  31.333  1.00  0.00     0.000 G0
ENDBRANCH   6   7
ENDBRANCH   5   6
ENDBRANCH   3   5
ENDBRANCH   1   3
BRANCH   1  11
ATOM     11  C   UNL     1      21.934  28.941  30.363  1.00  0.00     0.087 C 
BRANCH  11  12
ATOM     12  C   UNL     1      21.244  30.253  29.806  1.00  0.00     0.066 C 
BRANCH  12  13
ATOM     13  C   UNL     1      21.773  31.558  30.449  1.00  0.00     0.140 C 
ATOM     14  O   UNL     1      21.177  32.608  30.259  1.00  0.00    -0.299 OA
BRANCH  13  15
ATOM     15  C   UNL     1      23.023  31.581  31.335  1.00  0.00     0.106 CG0
ATOM     16  G   UNL     1      24.313  32.133  30.674  1.00  0.00     0.000 G0
ENDBRANCH  13  15
ENDBRANCH  12  13
BRANCH  12  17
ATOM     17  C   UNL     1      19.689  30.164  29.899  1.00  0.00    -0.006 C 
ATOM     18  C   UNL     1      18.982  30.280  28.538  1.00  0.00     0.008 C 
ATOM     19  C   UNL     1      19.239  28.884  30.621  1.00  0.00     0.008 C 
ENDBRANCH  12  17
ENDBRANCH  11  12
ENDBRANCH   1  11
TORSDOF 1
ENDMDL
MODEL 4
REMARK VINA RESULT:    -3.794      1.792      4.322
REMARK INTER + INTRA:          -5.219
REMARK INTER:                  -5.487
REMARK INTRA:                   0.268
REMARK UNBOUND:                 0.571
REMARK SMILES CC1=CCC[C@@H](C)C(=O)C[C@@H](C(C)C)C(=O)C1
REMARK SMILES IDX 8 1 9 2 6 3 7 4 5 5 4 6 3 7 2 8 1 9 10 11 11 12 15 13 16 14
REMARK SMILES IDX 17 15 12 17 13 18 14 19
REMARK H PARENT
REMARK Flexibility Score: 70.00
ROOT
ATOM      1  C   UNL     1      18.336  27.680  27.813  1.00  0.00     0.136 C 
ATOM      2  O   UNL     1      18.413  28.373  26.810  1.00  0.00    -0.299 OA
ENDROOT
BRANCH   1   3
ATOM      3  C   UNL     1      18.327  26.139  27.634  1.00  0.00     0.053 C 
ATOM      4  C   UNL     1      17.392  25.466  28.647  1.00  0.00     0.016 C 
BRANCH   3   5
ATOM      5  C   UNL     1      19.752  25.474  27.644  1.00  0.00     0.015 C 
BRANCH   5   6
ATOM      6  C   UNL     1      20.564  26.134  28.732  1.00  0.00     0.028 C 
BRANCH   6   7
ATOM      7  C   UNL     1      21.870  26.804  28.546  1.00  0.00    -0.028 C 
ATOM      8  C   UNL     1      22.156  27.858  29.359  1.00  0.00    -0.070 CG0
ATOM      9  C   UNL     1      23.537  28.452  29.286  1.00  0.00     0.039 C 
ATOM     10  G   UNL     1      21.087  28.544  30.249  1.00  0.00     0.000 G0
ENDBRANCH   6   7
ENDBRANCH   5   6
ENDBRANCH   3   5
ENDBRANCH   1   3
BRANCH   1  11
ATOM     11  C   UNL     1      18.286  28.392  29.178  1.00  0.00     0.087 C 
BRANCH  11  12
ATOM     12  C   UNL     1      18.957  29.826  29.210  1.00  0.00     0.066 C 
BRANCH  12  13
ATOM     13  C   UNL     1      20.431  29.815  29.681  1.00  0.00     0.140 C 
ATOM     14  O   UNL     1      21.096  30.838  29.604  1.00  0.00    -0.299 OA
BRANCH  13  15
ATOM     15  C   UNL     1      21.094  28.559  30.258  1.00  0.00     0.106 CG0
ATOM     16  G   UNL     1      22.153  27.875  29.355  1.00  0.00     0.000 G0
ENDBRANCH  13  15
ENDBRANCH  12  13
BRANCH  12  17
ATOM     17  C   UNL     1      18.105  30.837  30.038  1.00  0.00    -0.006 C 
ATOM     18  C   UNL     1      17.830  32.160  29.303  1.00  0.00     0.008 C 
ATOM     19  C   UNL     1      16.782  30.209  30.507  1.00  0.00     0.008 C 
ENDBRANCH  12  17
ENDBRANCH  11  12
ENDBRANCH   1  11
TORSDOF 1
ENDMDL
MODEL 5
REMARK VINA RESULT:    -3.739      2.053      5.442
REMARK INTER + INTRA:          -5.135
REMARK INTER:                  -5.067
REMARK INTRA:                  -0.068
REMARK UNBOUND:                 0.571
REMARK SMILES CC1=CCC[C@@H](C)C(=O)C[C@@H](C(C)C)C(=O)C1
REMARK SMILES IDX 8 1 9 2 6 3 7 4 5 5 4 6 3 7 2 8 1 9 10 11 11 12 15 13 16 14
REMARK SMILES IDX 17 15 12 17 13 18 14 19
REMARK H PARENT
REMARK Flexibility Score: 70.00
ROOT
ATOM      1  C   UNL     1      20.462  30.811  30.018  1.00  0.00     0.136 C 
ATOM      2  O   UNL     1      21.032  31.886  30.116  1.00  0.00    -0.299 OA
ENDROOT
BRANCH   1   3
ATOM      3  C   UNL     1      21.082  29.588  30.744  1.00  0.00     0.053 C 
ATOM      4  C   UNL     1      21.403  29.915  32.209  1.00  0.00     0.016 C 
BRANCH   3   5
ATOM      5  C   UNL     1      22.324  28.958  30.015  1.00  0.00     0.015 C 
BRANCH   5   6
ATOM      6  C   UNL     1      21.816  28.165  28.836  1.00  0.00     0.028 C 
BRANCH   6   7
ATOM      7  C   UNL     1      21.133  26.855  28.909  1.00  0.00    -0.028 C 
ATOM      8  C   UNL     1      19.887  26.766  28.367  1.00  0.00    -0.070 CG0
ATOM      9  C   UNL     1      19.242  25.407  28.298  1.00  0.00     0.039 C 
ATOM     10  G   UNL     1      19.065  28.013  27.948  1.00  0.00     0.000 G0
ENDBRANCH   6   7
ENDBRANCH   5   6
ENDBRANCH   3   5
ENDBRANCH   1   3
BRANCH   1  11
ATOM     11  C   UNL     1      19.153  30.761  29.205  1.00  0.00     0.087 C 
BRANCH  11  12
ATOM     12  C   UNL     1      18.066  29.747  29.749  1.00  0.00     0.066 C 
BRANCH  12  13
ATOM     13  C   UNL     1      17.949  28.449  28.915  1.00  0.00     0.140 C 
ATOM     14  O   UNL     1      16.953  27.750  29.023  1.00  0.00    -0.299 OA
BRANCH  13  15
ATOM     15  C   UNL     1      19.044  28.008  27.936  1.00  0.00     0.106 CG0
ATOM     16  G   UNL     1      19.880  26.774  28.365  1.00  0.00     0.000 G0
ENDBRANCH  13  15
ENDBRANCH  12  13
BRANCH  12  17
ATOM     17  C   UNL     1      16.677  30.437  29.920  1.00  0.00    -0.006 C 
ATOM     18  C   UNL     1      16.126  30.368  31.355  1.00  0.00     0.008 C 
ATOM     19  C   UNL     1      16.707  31.896  29.437  1.00  0.00     0.008 C 
ENDBRANCH  12  17
ENDBRANCH  11  12
ENDBRANCH   1  11
TORSDOF 1
ENDMDL
MODEL 6
REMARK VINA RESULT:    -3.730      2.232      4.683
REMARK INTER + INTRA:          -5.121
REMARK INTER:                  -5.325
REMARK INTRA:                   0.204
REMARK UNBOUND:                 0.571
REMARK SMILES CC1=CCC[C@@H](C)C(=O)C[C@@H](C(C)C)C(=O)C1
REMARK SMILES IDX 8 1 9 2 6 3 7 4 5 5 4 6 3 7 2 8 1 9 10 11 11 12 15 13 16 14
REMARK SMILES IDX 17 15 12 17 13 18 14 19
REMARK H PARENT
REMARK Flexibility Score: 70.00
ROOT
ATOM      1  C   UNL     1      21.777  27.773  29.054  1.00  0.00     0.136 C 
ATOM      2  O   UNL     1      22.024  26.638  28.677  1.00  0.00    -0.299 OA
ENDROOT
BRANCH   1   3
ATOM      3  C   UNL     1      22.880  28.851  28.891  1.00  0.00     0.053 C 
ATOM      4  C   UNL     1      23.912  28.437  27.833  1.00  0.00     0.016 C 
BRANCH   3   5
ATOM      5  C   UNL     1      23.579  29.277  30.233  1.00  0.00     0.015 C 
BRANCH   5   6
ATOM      6  C   UNL     1      22.654  30.225  30.958  1.00  0.00     0.028 C 
BRANCH   6   7
ATOM      7  C   UNL     1      22.266  31.574  30.493  1.00  0.00    -0.028 C 
ATOM      8  C   UNL     1      20.941  31.885  30.505  1.00  0.00    -0.070 CG0
ATOM      9  C   UNL     1      20.545  33.301  30.181  1.00  0.00     0.039 C 
ATOM     10  G   UNL     1      19.832  30.820  30.706  1.00  0.00     0.000 G0
ENDBRANCH   6   7
ENDBRANCH   5   6
ENDBRANCH   3   5
ENDBRANCH   1   3
BRANCH   1  11
ATOM     11  C   UNL     1      20.376  28.049  29.634  1.00  0.00     0.087 C 
BRANCH  11  12
ATOM     12  C   UNL     1      19.468  29.008  28.760  1.00  0.00     0.066 C 
BRANCH  12  13
ATOM     13  C   UNL     1      19.094  30.332  29.468  1.00  0.00     0.140 C 
ATOM     14  O   UNL     1      18.180  31.014  29.028  1.00  0.00    -0.299 OA
BRANCH  13  15
ATOM     15  C   UNL     1      19.828  30.820  30.723  1.00  0.00     0.106 CG0
ATOM     16  G   UNL     1      20.928  31.888  30.493  1.00  0.00     0.000 G0
ENDBRANCH  13  15
ENDBRANCH  12  13
BRANCH  12  17
ATOM     17  C   UNL     1      18.198  28.268  28.235  1.00  0.00    -0.006 C 
ATOM     18  C   UNL     1      18.505  26.924  27.553  1.00  0.00     0.008 C 
ATOM     19  C   UNL     1      17.158  28.069  29.349  1.00  0.00     0.008 C 
ENDBRANCH  12  17
ENDBRANCH  11  12
ENDBRANCH   1  11
TORSDOF 1
ENDMDL
MODEL 7
REMARK VINA RESULT:    -3.718      2.804      5.093
REMARK INTER + INTRA:          -5.103
REMARK INTER:                  -5.175
REMARK INTRA:                   0.072
REMARK UNBOUND:                 0.571
REMARK SMILES CC1=CCC[C@@H](C)C(=O)C[C@@H](C(C)C)C(=O)C1
REMARK SMILES IDX 8 1 9 2 6 3 7 4 5 5 4 6 3 7 2 8 1 9 10 11 11 12 15 13 16 14
REMARK SMILES IDX 17 15 12 17 13 18 14 19
REMARK H PARENT
REMARK Flexibility Score: 70.00
ROOT
ATOM      1  C   UNL     1      19.749  29.950  29.059  1.00  0.00     0.136 C 
ATOM      2  O   UNL     1      20.842  30.493  29.016  1.00  0.00    -0.299 OA
ENDROOT
BRANCH   1   3
ATOM      3  C   UNL     1      19.709  28.405  29.197  1.00  0.00     0.053 C 
ATOM      4  C   UNL     1      21.097  27.839  29.526  1.00  0.00     0.016 C 
BRANCH   3   5
ATOM      5  C   UNL     1      19.064  27.659  27.973  1.00  0.00     0.015 C 
BRANCH   5   6
ATOM      6  C   UNL     1      17.575  27.580  28.208  1.00  0.00     0.028 C 
BRANCH   6   7
ATOM      7  C   UNL     1      16.923  27.101  29.446  1.00  0.00    -0.028 C 
ATOM      8  C   UNL     1      16.052  27.945  30.065  1.00  0.00    -0.070 CG0
ATOM      9  C   UNL     1      15.268  27.417  31.236  1.00  0.00     0.039 C 
ATOM     10  G   UNL     1      15.937  29.447  29.696  1.00  0.00     0.000 G0
ENDBRANCH   6   7
ENDBRANCH   5   6
ENDBRANCH   3   5
ENDBRANCH   1   3
BRANCH   1  11
ATOM     11  C   UNL     1      18.497  30.846  29.004  1.00  0.00     0.087 C 
BRANCH  11  12
ATOM     12  C   UNL     1      17.862  31.195  30.412  1.00  0.00     0.066 C 
BRANCH  12  13
ATOM     13  C   UNL     1      16.545  30.438  30.709  1.00  0.00     0.140 C 
ATOM     14  O   UNL     1      15.960  30.636  31.763  1.00  0.00    -0.299 OA
BRANCH  13  15
ATOM     15  C   UNL     1      15.933  29.446  29.712  1.00  0.00     0.106 CG0
ATOM     16  G   UNL     1      16.060  27.946  30.083  1.00  0.00     0.000 G0
ENDBRANCH  13  15
ENDBRANCH  12  13
BRANCH  12  17
ATOM     17  C   UNL     1      17.683  32.734  30.592  1.00  0.00    -0.006 C 
ATOM     18  C   UNL     1      18.937  33.442  31.133  1.00  0.00     0.008 C 
ATOM     19  C   UNL     1      17.220  33.406  29.289  1.00  0.00     0.008 C 
ENDBRANCH  12  17
ENDBRANCH  11  12
ENDBRANCH   1  11
TORSDOF 1
ENDMDL
MODEL 8
REMARK VINA RESULT:    -3.689      1.765      2.378
REMARK INTER + INTRA:          -5.058
REMARK INTER:                  -5.079
REMARK INTRA:                   0.020
REMARK UNBOUND:                 0.571
REMARK SMILES CC1=CCC[C@@H](C)C(=O)C[C@@H](C(C)C)C(=O)C1
REMARK SMILES IDX 8 1 9 2 6 3 7 4 5 5 4 6 3 7 2 8 1 9 10 11 11 12 15 13 16 14
REMARK SMILES IDX 17 15 12 17 13 18 14 19
REMARK H PARENT
REMARK Flexibility Score: 70.00
ROOT
ATOM      1  C   UNL     1      21.702  27.585  28.695  1.00  0.00     0.136 C 
ATOM      2  O   UNL     1      22.727  27.101  28.240  1.00  0.00    -0.299 OA
ENDROOT
BRANCH   1   3
ATOM      3  C   UNL     1      20.519  26.630  29.000  1.00  0.00     0.053 C 
ATOM      4  C   UNL     1      21.018  25.231  29.389  1.00  0.00     0.016 C 
BRANCH   3   5
ATOM      5  C   UNL     1      19.435  26.552  27.864  1.00  0.00     0.015 C 
BRANCH   5   6
ATOM      6  C   UNL     1      18.620  27.822  27.913  1.00  0.00     0.028 C 
BRANCH   6   7
ATOM      7  C   UNL     1      17.626  28.168  28.953  1.00  0.00    -0.028 C 
ATOM      8  C   UNL     1      17.687  29.419  29.488  1.00  0.00    -0.070 CG0
ATOM      9  C   UNL     1      16.593  29.836  30.433  1.00  0.00     0.039 C 
ATOM     10  G   UNL     1      18.894  30.367  29.266  1.00  0.00     0.000 G0
ENDBRANCH   6   7
ENDBRANCH   5   6
ENDBRANCH   3   5
ENDBRANCH   1   3
BRANCH   1  11
ATOM     11  C   UNL     1      21.679  29.102  28.961  1.00  0.00     0.087 C 
BRANCH  11  12
ATOM     12  C   UNL     1      21.184  29.521  30.406  1.00  0.00     0.066 C 
BRANCH  12  13
ATOM     13  C   UNL     1      19.929  30.426  30.399  1.00  0.00     0.140 C 
ATOM     14  O   UNL     1      19.746  31.211  31.317  1.00  0.00    -0.299 OA
BRANCH  13  15
ATOM     15  C   UNL     1      18.900  30.383  29.262  1.00  0.00     0.106 CG0
ATOM     16  G   UNL     1      17.694  29.431  29.475  1.00  0.00     0.000 G0
ENDBRANCH  13  15
ENDBRANCH  12  13
BRANCH  12  17
ATOM     17  C   UNL     1      22.337  30.158  31.242  1.00  0.00    -0.006 C 
ATOM     18  C   UNL     1      22.361  29.699  32.710  1.00  0.00     0.008 C 
ATOM     19  C   UNL     1      23.708  29.916  30.591  1.00  0.00     0.008 C 
ENDBRANCH  12  17
ENDBRANCH  11  12
ENDBRANCH   1  11
TORSDOF 1
ENDMDL
MODEL 9
REMARK VINA RESULT:    -3.645      2.269      4.653
REMARK INTER + INTRA:          -4.991
REMARK INTER:                  -4.761
REMARK INTRA:                  -0.230
REMARK UNBOUND:                 0.571
REMARK SMILES CC1=CCC[C@@H](C)C(=O)C[C@@H](C(C)C)C(=O)C1
REMARK SMILES IDX 8 1 9 2 6 3 7 4 5 5 4 6 3 7 2 8 1 9 10 11 11 12 15 13 16 14
REMARK SMILES IDX 17 15 12 17 13 18 14 19
REMARK H PARENT
REMARK Flexibility Score: 70.00
ROOT
ATOM      1  C   UNL     1      17.705  29.209  29.716  1.00  0.00     0.136 C 
ATOM      2  O   UNL     1      16.896  30.053  29.362  1.00  0.00    -0.299 OA
ENDROOT
BRANCH   1   3
ATOM      3  C   UNL     1      17.520  28.565  31.115  1.00  0.00     0.053 C 
ATOM      4  C   UNL     1      16.150  27.884  31.237  1.00  0.00     0.016 C 
BRANCH   3   5
ATOM      5  C   UNL     1      17.783  29.539  32.320  1.00  0.00     0.015 C 
BRANCH   5   6
ATOM      6  C   UNL     1      19.276  29.714  32.459  1.00  0.00     0.028 C 
BRANCH   6   7
ATOM      7  C   UNL     1      20.046  30.903  32.033  1.00  0.00    -0.028 C 
ATOM      8  C   UNL     1      21.097  30.701  31.191  1.00  0.00    -0.070 CG0
ATOM      9  C   UNL     1      21.795  31.911  30.630  1.00  0.00     0.039 C 
ATOM     10  G   UNL     1      21.678  29.293  30.899  1.00  0.00     0.000 G0
ENDBRANCH   6   7
ENDBRANCH   5   6
ENDBRANCH   3   5
ENDBRANCH   1   3
BRANCH   1  11
ATOM     11  C   UNL     1      18.826  28.829  28.730  1.00  0.00     0.087 C 
BRANCH  11  12
ATOM     12  C   UNL     1      19.967  27.914  29.335  1.00  0.00     0.066 C 
BRANCH  12  13
ATOM     13  C   UNL     1      21.311  28.651  29.550  1.00  0.00     0.140 C 
ATOM     14  O   UNL     1      22.100  28.750  28.621  1.00  0.00    -0.299 OA
BRANCH  13  15
ATOM     15  C   UNL     1      21.690  29.278  30.897  1.00  0.00     0.106 CG0
ATOM     16  G   UNL     1      21.102  30.686  31.178  1.00  0.00     0.000 G0
ENDBRANCH  13  15
ENDBRANCH  12  13
BRANCH  12  17
ATOM     17  C   UNL     1      20.162  26.614  28.495  1.00  0.00    -0.006 C 
ATOM     18  C   UNL     1      21.165  25.624  29.112  1.00  0.00     0.008 C 
ATOM     19  C   UNL     1      18.823  25.908  28.227  1.00  0.00     0.008 C 
ENDBRANCH  12  17
ENDBRANCH  11  12
ENDBRANCH   1  11
TORSDOF 1
ENDMDL
