MODEL 1
REMARK VINA RESULT:    -2.474      0.000      0.000
REMARK INTER + INTRA:          -6.495
REMARK INTER:                  -5.367
REMARK INTRA:                  -1.129
REMARK UNBOUND:                -1.129
REMARK SMILES CCCCCCCCCCCCCCCCCCCCCC(=O)[O-]
REMARK SMILES IDX 12 1 11 2 10 3 9 4 8 5 7 6 6 7 5 8 4 9 3 10 2 11 1 12 13 13
REMARK SMILES IDX 14 14 15 15 16 16 17 17 18 18 19 19 20 20 21 21 22 22 23 23
REMARK SMILES IDX 24 24
REMARK H PARENT
REMARK Flexibility Score: inf
ROOT
ATOM      1  C   UNL     1       6.297  -9.120  -0.007  1.00  0.00     0.000 C 
ENDROOT
BRANCH   1   2
ATOM      2  C   UNL     1       6.508  -9.120   1.517  1.00  0.00     0.000 C 
BRANCH   2   3
ATOM      3  C   UNL     1       7.833  -8.460   1.929  1.00  0.00     0.000 C 
BRANCH   3   4
ATOM      4  C   UNL     1       7.968  -8.295   3.455  1.00  0.00    -0.000 C 
BRANCH   4   5
ATOM      5  C   UNL     1       6.638  -7.925   4.130  1.00  0.00    -0.000 C 
BRANCH   5   6
ATOM      6  C   UNL     1       6.748  -6.664   5.004  1.00  0.00    -0.000 C 
BRANCH   6   7
ATOM      7  C   UNL     1       7.931  -5.760   4.609  1.00  0.00    -0.000 C 
BRANCH   7   8
ATOM      8  C   UNL     1       8.932  -5.453   5.739  1.00  0.00    -0.000 C 
BRANCH   8   9
ATOM      9  C   UNL     1       9.107  -6.624   6.720  1.00  0.00    -0.000 C 
BRANCH   9  10
ATOM     10  C   UNL     1       8.601  -6.300   8.138  1.00  0.00    -0.000 C 
BRANCH  10  11
ATOM     11  C   UNL     1       7.310  -7.030   8.554  1.00  0.00    -0.003 C 
ATOM     12  C   UNL     1       6.392  -6.176   9.427  1.00  0.00     0.004 C 
ENDBRANCH  10  11
ENDBRANCH   9  10
ENDBRANCH   8   9
ENDBRANCH   7   8
ENDBRANCH   6   7
ENDBRANCH   5   6
ENDBRANCH   4   5
ENDBRANCH   3   4
ENDBRANCH   2   3
ENDBRANCH   1   2
BRANCH   1  13
ATOM     13  C   UNL     1       7.619  -9.063  -0.795  1.00  0.00     0.000 C 
BRANCH  13  14
ATOM     14  C   UNL     1       7.487  -8.642  -2.271  1.00  0.00     0.000 C 
BRANCH  14  15
ATOM     15  C   UNL     1       8.841  -8.582  -2.999  1.00  0.00     0.000 C 
BRANCH  15  16
ATOM     16  C   UNL     1       8.769  -9.114  -4.440  1.00  0.00     0.000 C 
BRANCH  16  17
ATOM     17  C   UNL     1       8.302  -8.090  -5.493  1.00  0.00     0.000 C 
BRANCH  17  18
ATOM     18  C   UNL     1       6.770  -8.021  -5.660  1.00  0.00     0.000 C 
BRANCH  18  19
ATOM     19  C   UNL     1       6.351  -7.953  -7.140  1.00  0.00     0.000 C 
BRANCH  19  20
ATOM     20  C   UNL     1       5.076  -7.122  -7.352  1.00  0.00     0.006 C 
BRANCH  20  21
ATOM     21  C   UNL     1       5.380  -5.665  -7.723  1.00  0.00     0.053 C 
BRANCH  21  22
ATOM     22  C   UNL     1       6.113  -4.986  -6.610  1.00  0.00     0.041 C 
ATOM     23  O   UNL     1       7.319  -4.655  -6.755  1.00  0.00    -0.550 OA
ATOM     24  O   UNL     1       5.482  -4.773  -5.391  1.00  0.00    -0.550 OA
ENDBRANCH  21  22
ENDBRANCH  20  21
ENDBRANCH  19  20
ENDBRANCH  18  19
ENDBRANCH  17  18
ENDBRANCH  16  17
ENDBRANCH  15  16
ENDBRANCH  14  15
ENDBRANCH  13  14
ENDBRANCH   1  13
TORSDOF 20
ENDMDL
MODEL 2
REMARK VINA RESULT:    -1.612      5.822     10.479
REMARK INTER + INTRA:          -4.625
REMARK INTER:                  -3.726
REMARK INTRA:                  -0.899
REMARK UNBOUND:                -1.129
REMARK SMILES CCCCCCCCCCCCCCCCCCCCCC(=O)[O-]
REMARK SMILES IDX 12 1 11 2 10 3 9 4 8 5 7 6 6 7 5 8 4 9 3 10 2 11 1 12 13 13
REMARK SMILES IDX 14 14 15 15 16 16 17 17 18 18 19 19 20 20 21 21 22 22 23 23
REMARK SMILES IDX 24 24
REMARK H PARENT
REMARK Flexibility Score: inf
ROOT
ATOM      1  C   UNL     1       4.705  -4.044  -8.817  1.00  0.00     0.000 C 
ENDROOT
BRANCH   1   2
ATOM      2  C   UNL     1       4.953  -4.831 -10.116  1.00  0.00     0.000 C 
BRANCH   2   3
ATOM      3  C   UNL     1       5.249  -6.317  -9.857  1.00  0.00     0.000 C 
BRANCH   3   4
ATOM      4  C   UNL     1       6.757  -6.626  -9.813  1.00  0.00    -0.000 C 
BRANCH   4   5
ATOM      5  C   UNL     1       7.053  -8.134  -9.845  1.00  0.00    -0.000 C 
BRANCH   5   6
ATOM      6  C   UNL     1       6.153  -8.934  -8.888  1.00  0.00    -0.000 C 
BRANCH   6   7
ATOM      7  C   UNL     1       6.768  -9.108  -7.487  1.00  0.00    -0.000 C 
BRANCH   7   8
ATOM      8  C   UNL     1       6.043  -8.364  -6.351  1.00  0.00    -0.000 C 
BRANCH   8   9
ATOM      9  C   UNL     1       6.993  -7.905  -5.232  1.00  0.00    -0.000 C 
BRANCH   9  10
ATOM     10  C   UNL     1       7.928  -9.026  -4.741  1.00  0.00    -0.000 C 
BRANCH  10  11
ATOM     11  C   UNL     1       9.034  -8.576  -3.768  1.00  0.00    -0.003 C 
ATOM     12  C   UNL     1       8.573  -8.532  -2.313  1.00  0.00     0.004 C 
ENDBRANCH  10  11
ENDBRANCH   9  10
ENDBRANCH   8   9
ENDBRANCH   7   8
ENDBRANCH   6   7
ENDBRANCH   5   6
ENDBRANCH   4   5
ENDBRANCH   3   4
ENDBRANCH   2   3
ENDBRANCH   1   2
BRANCH   1  13
ATOM     13  C   UNL     1       3.431  -3.181  -8.873  1.00  0.00     0.000 C 
BRANCH  13  14
ATOM     14  C   UNL     1       3.510  -1.949  -9.794  1.00  0.00     0.000 C 
BRANCH  14  15
ATOM     15  C   UNL     1       4.709  -1.039  -9.473  1.00  0.00     0.000 C 
BRANCH  15  16
ATOM     16  C   UNL     1       6.026  -1.549 -10.082  1.00  0.00     0.000 C 
BRANCH  16  17
ATOM     17  C   UNL     1       7.169  -0.517 -10.125  1.00  0.00     0.000 C 
BRANCH  17  18
ATOM     18  C   UNL     1       8.577  -1.141 -10.019  1.00  0.00     0.000 C 
BRANCH  18  19
ATOM     19  C   UNL     1       8.786  -1.875  -8.682  1.00  0.00     0.000 C 
BRANCH  19  20
ATOM     20  C   UNL     1       8.410  -3.362  -8.763  1.00  0.00     0.006 C 
BRANCH  20  21
ATOM     21  C   UNL     1       9.092  -4.199  -7.673  1.00  0.00     0.053 C 
BRANCH  21  22
ATOM     22  C   UNL     1       8.097  -4.614  -6.635  1.00  0.00     0.041 C 
ATOM     23  O   UNL     1       6.879  -4.327  -6.776  1.00  0.00    -0.550 OA
ATOM     24  O   UNL     1       8.523  -5.264  -5.484  1.00  0.00    -0.550 OA
ENDBRANCH  21  22
ENDBRANCH  20  21
ENDBRANCH  19  20
ENDBRANCH  18  19
ENDBRANCH  17  18
ENDBRANCH  16  17
ENDBRANCH  15  16
ENDBRANCH  14  15
ENDBRANCH  13  14
ENDBRANCH   1  13
TORSDOF 20
ENDMDL
MODEL 3
REMARK VINA RESULT:    -1.545      7.277     10.856
REMARK INTER + INTRA:          -4.479
REMARK INTER:                  -3.819
REMARK INTRA:                  -0.661
REMARK UNBOUND:                -1.129
REMARK SMILES CCCCCCCCCCCCCCCCCCCCCC(=O)[O-]
REMARK SMILES IDX 12 1 11 2 10 3 9 4 8 5 7 6 6 7 5 8 4 9 3 10 2 11 1 12 13 13
REMARK SMILES IDX 14 14 15 15 16 16 17 17 18 18 19 19 20 20 21 21 22 22 23 23
REMARK SMILES IDX 24 24
REMARK H PARENT
REMARK Flexibility Score: inf
ROOT
ATOM      1  C   UNL     1       4.630  -5.544  -6.103  1.00  0.00     0.000 C 
ENDROOT
BRANCH   1   2
ATOM      2  C   UNL     1       6.079  -5.028  -6.117  1.00  0.00     0.000 C 
BRANCH   2   3
ATOM      3  C   UNL     1       6.573  -4.696  -7.533  1.00  0.00     0.000 C 
BRANCH   3   4
ATOM      4  C   UNL     1       7.893  -3.901  -7.534  1.00  0.00    -0.000 C 
BRANCH   4   5
ATOM      5  C   UNL     1       9.001  -4.594  -8.342  1.00  0.00    -0.000 C 
BRANCH   5   6
ATOM      6  C   UNL     1       9.029  -4.146  -9.813  1.00  0.00    -0.000 C 
BRANCH   6   7
ATOM      7  C   UNL     1       8.992  -2.615  -9.977  1.00  0.00    -0.000 C 
BRANCH   7   8
ATOM      8  C   UNL     1       7.810  -1.906  -9.291  1.00  0.00    -0.000 C 
BRANCH   8   9
ATOM      9  C   UNL     1       6.518  -1.949 -10.124  1.00  0.00    -0.000 C 
BRANCH   9  10
ATOM     10  C   UNL     1       5.501  -0.869  -9.711  1.00  0.00    -0.000 C 
BRANCH  10  11
ATOM     11  C   UNL     1       4.027  -1.313  -9.744  1.00  0.00    -0.003 C 
ATOM     12  C   UNL     1       3.830  -2.773  -9.341  1.00  0.00     0.004 C 
ENDBRANCH  10  11
ENDBRANCH   9  10
ENDBRANCH   8   9
ENDBRANCH   7   8
ENDBRANCH   6   7
ENDBRANCH   5   6
ENDBRANCH   4   5
ENDBRANCH   3   4
ENDBRANCH   2   3
ENDBRANCH   1   2
BRANCH   1  13
ATOM     13  C   UNL     1       4.357  -6.538  -4.959  1.00  0.00     0.000 C 
BRANCH  13  14
ATOM     14  C   UNL     1       5.157  -7.853  -5.025  1.00  0.00     0.000 C 
BRANCH  14  15
ATOM     15  C   UNL     1       6.554  -7.735  -4.392  1.00  0.00     0.000 C 
BRANCH  15  16
ATOM     16  C   UNL     1       7.665  -7.514  -5.433  1.00  0.00     0.000 C 
BRANCH  16  17
ATOM     17  C   UNL     1       8.466  -8.774  -5.812  1.00  0.00     0.000 C 
BRANCH  17  18
ATOM     18  C   UNL     1       8.669  -8.950  -7.332  1.00  0.00     0.000 C 
BRANCH  18  19
ATOM     19  C   UNL     1       7.334  -9.119  -8.079  1.00  0.00     0.000 C 
BRANCH  19  20
ATOM     20  C   UNL     1       6.776  -7.785  -8.597  1.00  0.00     0.006 C 
BRANCH  20  21
ATOM     21  C   UNL     1       6.151  -7.913  -9.992  1.00  0.00     0.053 C 
BRANCH  21  22
ATOM     22  C   UNL     1       4.676  -7.668  -9.927  1.00  0.00     0.041 C 
ATOM     23  O   UNL     1       3.869  -8.619 -10.093  1.00  0.00    -0.550 OA
ATOM     24  O   UNL     1       4.194  -6.378  -9.743  1.00  0.00    -0.550 OA
ENDBRANCH  21  22
ENDBRANCH  20  21
ENDBRANCH  19  20
ENDBRANCH  18  19
ENDBRANCH  17  18
ENDBRANCH  16  17
ENDBRANCH  15  16
ENDBRANCH  14  15
ENDBRANCH  13  14
ENDBRANCH   1  13
TORSDOF 20
ENDMDL
MODEL 4
REMARK VINA RESULT:    -1.023      1.745      2.314
REMARK INTER + INTRA:          -3.349
REMARK INTER:                  -2.413
REMARK INTRA:                  -0.935
REMARK UNBOUND:                -1.129
REMARK SMILES CCCCCCCCCCCCCCCCCCCCCC(=O)[O-]
REMARK SMILES IDX 12 1 11 2 10 3 9 4 8 5 7 6 6 7 5 8 4 9 3 10 2 11 1 12 13 13
REMARK SMILES IDX 14 14 15 15 16 16 17 17 18 18 19 19 20 20 21 21 22 22 23 23
REMARK SMILES IDX 24 24
REMARK H PARENT
REMARK Flexibility Score: inf
ROOT
ATOM      1  C   UNL     1       5.692  -8.125   0.237  1.00  0.00     0.000 C 
ENDROOT
BRANCH   1   2
ATOM      2  C   UNL     1       5.958  -9.095   1.401  1.00  0.00     0.000 C 
BRANCH   2   3
ATOM      3  C   UNL     1       7.119  -8.637   2.296  1.00  0.00     0.000 C 
BRANCH   3   4
ATOM      4  C   UNL     1       6.751  -8.626   3.792  1.00  0.00    -0.000 C 
BRANCH   4   5
ATOM      5  C   UNL     1       6.684  -7.205   4.374  1.00  0.00    -0.000 C 
BRANCH   5   6
ATOM      6  C   UNL     1       7.469  -7.067   5.690  1.00  0.00    -0.000 C 
BRANCH   6   7
ATOM      7  C   UNL     1       7.253  -8.253   6.647  1.00  0.00    -0.000 C 
BRANCH   7   8
ATOM      8  C   UNL     1       5.874  -8.308   7.330  1.00  0.00    -0.000 C 
BRANCH   8   9
ATOM      9  C   UNL     1       5.964  -8.339   8.864  1.00  0.00    -0.000 C 
BRANCH   9  10
ATOM     10  C   UNL     1       7.166  -7.548   9.412  1.00  0.00    -0.000 C 
BRANCH  10  11
ATOM     11  C   UNL     1       6.895  -6.058   9.693  1.00  0.00    -0.003 C 
ATOM     12  C   UNL     1       5.418  -5.752   9.936  1.00  0.00     0.004 C 
ENDBRANCH  10  11
ENDBRANCH   9  10
ENDBRANCH   8   9
ENDBRANCH   7   8
ENDBRANCH   6   7
ENDBRANCH   5   6
ENDBRANCH   4   5
ENDBRANCH   3   4
ENDBRANCH   2   3
ENDBRANCH   1   2
BRANCH   1  13
ATOM     13  C   UNL     1       6.167  -8.674  -1.122  1.00  0.00     0.000 C 
BRANCH  13  14
ATOM     14  C   UNL     1       7.688  -8.874  -1.254  1.00  0.00     0.000 C 
BRANCH  14  15
ATOM     15  C   UNL     1       8.153  -8.979  -2.717  1.00  0.00     0.000 C 
BRANCH  15  16
ATOM     16  C   UNL     1       9.020  -7.787  -3.155  1.00  0.00     0.000 C 
BRANCH  16  17
ATOM     17  C   UNL     1       9.123  -7.578  -4.678  1.00  0.00     0.000 C 
BRANCH  17  18
ATOM     18  C   UNL     1       7.757  -7.423  -5.379  1.00  0.00     0.000 C 
BRANCH  18  19
ATOM     19  C   UNL     1       7.567  -8.450  -6.511  1.00  0.00     0.000 C 
BRANCH  19  20
ATOM     20  C   UNL     1       6.159  -8.396  -7.123  1.00  0.00     0.006 C 
BRANCH  20  21
ATOM     21  C   UNL     1       6.188  -8.179  -8.641  1.00  0.00     0.053 C 
BRANCH  21  22
ATOM     22  C   UNL     1       6.721  -6.818  -8.963  1.00  0.00     0.041 C 
ATOM     23  O   UNL     1       5.939  -5.900  -9.324  1.00  0.00    -0.550 OA
ATOM     24  O   UNL     1       8.089  -6.580  -8.921  1.00  0.00    -0.550 OA
ENDBRANCH  21  22
ENDBRANCH  20  21
ENDBRANCH  19  20
ENDBRANCH  18  19
ENDBRANCH  17  18
ENDBRANCH  16  17
ENDBRANCH  15  16
ENDBRANCH  14  15
ENDBRANCH  13  14
ENDBRANCH   1  13
TORSDOF 20
ENDMDL
MODEL 5
REMARK VINA RESULT:    -0.938     14.084     18.099
REMARK INTER + INTRA:          -3.164
REMARK INTER:                  -1.831
REMARK INTRA:                  -1.332
REMARK UNBOUND:                -1.129
REMARK SMILES CCCCCCCCCCCCCCCCCCCCCC(=O)[O-]
REMARK SMILES IDX 12 1 11 2 10 3 9 4 8 5 7 6 6 7 5 8 4 9 3 10 2 11 1 12 13 13
REMARK SMILES IDX 14 14 15 15 16 16 17 17 18 18 19 19 20 20 21 21 22 22 23 23
REMARK SMILES IDX 24 24
REMARK H PARENT
REMARK Flexibility Score: inf
ROOT
ATOM      1  C   UNL     1       6.143   6.838   5.681  1.00  0.00     0.000 C 
ENDROOT
BRANCH   1   2
ATOM      2  C   UNL     1       4.956   6.178   4.958  1.00  0.00     0.000 C 
BRANCH   2   3
ATOM      3  C   UNL     1       4.811   4.688   5.302  1.00  0.00     0.000 C 
BRANCH   3   4
ATOM      4  C   UNL     1       4.126   3.881   4.183  1.00  0.00    -0.000 C 
BRANCH   4   5
ATOM      5  C   UNL     1       3.153   4.732   3.351  1.00  0.00    -0.000 C 
BRANCH   5   6
ATOM      6  C   UNL     1       3.798   5.283   2.067  1.00  0.00    -0.000 C 
BRANCH   6   7
ATOM      7  C   UNL     1       2.814   5.359   0.885  1.00  0.00    -0.000 C 
BRANCH   7   8
ATOM      8  C   UNL     1       1.322   5.335   1.266  1.00  0.00    -0.000 C 
BRANCH   8   9
ATOM      9  C   UNL     1       0.391   5.270   0.044  1.00  0.00    -0.000 C 
BRANCH   9  10
ATOM     10  C   UNL     1      -0.078   3.838  -0.278  1.00  0.00    -0.000 C 
BRANCH  10  11
ATOM     11  C   UNL     1      -1.603   3.628  -0.248  1.00  0.00    -0.003 C 
ATOM     12  C   UNL     1      -2.342   4.702   0.548  1.00  0.00     0.004 C 
ENDBRANCH  10  11
ENDBRANCH   9  10
ENDBRANCH   8   9
ENDBRANCH   7   8
ENDBRANCH   6   7
ENDBRANCH   5   6
ENDBRANCH   4   5
ENDBRANCH   3   4
ENDBRANCH   2   3
ENDBRANCH   1   2
BRANCH   1  13
ATOM     13  C   UNL     1       6.567   6.080   6.953  1.00  0.00     0.000 C 
BRANCH  13  14
ATOM     14  C   UNL     1       5.794   6.456   8.231  1.00  0.00     0.000 C 
BRANCH  14  15
ATOM     15  C   UNL     1       6.620   6.246   9.512  1.00  0.00     0.000 C 
BRANCH  15  16
ATOM     16  C   UNL     1       7.312   7.532   9.994  1.00  0.00     0.000 C 
BRANCH  16  17
ATOM     17  C   UNL     1       6.426   8.793   9.990  1.00  0.00     0.000 C 
BRANCH  17  18
ATOM     18  C   UNL     1       6.903   9.887   9.013  1.00  0.00     0.000 C 
BRANCH  18  19
ATOM     19  C   UNL     1       5.743  10.769   8.519  1.00  0.00     0.000 C 
BRANCH  19  20
ATOM     20  C   UNL     1       5.827  11.065   7.014  1.00  0.00     0.006 C 
BRANCH  20  21
ATOM     21  C   UNL     1       6.921  10.246   6.317  1.00  0.00     0.053 C 
BRANCH  21  22
ATOM     22  C   UNL     1       7.002  10.611   4.868  1.00  0.00     0.041 C 
ATOM     23  O   UNL     1       8.118  10.649   4.286  1.00  0.00    -0.550 OA
ATOM     24  O   UNL     1       5.851  10.966   4.176  1.00  0.00    -0.550 OA
ENDBRANCH  21  22
ENDBRANCH  20  21
ENDBRANCH  19  20
ENDBRANCH  18  19
ENDBRANCH  17  18
ENDBRANCH  16  17
ENDBRANCH  15  16
ENDBRANCH  14  15
ENDBRANCH  13  14
ENDBRANCH   1  13
TORSDOF 20
ENDMDL
MODEL 6
REMARK VINA RESULT:    -0.896     14.517     18.622
REMARK INTER + INTRA:          -3.073
REMARK INTER:                  -1.498
REMARK INTRA:                  -1.575
REMARK UNBOUND:                -1.129
REMARK SMILES CCCCCCCCCCCCCCCCCCCCCC(=O)[O-]
REMARK SMILES IDX 12 1 11 2 10 3 9 4 8 5 7 6 6 7 5 8 4 9 3 10 2 11 1 12 13 13
REMARK SMILES IDX 14 14 15 15 16 16 17 17 18 18 19 19 20 20 21 21 22 22 23 23
REMARK SMILES IDX 24 24
REMARK H PARENT
REMARK Flexibility Score: inf
ROOT
ATOM      1  C   UNL     1       6.794   7.972   5.268  1.00  0.00     0.000 C 
ENDROOT
BRANCH   1   2
ATOM      2  C   UNL     1       5.410   7.305   5.174  1.00  0.00     0.000 C 
BRANCH   2   3
ATOM      3  C   UNL     1       5.299   6.344   3.980  1.00  0.00     0.000 C 
BRANCH   3   4
ATOM      4  C   UNL     1       4.345   5.165   4.251  1.00  0.00    -0.000 C 
BRANCH   4   5
ATOM      5  C   UNL     1       3.503   4.791   3.021  1.00  0.00    -0.000 C 
BRANCH   5   6
ATOM      6  C   UNL     1       3.997   5.477   1.735  1.00  0.00    -0.000 C 
BRANCH   6   7
ATOM      7  C   UNL     1       2.861   5.782   0.741  1.00  0.00    -0.000 C 
BRANCH   7   8
ATOM      8  C   UNL     1       1.475   5.242   1.137  1.00  0.00    -0.000 C 
BRANCH   8   9
ATOM      9  C   UNL     1       0.488   5.199  -0.041  1.00  0.00    -0.000 C 
BRANCH   9  10
ATOM     10  C   UNL     1      -0.248   3.852  -0.160  1.00  0.00    -0.000 C 
BRANCH  10  11
ATOM     11  C   UNL     1      -1.772   3.954  -0.361  1.00  0.00    -0.003 C 
ATOM     12  C   UNL     1      -2.471   4.751   0.739  1.00  0.00     0.004 C 
ENDBRANCH  10  11
ENDBRANCH   9  10
ENDBRANCH   8   9
ENDBRANCH   7   8
ENDBRANCH   6   7
ENDBRANCH   5   6
ENDBRANCH   4   5
ENDBRANCH   3   4
ENDBRANCH   2   3
ENDBRANCH   1   2
BRANCH   1  13
ATOM     13  C   UNL     1       7.040   9.000   4.148  1.00  0.00     0.000 C 
BRANCH  13  14
ATOM     14  C   UNL     1       6.452  10.401   4.400  1.00  0.00     0.000 C 
BRANCH  14  15
ATOM     15  C   UNL     1       6.322  10.734   5.897  1.00  0.00     0.000 C 
BRANCH  15  16
ATOM     16  C   UNL     1       7.665  11.114   6.543  1.00  0.00     0.000 C 
BRANCH  16  17
ATOM     17  C   UNL     1       7.732  10.924   8.071  1.00  0.00     0.000 C 
BRANCH  17  18
ATOM     18  C   UNL     1       6.359  10.671   8.729  1.00  0.00     0.000 C 
BRANCH  18  19
ATOM     19  C   UNL     1       6.492  10.022  10.118  1.00  0.00     0.000 C 
BRANCH  19  20
ATOM     20  C   UNL     1       6.814   8.522  10.037  1.00  0.00     0.006 C 
BRANCH  20  21
ATOM     21  C   UNL     1       6.054   7.819   8.905  1.00  0.00     0.053 C 
BRANCH  21  22
ATOM     22  C   UNL     1       6.366   6.356   8.896  1.00  0.00     0.041 C 
ATOM     23  O   UNL     1       6.029   5.643   7.915  1.00  0.00    -0.550 OA
ATOM     24  O   UNL     1       6.977   5.770   9.998  1.00  0.00    -0.550 OA
ENDBRANCH  21  22
ENDBRANCH  20  21
ENDBRANCH  19  20
ENDBRANCH  18  19
ENDBRANCH  17  18
ENDBRANCH  16  17
ENDBRANCH  15  16
ENDBRANCH  14  15
ENDBRANCH  13  14
ENDBRANCH   1  13
TORSDOF 20
ENDMDL
MODEL 7
REMARK VINA RESULT:    -0.757     16.560     19.368
REMARK INTER + INTRA:          -2.770
REMARK INTER:                  -1.001
REMARK INTRA:                  -1.769
REMARK UNBOUND:                -1.129
REMARK SMILES CCCCCCCCCCCCCCCCCCCCCC(=O)[O-]
REMARK SMILES IDX 12 1 11 2 10 3 9 4 8 5 7 6 6 7 5 8 4 9 3 10 2 11 1 12 13 13
REMARK SMILES IDX 14 14 15 15 16 16 17 17 18 18 19 19 20 20 21 21 22 22 23 23
REMARK SMILES IDX 24 24
REMARK H PARENT
REMARK Flexibility Score: inf
ROOT
ATOM      1  C   UNL     1      -8.107  -4.223   6.620  1.00  0.00     0.000 C 
ENDROOT
BRANCH   1   2
ATOM      2  C   UNL     1      -9.337  -4.019   5.720  1.00  0.00     0.000 C 
BRANCH   2   3
ATOM      3  C   UNL     1     -10.649  -3.963   6.519  1.00  0.00     0.000 C 
BRANCH   3   4
ATOM      4  C   UNL     1     -11.076  -5.340   7.063  1.00  0.00    -0.000 C 
BRANCH   4   5
ATOM      5  C   UNL     1     -11.125  -5.379   8.599  1.00  0.00    -0.000 C 
BRANCH   5   6
ATOM      6  C   UNL     1     -10.027  -4.520   9.249  1.00  0.00    -0.000 C 
BRANCH   6   7
ATOM      7  C   UNL     1     -10.590  -3.384  10.123  1.00  0.00    -0.000 C 
BRANCH   7   8
ATOM      8  C   UNL     1     -11.115  -2.158   9.354  1.00  0.00    -0.000 C 
BRANCH   8   9
ATOM      9  C   UNL     1      -9.990  -1.276   8.788  1.00  0.00    -0.000 C 
BRANCH   9  10
ATOM     10  C   UNL     1      -9.062  -0.712   9.880  1.00  0.00    -0.000 C 
BRANCH  10  11
ATOM     11  C   UNL     1      -7.766  -0.060   9.365  1.00  0.00    -0.003 C 
ATOM     12  C   UNL     1      -7.389   1.211  10.125  1.00  0.00     0.004 C 
ENDBRANCH  10  11
ENDBRANCH   9  10
ENDBRANCH   8   9
ENDBRANCH   7   8
ENDBRANCH   6   7
ENDBRANCH   5   6
ENDBRANCH   4   5
ENDBRANCH   3   4
ENDBRANCH   2   3
ENDBRANCH   1   2
BRANCH   1  13
ATOM     13  C   UNL     1      -7.137  -5.289   6.077  1.00  0.00     0.000 C 
BRANCH  13  14
ATOM     14  C   UNL     1      -7.281  -6.689   6.705  1.00  0.00     0.000 C 
BRANCH  14  15
ATOM     15  C   UNL     1      -8.608  -7.375   6.339  1.00  0.00     0.000 C 
BRANCH  15  16
ATOM     16  C   UNL     1      -9.246  -8.115   7.527  1.00  0.00     0.000 C 
BRANCH  16  17
ATOM     17  C   UNL     1      -8.323  -9.121   8.242  1.00  0.00     0.000 C 
BRANCH  17  18
ATOM     18  C   UNL     1      -7.724  -8.589   9.561  1.00  0.00     0.000 C 
BRANCH  18  19
ATOM     19  C   UNL     1      -8.521  -7.398  10.121  1.00  0.00     0.000 C 
BRANCH  19  20
ATOM     20  C   UNL     1      -7.742  -6.076  10.035  1.00  0.00     0.006 C 
BRANCH  20  21
ATOM     21  C   UNL     1      -6.227  -6.294   9.942  1.00  0.00     0.053 C 
BRANCH  21  22
ATOM     22  C   UNL     1      -5.531  -5.002   9.653  1.00  0.00     0.041 C 
ATOM     23  O   UNL     1      -4.303  -4.992   9.374  1.00  0.00    -0.550 OA
ATOM     24  O   UNL     1      -6.225  -3.802   9.751  1.00  0.00    -0.550 OA
ENDBRANCH  21  22
ENDBRANCH  20  21
ENDBRANCH  19  20
ENDBRANCH  18  19
ENDBRANCH  17  18
ENDBRANCH  16  17
ENDBRANCH  15  16
ENDBRANCH  14  15
ENDBRANCH  13  14
ENDBRANCH   1  13
TORSDOF 20
ENDMDL
MODEL 8
REMARK VINA RESULT:    -0.424     18.011     21.403
REMARK INTER + INTRA:          -2.049
REMARK INTER:                  -1.123
REMARK INTRA:                  -0.927
REMARK UNBOUND:                -1.129
REMARK SMILES CCCCCCCCCCCCCCCCCCCCCC(=O)[O-]
REMARK SMILES IDX 12 1 11 2 10 3 9 4 8 5 7 6 6 7 5 8 4 9 3 10 2 11 1 12 13 13
REMARK SMILES IDX 14 14 15 15 16 16 17 17 18 18 19 19 20 20 21 21 22 22 23 23
REMARK SMILES IDX 24 24
REMARK H PARENT
REMARK Flexibility Score: inf
ROOT
ATOM      1  C   UNL     1      -8.148  -0.610   9.116  1.00  0.00     0.000 C 
ENDROOT
BRANCH   1   2
ATOM      2  C   UNL     1      -9.129  -1.619   9.738  1.00  0.00     0.000 C 
BRANCH   2   3
ATOM      3  C   UNL     1      -9.368  -2.841   8.838  1.00  0.00     0.000 C 
BRANCH   3   4
ATOM      4  C   UNL     1      -9.429  -2.477   7.342  1.00  0.00    -0.000 C 
BRANCH   4   5
ATOM      5  C   UNL     1      -8.982  -3.634   6.434  1.00  0.00    -0.000 C 
BRANCH   5   6
ATOM      6  C   UNL     1      -9.069  -5.002   7.132  1.00  0.00    -0.000 C 
BRANCH   6   7
ATOM      7  C   UNL     1      -7.892  -5.932   6.784  1.00  0.00    -0.000 C 
BRANCH   7   8
ATOM      8  C   UNL     1      -7.968  -7.347   7.387  1.00  0.00    -0.000 C 
BRANCH   8   9
ATOM      9  C   UNL     1      -8.896  -8.286   6.599  1.00  0.00    -0.000 C 
BRANCH   9  10
ATOM     10  C   UNL     1      -9.819  -9.120   7.508  1.00  0.00    -0.000 C 
BRANCH  10  11
ATOM     11  C   UNL     1     -10.828  -8.307   8.340  1.00  0.00    -0.003 C 
ATOM     12  C   UNL     1     -10.382  -8.095   9.785  1.00  0.00     0.004 C 
ENDBRANCH  10  11
ENDBRANCH   9  10
ENDBRANCH   8   9
ENDBRANCH   7   8
ENDBRANCH   6   7
ENDBRANCH   5   6
ENDBRANCH   4   5
ENDBRANCH   3   4
ENDBRANCH   2   3
ENDBRANCH   1   2
BRANCH   1  13
ATOM     13  C   UNL     1      -7.664   0.452  10.120  1.00  0.00     0.000 C 
BRANCH  13  14
ATOM     14  C   UNL     1      -8.411   1.799  10.065  1.00  0.00     0.000 C 
BRANCH  14  15
ATOM     15  C   UNL     1      -7.464   3.002   9.920  1.00  0.00     0.000 C 
BRANCH  15  16
ATOM     16  C   UNL     1      -8.177   4.350  10.124  1.00  0.00     0.000 C 
BRANCH  16  17
ATOM     17  C   UNL     1      -7.278   5.594   9.977  1.00  0.00     0.000 C 
BRANCH  17  18
ATOM     18  C   UNL     1      -8.049   6.930  10.035  1.00  0.00     0.000 C 
BRANCH  18  19
ATOM     19  C   UNL     1      -7.496   7.961   9.034  1.00  0.00     0.000 C 
BRANCH  19  20
ATOM     20  C   UNL     1      -6.260   8.698   9.571  1.00  0.00     0.006 C 
BRANCH  20  21
ATOM     21  C   UNL     1      -5.181   8.893   8.498  1.00  0.00     0.053 C 
BRANCH  21  22
ATOM     22  C   UNL     1      -5.667   9.824   7.433  1.00  0.00     0.041 C 
ATOM     23  O   UNL     1      -5.310   9.660   6.237  1.00  0.00    -0.550 OA
ATOM     24  O   UNL     1      -6.466  10.909   7.771  1.00  0.00    -0.550 OA
ENDBRANCH  21  22
ENDBRANCH  20  21
ENDBRANCH  19  20
ENDBRANCH  18  19
ENDBRANCH  17  18
ENDBRANCH  16  17
ENDBRANCH  15  16
ENDBRANCH  14  15
ENDBRANCH  13  14
ENDBRANCH   1  13
TORSDOF 20
ENDMDL
