MODEL 1
REMARK VINA RESULT:    -6.095      0.000      0.000
REMARK INTER + INTRA:          -8.173
REMARK INTER:                  -7.876
REMARK INTRA:                  -0.297
REMARK UNBOUND:                -0.297
REMARK SMILES CCO[C@H]1O[C@@H](CO)[C@@H](O)[C@H](O)[C@H]1O
REMARK SMILES IDX 4 1 13 2 11 3 9 4 6 5 5 6 3 7 2 8 1 9 14 10 12 12 7 14 8 15
REMARK SMILES IDX 10 17
REMARK H PARENT 14 11 12 13 8 16 10 18
REMARK Flexibility Score: inf
ROOT
ATOM      1  C   UNL     1      21.364  -4.973  17.144  1.00  0.00     0.281 C 
ATOM      2  C   UNL     1      21.253  -6.501  16.965  1.00  0.00     0.202 C 
ATOM      3  C   UNL     1      20.559  -6.850  15.639  1.00  0.00     0.179 C 
ATOM      4  C   UNL     1      19.212  -6.111  15.584  1.00  0.00     0.177 C 
ATOM      5  C   UNL     1      19.376  -4.593  15.861  1.00  0.00     0.178 C 
ATOM      6  O   UNL     1      20.094  -4.333  17.065  1.00  0.00    -0.341 OA
ENDROOT
BRANCH   1   7
ATOM      7  O   UNL     1      22.263  -4.423  16.188  1.00  0.00    -0.350 OA
BRANCH   7   8
ATOM      8  C   UNL     1      23.305  -3.682  16.795  1.00  0.00     0.160 C 
ATOM      9  C   UNL     1      24.674  -4.272  16.466  1.00  0.00     0.035 C 
ENDBRANCH   7   8
ENDBRANCH   1   7
BRANCH   2  10
ATOM     10  O   UNL     1      22.516  -7.113  17.060  1.00  0.00    -0.385 OA
ATOM     11  H   UNL     1      22.394  -8.090  16.936  1.00  0.00     0.211 HD
ENDBRANCH   2  10
BRANCH   3  12
ATOM     12  O   UNL     1      20.329  -8.234  15.566  1.00  0.00    -0.387 OA
ATOM     13  H   UNL     1      20.487  -8.601  16.476  1.00  0.00     0.211 HD
ENDBRANCH   3  12
BRANCH   5  14
ATOM     14  C   UNL     1      19.920  -3.769  14.672  1.00  0.00     0.191 C 
BRANCH  14  15
ATOM     15  O   UNL     1      20.659  -4.594  13.813  1.00  0.00    -0.394 OA
ATOM     16  H   UNL     1      20.008  -4.972  13.166  1.00  0.00     0.210 HD
ENDBRANCH  14  15
ENDBRANCH   5  14
BRANCH   4  17
ATOM     17  O   UNL     1      18.534  -6.351  14.374  1.00  0.00    -0.387 OA
ATOM     18  H   UNL     1      19.165  -6.186  13.627  1.00  0.00     0.211 HD
ENDBRANCH   4  17
TORSDOF 7
ENDMDL
MODEL 2
REMARK VINA RESULT:    -5.714      1.578      3.912
REMARK INTER + INTRA:          -7.681
REMARK INTER:                  -7.219
REMARK INTRA:                  -0.463
REMARK UNBOUND:                -0.297
REMARK SMILES CCO[C@H]1O[C@@H](CO)[C@@H](O)[C@H](O)[C@H]1O
REMARK SMILES IDX 4 1 13 2 11 3 9 4 6 5 5 6 3 7 2 8 1 9 14 10 12 12 7 14 8 15
REMARK SMILES IDX 10 17
REMARK H PARENT 14 11 12 13 8 16 10 18
REMARK Flexibility Score: inf
ROOT
ATOM      1  C   UNL     1      20.421  -6.331  15.423  1.00  0.00     0.281 C 
ATOM      2  C   UNL     1      21.722  -5.919  16.144  1.00  0.00     0.202 C 
ATOM      3  C   UNL     1      21.596  -4.510  16.741  1.00  0.00     0.179 C 
ATOM      4  C   UNL     1      21.161  -3.544  15.626  1.00  0.00     0.177 C 
ATOM      5  C   UNL     1      19.903  -4.056  14.878  1.00  0.00     0.178 C 
ATOM      6  O   UNL     1      20.051  -5.397  14.414  1.00  0.00    -0.341 OA
ENDROOT
BRANCH   1   7
ATOM      7  O   UNL     1      19.364  -6.502  16.360  1.00  0.00    -0.350 OA
BRANCH   7   8
ATOM      8  C   UNL     1      18.856  -7.824  16.361  1.00  0.00     0.160 C 
ATOM      9  C   UNL     1      17.740  -7.993  15.333  1.00  0.00     0.035 C 
ENDBRANCH   7   8
ENDBRANCH   1   7
BRANCH   2  10
ATOM     10  O   UNL     1      22.074  -6.864  17.125  1.00  0.00    -0.385 OA
ATOM     11  H   UNL     1      21.445  -7.629  17.054  1.00  0.00     0.211 HD
ENDBRANCH   2  10
BRANCH   3  12
ATOM     12  O   UNL     1      22.834  -4.092  17.255  1.00  0.00    -0.387 OA
ATOM     13  H   UNL     1      22.884  -4.423  18.191  1.00  0.00     0.211 HD
ENDBRANCH   3  12
BRANCH   5  14
ATOM     14  C   UNL     1      18.569  -3.848  15.629  1.00  0.00     0.191 C 
BRANCH  14  15
ATOM     15  O   UNL     1      17.513  -4.412  14.900  1.00  0.00    -0.394 OA
ATOM     16  H   UNL     1      17.768  -5.355  14.727  1.00  0.00     0.210 HD
ENDBRANCH  14  15
ENDBRANCH   5  14
BRANCH   4  17
ATOM     17  O   UNL     1      20.985  -2.233  16.109  1.00  0.00    -0.387 OA
ATOM     18  H   UNL     1      21.132  -1.604  15.356  1.00  0.00     0.211 HD
ENDBRANCH   4  17
TORSDOF 7
ENDMDL
MODEL 3
REMARK VINA RESULT:    -5.713      1.329      1.966
REMARK INTER + INTRA:          -7.680
REMARK INTER:                  -7.255
REMARK INTRA:                  -0.425
REMARK UNBOUND:                -0.297
REMARK SMILES CCO[C@H]1O[C@@H](CO)[C@@H](O)[C@H](O)[C@H]1O
REMARK SMILES IDX 4 1 13 2 11 3 9 4 6 5 5 6 3 7 2 8 1 9 14 10 12 12 7 14 8 15
REMARK SMILES IDX 10 17
REMARK H PARENT 14 11 12 13 8 16 10 18
REMARK Flexibility Score: inf
ROOT
ATOM      1  C   UNL     1      21.097  -5.667  16.529  1.00  0.00     0.281 C 
ATOM      2  C   UNL     1      20.049  -6.597  15.884  1.00  0.00     0.202 C 
ATOM      3  C   UNL     1      19.101  -5.806  14.970  1.00  0.00     0.179 C 
ATOM      4  C   UNL     1      18.498  -4.646  15.779  1.00  0.00     0.177 C 
ATOM      5  C   UNL     1      19.595  -3.801  16.478  1.00  0.00     0.178 C 
ATOM      6  O   UNL     1      20.491  -4.599  17.249  1.00  0.00    -0.341 OA
ENDROOT
BRANCH   1   7
ATOM      7  O   UNL     1      21.991  -5.163  15.543  1.00  0.00    -0.350 OA
BRANCH   7   8
ATOM      8  C   UNL     1      23.346  -5.407  15.871  1.00  0.00     0.160 C 
ATOM      9  C   UNL     1      23.984  -4.196  16.548  1.00  0.00     0.035 C 
ENDBRANCH   7   8
ENDBRANCH   1   7
BRANCH   2  10
ATOM     10  O   UNL     1      20.672  -7.651  15.190  1.00  0.00    -0.385 OA
ATOM     11  H   UNL     1      20.649  -7.436  14.221  1.00  0.00     0.211 HD
ENDBRANCH   2  10
BRANCH   3  12
ATOM     12  O   UNL     1      18.064  -6.638  14.516  1.00  0.00    -0.387 OA
ATOM     13  H   UNL     1      17.224  -6.113  14.580  1.00  0.00     0.211 HD
ENDBRANCH   3  12
BRANCH   5  14
ATOM     14  C   UNL     1      20.346  -2.816  15.554  1.00  0.00     0.191 C 
BRANCH  14  15
ATOM     15  O   UNL     1      21.393  -2.201  16.255  1.00  0.00    -0.394 OA
ATOM     16  H   UNL     1      22.209  -2.333  15.706  1.00  0.00     0.210 HD
ENDBRANCH  14  15
ENDBRANCH   5  14
BRANCH   4  17
ATOM     17  O   UNL     1      17.645  -3.849  14.993  1.00  0.00    -0.387 OA
ATOM     18  H   UNL     1      17.920  -3.942  14.045  1.00  0.00     0.211 HD
ENDBRANCH   4  17
TORSDOF 7
ENDMDL
MODEL 4
REMARK VINA RESULT:    -5.623      1.376      3.131
REMARK INTER + INTRA:          -7.563
REMARK INTER:                  -7.120
REMARK INTRA:                  -0.443
REMARK UNBOUND:                -0.297
REMARK SMILES CCO[C@H]1O[C@@H](CO)[C@@H](O)[C@H](O)[C@H]1O
REMARK SMILES IDX 4 1 13 2 11 3 9 4 6 5 5 6 3 7 2 8 1 9 14 10 12 12 7 14 8 15
REMARK SMILES IDX 10 17
REMARK H PARENT 14 11 12 13 8 16 10 18
REMARK Flexibility Score: inf
ROOT
ATOM      1  C   UNL     1      21.650  -3.909  15.322  1.00  0.00     0.281 C 
ATOM      2  C   UNL     1      20.290  -3.186  15.239  1.00  0.00     0.202 C 
ATOM      3  C   UNL     1      19.134  -4.154  15.534  1.00  0.00     0.179 C 
ATOM      4  C   UNL     1      19.260  -5.366  14.597  1.00  0.00     0.177 C 
ATOM      5  C   UNL     1      20.677  -5.995  14.657  1.00  0.00     0.178 C 
ATOM      6  O   UNL     1      21.710  -5.034  14.451  1.00  0.00    -0.341 OA
ENDROOT
BRANCH   1   7
ATOM      7  O   UNL     1      21.927  -4.297  16.663  1.00  0.00    -0.350 OA
BRANCH   7   8
ATOM      8  C   UNL     1      23.315  -4.325  16.938  1.00  0.00     0.160 C 
ATOM      9  C   UNL     1      23.913  -2.920  16.939  1.00  0.00     0.035 C 
ENDBRANCH   7   8
ENDBRANCH   1   7
BRANCH   2  10
ATOM     10  O   UNL     1      20.259  -2.071  16.097  1.00  0.00    -0.385 OA
ATOM     11  H   UNL     1      21.151  -1.635  16.065  1.00  0.00     0.211 HD
ENDBRANCH   2  10
BRANCH   3  12
ATOM     12  O   UNL     1      17.903  -3.518  15.302  1.00  0.00    -0.387 OA
ATOM     13  H   UNL     1      17.701  -2.978  16.111  1.00  0.00     0.211 HD
ENDBRANCH   3  12
BRANCH   5  14
ATOM     14  C   UNL     1      20.946  -6.878  15.896  1.00  0.00     0.191 C 
BRANCH  14  15
ATOM     15  O   UNL     1      20.513  -8.189  15.655  1.00  0.00    -0.394 OA
ATOM     16  H   UNL     1      20.071  -8.492  16.491  1.00  0.00     0.210 HD
ENDBRANCH  14  15
ENDBRANCH   5  14
BRANCH   4  17
ATOM     17  O   UNL     1      18.254  -6.320  14.838  1.00  0.00    -0.387 OA
ATOM     18  H   UNL     1      17.452  -6.063  14.314  1.00  0.00     0.211 HD
ENDBRANCH   4  17
TORSDOF 7
ENDMDL
MODEL 5
REMARK VINA RESULT:    -5.206      1.339      4.121
REMARK INTER + INTRA:          -7.024
REMARK INTER:                  -6.788
REMARK INTRA:                  -0.236
REMARK UNBOUND:                -0.297
REMARK SMILES CCO[C@H]1O[C@@H](CO)[C@@H](O)[C@H](O)[C@H]1O
REMARK SMILES IDX 4 1 13 2 11 3 9 4 6 5 5 6 3 7 2 8 1 9 14 10 12 12 7 14 8 15
REMARK SMILES IDX 10 17
REMARK H PARENT 14 11 12 13 8 16 10 18
REMARK Flexibility Score: inf
ROOT
ATOM      1  C   UNL     1      19.724  -6.181  14.717  1.00  0.00     0.281 C 
ATOM      2  C   UNL     1      20.919  -6.962  15.303  1.00  0.00     0.202 C 
ATOM      3  C   UNL     1      21.360  -6.363  16.647  1.00  0.00     0.179 C 
ATOM      4  C   UNL     1      21.626  -4.862  16.449  1.00  0.00     0.177 C 
ATOM      5  C   UNL     1      20.426  -4.148  15.773  1.00  0.00     0.178 C 
ATOM      6  O   UNL     1      20.013  -4.794  14.571  1.00  0.00    -0.341 OA
ENDROOT
BRANCH   1   7
ATOM      7  O   UNL     1      18.564  -6.369  15.518  1.00  0.00    -0.350 OA
BRANCH   7   8
ATOM      8  C   UNL     1      17.466  -6.855  14.768  1.00  0.00     0.160 C 
ATOM      9  C   UNL     1      17.147  -8.306  15.120  1.00  0.00     0.035 C 
ENDBRANCH   7   8
ENDBRANCH   1   7
BRANCH   2  10
ATOM     10  O   UNL     1      20.614  -8.330  15.425  1.00  0.00    -0.385 OA
ATOM     11  H   UNL     1      20.951  -8.793  14.614  1.00  0.00     0.211 HD
ENDBRANCH   2  10
BRANCH   3  12
ATOM     12  O   UNL     1      22.539  -6.986  17.088  1.00  0.00    -0.387 OA
ATOM     13  H   UNL     1      23.152  -6.263  17.389  1.00  0.00     0.211 HD
ENDBRANCH   3  12
BRANCH   5  14
ATOM     14  C   UNL     1      19.234  -3.850  16.709  1.00  0.00     0.191 C 
BRANCH  14  15
ATOM     15  O   UNL     1      19.163  -4.819  17.720  1.00  0.00    -0.394 OA
ATOM     16  H   UNL     1      18.605  -5.555  17.359  1.00  0.00     0.210 HD
ENDBRANCH  14  15
ENDBRANCH   5  14
BRANCH   4  17
ATOM     17  O   UNL     1      21.998  -4.233  17.652  1.00  0.00    -0.387 OA
ATOM     18  H   UNL     1      21.467  -4.634  18.388  1.00  0.00     0.211 HD
ENDBRANCH   4  17
TORSDOF 7
ENDMDL
MODEL 6
REMARK VINA RESULT:    -5.094      1.553      3.810
REMARK INTER + INTRA:          -6.880
REMARK INTER:                  -6.542
REMARK INTRA:                  -0.338
REMARK UNBOUND:                -0.297
REMARK SMILES CCO[C@H]1O[C@@H](CO)[C@@H](O)[C@H](O)[C@H]1O
REMARK SMILES IDX 4 1 13 2 11 3 9 4 6 5 5 6 3 7 2 8 1 9 14 10 12 12 7 14 8 15
REMARK SMILES IDX 10 17
REMARK H PARENT 14 11 12 13 8 16 10 18
REMARK Flexibility Score: inf
ROOT
ATOM      1  C   UNL     1      20.591  -5.770  14.947  1.00  0.00     0.281 C 
ATOM      2  C   UNL     1      21.415  -6.869  15.649  1.00  0.00     0.202 C 
ATOM      3  C   UNL     1      22.241  -6.283  16.804  1.00  0.00     0.179 C 
ATOM      4  C   UNL     1      23.083  -5.117  16.260  1.00  0.00     0.177 C 
ATOM      5  C   UNL     1      22.214  -4.091  15.486  1.00  0.00     0.178 C 
ATOM      6  O   UNL     1      21.412  -4.705  14.479  1.00  0.00    -0.341 OA
ENDROOT
BRANCH   1   7
ATOM      7  O   UNL     1      19.577  -5.277  15.814  1.00  0.00    -0.350 OA
BRANCH   7   8
ATOM      8  C   UNL     1      18.322  -5.172  15.166  1.00  0.00     0.160 C 
ATOM      9  C   UNL     1      17.903  -3.714  14.994  1.00  0.00     0.035 C 
ENDBRANCH   7   8
ENDBRANCH   1   7
BRANCH   2  10
ATOM     10  O   UNL     1      20.585  -7.916  16.091  1.00  0.00    -0.385 OA
ATOM     11  H   UNL     1      20.448  -7.807  17.068  1.00  0.00     0.211 HD
ENDBRANCH   2  10
BRANCH   3  12
ATOM     12  O   UNL     1      23.098  -7.264  17.329  1.00  0.00    -0.387 OA
ATOM     13  H   UNL     1      23.818  -6.785  17.819  1.00  0.00     0.211 HD
ENDBRANCH   3  12
BRANCH   5  14
ATOM     14  C   UNL     1      21.392  -3.131  16.375  1.00  0.00     0.191 C 
BRANCH  14  15
ATOM     15  O   UNL     1      20.685  -2.222  15.576  1.00  0.00    -0.394 OA
ATOM     16  H   UNL     1      20.420  -1.476  16.174  1.00  0.00     0.210 HD
ENDBRANCH  14  15
ENDBRANCH   5  14
BRANCH   4  17
ATOM     17  O   UNL     1      23.840  -4.501  17.274  1.00  0.00    -0.387 OA
ATOM     18  H   UNL     1      24.800  -4.591  17.041  1.00  0.00     0.211 HD
ENDBRANCH   4  17
TORSDOF 7
ENDMDL
MODEL 7
REMARK VINA RESULT:    -4.809      2.905      4.968
REMARK INTER + INTRA:          -6.511
REMARK INTER:                  -6.043
REMARK INTRA:                  -0.469
REMARK UNBOUND:                -0.297
REMARK SMILES CCO[C@H]1O[C@@H](CO)[C@@H](O)[C@H](O)[C@H]1O
REMARK SMILES IDX 4 1 13 2 11 3 9 4 6 5 5 6 3 7 2 8 1 9 14 10 12 12 7 14 8 15
REMARK SMILES IDX 10 17
REMARK H PARENT 14 11 12 13 8 16 10 18
REMARK Flexibility Score: inf
ROOT
ATOM      1  C   UNL     1      25.439  -3.210  16.906  1.00  0.00     0.281 C 
ATOM      2  C   UNL     1      24.020  -2.696  16.584  1.00  0.00     0.202 C 
ATOM      3  C   UNL     1      22.988  -3.829  16.688  1.00  0.00     0.179 C 
ATOM      4  C   UNL     1      23.452  -4.995  15.799  1.00  0.00     0.177 C 
ATOM      5  C   UNL     1      24.915  -5.407  16.107  1.00  0.00     0.178 C 
ATOM      6  O   UNL     1      25.813  -4.300  16.070  1.00  0.00    -0.341 OA
ENDROOT
BRANCH   1   7
ATOM      7  O   UNL     1      25.538  -3.573  18.278  1.00  0.00    -0.350 OA
BRANCH   7   8
ATOM      8  C   UNL     1      26.751  -3.137  18.863  1.00  0.00     0.160 C 
ATOM      9  C   UNL     1      26.695  -1.654  19.226  1.00  0.00     0.035 C 
ENDBRANCH   7   8
ENDBRANCH   1   7
BRANCH   2  10
ATOM     10  O   UNL     1      23.677  -1.611  17.413  1.00  0.00    -0.385 OA
ATOM     11  H   UNL     1      24.361  -0.902  17.287  1.00  0.00     0.211 HD
ENDBRANCH   2  10
BRANCH   3  12
ATOM     12  O   UNL     1      21.734  -3.381  16.243  1.00  0.00    -0.387 OA
ATOM     13  H   UNL     1      21.902  -2.755  15.490  1.00  0.00     0.211 HD
ENDBRANCH   3  12
BRANCH   5  14
ATOM     14  C   UNL     1      25.098  -6.259  17.383  1.00  0.00     0.191 C 
BRANCH  14  15
ATOM     15  O   UNL     1      24.577  -7.545  17.181  1.00  0.00    -0.394 OA
ATOM     16  H   UNL     1      24.238  -7.847  18.064  1.00  0.00     0.210 HD
ENDBRANCH  14  15
ENDBRANCH   5  14
BRANCH   4  17
ATOM     17  O   UNL     1      22.573  -6.092  15.875  1.00  0.00    -0.387 OA
ATOM     18  H   UNL     1      21.644  -5.747  15.832  1.00  0.00     0.211 HD
ENDBRANCH   4  17
TORSDOF 7
ENDMDL
MODEL 8
REMARK VINA RESULT:    -4.784      1.513      4.506
REMARK INTER + INTRA:          -6.478
REMARK INTER:                  -6.013
REMARK INTRA:                  -0.465
REMARK UNBOUND:                -0.297
REMARK SMILES CCO[C@H]1O[C@@H](CO)[C@@H](O)[C@H](O)[C@H]1O
REMARK SMILES IDX 4 1 13 2 11 3 9 4 6 5 5 6 3 7 2 8 1 9 14 10 12 12 7 14 8 15
REMARK SMILES IDX 10 17
REMARK H PARENT 14 11 12 13 8 16 10 18
REMARK Flexibility Score: inf
ROOT
ATOM      1  C   UNL     1      19.129  -6.133  16.518  1.00  0.00     0.281 C 
ATOM      2  C   UNL     1      19.117  -5.263  15.243  1.00  0.00     0.202 C 
ATOM      3  C   UNL     1      20.528  -5.140  14.650  1.00  0.00     0.179 C 
ATOM      4  C   UNL     1      21.478  -4.633  15.748  1.00  0.00     0.177 C 
ATOM      5  C   UNL     1      21.379  -5.492  17.036  1.00  0.00     0.178 C 
ATOM      6  O   UNL     1      20.036  -5.634  17.495  1.00  0.00    -0.341 OA
ENDROOT
BRANCH   1   7
ATOM      7  O   UNL     1      19.432  -7.485  16.196  1.00  0.00    -0.350 OA
BRANCH   7   8
ATOM      8  C   UNL     1      18.494  -8.391  16.747  1.00  0.00     0.160 C 
ATOM      9  C   UNL     1      17.677  -9.081  15.657  1.00  0.00     0.035 C 
ENDBRANCH   7   8
ENDBRANCH   1   7
BRANCH   2  10
ATOM     10  O   UNL     1      18.204  -5.767  14.298  1.00  0.00    -0.385 OA
ATOM     11  H   UNL     1      17.322  -5.863  14.745  1.00  0.00     0.211 HD
ENDBRANCH   2  10
BRANCH   3  12
ATOM     12  O   UNL     1      20.525  -4.224  13.585  1.00  0.00    -0.387 OA
ATOM     13  H   UNL     1      21.187  -4.551  12.921  1.00  0.00     0.211 HD
ENDBRANCH   3  12
BRANCH   5  14
ATOM     14  C   UNL     1      22.116  -6.849  16.973  1.00  0.00     0.191 C 
BRANCH  14  15
ATOM     15  O   UNL     1      23.490  -6.659  17.173  1.00  0.00    -0.394 OA
ATOM     16  H   UNL     1      23.947  -7.339  16.612  1.00  0.00     0.210 HD
ENDBRANCH  14  15
ENDBRANCH   5  14
BRANCH   4  17
ATOM     17  O   UNL     1      22.804  -4.533  15.287  1.00  0.00    -0.387 OA
ATOM     18  H   UNL     1      23.344  -5.226  15.746  1.00  0.00     0.211 HD
ENDBRANCH   4  17
TORSDOF 7
ENDMDL
MODEL 9
REMARK VINA RESULT:    -4.713      5.591      7.658
REMARK INTER + INTRA:          -6.387
REMARK INTER:                  -5.869
REMARK INTRA:                  -0.519
REMARK UNBOUND:                -0.297
REMARK SMILES CCO[C@H]1O[C@@H](CO)[C@@H](O)[C@H](O)[C@H]1O
REMARK SMILES IDX 4 1 13 2 11 3 9 4 6 5 5 6 3 7 2 8 1 9 14 10 12 12 7 14 8 15
REMARK SMILES IDX 10 17
REMARK H PARENT 14 11 12 13 8 16 10 18
REMARK Flexibility Score: inf
ROOT
ATOM      1  C   UNL     1      16.363  -9.601  14.446  1.00  0.00     0.281 C 
ATOM      2  C   UNL     1      16.087  -8.209  13.839  1.00  0.00     0.202 C 
ATOM      3  C   UNL     1      14.663  -7.739  14.169  1.00  0.00     0.179 C 
ATOM      4  C   UNL     1      13.673  -8.827  13.722  1.00  0.00     0.177 C 
ATOM      5  C   UNL     1      14.054 -10.220  14.290  1.00  0.00     0.178 C 
ATOM      6  O   UNL     1      15.409 -10.568  14.018  1.00  0.00    -0.341 OA
ENDROOT
BRANCH   1   7
ATOM      7  O   UNL     1      16.399  -9.526  15.866  1.00  0.00    -0.350 OA
BRANCH   7   8
ATOM      8  C   UNL     1      17.489 -10.246  16.414  1.00  0.00     0.160 C 
ATOM      9  C   UNL     1      18.667 -10.298  15.444  1.00  0.00     0.035 C 
ENDBRANCH   7   8
ENDBRANCH   1   7
BRANCH   2  10
ATOM     10  O   UNL     1      17.049  -7.275  14.264  1.00  0.00    -0.385 OA
ATOM     11  H   UNL     1      17.887  -7.768  14.469  1.00  0.00     0.211 HD
ENDBRANCH   2  10
BRANCH   3  12
ATOM     12  O   UNL     1      14.378  -6.547  13.482  1.00  0.00    -0.387 OA
ATOM     13  H   UNL     1      15.127  -6.395  12.846  1.00  0.00     0.211 HD
ENDBRANCH   3  12
BRANCH   5  14
ATOM     14  C   UNL     1      13.685 -10.441  15.774  1.00  0.00     0.191 C 
BRANCH  14  15
ATOM     15  O   UNL     1      14.218 -11.657  16.226  1.00  0.00    -0.394 OA
ATOM     16  H   UNL     1      13.655 -12.370  15.827  1.00  0.00     0.210 HD
ENDBRANCH  14  15
ENDBRANCH   5  14
BRANCH   4  17
ATOM     17  O   UNL     1      12.343  -8.482  14.030  1.00  0.00    -0.387 OA
ATOM     18  H   UNL     1      12.241  -7.504  13.908  1.00  0.00     0.211 HD
ENDBRANCH   4  17
TORSDOF 7
ENDMDL
