MODEL 1
REMARK VINA RESULT:    -2.765      0.000      0.000
REMARK INTER + INTRA:          -4.405
REMARK INTER:                  -3.735
REMARK INTRA:                  -0.670
REMARK UNBOUND:                -0.670
REMARK SMILES O=C[C@H](O)[C@H](O)[C@H](O)CO
REMARK SMILES IDX 7 1 9 2 10 3 5 5 3 6 2 7 1 8 4 9 6 11 8 13
REMARK H PARENT 10 4 4 10 6 12 8 14
REMARK Flexibility Score: inf
ROOT
ATOM      1  C   UNL     1      36.296  12.517  37.712  1.00  0.00     0.171 C 
ENDROOT
BRANCH   1   2
ATOM      2  C   UNL     1      34.981  11.732  37.535  1.00  0.00     0.190 C 
BRANCH   2   3
ATOM      3  O   UNL     1      34.955  10.615  38.383  1.00  0.00    -0.394 OA
ATOM      4  H   UNL     1      35.850  10.188  38.318  1.00  0.00     0.210 HD
ENDBRANCH   2   3
ENDBRANCH   1   2
BRANCH   1   5
ATOM      5  C   UNL     1      36.382  13.243  39.081  1.00  0.00     0.181 C 
BRANCH   5   6
ATOM      6  C   UNL     1      37.756  13.904  39.335  1.00  0.00     0.209 C 
BRANCH   6   7
ATOM      7  C   UNL     1      37.659  15.401  39.187  1.00  0.00     0.258 C 
ATOM      8  O   UNL     1      36.734  15.904  38.570  1.00  0.00    -0.300 OA
ENDBRANCH   6   7
BRANCH   6   9
ATOM      9  O   UNL     1      38.698  13.414  38.416  1.00  0.00    -0.383 OA
ATOM     10  H   UNL     1      39.380  14.125  38.295  1.00  0.00     0.211 HD
ENDBRANCH   6   9
ENDBRANCH   5   6
BRANCH   5  11
ATOM     11  O   UNL     1      36.096  12.341  40.123  1.00  0.00    -0.387 OA
ATOM     12  H   UNL     1      36.815  11.657  40.122  1.00  0.00     0.211 HD
ENDBRANCH   5  11
ENDBRANCH   1   5
BRANCH   1  13
ATOM     13  O   UNL     1      36.412  13.475  36.690  1.00  0.00    -0.388 OA
ATOM     14  H   UNL     1      36.068  14.334  37.052  1.00  0.00     0.211 HD
ENDBRANCH   1  13
TORSDOF 8
ENDMDL
MODEL 2
REMARK VINA RESULT:    -2.695      1.289      1.937
REMARK INTER + INTRA:          -4.309
REMARK INTER:                  -3.526
REMARK INTRA:                  -0.784
REMARK UNBOUND:                -0.670
REMARK SMILES O=C[C@H](O)[C@H](O)[C@H](O)CO
REMARK SMILES IDX 7 1 9 2 10 3 5 5 3 6 2 7 1 8 4 9 6 11 8 13
REMARK H PARENT 10 4 4 10 6 12 8 14
REMARK Flexibility Score: inf
ROOT
ATOM      1  C   UNL     1      35.919  11.966  38.558  1.00  0.00     0.171 C 
ENDROOT
BRANCH   1   2
ATOM      2  C   UNL     1      34.813  12.586  39.434  1.00  0.00     0.190 C 
BRANCH   2   3
ATOM      3  O   UNL     1      33.981  13.413  38.666  1.00  0.00    -0.394 OA
ATOM      4  H   UNL     1      33.892  14.267  39.166  1.00  0.00     0.210 HD
ENDBRANCH   2   3
ENDBRANCH   1   2
BRANCH   1   5
ATOM      5  C   UNL     1      36.871  13.030  37.950  1.00  0.00     0.181 C 
BRANCH   5   6
ATOM      6  C   UNL     1      37.420  14.026  38.997  1.00  0.00     0.209 C 
BRANCH   6   7
ATOM      7  C   UNL     1      36.985  15.432  38.671  1.00  0.00     0.258 C 
ATOM      8  O   UNL     1      35.839  15.792  38.891  1.00  0.00    -0.300 OA
ENDBRANCH   6   7
BRANCH   6   9
ATOM      9  O   UNL     1      38.824  13.974  39.014  1.00  0.00    -0.383 OA
ATOM     10  H   UNL     1      39.078  13.277  39.675  1.00  0.00     0.211 HD
ENDBRANCH   6   9
ENDBRANCH   5   6
BRANCH   5  11
ATOM     11  O   UNL     1      36.211  13.740  36.930  1.00  0.00    -0.387 OA
ATOM     12  H   UNL     1      36.894  14.299  36.475  1.00  0.00     0.211 HD
ENDBRANCH   5  11
ENDBRANCH   1   5
BRANCH   1  13
ATOM     13  O   UNL     1      35.334  11.237  37.507  1.00  0.00    -0.388 OA
ATOM     14  H   UNL     1      35.814  11.486  36.674  1.00  0.00     0.211 HD
ENDBRANCH   1  13
TORSDOF 8
ENDMDL
MODEL 3
REMARK VINA RESULT:    -2.688      0.975      3.677
REMARK INTER + INTRA:          -4.300
REMARK INTER:                  -3.548
REMARK INTRA:                  -0.752
REMARK UNBOUND:                -0.670
REMARK SMILES O=C[C@H](O)[C@H](O)[C@H](O)CO
REMARK SMILES IDX 7 1 9 2 10 3 5 5 3 6 2 7 1 8 4 9 6 11 8 13
REMARK H PARENT 10 4 4 10 6 12 8 14
REMARK Flexibility Score: inf
ROOT
ATOM      1  C   UNL     1      36.402  15.217  39.047  1.00  0.00     0.171 C 
ENDROOT
BRANCH   1   2
ATOM      2  C   UNL     1      37.875  15.669  39.042  1.00  0.00     0.190 C 
BRANCH   2   3
ATOM      3  O   UNL     1      38.717  14.606  38.685  1.00  0.00    -0.394 OA
ATOM      4  H   UNL     1      38.626  14.491  37.702  1.00  0.00     0.210 HD
ENDBRANCH   2   3
ENDBRANCH   1   2
BRANCH   1   5
ATOM      5  C   UNL     1      36.247  13.674  39.100  1.00  0.00     0.181 C 
BRANCH   5   6
ATOM      6  C   UNL     1      35.786  13.061  37.757  1.00  0.00     0.209 C 
BRANCH   6   7
ATOM      7  C   UNL     1      35.364  11.627  37.946  1.00  0.00     0.258 C 
ATOM      8  O   UNL     1      34.220  11.355  38.274  1.00  0.00    -0.300 OA
ENDBRANCH   6   7
BRANCH   6   9
ATOM      9  O   UNL     1      36.837  13.110  36.825  1.00  0.00    -0.383 OA
ATOM     10  H   UNL     1      37.612  13.524  37.288  1.00  0.00     0.211 HD
ENDBRANCH   6   9
ENDBRANCH   5   6
BRANCH   5  11
ATOM     11  O   UNL     1      35.341  13.315  40.114  1.00  0.00    -0.387 OA
ATOM     12  H   UNL     1      34.488  13.784  39.922  1.00  0.00     0.211 HD
ENDBRANCH   5  11
ENDBRANCH   1   5
BRANCH   1  13
ATOM     13  O   UNL     1      35.761  15.691  37.888  1.00  0.00    -0.388 OA
ATOM     14  H   UNL     1      36.256  16.499  37.588  1.00  0.00     0.211 HD
ENDBRANCH   1  13
TORSDOF 8
ENDMDL
MODEL 4
REMARK VINA RESULT:    -2.668      1.705      3.848
REMARK INTER + INTRA:          -4.273
REMARK INTER:                  -3.552
REMARK INTRA:                  -0.721
REMARK UNBOUND:                -0.670
REMARK SMILES O=C[C@H](O)[C@H](O)[C@H](O)CO
REMARK SMILES IDX 7 1 9 2 10 3 5 5 3 6 2 7 1 8 4 9 6 11 8 13
REMARK H PARENT 10 4 4 10 6 12 8 14
REMARK Flexibility Score: inf
ROOT
ATOM      1  C   UNL     1      36.028  14.195  38.112  1.00  0.00     0.171 C 
ENDROOT
BRANCH   1   2
ATOM      2  C   UNL     1      37.354  14.133  38.894  1.00  0.00     0.190 C 
BRANCH   2   3
ATOM      3  O   UNL     1      38.142  13.061  38.449  1.00  0.00    -0.394 OA
ATOM      4  H   UNL     1      38.455  12.583  39.261  1.00  0.00     0.210 HD
ENDBRANCH   2   3
ENDBRANCH   1   2
BRANCH   1   5
ATOM      5  C   UNL     1      34.907  13.341  38.762  1.00  0.00     0.181 C 
BRANCH   5   6
ATOM      6  C   UNL     1      34.550  12.078  37.944  1.00  0.00     0.209 C 
BRANCH   6   7
ATOM      7  C   UNL     1      33.385  11.355  38.569  1.00  0.00     0.258 C 
ATOM      8  O   UNL     1      32.238  11.664  38.285  1.00  0.00    -0.300 OA
ENDBRANCH   6   7
BRANCH   6   9
ATOM      9  O   UNL     1      35.655  11.213  37.898  1.00  0.00    -0.383 OA
ATOM     10  H   UNL     1      36.285  11.513  38.604  1.00  0.00     0.211 HD
ENDBRANCH   6   9
ENDBRANCH   5   6
BRANCH   5  11
ATOM     11  O   UNL     1      33.752  14.123  38.946  1.00  0.00    -0.387 OA
ATOM     12  H   UNL     1      33.223  14.062  38.109  1.00  0.00     0.211 HD
ENDBRANCH   5  11
ENDBRANCH   1   5
BRANCH   1  13
ATOM     13  O   UNL     1      36.235  13.735  36.799  1.00  0.00    -0.388 OA
ATOM     14  H   UNL     1      35.348  13.477  36.434  1.00  0.00     0.211 HD
ENDBRANCH   1  13
TORSDOF 8
ENDMDL
MODEL 5
REMARK VINA RESULT:    -2.659      1.270      1.820
REMARK INTER + INTRA:          -4.262
REMARK INTER:                  -3.504
REMARK INTRA:                  -0.758
REMARK UNBOUND:                -0.670
REMARK SMILES O=C[C@H](O)[C@H](O)[C@H](O)CO
REMARK SMILES IDX 7 1 9 2 10 3 5 5 3 6 2 7 1 8 4 9 6 11 8 13
REMARK H PARENT 10 4 4 10 6 12 8 14
REMARK Flexibility Score: inf
ROOT
ATOM      1  C   UNL     1      36.563  12.572  37.611  1.00  0.00     0.171 C 
ENDROOT
BRANCH   1   2
ATOM      2  C   UNL     1      35.334  11.656  37.777  1.00  0.00     0.190 C 
BRANCH   2   3
ATOM      3  O   UNL     1      34.264  12.364  38.344  1.00  0.00    -0.394 OA
ATOM      4  H   UNL     1      33.500  11.731  38.391  1.00  0.00     0.210 HD
ENDBRANCH   2   3
ENDBRANCH   1   2
BRANCH   1   5
ATOM      5  C   UNL     1      36.822  13.460  38.857  1.00  0.00     0.181 C 
BRANCH   5   6
ATOM      6  C   UNL     1      36.573  14.964  38.596  1.00  0.00     0.209 C 
BRANCH   6   7
ATOM      7  C   UNL     1      36.996  15.786  39.786  1.00  0.00     0.258 C 
ATOM      8  O   UNL     1      38.163  16.117  39.928  1.00  0.00    -0.300 OA
ENDBRANCH   6   7
BRANCH   6   9
ATOM      9  O   UNL     1      35.208  15.185  38.349  1.00  0.00    -0.383 OA
ATOM     10  H   UNL     1      35.132  16.085  37.938  1.00  0.00     0.211 HD
ENDBRANCH   6   9
ENDBRANCH   5   6
BRANCH   5  11
ATOM     11  O   UNL     1      38.140  13.276  39.313  1.00  0.00    -0.387 OA
ATOM     12  H   UNL     1      38.586  12.660  38.676  1.00  0.00     0.211 HD
ENDBRANCH   5  11
ENDBRANCH   1   5
BRANCH   1  13
ATOM     13  O   UNL     1      36.378  13.409  36.496  1.00  0.00    -0.388 OA
ATOM     14  H   UNL     1      35.420  13.351  36.241  1.00  0.00     0.211 HD
ENDBRANCH   1  13
TORSDOF 8
ENDMDL
MODEL 6
REMARK VINA RESULT:    -2.639      1.200      2.084
REMARK INTER + INTRA:          -4.234
REMARK INTER:                  -3.724
REMARK INTRA:                  -0.510
REMARK UNBOUND:                -0.670
REMARK SMILES O=C[C@H](O)[C@H](O)[C@H](O)CO
REMARK SMILES IDX 7 1 9 2 10 3 5 5 3 6 2 7 1 8 4 9 6 11 8 13
REMARK H PARENT 10 4 4 10 6 12 8 14
REMARK Flexibility Score: inf
ROOT
ATOM      1  C   UNL     1      35.678  12.760  39.319  1.00  0.00     0.171 C 
ENDROOT
BRANCH   1   2
ATOM      2  C   UNL     1      34.732  12.186  38.246  1.00  0.00     0.190 C 
BRANCH   2   3
ATOM      3  O   UNL     1      35.345  11.126  37.562  1.00  0.00    -0.394 OA
ATOM      4  H   UNL     1      34.616  10.605  37.135  1.00  0.00     0.210 HD
ENDBRANCH   2   3
ENDBRANCH   1   2
BRANCH   1   5
ATOM      5  C   UNL     1      36.888  13.516  38.710  1.00  0.00     0.181 C 
BRANCH   5   6
ATOM      6  C   UNL     1      36.992  14.983  39.188  1.00  0.00     0.209 C 
BRANCH   6   7
ATOM      7  C   UNL     1      35.779  15.768  38.760  1.00  0.00     0.258 C 
ATOM      8  O   UNL     1      35.438  15.792  37.588  1.00  0.00    -0.300 OA
ENDBRANCH   6   7
BRANCH   6   9
ATOM      9  O   UNL     1      38.141  15.581  38.643  1.00  0.00    -0.383 OA
ATOM     10  H   UNL     1      38.114  16.541  38.898  1.00  0.00     0.211 HD
ENDBRANCH   6   9
ENDBRANCH   5   6
BRANCH   5  11
ATOM     11  O   UNL     1      36.818  13.485  37.306  1.00  0.00    -0.387 OA
ATOM     12  H   UNL     1      37.627  13.009  36.984  1.00  0.00     0.211 HD
ENDBRANCH   5  11
ENDBRANCH   1   5
BRANCH   1  13
ATOM     13  O   UNL     1      36.163  11.714  40.125  1.00  0.00    -0.388 OA
ATOM     14  H   UNL     1      36.006  11.974  41.070  1.00  0.00     0.211 HD
ENDBRANCH   1  13
TORSDOF 8
ENDMDL
MODEL 7
REMARK VINA RESULT:    -2.625      1.382      3.740
REMARK INTER + INTRA:          -4.215
REMARK INTER:                  -3.459
REMARK INTRA:                  -0.756
REMARK UNBOUND:                -0.670
REMARK SMILES O=C[C@H](O)[C@H](O)[C@H](O)CO
REMARK SMILES IDX 7 1 9 2 10 3 5 5 3 6 2 7 1 8 4 9 6 11 8 13
REMARK H PARENT 10 4 4 10 6 12 8 14
REMARK Flexibility Score: inf
ROOT
ATOM      1  C   UNL     1      37.131  14.636  39.301  1.00  0.00     0.171 C 
ENDROOT
BRANCH   1   2
ATOM      2  C   UNL     1      37.944  13.343  39.499  1.00  0.00     0.190 C 
BRANCH   2   3
ATOM      3  O   UNL     1      38.293  12.784  38.260  1.00  0.00    -0.394 OA
ATOM      4  H   UNL     1      39.258  12.980  38.123  1.00  0.00     0.210 HD
ENDBRANCH   2   3
ENDBRANCH   1   2
BRANCH   1   5
ATOM      5  C   UNL     1      35.844  14.415  38.464  1.00  0.00     0.181 C 
BRANCH   5   6
ATOM      6  C   UNL     1      34.929  13.306  39.034  1.00  0.00     0.209 C 
BRANCH   6   7
ATOM      7  C   UNL     1      34.712  12.220  38.012  1.00  0.00     0.258 C 
ATOM      8  O   UNL     1      35.635  11.499  37.668  1.00  0.00    -0.300 OA
ENDBRANCH   6   7
BRANCH   6   9
ATOM      9  O   UNL     1      33.685  13.853  39.393  1.00  0.00    -0.383 OA
ATOM     10  H   UNL     1      33.308  13.270  40.102  1.00  0.00     0.211 HD
ENDBRANCH   6   9
ENDBRANCH   5   6
BRANCH   5  11
ATOM     11  O   UNL     1      36.182  14.104  37.134  1.00  0.00    -0.387 OA
ATOM     12  H   UNL     1      37.058  13.639  37.157  1.00  0.00     0.211 HD
ENDBRANCH   5  11
ENDBRANCH   1   5
BRANCH   1  13
ATOM     13  O   UNL     1      37.927  15.597  38.652  1.00  0.00    -0.388 OA
ATOM     14  H   UNL     1      38.651  15.109  38.179  1.00  0.00     0.211 HD
ENDBRANCH   1  13
TORSDOF 8
ENDMDL
MODEL 8
REMARK VINA RESULT:    -2.619      1.781      3.761
REMARK INTER + INTRA:          -4.207
REMARK INTER:                  -3.359
REMARK INTRA:                  -0.848
REMARK UNBOUND:                -0.670
REMARK SMILES O=C[C@H](O)[C@H](O)[C@H](O)CO
REMARK SMILES IDX 7 1 9 2 10 3 5 5 3 6 2 7 1 8 4 9 6 11 8 13
REMARK H PARENT 10 4 4 10 6 12 8 14
REMARK Flexibility Score: inf
ROOT
ATOM      1  C   UNL     1      36.041  13.144  37.615  1.00  0.00     0.171 C 
ENDROOT
BRANCH   1   2
ATOM      2  C   UNL     1      36.081  14.603  38.110  1.00  0.00     0.190 C 
BRANCH   2   3
ATOM      3  O   UNL     1      34.785  15.130  38.200  1.00  0.00    -0.394 OA
ATOM      4  H   UNL     1      34.834  15.898  38.828  1.00  0.00     0.210 HD
ENDBRANCH   2   3
ENDBRANCH   1   2
BRANCH   1   5
ATOM      5  C   UNL     1      35.551  12.154  38.704  1.00  0.00     0.181 C 
BRANCH   5   6
ATOM      6  C   UNL     1      34.245  11.420  38.318  1.00  0.00     0.209 C 
BRANCH   6   7
ATOM      7  C   UNL     1      33.068  12.013  39.049  1.00  0.00     0.258 C 
ATOM      8  O   UNL     1      32.693  13.148  38.802  1.00  0.00    -0.300 OA
ENDBRANCH   6   7
BRANCH   6   9
ATOM      9  O   UNL     1      34.350  10.058  38.645  1.00  0.00    -0.383 OA
ATOM     10  H   UNL     1      35.100   9.974  39.290  1.00  0.00     0.211 HD
ENDBRANCH   6   9
ENDBRANCH   5   6
BRANCH   5  11
ATOM     11  O   UNL     1      35.364  12.831  39.923  1.00  0.00    -0.387 OA
ATOM     12  H   UNL     1      35.461  12.160  40.647  1.00  0.00     0.211 HD
ENDBRANCH   5  11
ENDBRANCH   1   5
BRANCH   1  13
ATOM     13  O   UNL     1      37.327  12.753  37.200  1.00  0.00    -0.388 OA
ATOM     14  H   UNL     1      37.253  11.826  36.852  1.00  0.00     0.211 HD
ENDBRANCH   1  13
TORSDOF 8
ENDMDL
MODEL 9
REMARK VINA RESULT:    -2.584      2.457      3.792
REMARK INTER + INTRA:          -4.159
REMARK INTER:                  -3.488
REMARK INTRA:                  -0.672
REMARK UNBOUND:                -0.670
REMARK SMILES O=C[C@H](O)[C@H](O)[C@H](O)CO
REMARK SMILES IDX 7 1 9 2 10 3 5 5 3 6 2 7 1 8 4 9 6 11 8 13
REMARK H PARENT 10 4 4 10 6 12 8 14
REMARK Flexibility Score: inf
ROOT
ATOM      1  C   UNL     1      32.905  10.408  38.957  1.00  0.00     0.171 C 
ENDROOT
BRANCH   1   2
ATOM      2  C   UNL     1      31.590   9.987  38.274  1.00  0.00     0.190 C 
BRANCH   2   3
ATOM      3  O   UNL     1      30.979  11.088  37.656  1.00  0.00    -0.394 OA
ATOM      4  H   UNL     1      31.645  11.462  37.021  1.00  0.00     0.210 HD
ENDBRANCH   2   3
ENDBRANCH   1   2
BRANCH   1   5
ATOM      5  C   UNL     1      33.533  11.676  38.320  1.00  0.00     0.181 C 
BRANCH   5   6
ATOM      6  C   UNL     1      35.076  11.709  38.421  1.00  0.00     0.209 C 
BRANCH   6   7
ATOM      7  C   UNL     1      35.559  13.110  38.696  1.00  0.00     0.258 C 
ATOM      8  O   UNL     1      35.687  13.912  37.784  1.00  0.00    -0.300 OA
ENDBRANCH   6   7
BRANCH   6   9
ATOM      9  O   UNL     1      35.641  11.257  37.217  1.00  0.00    -0.383 OA
ATOM     10  H   UNL     1      36.597  11.063  37.404  1.00  0.00     0.211 HD
ENDBRANCH   6   9
ENDBRANCH   5   6
BRANCH   5  11
ATOM     11  O   UNL     1      32.999  12.831  38.920  1.00  0.00    -0.387 OA
ATOM     12  H   UNL     1      33.409  13.612  38.466  1.00  0.00     0.211 HD
ENDBRANCH   5  11
ENDBRANCH   1   5
BRANCH   1  13
ATOM     13  O   UNL     1      33.837   9.358  38.872  1.00  0.00    -0.388 OA
ATOM     14  H   UNL     1      34.568   9.661  38.272  1.00  0.00     0.211 HD
ENDBRANCH   1  13
TORSDOF 8
ENDMDL
