MODEL 1
REMARK VINA RESULT:    -3.545      0.000      0.000
REMARK INTER + INTRA:          -3.968
REMARK INTER:                  -5.411
REMARK INTRA:                   1.443
REMARK UNBOUND:                 1.443
REMARK SMILES CC1=CCC[C@@H](C)C(=O)C[C@@H](C(C)C)C(=O)C1
REMARK SMILES IDX 8 1 9 2 6 3 7 4 5 5 4 6 3 7 2 8 1 9 10 11 11 12 15 13 16 14
REMARK SMILES IDX 17 15 12 17 13 18 14 19
REMARK H PARENT
REMARK Flexibility Score: 70.00
ROOT
ATOM      1  C   UNL     1      -3.461  28.101  30.492  1.00  0.00     0.136 C 
ATOM      2  O   UNL     1      -3.405  29.199  31.025  1.00  0.00    -0.299 OA
ENDROOT
BRANCH   1   3
ATOM      3  C   UNL     1      -4.817  27.464  30.247  1.00  0.00     0.053 C 
ATOM      4  C   UNL     1      -4.620  26.045  29.703  1.00  0.00     0.016 C 
BRANCH   3   5
ATOM      5  C   UNL     1      -5.684  28.291  29.275  1.00  0.00     0.015 C 
BRANCH   5   6
ATOM      6  C   UNL     1      -5.713  29.802  29.562  1.00  0.00     0.028 C 
BRANCH   6   7
ATOM      7  C   UNL     1      -5.422  30.665  28.355  1.00  0.00    -0.028 C 
ATOM      8  C   UNL     1      -4.267  30.756  27.644  1.00  0.00    -0.070 CG0
ATOM      9  C   UNL     1      -4.301  31.622  26.407  1.00  0.00     0.039 C 
ATOM     10  G   UNL     1      -2.925  30.144  28.038  1.00  0.00     0.000 G0
ENDBRANCH   6   7
ENDBRANCH   5   6
ENDBRANCH   3   5
ENDBRANCH   1   3
BRANCH   1  11
ATOM     11  C   UNL     1      -2.191  27.448  29.991  1.00  0.00     0.087 C 
BRANCH  11  12
ATOM     12  C   UNL     1      -1.736  27.858  28.558  1.00  0.00     0.066 C 
BRANCH  12  13
ATOM     13  C   UNL     1      -2.787  28.650  27.781  1.00  0.00     0.140 C 
ATOM     14  O   UNL     1      -3.429  28.130  26.880  1.00  0.00    -0.299 OA
BRANCH  13  15
ATOM     15  C   UNL     1      -2.918  30.133  28.010  1.00  0.00     0.106 CG0
ATOM     16  G   UNL     1      -4.269  30.746  27.650  1.00  0.00     0.000 G0
ENDBRANCH  13  15
ENDBRANCH  12  13
BRANCH  12  17
ATOM     17  C   UNL     1      -1.039  26.695  27.774  1.00  0.00    -0.006 C 
ATOM     18  C   UNL     1       0.232  26.145  28.444  1.00  0.00     0.008 C 
ATOM     19  C   UNL     1      -2.016  25.552  27.439  1.00  0.00     0.008 C 
ENDBRANCH  12  17
ENDBRANCH  11  12
ENDBRANCH   1  11
TORSDOF 1
ENDMDL
MODEL 2
REMARK VINA RESULT:    -3.418      1.785      4.418
REMARK INTER + INTRA:          -3.773
REMARK INTER:                  -4.230
REMARK INTRA:                   0.457
REMARK UNBOUND:                 1.443
REMARK SMILES CC1=CCC[C@@H](C)C(=O)C[C@@H](C(C)C)C(=O)C1
REMARK SMILES IDX 8 1 9 2 6 3 7 4 5 5 4 6 3 7 2 8 1 9 10 11 11 12 15 13 16 14
REMARK SMILES IDX 17 15 12 17 13 18 14 19
REMARK H PARENT
REMARK Flexibility Score: 70.00
ROOT
ATOM      1  C   UNL     1      -2.087  28.241  27.869  1.00  0.00     0.136 C 
ATOM      2  O   UNL     1      -1.138  28.935  28.203  1.00  0.00    -0.299 OA
ENDROOT
BRANCH   1   3
ATOM      3  C   UNL     1      -2.097  26.770  28.243  1.00  0.00     0.053 C 
ATOM      4  C   UNL     1      -1.545  25.945  27.076  1.00  0.00     0.016 C 
BRANCH   3   5
ATOM      5  C   UNL     1      -3.506  26.274  28.626  1.00  0.00     0.015 C 
BRANCH   5   6
ATOM      6  C   UNL     1      -3.879  26.469  30.106  1.00  0.00     0.028 C 
BRANCH   6   7
ATOM      7  C   UNL     1      -3.126  27.587  30.790  1.00  0.00    -0.028 C 
ATOM      8  C   UNL     1      -3.541  28.861  31.024  1.00  0.00    -0.070 CG0
ATOM      9  C   UNL     1      -2.615  29.735  31.837  1.00  0.00     0.039 C 
ATOM     10  G   UNL     1      -4.802  29.508  30.457  1.00  0.00     0.000 G0
ENDBRANCH   6   7
ENDBRANCH   5   6
ENDBRANCH   3   5
ENDBRANCH   1   3
BRANCH   1  11
ATOM     11  C   UNL     1      -3.277  28.880  27.187  1.00  0.00     0.087 C 
BRANCH  11  12
ATOM     12  C   UNL     1      -4.033  29.964  28.012  1.00  0.00     0.066 C 
BRANCH  12  13
ATOM     13  C   UNL     1      -5.054  29.389  28.993  1.00  0.00     0.140 C 
ATOM     14  O   UNL     1      -6.124  28.947  28.601  1.00  0.00    -0.299 OA
BRANCH  13  15
ATOM     15  C   UNL     1      -4.817  29.522  30.475  1.00  0.00     0.106 CG0
ATOM     16  G   UNL     1      -3.543  28.872  31.007  1.00  0.00     0.000 G0
ENDBRANCH  13  15
ENDBRANCH  12  13
BRANCH  12  17
ATOM     17  C   UNL     1      -4.523  31.172  27.144  1.00  0.00    -0.006 C 
ATOM     18  C   UNL     1      -5.917  31.702  27.518  1.00  0.00     0.008 C 
ATOM     19  C   UNL     1      -3.496  32.318  27.109  1.00  0.00     0.008 C 
ENDBRANCH  12  17
ENDBRANCH  11  12
ENDBRANCH   1  11
TORSDOF 1
ENDMDL
MODEL 3
REMARK VINA RESULT:    -3.029      1.854      3.385
REMARK INTER + INTRA:          -3.179
REMARK INTER:                  -4.157
REMARK INTRA:                   0.977
REMARK UNBOUND:                 1.443
REMARK SMILES CC1=CCC[C@@H](C)C(=O)C[C@@H](C(C)C)C(=O)C1
REMARK SMILES IDX 8 1 9 2 6 3 7 4 5 5 4 6 3 7 2 8 1 9 10 11 11 12 15 13 16 14
REMARK SMILES IDX 17 15 12 17 13 18 14 19
REMARK H PARENT
REMARK Flexibility Score: 70.00
ROOT
ATOM      1  C   UNL     1      -3.340  29.506  27.654  1.00  0.00     0.136 C 
ATOM      2  O   UNL     1      -2.694  30.355  28.249  1.00  0.00    -0.299 OA
ENDROOT
BRANCH   1   3
ATOM      3  C   UNL     1      -4.823  29.729  27.423  1.00  0.00     0.053 C 
ATOM      4  C   UNL     1      -5.072  31.209  27.108  1.00  0.00     0.016 C 
BRANCH   3   5
ATOM      5  C   UNL     1      -5.676  29.293  28.633  1.00  0.00     0.015 C 
BRANCH   5   6
ATOM      6  C   UNL     1      -4.979  28.314  29.593  1.00  0.00     0.028 C 
BRANCH   6   7
ATOM      7  C   UNL     1      -4.228  28.984  30.721  1.00  0.00    -0.028 C 
ATOM      8  C   UNL     1      -2.949  28.766  31.127  1.00  0.00    -0.070 CG0
ATOM      9  C   UNL     1      -2.423  29.670  32.217  1.00  0.00     0.039 C 
ATOM     10  G   UNL     1      -2.042  27.635  30.651  1.00  0.00     0.000 G0
ENDBRANCH   6   7
ENDBRANCH   5   6
ENDBRANCH   3   5
ENDBRANCH   1   3
BRANCH   1  11
ATOM     11  C   UNL     1      -2.632  28.305  27.065  1.00  0.00     0.087 C 
BRANCH  11  12
ATOM     12  C   UNL     1      -2.181  27.215  28.083  1.00  0.00     0.066 C 
BRANCH  12  13
ATOM     13  C   UNL     1      -1.435  27.776  29.294  1.00  0.00     0.140 C 
ATOM     14  O   UNL     1      -0.298  28.213  29.186  1.00  0.00    -0.299 OA
BRANCH  13  15
ATOM     15  C   UNL     1      -2.035  27.633  30.668  1.00  0.00     0.106 CG0
ATOM     16  G   UNL     1      -2.945  28.772  31.120  1.00  0.00     0.000 G0
ENDBRANCH  13  15
ENDBRANCH  12  13
BRANCH  12  17
ATOM     17  C   UNL     1      -1.535  25.962  27.402  1.00  0.00    -0.006 C 
ATOM     18  C   UNL     1      -0.127  25.612  27.913  1.00  0.00     0.008 C 
ATOM     19  C   UNL     1      -2.457  24.730  27.457  1.00  0.00     0.008 C 
ENDBRANCH  12  17
ENDBRANCH  11  12
ENDBRANCH   1  11
TORSDOF 1
ENDMDL
MODEL 4
REMARK VINA RESULT:    -2.770      1.707      4.511
REMARK INTER + INTRA:          -2.785
REMARK INTER:                  -3.416
REMARK INTRA:                   0.631
REMARK UNBOUND:                 1.443
REMARK SMILES CC1=CCC[C@@H](C)C(=O)C[C@@H](C(C)C)C(=O)C1
REMARK SMILES IDX 8 1 9 2 6 3 7 4 5 5 4 6 3 7 2 8 1 9 10 11 11 12 15 13 16 14
REMARK SMILES IDX 17 15 12 17 13 18 14 19
REMARK H PARENT
REMARK Flexibility Score: 70.00
ROOT
ATOM      1  C   UNL     1      -4.464  28.448  30.082  1.00  0.00     0.136 C 
ATOM      2  O   UNL     1      -4.996  27.413  29.710  1.00  0.00    -0.299 OA
ENDROOT
BRANCH   1   3
ATOM      3  C   UNL     1      -3.497  28.405  31.251  1.00  0.00     0.053 C 
ATOM      4  C   UNL     1      -2.835  29.778  31.413  1.00  0.00     0.016 C 
BRANCH   3   5
ATOM      5  C   UNL     1      -2.420  27.313  31.079  1.00  0.00     0.015 C 
BRANCH   5   6
ATOM      6  C   UNL     1      -1.221  27.721  30.207  1.00  0.00     0.028 C 
BRANCH   6   7
ATOM      7  C   UNL     1      -0.960  26.792  29.043  1.00  0.00    -0.028 C 
ATOM      8  C   UNL     1      -1.612  26.732  27.852  1.00  0.00    -0.070 CG0
ATOM      9  C   UNL     1      -1.056  25.774  26.824  1.00  0.00     0.039 C 
ATOM     10  G   UNL     1      -2.903  27.468  27.502  1.00  0.00     0.000 G0
ENDBRANCH   6   7
ENDBRANCH   5   6
ENDBRANCH   3   5
ENDBRANCH   1   3
BRANCH   1  11
ATOM     11  C   UNL     1      -4.695  29.727  29.308  1.00  0.00     0.087 C 
BRANCH  11  12
ATOM     12  C   UNL     1      -4.190  29.730  27.834  1.00  0.00     0.066 C 
BRANCH  12  13
ATOM     13  C   UNL     1      -2.880  28.970  27.631  1.00  0.00     0.140 C 
ATOM     14  O   UNL     1      -1.828  29.565  27.451  1.00  0.00    -0.299 OA
BRANCH  13  15
ATOM     15  C   UNL     1      -2.907  27.471  27.478  1.00  0.00     0.106 CG0
ATOM     16  G   UNL     1      -1.618  26.741  27.844  1.00  0.00     0.000 G0
ENDBRANCH  13  15
ENDBRANCH  12  13
BRANCH  12  17
ATOM     17  C   UNL     1      -4.276  31.138  27.153  1.00  0.00    -0.006 C 
ATOM     18  C   UNL     1      -5.651  31.472  26.550  1.00  0.00     0.008 C 
ATOM     19  C   UNL     1      -3.803  32.266  28.088  1.00  0.00     0.008 C 
ENDBRANCH  12  17
ENDBRANCH  11  12
ENDBRANCH   1  11
TORSDOF 1
ENDMDL
MODEL 5
REMARK VINA RESULT:    -1.164      2.058      4.429
REMARK INTER + INTRA:          -0.334
REMARK INTER:                  -2.483
REMARK INTRA:                   2.149
REMARK UNBOUND:                 1.443
REMARK SMILES CC1=CCC[C@@H](C)C(=O)C[C@@H](C(C)C)C(=O)C1
REMARK SMILES IDX 8 1 9 2 6 3 7 4 5 5 4 6 3 7 2 8 1 9 10 11 11 12 15 13 16 14
REMARK SMILES IDX 17 15 12 17 13 18 14 19
REMARK H PARENT
REMARK Flexibility Score: 70.00
ROOT
ATOM      1  C   UNL     1      -5.340  30.535  29.023  1.00  0.00     0.136 C 
ATOM      2  O   UNL     1      -6.109  31.439  29.310  1.00  0.00    -0.299 OA
ENDROOT
BRANCH   1   3
ATOM      3  C   UNL     1      -4.359  30.731  27.881  1.00  0.00     0.053 C 
ATOM      4  C   UNL     1      -5.030  31.546  26.770  1.00  0.00     0.016 C 
BRANCH   3   5
ATOM      5  C   UNL     1      -3.841  29.391  27.319  1.00  0.00     0.015 C 
BRANCH   5   6
ATOM      6  C   UNL     1      -2.359  29.100  27.610  1.00  0.00     0.028 C 
BRANCH   6   7
ATOM      7  C   UNL     1      -1.911  27.714  27.208  1.00  0.00    -0.028 C 
ATOM      8  C   UNL     1      -2.110  26.541  27.867  1.00  0.00    -0.070 CG0
ATOM      9  C   UNL     1      -1.647  25.285  27.167  1.00  0.00     0.039 C 
ATOM     10  G   UNL     1      -2.665  26.395  29.281  1.00  0.00     0.000 G0
ENDBRANCH   6   7
ENDBRANCH   5   6
ENDBRANCH   3   5
ENDBRANCH   1   3
BRANCH   1  11
ATOM     11  C   UNL     1      -5.305  29.284  29.874  1.00  0.00     0.087 C 
BRANCH  11  12
ATOM     12  C   UNL     1      -3.922  28.574  29.981  1.00  0.00     0.066 C 
BRANCH  12  13
ATOM     13  C   UNL     1      -3.960  27.095  29.597  1.00  0.00     0.140 C 
ATOM     14  O   UNL     1      -4.997  26.451  29.670  1.00  0.00    -0.299 OA
BRANCH  13  15
ATOM     15  C   UNL     1      -2.674  26.374  29.288  1.00  0.00     0.106 CG0
ATOM     16  G   UNL     1      -2.128  26.560  27.875  1.00  0.00     0.000 G0
ENDBRANCH  13  15
ENDBRANCH  12  13
BRANCH  12  17
ATOM     17  C   UNL     1      -3.150  28.918  31.299  1.00  0.00    -0.006 C 
ATOM     18  C   UNL     1      -1.928  28.025  31.574  1.00  0.00     0.008 C 
ATOM     19  C   UNL     1      -2.765  30.407  31.376  1.00  0.00     0.008 C 
ENDBRANCH  12  17
ENDBRANCH  11  12
ENDBRANCH   1  11
TORSDOF 1
ENDMDL
MODEL 6
REMARK VINA RESULT:    -1.000     19.864     21.139
REMARK INTER + INTRA:          -0.084
REMARK INTER:                  -1.817
REMARK INTRA:                   1.734
REMARK UNBOUND:                 1.443
REMARK SMILES CC1=CCC[C@@H](C)C(=O)C[C@@H](C(C)C)C(=O)C1
REMARK SMILES IDX 8 1 9 2 6 3 7 4 5 5 4 6 3 7 2 8 1 9 10 11 11 12 15 13 16 14
REMARK SMILES IDX 17 15 12 17 13 18 14 19
REMARK H PARENT
REMARK Flexibility Score: 70.00
ROOT
ATOM      1  C   UNL     1      13.490  37.205  38.974  1.00  0.00     0.136 C 
ATOM      2  O   UNL     1      13.256  36.011  38.869  1.00  0.00    -0.299 OA
ENDROOT
BRANCH   1   3
ATOM      3  C   UNL     1      14.105  37.730  40.259  1.00  0.00     0.053 C 
ATOM      4  C   UNL     1      13.979  36.665  41.354  1.00  0.00     0.016 C 
BRANCH   3   5
ATOM      5  C   UNL     1      13.454  39.049  40.723  1.00  0.00     0.015 C 
BRANCH   5   6
ATOM      6  C   UNL     1      12.765  38.980  42.096  1.00  0.00     0.028 C 
BRANCH   6   7
ATOM      7  C   UNL     1      11.493  38.164  42.109  1.00  0.00    -0.028 C 
ATOM      8  C   UNL     1      10.596  37.989  41.102  1.00  0.00    -0.070 CG0
ATOM      9  C   UNL     1       9.467  37.019  41.364  1.00  0.00     0.039 C 
ATOM     10  G   UNL     1      10.576  38.752  39.781  1.00  0.00     0.000 G0
ENDBRANCH   6   7
ENDBRANCH   5   6
ENDBRANCH   3   5
ENDBRANCH   1   3
BRANCH   1  11
ATOM     11  C   UNL     1      13.266  38.118  37.788  1.00  0.00     0.087 C 
BRANCH  11  12
ATOM     12  C   UNL     1      11.782  38.472  37.473  1.00  0.00     0.066 C 
BRANCH  12  13
ATOM     13  C   UNL     1      10.792  37.962  38.521  1.00  0.00     0.140 C 
ATOM     14  O   UNL     1      10.082  36.993  38.297  1.00  0.00    -0.299 OA
BRANCH  13  15
ATOM     15  C   UNL     1      10.564  38.761  39.778  1.00  0.00     0.106 CG0
ATOM     16  G   UNL     1      10.596  37.972  41.084  1.00  0.00     0.000 G0
ENDBRANCH  13  15
ENDBRANCH  12  13
BRANCH  12  17
ATOM     17  C   UNL     1      11.388  38.215  35.979  1.00  0.00    -0.006 C 
ATOM     18  C   UNL     1      12.346  38.840  34.951  1.00  0.00     0.008 C 
ATOM     19  C   UNL     1      11.171  36.719  35.684  1.00  0.00     0.008 C 
ENDBRANCH  12  17
ENDBRANCH  11  12
ENDBRANCH   1  11
TORSDOF 1
ENDMDL
MODEL 7
REMARK VINA RESULT:    -0.581      1.986      4.066
REMARK INTER + INTRA:           0.557
REMARK INTER:                  -0.486
REMARK INTRA:                   1.043
REMARK UNBOUND:                 1.443
REMARK SMILES CC1=CCC[C@@H](C)C(=O)C[C@@H](C(C)C)C(=O)C1
REMARK SMILES IDX 8 1 9 2 6 3 7 4 5 5 4 6 3 7 2 8 1 9 10 11 11 12 15 13 16 14
REMARK SMILES IDX 17 15 12 17 13 18 14 19
REMARK H PARENT
REMARK Flexibility Score: 70.00
ROOT
ATOM      1  C   UNL     1      -4.642  29.921  29.688  1.00  0.00     0.136 C 
ATOM      2  O   UNL     1      -5.770  29.976  30.155  1.00  0.00    -0.299 OA
ENDROOT
BRANCH   1   3
ATOM      3  C   UNL     1      -4.386  30.478  28.300  1.00  0.00     0.053 C 
ATOM      4  C   UNL     1      -5.577  31.344  27.873  1.00  0.00     0.016 C 
BRANCH   3   5
ATOM      5  C   UNL     1      -4.137  29.366  27.260  1.00  0.00     0.015 C 
BRANCH   5   6
ATOM      6  C   UNL     1      -2.689  29.273  26.750  1.00  0.00     0.028 C 
BRANCH   6   7
ATOM      7  C   UNL     1      -2.112  27.876  26.780  1.00  0.00    -0.028 C 
ATOM      8  C   UNL     1      -1.508  27.238  27.817  1.00  0.00    -0.070 CG0
ATOM      9  C   UNL     1      -1.129  25.793  27.593  1.00  0.00     0.039 C 
ATOM     10  G   UNL     1      -1.093  27.877  29.140  1.00  0.00     0.000 G0
ENDBRANCH   6   7
ENDBRANCH   5   6
ENDBRANCH   3   5
ENDBRANCH   1   3
BRANCH   1  11
ATOM     11  C   UNL     1      -3.506  29.400  30.541  1.00  0.00     0.087 C 
BRANCH  11  12
ATOM     12  C   UNL     1      -3.308  27.855  30.540  1.00  0.00     0.066 C 
BRANCH  12  13
ATOM     13  C   UNL     1      -1.855  27.421  30.341  1.00  0.00     0.140 C 
ATOM     14  O   UNL     1      -1.250  26.824  31.219  1.00  0.00    -0.299 OA
BRANCH  13  15
ATOM     15  C   UNL     1      -1.103  27.881  29.119  1.00  0.00     0.106 CG0
ATOM     16  G   UNL     1      -1.514  27.233  27.800  1.00  0.00     0.000 G0
ENDBRANCH  13  15
ENDBRANCH  12  13
BRANCH  12  17
ATOM     17  C   UNL     1      -4.372  27.095  29.678  1.00  0.00    -0.006 C 
ATOM     18  C   UNL     1      -4.019  25.629  29.375  1.00  0.00     0.008 C 
ATOM     19  C   UNL     1      -5.787  27.202  30.275  1.00  0.00     0.008 C 
ENDBRANCH  12  17
ENDBRANCH  11  12
ENDBRANCH   1  11
TORSDOF 1
ENDMDL
