MODEL 1
REMARK VINA RESULT:    -3.331      0.000      0.000
REMARK INTER + INTRA:          -5.039
REMARK INTER:                  -4.694
REMARK INTRA:                  -0.345
REMARK UNBOUND:                -0.345
REMARK SMILES CC1=CCC(=C(C)C)CCC(C)=CCC1
REMARK SMILES IDX 5 1 6 2 7 3 8 4 9 5 10 6 11 7 12 8 13 9 4 11 3 12 2 13 1 14
REMARK SMILES IDX 15 15 14 16
REMARK H PARENT
REMARK Flexibility Score: 60.00
ROOT
ATOM      1  C   UNL     1      30.200   8.219  29.332  1.00  0.00    -0.067 C 
ATOM      2  C   UNL     1      30.897   7.382  28.496  1.00  0.00    -0.077 C 
ATOM      3  C   UNL     1      30.982   7.653  27.007  1.00  0.00     0.039 C 
ATOM      4  C   UNL     1      31.622   6.155  29.016  1.00  0.00     0.039 C 
ENDROOT
BRANCH   1   5
ATOM      5  C   UNL     1      29.499   9.449  28.741  1.00  0.00     0.035 C 
BRANCH   5   6
ATOM      6  C   UNL     1      29.749  10.828  29.392  1.00  0.00     0.035 C 
BRANCH   6   7
ATOM      7  C   UNL     1      28.552  11.375  30.161  1.00  0.00    -0.077 C 
ATOM      8  C   UNL     1      27.265  11.602  29.404  1.00  0.00     0.039 C 
ATOM      9  C   UNL     1      28.584  11.770  31.458  1.00  0.00    -0.028 CG0
ATOM     10  G   UNL     1      29.733  11.598  32.426  1.00  0.00     0.000 G0
ENDBRANCH   6   7
ENDBRANCH   5   6
ENDBRANCH   1   5
BRANCH   1  11
ATOM     11  C   UNL     1      30.097   7.908  30.820  1.00  0.00     0.058 C 
BRANCH  11  12
ATOM     12  C   UNL     1      31.286   8.477  31.554  1.00  0.00    -0.024 C 
ATOM     13  C   UNL     1      31.230   9.482  32.455  1.00  0.00    -0.077 C 
ATOM     14  C   UNL     1      32.526   9.964  33.058  1.00  0.00     0.039 C 
BRANCH  13  15
ATOM     15  C   UNL     1      29.923  10.118  32.907  1.00  0.00     0.034 C 
BRANCH  15  16
ATOM     16  C   UNL     1      29.723  11.583  32.447  1.00  0.00     0.032 CG0
ATOM     17  G   UNL     1      28.590  11.756  31.460  1.00  0.00     0.000 G0
ENDBRANCH  15  16
ENDBRANCH  13  15
ENDBRANCH  11  12
ENDBRANCH   1  11
TORSDOF 0
ENDMDL
MODEL 2
REMARK VINA RESULT:    -3.309      3.956      6.105
REMARK INTER + INTRA:          -5.009
REMARK INTER:                  -4.657
REMARK INTRA:                  -0.352
REMARK UNBOUND:                -0.345
REMARK SMILES CC1=CCC(=C(C)C)CCC(C)=CCC1
REMARK SMILES IDX 5 1 6 2 7 3 8 4 9 5 10 6 11 7 12 8 13 9 4 11 3 12 2 13 1 14
REMARK SMILES IDX 15 15 14 16
REMARK H PARENT
REMARK Flexibility Score: 60.00
ROOT
ATOM      1  C   UNL     1      29.977   8.285  26.972  1.00  0.00    -0.067 C 
ATOM      2  C   UNL     1      30.535   7.673  28.067  1.00  0.00    -0.077 C 
ATOM      3  C   UNL     1      31.608   6.613  27.912  1.00  0.00     0.039 C 
ATOM      4  C   UNL     1      30.118   8.029  29.482  1.00  0.00     0.039 C 
ENDROOT
BRANCH   1   5
ATOM      5  C   UNL     1      30.454   7.884  25.570  1.00  0.00     0.035 C 
BRANCH   5   6
ATOM      6  C   UNL     1      30.910   8.995  24.597  1.00  0.00     0.035 C 
BRANCH   6   7
ATOM      7  C   UNL     1      29.887   9.332  23.520  1.00  0.00    -0.077 C 
ATOM      8  C   UNL     1      29.498   8.247  22.545  1.00  0.00     0.039 C 
ATOM      9  C   UNL     1      29.370  10.568  23.306  1.00  0.00    -0.028 CG0
ATOM     10  G   UNL     1      29.569  11.792  24.172  1.00  0.00     0.000 G0
ENDBRANCH   6   7
ENDBRANCH   5   6
ENDBRANCH   1   5
BRANCH   1  11
ATOM     11  C   UNL     1      28.875   9.322  27.150  1.00  0.00     0.058 C 
BRANCH  11  12
ATOM     12  C   UNL     1      29.471  10.656  27.524  1.00  0.00    -0.024 C 
ATOM     13  C   UNL     1      29.424  11.766  26.755  1.00  0.00    -0.077 C 
ATOM     14  C   UNL     1      30.119  13.006  27.261  1.00  0.00     0.039 C 
BRANCH  13  15
ATOM     15  C   UNL     1      28.677  11.826  25.430  1.00  0.00     0.034 C 
BRANCH  15  16
ATOM     16  C   UNL     1      29.583  11.799  24.175  1.00  0.00     0.032 CG0
ATOM     17  G   UNL     1      29.384  10.570  23.314  1.00  0.00     0.000 G0
ENDBRANCH  15  16
ENDBRANCH  13  15
ENDBRANCH  11  12
ENDBRANCH   1  11
TORSDOF 0
ENDMDL
MODEL 3
REMARK VINA RESULT:    -3.298      2.152      3.998
REMARK INTER + INTRA:          -4.993
REMARK INTER:                  -4.674
REMARK INTRA:                  -0.319
REMARK UNBOUND:                -0.345
REMARK SMILES CC1=CCC(=C(C)C)CCC(C)=CCC1
REMARK SMILES IDX 5 1 6 2 7 3 8 4 9 5 10 6 11 7 12 8 13 9 4 11 3 12 2 13 1 14
REMARK SMILES IDX 15 15 14 16
REMARK H PARENT
REMARK Flexibility Score: 60.00
ROOT
ATOM      1  C   UNL     1      29.477  10.224  29.264  1.00  0.00    -0.067 C 
ATOM      2  C   UNL     1      29.283  11.323  28.464  1.00  0.00    -0.077 C 
ATOM      3  C   UNL     1      29.417  11.230  26.956  1.00  0.00     0.039 C 
ATOM      4  C   UNL     1      28.916  12.677  29.041  1.00  0.00     0.039 C 
ENDROOT
BRANCH   1   5
ATOM      5  C   UNL     1      29.836   8.882  28.613  1.00  0.00     0.035 C 
BRANCH   5   6
ATOM      6  C   UNL     1      30.830   7.948  29.341  1.00  0.00     0.035 C 
BRANCH   6   7
ATOM      7  C   UNL     1      30.163   6.818  30.115  1.00  0.00    -0.077 C 
ATOM      8  C   UNL     1      29.181   5.937  29.380  1.00  0.00     0.039 C 
ATOM      9  C   UNL     1      30.310   6.602  31.446  1.00  0.00    -0.028 CG0
ATOM     10  G   UNL     1      31.267   7.315  32.375  1.00  0.00     0.000 G0
ENDBRANCH   6   7
ENDBRANCH   5   6
ENDBRANCH   1   5
BRANCH   1  11
ATOM     11  C   UNL     1      29.373  10.348  30.779  1.00  0.00     0.058 C 
BRANCH  11  12
ATOM     12  C   UNL     1      30.730  10.633  31.372  1.00  0.00    -0.024 C 
ATOM     13  C   UNL     1      31.308   9.917  32.360  1.00  0.00    -0.077 C 
ATOM     14  C   UNL     1      32.652  10.373  32.873  1.00  0.00     0.039 C 
BRANCH  13  15
ATOM     15  C   UNL     1      30.682   8.660  32.948  1.00  0.00     0.034 C 
BRANCH  15  16
ATOM     16  C   UNL     1      31.258   7.332  32.400  1.00  0.00     0.032 CG0
ATOM     17  G   UNL     1      30.315   6.605  31.466  1.00  0.00     0.000 G0
ENDBRANCH  15  16
ENDBRANCH  13  15
ENDBRANCH  11  12
ENDBRANCH   1  11
TORSDOF 0
ENDMDL
MODEL 4
REMARK VINA RESULT:    -3.222      1.867      4.584
REMARK INTER + INTRA:          -4.885
REMARK INTER:                  -4.557
REMARK INTRA:                  -0.328
REMARK UNBOUND:                -0.345
REMARK SMILES CC1=CCC(=C(C)C)CCC(C)=CCC1
REMARK SMILES IDX 5 1 6 2 7 3 8 4 9 5 10 6 11 7 12 8 13 9 4 11 3 12 2 13 1 14
REMARK SMILES IDX 15 15 14 16
REMARK H PARENT
REMARK Flexibility Score: 60.00
ROOT
ATOM      1  C   UNL     1      31.263   8.429  32.109  1.00  0.00    -0.067 C 
ATOM      2  C   UNL     1      31.308   8.240  33.468  1.00  0.00    -0.077 C 
ATOM      3  C   UNL     1      31.127   6.862  34.075  1.00  0.00     0.039 C 
ATOM      4  C   UNL     1      31.549   9.390  34.428  1.00  0.00     0.039 C 
ENDROOT
BRANCH   1   5
ATOM      5  C   UNL     1      31.026   7.219  31.195  1.00  0.00     0.035 C 
BRANCH   5   6
ATOM      6  C   UNL     1      29.874   7.284  30.167  1.00  0.00     0.035 C 
BRANCH   6   7
ATOM      7  C   UNL     1      30.328   7.606  28.748  1.00  0.00    -0.077 C 
ATOM      8  C   UNL     1      31.260   6.635  28.063  1.00  0.00     0.039 C 
ATOM      9  C   UNL     1      30.038   8.754  28.088  1.00  0.00    -0.028 CG0
ATOM     10  G   UNL     1      29.094   9.844  28.544  1.00  0.00     0.000 G0
ENDBRANCH   6   7
ENDBRANCH   5   6
ENDBRANCH   1   5
BRANCH   1  11
ATOM     11  C   UNL     1      31.411   9.828  31.522  1.00  0.00     0.058 C 
BRANCH  11  12
ATOM     12  C   UNL     1      30.137  10.610  31.716  1.00  0.00    -0.024 C 
ATOM     13  C   UNL     1      29.422  11.182  30.723  1.00  0.00    -0.077 C 
ATOM     14  C   UNL     1      28.196  11.976  31.100  1.00  0.00     0.039 C 
BRANCH  13  15
ATOM     15  C   UNL     1      29.780  11.031  29.251  1.00  0.00     0.034 C 
BRANCH  15  16
ATOM     16  C   UNL     1      29.092   9.843  28.536  1.00  0.00     0.032 CG0
ATOM     17  G   UNL     1      30.057   8.765  28.093  1.00  0.00     0.000 G0
ENDBRANCH  15  16
ENDBRANCH  13  15
ENDBRANCH  11  12
ENDBRANCH   1  11
TORSDOF 0
ENDMDL
MODEL 5
REMARK VINA RESULT:    -3.117      3.076      5.937
REMARK INTER + INTRA:          -4.738
REMARK INTER:                  -4.438
REMARK INTRA:                  -0.300
REMARK UNBOUND:                -0.345
REMARK SMILES CC1=CCC(=C(C)C)CCC(C)=CCC1
REMARK SMILES IDX 5 1 6 2 7 3 8 4 9 5 10 6 11 7 12 8 13 9 4 11 3 12 2 13 1 14
REMARK SMILES IDX 15 15 14 16
REMARK H PARENT
REMARK Flexibility Score: 60.00
ROOT
ATOM      1  C   UNL     1      29.519  10.254  29.669  1.00  0.00    -0.067 C 
ATOM      2  C   UNL     1      29.873  11.100  30.691  1.00  0.00    -0.077 C 
ATOM      3  C   UNL     1      30.790  10.641  31.809  1.00  0.00     0.039 C 
ATOM      4  C   UNL     1      29.379  12.533  30.750  1.00  0.00     0.039 C 
ENDROOT
BRANCH   1   5
ATOM      5  C   UNL     1      30.064   8.820  29.666  1.00  0.00     0.035 C 
BRANCH   5   6
ATOM      6  C   UNL     1      30.552   8.216  28.330  1.00  0.00     0.035 C 
BRANCH   6   7
ATOM      7  C   UNL     1      29.589   7.205  27.720  1.00  0.00    -0.077 C 
ATOM      8  C   UNL     1      29.188   6.012  28.554  1.00  0.00     0.039 C 
ATOM      9  C   UNL     1      29.139   7.243  26.441  1.00  0.00    -0.028 CG0
ATOM     10  G   UNL     1      29.360   8.354  25.438  1.00  0.00     0.000 G0
ENDBRANCH   6   7
ENDBRANCH   5   6
ENDBRANCH   1   5
BRANCH   1  11
ATOM     11  C   UNL     1      28.568  10.725  28.576  1.00  0.00     0.058 C 
BRANCH  11  12
ATOM     12  C   UNL     1      29.347  11.321  27.430  1.00  0.00    -0.024 C 
ATOM     13  C   UNL     1      29.375  10.826  26.174  1.00  0.00    -0.077 C 
ATOM     14  C   UNL     1      30.251  11.519  25.160  1.00  0.00     0.039 C 
BRANCH  13  15
ATOM     15  C   UNL     1      28.540   9.632  25.735  1.00  0.00     0.034 C 
BRANCH  15  16
ATOM     16  C   UNL     1      29.354   8.352  25.426  1.00  0.00     0.032 CG0
ATOM     17  G   UNL     1      29.133   7.240  26.427  1.00  0.00     0.000 G0
ENDBRANCH  15  16
ENDBRANCH  13  15
ENDBRANCH  11  12
ENDBRANCH   1  11
TORSDOF 0
ENDMDL
MODEL 6
REMARK VINA RESULT:    -3.115      3.688      6.143
REMARK INTER + INTRA:          -4.735
REMARK INTER:                  -4.401
REMARK INTRA:                  -0.334
REMARK UNBOUND:                -0.345
REMARK SMILES CC1=CCC(=C(C)C)CCC(C)=CCC1
REMARK SMILES IDX 5 1 6 2 7 3 8 4 9 5 10 6 11 7 12 8 13 9 4 11 3 12 2 13 1 14
REMARK SMILES IDX 15 15 14 16
REMARK H PARENT
REMARK Flexibility Score: 60.00
ROOT
ATOM      1  C   UNL     1      29.327  10.763  27.577  1.00  0.00    -0.067 C 
ATOM      2  C   UNL     1      29.845  11.832  28.266  1.00  0.00    -0.077 C 
ATOM      3  C   UNL     1      30.263  13.101  27.549  1.00  0.00     0.039 C 
ATOM      4  C   UNL     1      30.015  11.804  29.774  1.00  0.00     0.039 C 
ENDROOT
BRANCH   1   5
ATOM      5  C   UNL     1      29.173  10.862  26.053  1.00  0.00     0.035 C 
BRANCH   5   6
ATOM      6  C   UNL     1      30.265  10.237  25.156  1.00  0.00     0.035 C 
BRANCH   6   7
ATOM      7  C   UNL     1      29.718   9.370  24.029  1.00  0.00    -0.077 C 
ATOM      8  C   UNL     1      29.099  10.060  22.838  1.00  0.00     0.039 C 
ATOM      9  C   UNL     1      29.655   8.015  24.060  1.00  0.00    -0.028 CG0
ATOM     10  G   UNL     1      30.250   7.107  25.114  1.00  0.00     0.000 G0
ENDBRANCH   6   7
ENDBRANCH   5   6
ENDBRANCH   1   5
BRANCH   1  11
ATOM     11  C   UNL     1      28.947   9.484  28.313  1.00  0.00     0.058 C 
BRANCH  11  12
ATOM     12  C   UNL     1      30.148   8.581  28.442  1.00  0.00    -0.024 C 
ATOM     13  C   UNL     1      30.399   7.512  27.655  1.00  0.00    -0.077 C 
ATOM     14  C   UNL     1      31.624   6.684  27.956  1.00  0.00     0.039 C 
BRANCH  13  15
ATOM     15  C   UNL     1      29.524   7.132  26.469  1.00  0.00     0.034 C 
BRANCH  15  16
ATOM     16  C   UNL     1      30.261   7.092  25.108  1.00  0.00     0.032 CG0
ATOM     17  G   UNL     1      29.650   8.000  24.064  1.00  0.00     0.000 G0
ENDBRANCH  15  16
ENDBRANCH  13  15
ENDBRANCH  11  12
ENDBRANCH   1  11
TORSDOF 0
ENDMDL
MODEL 7
REMARK VINA RESULT:    -3.115      4.049      6.196
REMARK INTER + INTRA:          -4.734
REMARK INTER:                  -4.305
REMARK INTRA:                  -0.430
REMARK UNBOUND:                -0.345
REMARK SMILES CC1=CCC(=C(C)C)CCC(C)=CCC1
REMARK SMILES IDX 5 1 6 2 7 3 8 4 9 5 10 6 11 7 12 8 13 9 4 11 3 12 2 13 1 14
REMARK SMILES IDX 15 15 14 16
REMARK H PARENT
REMARK Flexibility Score: 60.00
ROOT
ATOM      1  C   UNL     1      30.977   9.846  34.453  1.00  0.00    -0.067 C 
ATOM      2  C   UNL     1      31.665  10.260  33.339  1.00  0.00    -0.077 C 
ATOM      3  C   UNL     1      31.020  10.238  31.966  1.00  0.00     0.039 C 
ATOM      4  C   UNL     1      33.092  10.766  33.422  1.00  0.00     0.039 C 
ENDROOT
BRANCH   1   5
ATOM      5  C   UNL     1      29.531   9.355  34.298  1.00  0.00     0.035 C 
BRANCH   5   6
ATOM      6  C   UNL     1      29.278   7.840  34.134  1.00  0.00     0.035 C 
BRANCH   6   7
ATOM      7  C   UNL     1      30.513   6.978  34.367  1.00  0.00    -0.077 C 
ATOM      8  C   UNL     1      31.389   6.655  33.180  1.00  0.00     0.039 C 
ATOM      9  C   UNL     1      30.833   6.392  35.548  1.00  0.00    -0.028 CG0
ATOM     10  G   UNL     1      30.142   6.604  36.877  1.00  0.00     0.000 G0
ENDBRANCH   6   7
ENDBRANCH   5   6
ENDBRANCH   1   5
BRANCH   1  11
ATOM     11  C   UNL     1      31.655   9.843  35.817  1.00  0.00     0.058 C 
BRANCH  11  12
ATOM     12  C   UNL     1      30.629  10.018  36.909  1.00  0.00    -0.024 C 
ATOM     13  C   UNL     1      30.235   9.048  37.762  1.00  0.00    -0.077 C 
ATOM     14  C   UNL     1      29.157   9.383  38.763  1.00  0.00     0.039 C 
BRANCH  13  15
ATOM     15  C   UNL     1      30.852   7.657  37.778  1.00  0.00     0.034 C 
BRANCH  15  16
ATOM     16  C   UNL     1      30.137   6.622  36.876  1.00  0.00     0.032 CG0
ATOM     17  G   UNL     1      30.842   6.379  35.560  1.00  0.00     0.000 G0
ENDBRANCH  15  16
ENDBRANCH  13  15
ENDBRANCH  11  12
ENDBRANCH   1  11
TORSDOF 0
ENDMDL
MODEL 8
REMARK VINA RESULT:    -3.075      2.607      4.606
REMARK INTER + INTRA:          -4.679
REMARK INTER:                  -4.406
REMARK INTRA:                  -0.272
REMARK UNBOUND:                -0.345
REMARK SMILES CC1=CCC(=C(C)C)CCC(C)=CCC1
REMARK SMILES IDX 5 1 6 2 7 3 8 4 9 5 10 6 11 7 12 8 13 9 4 11 3 12 2 13 1 14
REMARK SMILES IDX 15 15 14 16
REMARK H PARENT
REMARK Flexibility Score: 60.00
ROOT
ATOM      1  C   UNL     1      29.744   9.188  29.031  1.00  0.00    -0.067 C 
ATOM      2  C   UNL     1      30.320   8.064  29.570  1.00  0.00    -0.077 C 
ATOM      3  C   UNL     1      30.914   8.078  30.965  1.00  0.00     0.039 C 
ATOM      4  C   UNL     1      30.381   6.754  28.807  1.00  0.00     0.039 C 
ENDROOT
BRANCH   1   5
ATOM      5  C   UNL     1      29.706  10.478  29.862  1.00  0.00     0.035 C 
BRANCH   5   6
ATOM      6  C   UNL     1      29.709  11.835  29.122  1.00  0.00     0.035 C 
BRANCH   6   7
ATOM      7  C   UNL     1      28.320  12.338  28.747  1.00  0.00    -0.077 C 
ATOM      8  C   UNL     1      27.279  12.428  29.837  1.00  0.00     0.039 C 
ATOM      9  C   UNL     1      27.917  12.618  27.483  1.00  0.00    -0.028 CG0
ATOM     10  G   UNL     1      28.785  12.649  26.245  1.00  0.00     0.000 G0
ENDBRANCH   6   7
ENDBRANCH   5   6
ENDBRANCH   1   5
BRANCH   1  11
ATOM     11  C   UNL     1      29.185   9.162  27.614  1.00  0.00     0.058 C 
BRANCH  11  12
ATOM     12  C   UNL     1      30.250   9.569  26.627  1.00  0.00    -0.024 C 
ATOM     13  C   UNL     1      30.086  10.485  25.647  1.00  0.00    -0.077 C 
ATOM     14  C   UNL     1      31.244  10.735  24.712  1.00  0.00     0.039 C 
BRANCH  13  15
ATOM     15  C   UNL     1      28.808  11.292  25.472  1.00  0.00     0.034 C 
BRANCH  15  16
ATOM     16  C   UNL     1      28.782  12.638  26.237  1.00  0.00     0.032 CG0
ATOM     17  G   UNL     1      27.929  12.607  27.486  1.00  0.00     0.000 G0
ENDBRANCH  15  16
ENDBRANCH  13  15
ENDBRANCH  11  12
ENDBRANCH   1  11
TORSDOF 0
ENDMDL
MODEL 9
REMARK VINA RESULT:    -2.953      4.979      6.485
REMARK INTER + INTRA:          -4.507
REMARK INTER:                  -4.185
REMARK INTRA:                  -0.322
REMARK UNBOUND:                -0.345
REMARK SMILES CC1=CCC(=C(C)C)CCC(C)=CCC1
REMARK SMILES IDX 5 1 6 2 7 3 8 4 9 5 10 6 11 7 12 8 13 9 4 11 3 12 2 13 1 14
REMARK SMILES IDX 15 15 14 16
REMARK H PARENT
REMARK Flexibility Score: 60.00
ROOT
ATOM      1  C   UNL     1      28.967   9.313  24.687  1.00  0.00    -0.067 C 
ATOM      2  C   UNL     1      29.750   8.190  24.792  1.00  0.00    -0.077 C 
ATOM      3  C   UNL     1      30.394   7.565  23.569  1.00  0.00     0.039 C 
ATOM      4  C   UNL     1      30.019   7.526  26.129  1.00  0.00     0.039 C 
ENDROOT
BRANCH   1   5
ATOM      5  C   UNL     1      28.745   9.941  23.304  1.00  0.00     0.035 C 
BRANCH   5   6
ATOM      6  C   UNL     1      29.382  11.317  23.005  1.00  0.00     0.035 C 
BRANCH   6   7
ATOM      7  C   UNL     1      28.368  12.432  22.783  1.00  0.00    -0.077 C 
ATOM      8  C   UNL     1      27.516  12.380  21.537  1.00  0.00     0.039 C 
ATOM      9  C   UNL     1      28.240  13.527  23.572  1.00  0.00    -0.028 CG0
ATOM     10  G   UNL     1      28.941  13.777  24.890  1.00  0.00     0.000 G0
ENDBRANCH   6   7
ENDBRANCH   5   6
ENDBRANCH   1   5
BRANCH   1  11
ATOM     11  C   UNL     1      28.300   9.904  25.923  1.00  0.00     0.058 C 
BRANCH  11  12
ATOM     12  C   UNL     1      29.301  10.698  26.724  1.00  0.00    -0.024 C 
ATOM     13  C   UNL     1      29.362  12.047  26.767  1.00  0.00    -0.077 C 
ATOM     14  C   UNL     1      30.462  12.681  27.581  1.00  0.00     0.039 C 
BRANCH  13  15
ATOM     15  C   UNL     1      28.354  12.945  26.062  1.00  0.00     0.034 C 
BRANCH  15  16
ATOM     16  C   UNL     1      28.936  13.778  24.894  1.00  0.00     0.032 CG0
ATOM     17  G   UNL     1      28.247  13.525  23.571  1.00  0.00     0.000 G0
ENDBRANCH  15  16
ENDBRANCH  13  15
ENDBRANCH  11  12
ENDBRANCH   1  11
TORSDOF 0
ENDMDL
