MODEL 1
REMARK VINA RESULT:    -7.399      0.000      0.000
REMARK INTER + INTRA:          -8.995
REMARK INTER:                  -8.696
REMARK INTRA:                  -0.299
REMARK UNBOUND:                -0.299
REMARK SMILES O=c1c(O)c(-c2ccc(O)cc2)oc2cc(O)cc(O)c12
REMARK SMILES IDX 5 1 3 2 2 3 1 4 21 5 19 6 18 7 16 8 15 9 14 10 13 11 6 12
REMARK SMILES IDX 7 13 8 14 9 15 12 16 11 17 10 18 4 20 20 22 17 24
REMARK H PARENT 10 19 4 21 20 23 17 25
REMARK Flexibility Score: inf
ROOT
ATOM      1  C   UNL     1       6.439   6.326  -0.576  1.00  0.00     0.180 A 
ATOM      2  C   UNL     1       5.632   6.907   0.417  1.00  0.00     0.208 A 
ATOM      3  C   UNL     1       5.810   6.517   1.754  1.00  0.00     0.238 A 
ATOM      4  O   UNL     1       5.123   7.081   2.646  1.00  0.00    -0.285 OA
ATOM      5  C   UNL     1       6.780   5.538   2.079  1.00  0.00     0.111 A 
ATOM      6  C   UNL     1       7.018   5.038   3.395  1.00  0.00     0.134 A 
ATOM      7  C   UNL     1       8.091   4.166   3.619  1.00  0.00     0.093 A 
ATOM      8  C   UNL     1       8.893   3.727   2.567  1.00  0.00     0.123 A 
ATOM      9  C   UNL     1       8.632   4.163   1.267  1.00  0.00     0.094 A 
ATOM     10  C   UNL     1       7.592   5.060   1.017  1.00  0.00     0.146 A 
ATOM     11  O   UNL     1       7.384   5.459  -0.232  1.00  0.00    -0.452 OA
ENDROOT
BRANCH   1  12
ATOM     12  C   UNL     1       6.293   6.667  -2.010  1.00  0.00     0.021 A 
ATOM     13  C   UNL     1       5.375   5.992  -2.834  1.00  0.00     0.016 A 
ATOM     14  C   UNL     1       5.271   6.316  -4.191  1.00  0.00     0.047 A 
ATOM     15  C   UNL     1       6.094   7.307  -4.743  1.00  0.00     0.115 A 
ATOM     16  C   UNL     1       7.128   7.645  -2.576  1.00  0.00     0.016 A 
ATOM     17  C   UNL     1       7.022   7.967  -3.932  1.00  0.00     0.047 A 
BRANCH  15  18
ATOM     18  O   UNL     1       6.000   7.638  -6.092  1.00  0.00    -0.508 OA
ATOM     19  H   UNL     1       6.224   6.968  -6.819  1.00  0.00     0.293 HD
ENDBRANCH  15  18
ENDBRANCH   1  12
BRANCH   2  20
ATOM     20  O   UNL     1       4.697   7.888   0.077  1.00  0.00    -0.502 OA
ATOM     21  H   UNL     1       4.946   8.864  -0.027  1.00  0.00     0.293 HD
ENDBRANCH   2  20
BRANCH   6  22
ATOM     22  O   UNL     1       6.219   5.341   4.501  1.00  0.00    -0.507 OA
ATOM     23  H   UNL     1       5.538   6.086   4.532  1.00  0.00     0.293 HD
ENDBRANCH   6  22
BRANCH   8  24
ATOM     24  O   UNL     1       9.943   2.847   2.825  1.00  0.00    -0.508 OA
ATOM     25  H   UNL     1      10.776   3.147   3.317  1.00  0.00     0.293 HD
ENDBRANCH   8  24
TORSDOF 5
ENDMDL
MODEL 2
REMARK VINA RESULT:    -7.396      2.247      4.185
REMARK INTER + INTRA:          -8.992
REMARK INTER:                  -8.901
REMARK INTRA:                  -0.091
REMARK UNBOUND:                -0.299
REMARK SMILES O=c1c(O)c(-c2ccc(O)cc2)oc2cc(O)cc(O)c12
REMARK SMILES IDX 5 1 3 2 2 3 1 4 21 5 19 6 18 7 16 8 15 9 14 10 13 11 6 12
REMARK SMILES IDX 7 13 8 14 9 15 12 16 11 17 10 18 4 20 20 22 17 24
REMARK H PARENT 10 19 4 21 20 23 17 25
REMARK Flexibility Score: inf
ROOT
ATOM      1  C   UNL     1       6.721   5.130   1.795  1.00  0.00     0.180 A 
ATOM      2  C   UNL     1       8.044   4.743   1.518  1.00  0.00     0.208 A 
ATOM      3  C   UNL     1       8.645   3.754   2.312  1.00  0.00     0.238 A 
ATOM      4  O   UNL     1       9.810   3.373   2.025  1.00  0.00    -0.285 OA
ATOM      5  C   UNL     1       7.924   3.177   3.385  1.00  0.00     0.111 A 
ATOM      6  C   UNL     1       8.448   2.196   4.280  1.00  0.00     0.134 A 
ATOM      7  C   UNL     1       7.602   1.599   5.223  1.00  0.00     0.093 A 
ATOM      8  C   UNL     1       6.271   1.993   5.347  1.00  0.00     0.123 A 
ATOM      9  C   UNL     1       5.763   2.994   4.517  1.00  0.00     0.094 A 
ATOM     10  C   UNL     1       6.572   3.582   3.542  1.00  0.00     0.146 A 
ATOM     11  O   UNL     1       6.049   4.523   2.766  1.00  0.00    -0.452 OA
ENDROOT
BRANCH   1  12
ATOM     12  C   UNL     1       6.028   6.183   1.018  1.00  0.00     0.021 A 
ATOM     13  C   UNL     1       5.803   6.046  -0.364  1.00  0.00     0.016 A 
ATOM     14  C   UNL     1       5.166   7.063  -1.081  1.00  0.00     0.047 A 
ATOM     15  C   UNL     1       4.761   8.236  -0.430  1.00  0.00     0.115 A 
ATOM     16  C   UNL     1       5.637   7.370   1.659  1.00  0.00     0.016 A 
ATOM     17  C   UNL     1       5.000   8.386   0.939  1.00  0.00     0.047 A 
BRANCH  15  18
ATOM     18  O   UNL     1       4.126   9.256  -1.133  1.00  0.00    -0.508 OA
ATOM     19  H   UNL     1       4.606   9.779  -1.857  1.00  0.00     0.293 HD
ENDBRANCH  15  18
ENDBRANCH   1  12
BRANCH   2  20
ATOM     20  O   UNL     1       8.730   5.310   0.441  1.00  0.00    -0.502 OA
ATOM     21  H   UNL     1       9.711   5.556   0.491  1.00  0.00     0.293 HD
ENDBRANCH   2  20
BRANCH   6  22
ATOM     22  O   UNL     1       9.787   1.796   4.302  1.00  0.00    -0.507 OA
ATOM     23  H   UNL     1      10.477   2.061   3.615  1.00  0.00     0.293 HD
ENDBRANCH   6  22
BRANCH   8  24
ATOM     24  O   UNL     1       5.462   1.388   6.308  1.00  0.00    -0.508 OA
ATOM     25  H   UNL     1       5.442   0.383   6.426  1.00  0.00     0.293 HD
ENDBRANCH   8  24
TORSDOF 5
ENDMDL
MODEL 3
REMARK VINA RESULT:    -7.205      2.101      6.782
REMARK INTER + INTRA:          -8.767
REMARK INTER:                  -8.552
REMARK INTRA:                  -0.215
REMARK UNBOUND:                -0.299
REMARK SMILES O=c1c(O)c(-c2ccc(O)cc2)oc2cc(O)cc(O)c12
REMARK SMILES IDX 5 1 3 2 2 3 1 4 21 5 19 6 18 7 16 8 15 9 14 10 13 11 6 12
REMARK SMILES IDX 7 13 8 14 9 15 12 16 11 17 10 18 4 20 20 22 17 24
REMARK H PARENT 10 19 4 21 20 23 17 25
REMARK Flexibility Score: inf
ROOT
ATOM      1  C   UNL     1       5.836   5.334   2.385  1.00  0.00     0.180 A 
ATOM      2  C   UNL     1       5.650   6.648   2.848  1.00  0.00     0.208 A 
ATOM      3  C   UNL     1       5.448   7.677   1.915  1.00  0.00     0.238 A 
ATOM      4  O   UNL     1       5.227   8.842   2.338  1.00  0.00    -0.285 OA
ATOM      5  C   UNL     1       5.453   7.383   0.530  1.00  0.00     0.111 A 
ATOM      6  C   UNL     1       5.299   8.354  -0.505  1.00  0.00     0.134 A 
ATOM      7  C   UNL     1       5.189   7.933  -1.836  1.00  0.00     0.093 A 
ATOM      8  C   UNL     1       5.292   6.585  -2.175  1.00  0.00     0.123 A 
ATOM      9  C   UNL     1       5.502   5.633  -1.177  1.00  0.00     0.094 A 
ATOM     10  C   UNL     1       5.580   6.018   0.163  1.00  0.00     0.146 A 
ATOM     11  O   UNL     1       5.770   5.080   1.084  1.00  0.00    -0.452 OA
ENDROOT
BRANCH   1  12
ATOM     12  C   UNL     1       6.079   4.199   3.306  1.00  0.00     0.021 A 
ATOM     13  C   UNL     1       5.045   3.659   4.091  1.00  0.00     0.016 A 
ATOM     14  C   UNL     1       5.303   2.603   4.971  1.00  0.00     0.047 A 
ATOM     15  C   UNL     1       6.599   2.084   5.087  1.00  0.00     0.115 A 
ATOM     16  C   UNL     1       7.380   3.687   3.443  1.00  0.00     0.016 A 
ATOM     17  C   UNL     1       7.635   2.631   4.323  1.00  0.00     0.047 A 
BRANCH  15  18
ATOM     18  O   UNL     1       6.869   1.032   5.959  1.00  0.00    -0.508 OA
ATOM     19  H   UNL     1       6.444   0.985   6.878  1.00  0.00     0.293 HD
ENDBRANCH  15  18
ENDBRANCH   1  12
BRANCH   2  20
ATOM     20  O   UNL     1       5.626   6.912   4.220  1.00  0.00    -0.502 OA
ATOM     21  H   UNL     1       5.908   7.805   4.607  1.00  0.00     0.293 HD
ENDBRANCH   2  20
BRANCH   6  22
ATOM     22  O   UNL     1       5.278   9.734  -0.284  1.00  0.00    -0.507 OA
ATOM     23  H   UNL     1       4.478  10.329  -0.443  1.00  0.00     0.293 HD
ENDBRANCH   6  22
BRANCH   8  24
ATOM     24  O   UNL     1       5.193   6.203  -3.512  1.00  0.00    -0.508 OA
ATOM     25  H   UNL     1       4.330   5.838  -3.896  1.00  0.00     0.293 HD
ENDBRANCH   8  24
TORSDOF 5
ENDMDL
MODEL 4
REMARK VINA RESULT:    -6.953      2.673      7.889
REMARK INTER + INTRA:          -8.471
REMARK INTER:                  -8.385
REMARK INTRA:                  -0.086
REMARK UNBOUND:                -0.299
REMARK SMILES O=c1c(O)c(-c2ccc(O)cc2)oc2cc(O)cc(O)c12
REMARK SMILES IDX 5 1 3 2 2 3 1 4 21 5 19 6 18 7 16 8 15 9 14 10 13 11 6 12
REMARK SMILES IDX 7 13 8 14 9 15 12 16 11 17 10 18 4 20 20 22 17 24
REMARK H PARENT 10 19 4 21 20 23 17 25
REMARK Flexibility Score: inf
ROOT
ATOM      1  C   UNL     1       6.609   4.078   3.979  1.00  0.00     0.180 A 
ATOM      2  C   UNL     1       7.849   3.768   3.396  1.00  0.00     0.208 A 
ATOM      3  C   UNL     1       8.207   4.384   2.187  1.00  0.00     0.238 A 
ATOM      4  O   UNL     1       9.342   4.144   1.697  1.00  0.00    -0.285 OA
ATOM      5  C   UNL     1       7.313   5.290   1.566  1.00  0.00     0.111 A 
ATOM      6  C   UNL     1       7.555   5.942   0.320  1.00  0.00     0.134 A 
ATOM      7  C   UNL     1       6.659   6.918  -0.134  1.00  0.00     0.093 A 
ATOM      8  C   UNL     1       5.500   7.219   0.578  1.00  0.00     0.123 A 
ATOM      9  C   UNL     1       5.223   6.544   1.769  1.00  0.00     0.094 A 
ATOM     10  C   UNL     1       6.116   5.593   2.266  1.00  0.00     0.146 A 
ATOM     11  O   UNL     1       5.821   4.981   3.407  1.00  0.00    -0.452 OA
ENDROOT
BRANCH   1  12
ATOM     12  C   UNL     1       6.150   3.450   5.240  1.00  0.00     0.021 A 
ATOM     13  C   UNL     1       6.032   2.053   5.362  1.00  0.00     0.016 A 
ATOM     14  C   UNL     1       5.575   1.484   6.554  1.00  0.00     0.047 A 
ATOM     15  C   UNL     1       5.217   2.303   7.633  1.00  0.00     0.115 A 
ATOM     16  C   UNL     1       5.771   4.264   6.319  1.00  0.00     0.016 A 
ATOM     17  C   UNL     1       5.314   3.692   7.511  1.00  0.00     0.047 A 
BRANCH  15  18
ATOM     18  O   UNL     1       4.761   1.748   8.826  1.00  0.00    -0.508 OA
ATOM     19  H   UNL     1       3.860   1.998   9.217  1.00  0.00     0.293 HD
ENDBRANCH  15  18
ENDBRANCH   1  12
BRANCH   2  20
ATOM     20  O   UNL     1       8.726   2.887   4.037  1.00  0.00    -0.502 OA
ATOM     21  H   UNL     1       9.427   2.357   3.534  1.00  0.00     0.293 HD
ENDBRANCH   2  20
BRANCH   6  22
ATOM     22  O   UNL     1       8.636   5.649  -0.517  1.00  0.00    -0.507 OA
ATOM     23  H   UNL     1       9.258   6.338  -0.915  1.00  0.00     0.293 HD
ENDBRANCH   6  22
BRANCH   8  24
ATOM     24  O   UNL     1       4.623   8.185   0.088  1.00  0.00    -0.508 OA
ATOM     25  H   UNL     1       3.862   7.942  -0.534  1.00  0.00     0.293 HD
ENDBRANCH   8  24
TORSDOF 5
ENDMDL
MODEL 5
REMARK VINA RESULT:    -6.856      1.684      6.636
REMARK INTER + INTRA:          -8.357
REMARK INTER:                  -8.155
REMARK INTRA:                  -0.202
REMARK UNBOUND:                -0.299
REMARK SMILES O=c1c(O)c(-c2ccc(O)cc2)oc2cc(O)cc(O)c12
REMARK SMILES IDX 5 1 3 2 2 3 1 4 21 5 19 6 18 7 16 8 15 9 14 10 13 11 6 12
REMARK SMILES IDX 7 13 8 14 9 15 12 16 11 17 10 18 4 20 20 22 17 24
REMARK H PARENT 10 19 4 21 20 23 17 25
REMARK Flexibility Score: inf
ROOT
ATOM      1  C   UNL     1       5.825   6.203   0.904  1.00  0.00     0.180 A 
ATOM      2  C   UNL     1       5.392   7.507   1.197  1.00  0.00     0.208 A 
ATOM      3  C   UNL     1       5.066   8.370   0.140  1.00  0.00     0.238 A 
ATOM      4  O   UNL     1       4.627   9.519   0.409  1.00  0.00    -0.285 OA
ATOM      5  C   UNL     1       5.193   7.925  -1.198  1.00  0.00     0.111 A 
ATOM      6  C   UNL     1       4.928   8.728  -2.349  1.00  0.00     0.134 A 
ATOM      7  C   UNL     1       4.960   8.143  -3.621  1.00  0.00     0.093 A 
ATOM      8  C   UNL     1       5.310   6.805  -3.789  1.00  0.00     0.123 A 
ATOM      9  C   UNL     1       5.629   6.026  -2.676  1.00  0.00     0.094 A 
ATOM     10  C   UNL     1       5.570   6.570  -1.392  1.00  0.00     0.146 A 
ATOM     11  O   UNL     1       5.871   5.793  -0.358  1.00  0.00    -0.452 OA
ENDROOT
BRANCH   1  12
ATOM     12  C   UNL     1       6.212   5.243   1.964  1.00  0.00     0.021 A 
ATOM     13  C   UNL     1       7.555   4.873   2.163  1.00  0.00     0.016 A 
ATOM     14  C   UNL     1       7.893   3.947   3.155  1.00  0.00     0.047 A 
ATOM     15  C   UNL     1       6.894   3.370   3.949  1.00  0.00     0.115 A 
ATOM     16  C   UNL     1       5.215   4.644   2.751  1.00  0.00     0.016 A 
ATOM     17  C   UNL     1       5.556   3.719   3.743  1.00  0.00     0.047 A 
BRANCH  15  18
ATOM     18  O   UNL     1       7.219   2.447   4.941  1.00  0.00    -0.508 OA
ATOM     19  H   UNL     1       7.854   1.677   4.761  1.00  0.00     0.293 HD
ENDBRANCH  15  18
ENDBRANCH   1  12
BRANCH   2  20
ATOM     20  O   UNL     1       5.253   7.919   2.526  1.00  0.00    -0.502 OA
ATOM     21  H   UNL     1       4.422   7.726   3.070  1.00  0.00     0.293 HD
ENDBRANCH   2  20
BRANCH   6  22
ATOM     22  O   UNL     1       4.658  10.098  -2.299  1.00  0.00    -0.507 OA
ATOM     23  H   UNL     1       5.169  10.803  -2.809  1.00  0.00     0.293 HD
ENDBRANCH   6  22
BRANCH   8  24
ATOM     24  O   UNL     1       5.347   6.260  -5.072  1.00  0.00    -0.508 OA
ATOM     25  H   UNL     1       5.829   5.390  -5.264  1.00  0.00     0.293 HD
ENDBRANCH   8  24
TORSDOF 5
ENDMDL
MODEL 6
REMARK VINA RESULT:    -6.675     14.427     16.274
REMARK INTER + INTRA:          -8.144
REMARK INTER:                  -7.846
REMARK INTRA:                  -0.298
REMARK UNBOUND:                -0.299
REMARK SMILES O=c1c(O)c(-c2ccc(O)cc2)oc2cc(O)cc(O)c12
REMARK SMILES IDX 5 1 3 2 2 3 1 4 21 5 19 6 18 7 16 8 15 9 14 10 13 11 6 12
REMARK SMILES IDX 7 13 8 14 9 15 12 16 11 17 10 18 4 20 20 22 17 24
REMARK H PARENT 10 19 4 21 20 23 17 25
REMARK Flexibility Score: inf
ROOT
ATOM      1  C   UNL     1      -2.256  -4.474   7.459  1.00  0.00     0.180 A 
ATOM      2  C   UNL     1      -2.611  -5.688   8.072  1.00  0.00     0.208 A 
ATOM      3  C   UNL     1      -1.997  -6.874   7.642  1.00  0.00     0.238 A 
ATOM      4  O   UNL     1      -2.279  -7.950   8.231  1.00  0.00    -0.285 OA
ATOM      5  C   UNL     1      -1.048  -6.836   6.592  1.00  0.00     0.111 A 
ATOM      6  C   UNL     1      -0.392  -7.981   6.049  1.00  0.00     0.134 A 
ATOM      7  C   UNL     1       0.625  -7.811   5.102  1.00  0.00     0.093 A 
ATOM      8  C   UNL     1       0.966  -6.544   4.631  1.00  0.00     0.123 A 
ATOM      9  C   UNL     1       0.291  -5.421   5.112  1.00  0.00     0.094 A 
ATOM     10  C   UNL     1      -0.703  -5.555   6.083  1.00  0.00     0.146 A 
ATOM     11  O   UNL     1      -1.315  -4.462   6.522  1.00  0.00    -0.452 OA
ENDROOT
BRANCH   1  12
ATOM     12  C   UNL     1      -2.879  -3.185   7.840  1.00  0.00     0.021 A 
ATOM     13  C   UNL     1      -4.079  -2.749   7.250  1.00  0.00     0.016 A 
ATOM     14  C   UNL     1      -4.636  -1.518   7.609  1.00  0.00     0.047 A 
ATOM     15  C   UNL     1      -3.994  -0.702   8.550  1.00  0.00     0.115 A 
ATOM     16  C   UNL     1      -2.231  -2.352   8.767  1.00  0.00     0.016 A 
ATOM     17  C   UNL     1      -2.790  -1.122   9.124  1.00  0.00     0.047 A 
BRANCH  15  18
ATOM     18  O   UNL     1      -4.539   0.526   8.916  1.00  0.00    -0.508 OA
ATOM     19  H   UNL     1      -3.959   1.279   9.268  1.00  0.00     0.293 HD
ENDBRANCH  15  18
ENDBRANCH   1  12
BRANCH   2  20
ATOM     20  O   UNL     1      -3.535  -5.700   9.121  1.00  0.00    -0.502 OA
ATOM     21  H   UNL     1      -3.260  -5.579  10.088  1.00  0.00     0.293 HD
ENDBRANCH   2  20
BRANCH   6  22
ATOM     22  O   UNL     1      -0.720  -9.299   6.382  1.00  0.00    -0.507 OA
ATOM     23  H   UNL     1      -0.305  -9.820   7.139  1.00  0.00     0.293 HD
ENDBRANCH   6  22
BRANCH   8  24
ATOM     24  O   UNL     1       1.973  -6.413   3.677  1.00  0.00    -0.508 OA
ATOM     25  H   UNL     1       2.773  -5.811   3.830  1.00  0.00     0.293 HD
ENDBRANCH   8  24
TORSDOF 5
ENDMDL
MODEL 7
REMARK VINA RESULT:    -6.673      2.778      5.196
REMARK INTER + INTRA:          -8.141
REMARK INTER:                  -8.600
REMARK INTRA:                   0.459
REMARK UNBOUND:                -0.299
REMARK SMILES O=c1c(O)c(-c2ccc(O)cc2)oc2cc(O)cc(O)c12
REMARK SMILES IDX 5 1 3 2 2 3 1 4 21 5 19 6 18 7 16 8 15 9 14 10 13 11 6 12
REMARK SMILES IDX 7 13 8 14 9 15 12 16 11 17 10 18 4 20 20 22 17 24
REMARK H PARENT 10 19 4 21 20 23 17 25
REMARK Flexibility Score: inf
ROOT
ATOM      1  C   UNL     1       6.880   4.454   2.914  1.00  0.00     0.180 A 
ATOM      2  C   UNL     1       7.671   3.297   3.016  1.00  0.00     0.208 A 
ATOM      3  C   UNL     1       7.482   2.437   4.110  1.00  0.00     0.238 A 
ATOM      4  O   UNL     1       8.156   1.375   4.168  1.00  0.00    -0.285 OA
ATOM      5  C   UNL     1       6.517   2.753   5.096  1.00  0.00     0.111 A 
ATOM      6  C   UNL     1       6.270   1.975   6.267  1.00  0.00     0.134 A 
ATOM      7  C   UNL     1       5.201   2.312   7.107  1.00  0.00     0.093 A 
ATOM      8  C   UNL     1       4.414   3.434   6.855  1.00  0.00     0.123 A 
ATOM      9  C   UNL     1       4.684   4.236   5.746  1.00  0.00     0.094 A 
ATOM     10  C   UNL     1       5.720   3.905   4.870  1.00  0.00     0.146 A 
ATOM     11  O   UNL     1       5.938   4.688   3.820  1.00  0.00    -0.452 OA
ENDROOT
BRANCH   1  12
ATOM     12  C   UNL     1       7.038   5.422   1.804  1.00  0.00     0.021 A 
ATOM     13  C   UNL     1       7.766   5.095   0.645  1.00  0.00     0.016 A 
ATOM     14  C   UNL     1       7.920   6.033  -0.380  1.00  0.00     0.047 A 
ATOM     15  C   UNL     1       7.363   7.312  -0.254  1.00  0.00     0.115 A 
ATOM     16  C   UNL     1       6.499   6.712   1.931  1.00  0.00     0.016 A 
ATOM     17  C   UNL     1       6.655   7.649   0.904  1.00  0.00     0.047 A 
BRANCH  15  18
ATOM     18  O   UNL     1       7.510   8.255  -1.269  1.00  0.00    -0.508 OA
ATOM     19  H   UNL     1       8.317   8.867  -1.310  1.00  0.00     0.293 HD
ENDBRANCH  15  18
ENDBRANCH   1  12
BRANCH   2  20
ATOM     20  O   UNL     1       8.602   2.992   2.020  1.00  0.00    -0.502 OA
ATOM     21  H   UNL     1       8.692   3.542   1.174  1.00  0.00     0.293 HD
ENDBRANCH   2  20
BRANCH   6  22
ATOM     22  O   UNL     1       7.054   0.887   6.662  1.00  0.00    -0.507 OA
ATOM     23  H   UNL     1       7.827   0.941   7.309  1.00  0.00     0.293 HD
ENDBRANCH   6  22
BRANCH   8  24
ATOM     24  O   UNL     1       3.368   3.748   7.722  1.00  0.00    -0.508 OA
ATOM     25  H   UNL     1       2.487   3.249   7.692  1.00  0.00     0.293 HD
ENDBRANCH   8  24
TORSDOF 5
ENDMDL
MODEL 8
REMARK VINA RESULT:    -6.600      1.672      2.424
REMARK INTER + INTRA:          -8.056
REMARK INTER:                  -8.003
REMARK INTRA:                  -0.053
REMARK UNBOUND:                -0.299
REMARK SMILES O=c1c(O)c(-c2ccc(O)cc2)oc2cc(O)cc(O)c12
REMARK SMILES IDX 5 1 3 2 2 3 1 4 21 5 19 6 18 7 16 8 15 9 14 10 13 11 6 12
REMARK SMILES IDX 7 13 8 14 9 15 12 16 11 17 10 18 4 20 20 22 17 24
REMARK H PARENT 10 19 4 21 20 23 17 25
REMARK Flexibility Score: inf
ROOT
ATOM      1  C   UNL     1       6.889   5.585   1.376  1.00  0.00     0.180 A 
ATOM      2  C   UNL     1       5.847   5.751   2.304  1.00  0.00     0.208 A 
ATOM      3  C   UNL     1       5.824   4.948   3.455  1.00  0.00     0.238 A 
ATOM      4  O   UNL     1       4.919   5.139   4.309  1.00  0.00    -0.285 OA
ATOM      5  C   UNL     1       6.834   3.976   3.656  1.00  0.00     0.111 A 
ATOM      6  C   UNL     1       6.888   3.081   4.767  1.00  0.00     0.134 A 
ATOM      7  C   UNL     1       8.004   2.251   4.931  1.00  0.00     0.093 A 
ATOM      8  C   UNL     1       9.035   2.237   3.993  1.00  0.00     0.123 A 
ATOM      9  C   UNL     1       8.964   3.066   2.872  1.00  0.00     0.094 A 
ATOM     10  C   UNL     1       7.882   3.931   2.700  1.00  0.00     0.146 A 
ATOM     11  O   UNL     1       7.858   4.711   1.626  1.00  0.00    -0.452 OA
ENDROOT
BRANCH   1  12
ATOM     12  C   UNL     1       6.968   6.376   0.127  1.00  0.00     0.021 A 
ATOM     13  C   UNL     1       7.000   5.753  -1.134  1.00  0.00     0.016 A 
ATOM     14  C   UNL     1       7.098   6.520  -2.299  1.00  0.00     0.047 A 
ATOM     15  C   UNL     1       7.178   7.916  -2.218  1.00  0.00     0.115 A 
ATOM     16  C   UNL     1       7.069   7.775   0.200  1.00  0.00     0.016 A 
ATOM     17  C   UNL     1       7.166   8.540  -0.967  1.00  0.00     0.047 A 
BRANCH  15  18
ATOM     18  O   UNL     1       7.275   8.691  -3.372  1.00  0.00    -0.508 OA
ATOM     19  H   UNL     1       6.896   8.373  -4.256  1.00  0.00     0.293 HD
ENDBRANCH  15  18
ENDBRANCH   1  12
BRANCH   2  20
ATOM     20  O   UNL     1       4.872   6.731   2.096  1.00  0.00    -0.502 OA
ATOM     21  H   UNL     1       3.881   6.538   2.179  1.00  0.00     0.293 HD
ENDBRANCH   2  20
BRANCH   6  22
ATOM     22  O   UNL     1       5.867   2.948   5.713  1.00  0.00    -0.507 OA
ATOM     23  H   UNL     1       5.308   3.711   6.065  1.00  0.00     0.293 HD
ENDBRANCH   6  22
BRANCH   8  24
ATOM     24  O   UNL     1      10.123   1.387   4.181  1.00  0.00    -0.508 OA
ATOM     25  H   UNL     1      10.010   0.380   4.209  1.00  0.00     0.293 HD
ENDBRANCH   8  24
TORSDOF 5
ENDMDL
MODEL 9
REMARK VINA RESULT:    -6.481      3.898      8.855
REMARK INTER + INTRA:          -7.916
REMARK INTER:                  -7.705
REMARK INTRA:                  -0.211
REMARK UNBOUND:                -0.299
REMARK SMILES O=c1c(O)c(-c2ccc(O)cc2)oc2cc(O)cc(O)c12
REMARK SMILES IDX 5 1 3 2 2 3 1 4 21 5 19 6 18 7 16 8 15 9 14 10 13 11 6 12
REMARK SMILES IDX 7 13 8 14 9 15 12 16 11 17 10 18 4 20 20 22 17 24
REMARK H PARENT 10 19 4 21 20 23 17 25
REMARK Flexibility Score: inf
ROOT
ATOM      1  C   UNL     1       7.377   1.901   5.367  1.00  0.00     0.180 A 
ATOM      2  C   UNL     1       6.068   2.382   5.539  1.00  0.00     0.208 A 
ATOM      3  C   UNL     1       5.587   3.373   4.670  1.00  0.00     0.238 A 
ATOM      4  O   UNL     1       4.396   3.761   4.795  1.00  0.00    -0.285 OA
ATOM      5  C   UNL     1       6.425   3.883   3.649  1.00  0.00     0.111 A 
ATOM      6  C   UNL     1       6.055   4.916   2.737  1.00  0.00     0.134 A 
ATOM      7  C   UNL     1       6.918   5.250   1.685  1.00  0.00     0.093 A 
ATOM      8  C   UNL     1       8.161   4.635   1.550  1.00  0.00     0.123 A 
ATOM      9  C   UNL     1       8.558   3.665   2.472  1.00  0.00     0.094 A 
ATOM     10  C   UNL     1       7.706   3.285   3.510  1.00  0.00     0.146 A 
ATOM     11  O   UNL     1       8.116   2.351   4.360  1.00  0.00    -0.452 OA
ENDROOT
BRANCH   1  12
ATOM     12  C   UNL     1       7.965   0.875   6.260  1.00  0.00     0.021 A 
ATOM     13  C   UNL     1       8.298   1.169   7.595  1.00  0.00     0.016 A 
ATOM     14  C   UNL     1       8.872   0.191   8.412  1.00  0.00     0.047 A 
ATOM     15  C   UNL     1       9.135  -1.087   7.902  1.00  0.00     0.115 A 
ATOM     16  C   UNL     1       8.250  -0.403   5.750  1.00  0.00     0.016 A 
ATOM     17  C   UNL     1       8.825  -1.380   6.570  1.00  0.00     0.047 A 
BRANCH  15  18
ATOM     18  O   UNL     1       9.707  -2.070   8.706  1.00  0.00    -0.508 OA
ATOM     19  H   UNL     1       9.360  -2.258   9.640  1.00  0.00     0.293 HD
ENDBRANCH  15  18
ENDBRANCH   1  12
BRANCH   2  20
ATOM     20  O   UNL     1       5.250   1.849   6.540  1.00  0.00    -0.502 OA
ATOM     21  H   UNL     1       4.398   1.342   6.332  1.00  0.00     0.293 HD
ENDBRANCH   2  20
BRANCH   6  22
ATOM     22  O   UNL     1       4.875   5.659   2.835  1.00  0.00    -0.507 OA
ATOM     23  H   UNL     1       4.792   6.639   2.610  1.00  0.00     0.293 HD
ENDBRANCH   6  22
BRANCH   8  24
ATOM     24  O   UNL     1       9.000   5.003   0.500  1.00  0.00    -0.508 OA
ATOM     25  H   UNL     1       9.969   5.251   0.658  1.00  0.00     0.293 HD
ENDBRANCH   8  24
TORSDOF 5
ENDMDL
