MODEL 1
REMARK VINA RESULT:    -3.244      0.000      0.000
REMARK INTER + INTRA:          -4.542
REMARK INTER:                  -4.381
REMARK INTRA:                  -0.161
REMARK UNBOUND:                -0.161
REMARK SMILES CCCCCCCC(=O)[O-]
REMARK SMILES IDX 5 1 6 2 7 3 8 4 9 5 10 6 4 7 3 8 2 9 1 10
REMARK H PARENT
REMARK Flexibility Score: inf
ROOT
ATOM      1  C   UNL     1       0.180  -3.259  24.106  1.00  0.00     0.000 C 
ENDROOT
BRANCH   1   2
ATOM      2  C   UNL     1      -0.135  -2.887  22.643  1.00  0.00     0.006 C 
BRANCH   2   3
ATOM      3  C   UNL     1      -0.094  -1.381  22.343  1.00  0.00     0.053 C 
BRANCH   3   4
ATOM      4  C   UNL     1      -0.568  -1.074  20.955  1.00  0.00     0.041 C 
ATOM      5  O   UNL     1       0.256  -0.989  20.007  1.00  0.00    -0.550 OA
ATOM      6  O   UNL     1      -1.918  -0.848  20.716  1.00  0.00    -0.550 OA
ENDBRANCH   3   4
ENDBRANCH   2   3
ENDBRANCH   1   2
BRANCH   1   7
ATOM      7  C   UNL     1       1.340  -4.254  24.294  1.00  0.00     0.000 C 
BRANCH   7   8
ATOM      8  C   UNL     1       0.952  -5.700  23.942  1.00  0.00    -0.000 C 
BRANCH   8   9
ATOM      9  C   UNL     1       0.072  -6.352  25.021  1.00  0.00    -0.003 C 
ATOM     10  C   UNL     1       0.224  -7.872  25.072  1.00  0.00     0.004 C 
ENDBRANCH   8   9
ENDBRANCH   7   8
ENDBRANCH   1   7
TORSDOF 6
ENDMDL
MODEL 2
REMARK VINA RESULT:    -3.204      8.273      8.979
REMARK INTER + INTRA:          -4.488
REMARK INTER:                  -4.144
REMARK INTRA:                  -0.344
REMARK UNBOUND:                -0.161
REMARK SMILES CCCCCCCC(=O)[O-]
REMARK SMILES IDX 5 1 6 2 7 3 8 4 9 5 10 6 4 7 3 8 2 9 1 10
REMARK H PARENT
REMARK Flexibility Score: inf
ROOT
ATOM      1  C   UNL     1       7.390  -2.473  19.862  1.00  0.00     0.000 C 
ENDROOT
BRANCH   1   2
ATOM      2  C   UNL     1       6.284  -2.860  18.859  1.00  0.00     0.006 C 
BRANCH   2   3
ATOM      3  C   UNL     1       5.791  -1.706  17.973  1.00  0.00     0.053 C 
BRANCH   3   4
ATOM      4  C   UNL     1       5.974  -2.002  16.515  1.00  0.00     0.041 C 
ATOM      5  O   UNL     1       5.051  -1.753  15.696  1.00  0.00    -0.550 OA
ATOM      6  O   UNL     1       7.153  -2.585  16.068  1.00  0.00    -0.550 OA
ENDBRANCH   3   4
ENDBRANCH   2   3
ENDBRANCH   1   2
BRANCH   1   7
ATOM      7  C   UNL     1       8.699  -3.274  19.735  1.00  0.00     0.000 C 
BRANCH   7   8
ATOM      8  C   UNL     1       8.609  -4.407  18.697  1.00  0.00    -0.000 C 
BRANCH   8   9
ATOM      9  C   UNL     1       9.300  -5.695  19.172  1.00  0.00    -0.003 C 
ATOM     10  C   UNL     1      10.305  -5.450  20.297  1.00  0.00     0.004 C 
ENDBRANCH   8   9
ENDBRANCH   7   8
ENDBRANCH   1   7
TORSDOF 6
ENDMDL
MODEL 3
REMARK VINA RESULT:    -3.094      1.796      2.773
REMARK INTER + INTRA:          -4.340
REMARK INTER:                  -4.013
REMARK INTRA:                  -0.327
REMARK UNBOUND:                -0.161
REMARK SMILES CCCCCCCC(=O)[O-]
REMARK SMILES IDX 5 1 6 2 7 3 8 4 9 5 10 6 4 7 3 8 2 9 1 10
REMARK H PARENT
REMARK Flexibility Score: inf
ROOT
ATOM      1  C   UNL     1      -1.362  -1.978  22.533  1.00  0.00     0.000 C 
ENDROOT
BRANCH   1   2
ATOM      2  C   UNL     1      -1.370  -1.003  21.338  1.00  0.00     0.006 C 
BRANCH   2   3
ATOM      3  C   UNL     1      -0.109  -1.053  20.462  1.00  0.00     0.053 C 
BRANCH   3   4
ATOM      4  C   UNL     1       0.709   0.196  20.587  1.00  0.00     0.041 C 
ATOM      5  O   UNL     1       0.775   0.805  21.686  1.00  0.00    -0.550 OA
ATOM      6  O   UNL     1       1.373   0.704  19.477  1.00  0.00    -0.550 OA
ENDBRANCH   3   4
ENDBRANCH   2   3
ENDBRANCH   1   2
BRANCH   1   7
ATOM      7  C   UNL     1      -0.091  -2.838  22.666  1.00  0.00     0.000 C 
BRANCH   7   8
ATOM      8  C   UNL     1       0.719  -2.517  23.934  1.00  0.00    -0.000 C 
BRANCH   8   9
ATOM      9  C   UNL     1       1.486  -3.737  24.467  1.00  0.00    -0.003 C 
ATOM     10  C   UNL     1       0.893  -5.064  23.993  1.00  0.00     0.004 C 
ENDBRANCH   8   9
ENDBRANCH   7   8
ENDBRANCH   1   7
TORSDOF 6
ENDMDL
MODEL 4
REMARK VINA RESULT:    -3.093     10.623     11.480
REMARK INTER + INTRA:          -4.339
REMARK INTER:                  -3.917
REMARK INTRA:                  -0.422
REMARK UNBOUND:                -0.161
REMARK SMILES CCCCCCCC(=O)[O-]
REMARK SMILES IDX 5 1 6 2 7 3 8 4 9 5 10 6 4 7 3 8 2 9 1 10
REMARK H PARENT
REMARK Flexibility Score: inf
ROOT
ATOM      1  C   UNL     1       0.977  -6.435  11.353  1.00  0.00     0.000 C 
ENDROOT
BRANCH   1   2
ATOM      2  C   UNL     1       1.057  -4.949  10.949  1.00  0.00     0.006 C 
BRANCH   2   3
ATOM      3  C   UNL     1       2.452  -4.322  11.090  1.00  0.00     0.053 C 
BRANCH   3   4
ATOM      4  C   UNL     1       2.474  -3.229  12.114  1.00  0.00     0.041 C 
ATOM      5  O   UNL     1       1.476  -3.036  12.858  1.00  0.00    -0.550 OA
ATOM      6  O   UNL     1       3.584  -2.402  12.224  1.00  0.00    -0.550 OA
ENDBRANCH   3   4
ENDBRANCH   2   3
ENDBRANCH   1   2
BRANCH   1   7
ATOM      7  C   UNL     1       1.079  -6.710  12.865  1.00  0.00     0.000 C 
BRANCH   7   8
ATOM      8  C   UNL     1       2.472  -7.206  13.290  1.00  0.00    -0.000 C 
BRANCH   8   9
ATOM      9  C   UNL     1       3.237  -7.871  12.136  1.00  0.00    -0.003 C 
ATOM     10  C   UNL     1       3.578  -9.334  12.415  1.00  0.00     0.004 C 
ENDBRANCH   8   9
ENDBRANCH   7   8
ENDBRANCH   1   7
TORSDOF 6
ENDMDL
MODEL 5
REMARK VINA RESULT:    -3.082      3.156      5.806
REMARK INTER + INTRA:          -4.324
REMARK INTER:                  -3.987
REMARK INTRA:                  -0.337
REMARK UNBOUND:                -0.161
REMARK SMILES CCCCCCCC(=O)[O-]
REMARK SMILES IDX 5 1 6 2 7 3 8 4 9 5 10 6 4 7 3 8 2 9 1 10
REMARK H PARENT
REMARK Flexibility Score: inf
ROOT
ATOM      1  C   UNL     1      -1.074  -2.321  23.049  1.00  0.00     0.000 C 
ENDROOT
BRANCH   1   2
ATOM      2  C   UNL     1       0.184  -3.190  22.853  1.00  0.00     0.006 C 
BRANCH   2   3
ATOM      3  C   UNL     1       0.816  -3.703  24.156  1.00  0.00     0.053 C 
BRANCH   3   4
ATOM      4  C   UNL     1       0.501  -5.147  24.401  1.00  0.00     0.041 C 
ATOM      5  O   UNL     1      -0.301  -5.476  25.315  1.00  0.00    -0.550 OA
ATOM      6  O   UNL     1       1.119  -6.132  23.641  1.00  0.00    -0.550 OA
ENDBRANCH   3   4
ENDBRANCH   2   3
ENDBRANCH   1   2
BRANCH   1   7
ATOM      7  C   UNL     1      -1.355  -1.311  21.920  1.00  0.00     0.000 C 
BRANCH   7   8
ATOM      8  C   UNL     1      -0.254  -1.293  20.846  1.00  0.00    -0.000 C 
BRANCH   8   9
ATOM      9  C   UNL     1       0.313   0.115  20.608  1.00  0.00    -0.003 C 
ATOM     10  C   UNL     1       0.598   0.867  21.908  1.00  0.00     0.004 C 
ENDBRANCH   8   9
ENDBRANCH   7   8
ENDBRANCH   1   7
TORSDOF 6
ENDMDL
MODEL 6
REMARK VINA RESULT:    -2.989      8.652      9.352
REMARK INTER + INTRA:          -4.198
REMARK INTER:                  -3.806
REMARK INTRA:                  -0.392
REMARK UNBOUND:                -0.161
REMARK SMILES CCCCCCCC(=O)[O-]
REMARK SMILES IDX 5 1 6 2 7 3 8 4 9 5 10 6 4 7 3 8 2 9 1 10
REMARK H PARENT
REMARK Flexibility Score: inf
ROOT
ATOM      1  C   UNL     1       9.741  -3.830  19.080  1.00  0.00     0.000 C 
ENDROOT
BRANCH   1   2
ATOM      2  C   UNL     1       9.257  -2.577  19.837  1.00  0.00     0.006 C 
BRANCH   2   3
ATOM      3  C   UNL     1       7.868  -2.714  20.478  1.00  0.00     0.053 C 
BRANCH   3   4
ATOM      4  C   UNL     1       6.776  -2.292  19.544  1.00  0.00     0.041 C 
ATOM      5  O   UNL     1       6.149  -3.152  18.870  1.00  0.00    -0.550 OA
ATOM      6  O   UNL     1       6.473  -0.945  19.393  1.00  0.00    -0.550 OA
ENDBRANCH   3   4
ENDBRANCH   2   3
ENDBRANCH   1   2
BRANCH   1   7
ATOM      7  C   UNL     1       9.912  -5.093  19.945  1.00  0.00     0.000 C 
BRANCH   7   8
ATOM      8  C   UNL     1       9.378  -6.363  19.261  1.00  0.00    -0.000 C 
BRANCH   8   9
ATOM      9  C   UNL     1       8.309  -6.056  18.202  1.00  0.00    -0.003 C 
ATOM     10  C   UNL     1       8.017  -7.247  17.290  1.00  0.00     0.004 C 
ENDBRANCH   8   9
ENDBRANCH   7   8
ENDBRANCH   1   7
TORSDOF 6
ENDMDL
MODEL 7
REMARK VINA RESULT:    -2.887      3.087      5.476
REMARK INTER + INTRA:          -4.060
REMARK INTER:                  -3.731
REMARK INTRA:                  -0.329
REMARK UNBOUND:                -0.161
REMARK SMILES CCCCCCCC(=O)[O-]
REMARK SMILES IDX 5 1 6 2 7 3 8 4 9 5 10 6 4 7 3 8 2 9 1 10
REMARK H PARENT
REMARK Flexibility Score: inf
ROOT
ATOM      1  C   UNL     1       0.650  -1.265  23.720  1.00  0.00     0.000 C 
ENDROOT
BRANCH   1   2
ATOM      2  C   UNL     1       0.151  -2.724  23.730  1.00  0.00     0.006 C 
BRANCH   2   3
ATOM      3  C   UNL     1       1.194  -3.753  24.192  1.00  0.00     0.053 C 
BRANCH   3   4
ATOM      4  C   UNL     1       0.618  -5.134  24.276  1.00  0.00     0.041 C 
ATOM      5  O   UNL     1       1.171  -6.090  23.671  1.00  0.00    -0.550 OA
ATOM      6  O   UNL     1      -0.548  -5.357  24.997  1.00  0.00    -0.550 OA
ENDBRANCH   3   4
ENDBRANCH   2   3
ENDBRANCH   1   2
BRANCH   1   7
ATOM      7  C   UNL     1       0.304  -0.463  22.451  1.00  0.00     0.000 C 
BRANCH   7   8
ATOM      8  C   UNL     1      -0.225  -1.348  21.309  1.00  0.00    -0.000 C 
BRANCH   8   9
ATOM      9  C   UNL     1      -1.639  -0.947  20.861  1.00  0.00    -0.003 C 
ATOM     10  C   UNL     1      -2.345  -0.037  21.867  1.00  0.00     0.004 C 
ENDBRANCH   8   9
ENDBRANCH   7   8
ENDBRANCH   1   7
TORSDOF 6
ENDMDL
MODEL 8
REMARK VINA RESULT:    -2.876      8.982     10.348
REMARK INTER + INTRA:          -4.046
REMARK INTER:                  -3.673
REMARK INTRA:                  -0.373
REMARK UNBOUND:                -0.161
REMARK SMILES CCCCCCCC(=O)[O-]
REMARK SMILES IDX 5 1 6 2 7 3 8 4 9 5 10 6 4 7 3 8 2 9 1 10
REMARK H PARENT
REMARK Flexibility Score: inf
ROOT
ATOM      1  C   UNL     1       8.833  -1.944  19.360  1.00  0.00     0.000 C 
ENDROOT
BRANCH   1   2
ATOM      2  C   UNL     1       9.697  -3.164  18.985  1.00  0.00     0.006 C 
BRANCH   2   3
ATOM      3  C   UNL     1       9.983  -4.127  20.147  1.00  0.00     0.053 C 
BRANCH   3   4
ATOM      4  C   UNL     1       9.590  -5.535  19.818  1.00  0.00     0.041 C 
ATOM      5  O   UNL     1       8.882  -5.776  18.805  1.00  0.00    -0.550 OA
ATOM      6  O   UNL     1       9.978  -6.577  20.650  1.00  0.00    -0.550 OA
ENDBRANCH   3   4
ENDBRANCH   2   3
ENDBRANCH   1   2
BRANCH   1   7
ATOM      7  C   UNL     1       7.470  -2.277  19.996  1.00  0.00     0.000 C 
BRANCH   7   8
ATOM      8  C   UNL     1       6.476  -2.890  18.995  1.00  0.00    -0.000 C 
BRANCH   8   9
ATOM      9  C   UNL     1       5.500  -1.850  18.425  1.00  0.00    -0.003 C 
ATOM     10  C   UNL     1       5.625  -1.687  16.910  1.00  0.00     0.004 C 
ENDBRANCH   8   9
ENDBRANCH   7   8
ENDBRANCH   1   7
TORSDOF 6
ENDMDL
MODEL 9
REMARK VINA RESULT:    -2.859      9.011      9.683
REMARK INTER + INTRA:          -4.023
REMARK INTER:                  -3.684
REMARK INTRA:                  -0.339
REMARK UNBOUND:                -0.161
REMARK SMILES CCCCCCCC(=O)[O-]
REMARK SMILES IDX 5 1 6 2 7 3 8 4 9 5 10 6 4 7 3 8 2 9 1 10
REMARK H PARENT
REMARK Flexibility Score: inf
ROOT
ATOM      1  C   UNL     1       9.981  -4.552  19.800  1.00  0.00     0.000 C 
ENDROOT
BRANCH   1   2
ATOM      2  C   UNL     1       8.772  -3.595  19.838  1.00  0.00     0.006 C 
BRANCH   2   3
ATOM      3  C   UNL     1       8.530  -2.820  18.534  1.00  0.00     0.053 C 
BRANCH   3   4
ATOM      4  C   UNL     1       7.092  -2.863  18.116  1.00  0.00     0.041 C 
ATOM      5  O   UNL     1       6.198  -3.172  18.947  1.00  0.00    -0.550 OA
ATOM      6  O   UNL     1       6.743  -2.594  16.799  1.00  0.00    -0.550 OA
ENDBRANCH   3   4
ENDBRANCH   2   3
ENDBRANCH   1   2
BRANCH   1   7
ATOM      7  C   UNL     1       9.629  -6.050  19.734  1.00  0.00     0.000 C 
BRANCH   7   8
ATOM      8  C   UNL     1       9.539  -6.581  18.293  1.00  0.00    -0.000 C 
BRANCH   8   9
ATOM      9  C   UNL     1       8.097  -6.599  17.762  1.00  0.00    -0.003 C 
ATOM     10  C   UNL     1       7.760  -7.883  17.004  1.00  0.00     0.004 C 
ENDBRANCH   8   9
ENDBRANCH   7   8
ENDBRANCH   1   7
TORSDOF 6
ENDMDL
