MODEL 1
REMARK VINA RESULT:     0.389      0.000      0.000
REMARK INTER + INTRA:          -0.501
REMARK INTER:                   0.730
REMARK INTRA:                  -1.232
REMARK UNBOUND:                -1.232
REMARK SMILES CCCCCCCCC=CCCCCCCCC(=O)[O-]
REMARK SMILES IDX 10 1 9 2 11 3 12 4 13 5 14 6 15 7 16 8 17 9 18 10 19 11
REMARK SMILES IDX 20 12 8 13 7 14 6 15 5 16 4 17 3 18 2 19 1 20
REMARK H PARENT
REMARK Flexibility Score: inf
ROOT
ATOM      1  C   UNL     1     -10.833  -7.755  25.426  1.00  0.00    -0.031 C 
ATOM      2  C   UNL     1     -10.909  -8.695  24.466  1.00  0.00    -0.031 C 
ENDROOT
BRANCH   1   3
ATOM      3  C   UNL     1      -9.627  -6.883  25.664  1.00  0.00     0.027 C 
BRANCH   3   4
ATOM      4  C   UNL     1     -10.030  -5.402  25.733  1.00  0.00     0.004 C 
BRANCH   4   5
ATOM      5  C   UNL     1     -11.105  -5.124  26.798  1.00  0.00     0.000 C 
BRANCH   5   6
ATOM      6  C   UNL     1     -10.562  -4.728  28.183  1.00  0.00     0.000 C 
BRANCH   6   7
ATOM      7  C   UNL     1      -9.661  -5.810  28.804  1.00  0.00     0.000 C 
BRANCH   7   8
ATOM      8  C   UNL     1     -10.442  -6.792  29.700  1.00  0.00     0.006 C 
BRANCH   8   9
ATOM      9  C   UNL     1     -10.647  -8.179  29.067  1.00  0.00     0.053 C 
BRANCH   9  10
ATOM     10  C   UNL     1     -12.092  -8.511  28.863  1.00  0.00     0.041 C 
ATOM     11  O   UNL     1     -12.803  -7.803  28.102  1.00  0.00    -0.550 OA
ATOM     12  O   UNL     1     -12.656  -9.601  29.514  1.00  0.00    -0.550 OA
ENDBRANCH   9  10
ENDBRANCH   8   9
ENDBRANCH   7   8
ENDBRANCH   6   7
ENDBRANCH   5   6
ENDBRANCH   4   5
ENDBRANCH   3   4
ENDBRANCH   1   3
BRANCH   2  13
ATOM     13  C   UNL     1      -9.802  -8.965  23.476  1.00  0.00     0.027 C 
BRANCH  13  14
ATOM     14  C   UNL     1     -10.041  -8.211  22.160  1.00  0.00     0.004 C 
BRANCH  14  15
ATOM     15  C   UNL     1      -8.848  -8.304  21.189  1.00  0.00     0.000 C 
BRANCH  15  16
ATOM     16  C   UNL     1      -9.126  -9.080  19.889  1.00  0.00     0.000 C 
BRANCH  16  17
ATOM     17  C   UNL     1      -8.342  -8.584  18.660  1.00  0.00    -0.000 C 
BRANCH  17  18
ATOM     18  C   UNL     1      -6.946  -9.232  18.512  1.00  0.00    -0.000 C 
BRANCH  18  19
ATOM     19  C   UNL     1      -5.783  -8.230  18.613  1.00  0.00    -0.003 C 
ATOM     20  C   UNL     1      -5.480  -7.825  20.056  1.00  0.00     0.004 C 
ENDBRANCH  18  19
ENDBRANCH  17  18
ENDBRANCH  16  17
ENDBRANCH  15  16
ENDBRANCH  14  15
ENDBRANCH  13  14
ENDBRANCH   2  13
TORSDOF 15
ENDMDL
MODEL 2
REMARK VINA RESULT:     0.563      3.769      8.981
REMARK INTER + INTRA:          -0.175
REMARK INTER:                   0.806
REMARK INTRA:                  -0.981
REMARK UNBOUND:                -1.232
REMARK SMILES CCCCCCCCC=CCCCCCCCC(=O)[O-]
REMARK SMILES IDX 10 1 9 2 11 3 12 4 13 5 14 6 15 7 16 8 17 9 18 10 19 11
REMARK SMILES IDX 20 12 8 13 7 14 6 15 5 16 4 17 3 18 2 19 1 20
REMARK H PARENT
REMARK Flexibility Score: inf
ROOT
ATOM      1  C   UNL     1     -11.242  -8.650  25.105  1.00  0.00    -0.031 C 
ATOM      2  C   UNL     1     -10.848  -7.533  25.745  1.00  0.00    -0.031 C 
ENDROOT
BRANCH   1   3
ATOM      3  C   UNL     1     -11.094  -8.873  23.622  1.00  0.00     0.027 C 
BRANCH   3   4
ATOM      4  C   UNL     1      -9.723  -9.486  23.296  1.00  0.00     0.004 C 
BRANCH   4   5
ATOM      5  C   UNL     1      -8.856  -8.574  22.410  1.00  0.00     0.000 C 
BRANCH   5   6
ATOM      6  C   UNL     1      -9.472  -8.213  21.047  1.00  0.00     0.000 C 
BRANCH   6   7
ATOM      7  C   UNL     1      -9.127  -9.232  19.947  1.00  0.00     0.000 C 
BRANCH   7   8
ATOM      8  C   UNL     1      -8.415  -8.587  18.741  1.00  0.00     0.006 C 
BRANCH   8   9
ATOM      9  C   UNL     1      -7.056  -9.225  18.409  1.00  0.00     0.053 C 
BRANCH   9  10
ATOM     10  C   UNL     1      -5.902  -8.355  18.795  1.00  0.00     0.041 C 
ATOM     11  O   UNL     1      -5.078  -7.971  17.923  1.00  0.00    -0.550 OA
ATOM     12  O   UNL     1      -5.732  -7.968  20.119  1.00  0.00    -0.550 OA
ENDBRANCH   9  10
ENDBRANCH   8   9
ENDBRANCH   7   8
ENDBRANCH   6   7
ENDBRANCH   5   6
ENDBRANCH   4   5
ENDBRANCH   3   4
ENDBRANCH   1   3
BRANCH   2  13
ATOM     13  C   UNL     1     -10.168  -6.375  25.055  1.00  0.00     0.027 C 
BRANCH  13  14
ATOM     14  C   UNL     1      -9.811  -5.268  26.057  1.00  0.00     0.004 C 
BRANCH  14  15
ATOM     15  C   UNL     1     -10.961  -4.940  27.027  1.00  0.00     0.000 C 
BRANCH  15  16
ATOM     16  C   UNL     1     -10.580  -4.958  28.519  1.00  0.00     0.000 C 
BRANCH  16  17
ATOM     17  C   UNL     1      -9.721  -6.160  28.953  1.00  0.00    -0.000 C 
BRANCH  17  18
ATOM     18  C   UNL     1     -10.540  -7.320  29.562  1.00  0.00    -0.000 C 
BRANCH  18  19
ATOM     19  C   UNL     1     -11.640  -7.859  28.630  1.00  0.00    -0.003 C 
ATOM     20  C   UNL     1     -12.031  -9.301  28.955  1.00  0.00     0.004 C 
ENDBRANCH  18  19
ENDBRANCH  17  18
ENDBRANCH  16  17
ENDBRANCH  15  16
ENDBRANCH  14  15
ENDBRANCH  13  14
ENDBRANCH   2  13
TORSDOF 15
ENDMDL
MODEL 3
REMARK VINA RESULT:     0.572      0.698      1.276
REMARK INTER + INTRA:          -0.159
REMARK INTER:                   0.928
REMARK INTRA:                  -1.086
REMARK UNBOUND:                -1.232
REMARK SMILES CCCCCCCCC=CCCCCCCCC(=O)[O-]
REMARK SMILES IDX 10 1 9 2 11 3 12 4 13 5 14 6 15 7 16 8 17 9 18 10 19 11
REMARK SMILES IDX 20 12 8 13 7 14 6 15 5 16 4 17 3 18 2 19 1 20
REMARK H PARENT
REMARK Flexibility Score: inf
ROOT
ATOM      1  C   UNL     1     -10.716  -8.511  24.352  1.00  0.00    -0.031 C 
ATOM      2  C   UNL     1     -10.410  -9.027  23.147  1.00  0.00    -0.031 C 
ENDROOT
BRANCH   1   3
ATOM      3  C   UNL     1      -9.867  -7.503  25.082  1.00  0.00     0.027 C 
BRANCH   3   4
ATOM      4  C   UNL     1     -10.490  -6.101  24.997  1.00  0.00     0.004 C 
BRANCH   4   5
ATOM      5  C   UNL     1      -9.920  -5.130  26.047  1.00  0.00     0.000 C 
BRANCH   5   6
ATOM      6  C   UNL     1     -10.915  -4.691  27.136  1.00  0.00     0.000 C 
BRANCH   6   7
ATOM      7  C   UNL     1     -10.444  -5.050  28.556  1.00  0.00     0.000 C 
BRANCH   7   8
ATOM      8  C   UNL     1      -9.873  -6.479  28.650  1.00  0.00     0.006 C 
BRANCH   8   9
ATOM      9  C   UNL     1     -10.718  -7.428  29.517  1.00  0.00     0.053 C 
BRANCH   9  10
ATOM     10  C   UNL     1     -11.706  -8.215  28.715  1.00  0.00     0.041 C 
ATOM     11  O   UNL     1     -12.000  -7.857  27.543  1.00  0.00    -0.550 OA
ATOM     12  O   UNL     1     -12.306  -9.343  29.261  1.00  0.00    -0.550 OA
ENDBRANCH   9  10
ENDBRANCH   8   9
ENDBRANCH   7   8
ENDBRANCH   6   7
ENDBRANCH   5   6
ENDBRANCH   4   5
ENDBRANCH   3   4
ENDBRANCH   1   3
BRANCH   2  13
ATOM     13  C   UNL     1      -9.188  -8.626  22.356  1.00  0.00     0.027 C 
BRANCH  13  14
ATOM     14  C   UNL     1      -9.563  -8.235  20.920  1.00  0.00     0.004 C 
BRANCH  14  15
ATOM     15  C   UNL     1      -9.069  -9.251  19.872  1.00  0.00     0.000 C 
BRANCH  15  16
ATOM     16  C   UNL     1      -8.313  -8.641  18.678  1.00  0.00     0.000 C 
BRANCH  16  17
ATOM     17  C   UNL     1      -6.904  -9.215  18.443  1.00  0.00    -0.000 C 
BRANCH  17  18
ATOM     18  C   UNL     1      -5.767  -8.285  18.925  1.00  0.00    -0.000 C 
BRANCH  18  19
ATOM     19  C   UNL     1      -6.057  -7.599  20.271  1.00  0.00    -0.003 C 
ATOM     20  C   UNL     1      -4.845  -7.595  21.203  1.00  0.00     0.004 C 
ENDBRANCH  18  19
ENDBRANCH  17  18
ENDBRANCH  16  17
ENDBRANCH  15  16
ENDBRANCH  14  15
ENDBRANCH  13  14
ENDBRANCH   2  13
TORSDOF 15
ENDMDL
MODEL 4
REMARK VINA RESULT:     0.893     13.121     15.615
REMARK INTER + INTRA:           0.444
REMARK INTER:                   1.411
REMARK INTRA:                  -0.967
REMARK UNBOUND:                -1.232
REMARK SMILES CCCCCCCCC=CCCCCCCCC(=O)[O-]
REMARK SMILES IDX 10 1 9 2 11 3 12 4 13 5 14 6 15 7 16 8 17 9 18 10 19 11
REMARK SMILES IDX 20 12 8 13 7 14 6 15 5 16 4 17 3 18 2 19 1 20
REMARK H PARENT
REMARK Flexibility Score: inf
ROOT
ATOM      1  C   UNL     1      -7.804   2.631  14.406  1.00  0.00    -0.031 C 
ATOM      2  C   UNL     1      -7.680   1.815  13.343  1.00  0.00    -0.031 C 
ENDROOT
BRANCH   1   3
ATOM      3  C   UNL     1      -8.975   2.616  15.354  1.00  0.00     0.027 C 
BRANCH   3   4
ATOM      4  C   UNL     1      -8.644   3.381  16.644  1.00  0.00     0.004 C 
BRANCH   4   5
ATOM      5  C   UNL     1      -7.535   4.431  16.448  1.00  0.00     0.000 C 
BRANCH   5   6
ATOM      6  C   UNL     1      -7.895   5.854  16.912  1.00  0.00     0.000 C 
BRANCH   6   7
ATOM      7  C   UNL     1      -8.892   6.554  15.972  1.00  0.00     0.000 C 
BRANCH   7   8
ATOM      8  C   UNL     1      -8.218   7.122  14.707  1.00  0.00     0.006 C 
BRANCH   8   9
ATOM      9  C   UNL     1      -7.839   6.050  13.672  1.00  0.00     0.053 C 
BRANCH   9  10
ATOM     10  C   UNL     1      -6.401   6.125  13.265  1.00  0.00     0.041 C 
ATOM     11  O   UNL     1      -5.508   5.622  13.997  1.00  0.00    -0.550 OA
ATOM     12  O   UNL     1      -6.044   6.753  12.078  1.00  0.00    -0.550 OA
ENDBRANCH   9  10
ENDBRANCH   8   9
ENDBRANCH   7   8
ENDBRANCH   6   7
ENDBRANCH   5   6
ENDBRANCH   4   5
ENDBRANCH   3   4
ENDBRANCH   1   3
BRANCH   2  13
ATOM     13  C   UNL     1      -8.689   0.748  12.991  1.00  0.00     0.027 C 
BRANCH  13  14
ATOM     14  C   UNL     1      -8.614  -0.430  13.972  1.00  0.00     0.004 C 
BRANCH  14  15
ATOM     15  C   UNL     1      -9.764  -1.437  13.792  1.00  0.00     0.000 C 
BRANCH  15  16
ATOM     16  C   UNL     1      -9.362  -2.778  13.151  1.00  0.00     0.000 C 
BRANCH  16  17
ATOM     17  C   UNL     1     -10.135  -4.003  13.674  1.00  0.00    -0.000 C 
BRANCH  17  18
ATOM     18  C   UNL     1     -11.557  -4.137  13.084  1.00  0.00    -0.000 C 
BRANCH  18  19
ATOM     19  C   UNL     1     -12.671  -4.144  14.146  1.00  0.00    -0.003 C 
ATOM     20  C   UNL     1     -13.263  -2.754  14.385  1.00  0.00     0.004 C 
ENDBRANCH  18  19
ENDBRANCH  17  18
ENDBRANCH  16  17
ENDBRANCH  15  16
ENDBRANCH  14  15
ENDBRANCH  13  14
ENDBRANCH   2  13
TORSDOF 15
ENDMDL
MODEL 5
REMARK VINA RESULT:     1.053     12.569     15.440
REMARK INTER + INTRA:           0.744
REMARK INTER:                   1.807
REMARK INTRA:                  -1.063
REMARK UNBOUND:                -1.232
REMARK SMILES CCCCCCCCC=CCCCCCCCC(=O)[O-]
REMARK SMILES IDX 10 1 9 2 11 3 12 4 13 5 14 6 15 7 16 8 17 9 18 10 19 11
REMARK SMILES IDX 20 12 8 13 7 14 6 15 5 16 4 17 3 18 2 19 1 20
REMARK H PARENT
REMARK Flexibility Score: inf
ROOT
ATOM      1  C   UNL     1      -8.824   2.437  14.796  1.00  0.00    -0.031 C 
ATOM      2  C   UNL     1      -8.837   3.304  15.824  1.00  0.00    -0.031 C 
ENDROOT
BRANCH   1   3
ATOM      3  C   UNL     1      -7.569   1.919  14.141  1.00  0.00     0.027 C 
BRANCH   3   4
ATOM      4  C   UNL     1      -7.908   1.046  12.924  1.00  0.00     0.004 C 
BRANCH   4   5
ATOM      5  C   UNL     1      -9.221   0.261  13.099  1.00  0.00     0.000 C 
BRANCH   5   6
ATOM      6  C   UNL     1      -9.094  -1.051  13.894  1.00  0.00     0.000 C 
BRANCH   6   7
ATOM      7  C   UNL     1      -9.439  -2.294  13.055  1.00  0.00     0.000 C 
BRANCH   7   8
ATOM      8  C   UNL     1     -10.030  -3.438  13.902  1.00  0.00     0.006 C 
BRANCH   8   9
ATOM      9  C   UNL     1     -11.248  -4.120  13.258  1.00  0.00     0.053 C 
BRANCH   9  10
ATOM     10  C   UNL     1     -12.525  -3.815  13.975  1.00  0.00     0.041 C 
ATOM     11  O   UNL     1     -13.332  -4.740  14.255  1.00  0.00    -0.550 OA
ATOM     12  O   UNL     1     -12.828  -2.506  14.333  1.00  0.00    -0.550 OA
ENDBRANCH   9  10
ENDBRANCH   8   9
ENDBRANCH   7   8
ENDBRANCH   6   7
ENDBRANCH   5   6
ENDBRANCH   4   5
ENDBRANCH   3   4
ENDBRANCH   1   3
BRANCH   2  13
ATOM     13  C   UNL     1      -7.586   3.837  16.480  1.00  0.00     0.027 C 
BRANCH  13  14
ATOM     14  C   UNL     1      -7.880   5.117  17.276  1.00  0.00     0.004 C 
BRANCH  14  15
ATOM     15  C   UNL     1      -8.845   6.071  16.546  1.00  0.00     0.000 C 
BRANCH  15  16
ATOM     16  C   UNL     1      -8.170   7.082  15.601  1.00  0.00     0.000 C 
BRANCH  16  17
ATOM     17  C   UNL     1      -8.145   6.666  14.119  1.00  0.00    -0.000 C 
BRANCH  17  18
ATOM     18  C   UNL     1      -7.084   5.589  13.796  1.00  0.00    -0.000 C 
BRANCH  18  19
ATOM     19  C   UNL     1      -5.770   6.162  13.236  1.00  0.00    -0.003 C 
ATOM     20  C   UNL     1      -5.946   6.801  11.858  1.00  0.00     0.004 C 
ENDBRANCH  18  19
ENDBRANCH  17  18
ENDBRANCH  16  17
ENDBRANCH  15  16
ENDBRANCH  14  15
ENDBRANCH  13  14
ENDBRANCH   2  13
TORSDOF 15
ENDMDL
MODEL 6
REMARK VINA RESULT:     1.293      3.797      8.873
REMARK INTER + INTRA:           1.195
REMARK INTER:                   1.959
REMARK INTRA:                  -0.765
REMARK UNBOUND:                -1.232
REMARK SMILES CCCCCCCCC=CCCCCCCCC(=O)[O-]
REMARK SMILES IDX 10 1 9 2 11 3 12 4 13 5 14 6 15 7 16 8 17 9 18 10 19 11
REMARK SMILES IDX 20 12 8 13 7 14 6 15 5 16 4 17 3 18 2 19 1 20
REMARK H PARENT
REMARK Flexibility Score: inf
ROOT
ATOM      1  C   UNL     1     -10.701  -7.847  24.299  1.00  0.00    -0.031 C 
ATOM      2  C   UNL     1     -10.878  -7.499  25.587  1.00  0.00    -0.031 C 
ENDROOT
BRANCH   1   3
ATOM      3  C   UNL     1     -10.881  -9.246  23.767  1.00  0.00     0.027 C 
BRANCH   3   4
ATOM      4  C   UNL     1      -9.620  -9.716  23.028  1.00  0.00     0.004 C 
BRANCH   4   5
ATOM      5  C   UNL     1      -8.857  -8.560  22.354  1.00  0.00     0.000 C 
BRANCH   5   6
ATOM      6  C   UNL     1      -9.390  -8.148  20.969  1.00  0.00     0.000 C 
BRANCH   6   7
ATOM      7  C   UNL     1      -9.149  -9.222  19.894  1.00  0.00     0.000 C 
BRANCH   7   8
ATOM      8  C   UNL     1      -8.399  -8.673  18.663  1.00  0.00     0.006 C 
BRANCH   8   9
ATOM      9  C   UNL     1      -7.005  -9.291  18.461  1.00  0.00     0.053 C 
BRANCH   9  10
ATOM     10  C   UNL     1      -5.900  -8.338  18.787  1.00  0.00     0.041 C 
ATOM     11  O   UNL     1      -5.136  -7.918  17.879  1.00  0.00    -0.550 OA
ATOM     12  O   UNL     1      -5.709  -7.913  20.097  1.00  0.00    -0.550 OA
ENDBRANCH   9  10
ENDBRANCH   8   9
ENDBRANCH   7   8
ENDBRANCH   6   7
ENDBRANCH   5   6
ENDBRANCH   4   5
ENDBRANCH   3   4
ENDBRANCH   1   3
BRANCH   2  13
ATOM     13  C   UNL     1     -11.322  -8.467  26.657  1.00  0.00     0.027 C 
BRANCH  13  14
ATOM     14  C   UNL     1     -11.939  -7.726  27.852  1.00  0.00     0.004 C 
BRANCH  14  15
ATOM     15  C   UNL     1     -11.198  -7.994  29.175  1.00  0.00     0.000 C 
BRANCH  15  16
ATOM     16  C   UNL     1     -10.287  -6.850  29.655  1.00  0.00     0.000 C 
BRANCH  16  17
ATOM     17  C   UNL     1      -9.801  -5.900  28.543  1.00  0.00    -0.000 C 
BRANCH  17  18
ATOM     18  C   UNL     1     -10.577  -4.566  28.485  1.00  0.00    -0.000 C 
BRANCH  18  19
ATOM     19  C   UNL     1     -10.895  -4.095  27.054  1.00  0.00    -0.003 C 
ATOM     20  C   UNL     1      -9.983  -4.738  26.009  1.00  0.00     0.004 C 
ENDBRANCH  18  19
ENDBRANCH  17  18
ENDBRANCH  16  17
ENDBRANCH  15  16
ENDBRANCH  14  15
ENDBRANCH  13  14
ENDBRANCH   2  13
TORSDOF 15
ENDMDL
MODEL 7
REMARK VINA RESULT:     1.467      3.264      8.940
REMARK INTER + INTRA:           1.522
REMARK INTER:                   2.045
REMARK INTRA:                  -0.523
REMARK UNBOUND:                -1.232
REMARK SMILES CCCCCCCCC=CCCCCCCCC(=O)[O-]
REMARK SMILES IDX 10 1 9 2 11 3 12 4 13 5 14 6 15 7 16 8 17 9 18 10 19 11
REMARK SMILES IDX 20 12 8 13 7 14 6 15 5 16 4 17 3 18 2 19 1 20
REMARK H PARENT
REMARK Flexibility Score: inf
ROOT
ATOM      1  C   UNL     1     -10.125  -9.213  23.391  1.00  0.00    -0.031 C 
ATOM      2  C   UNL     1     -10.526  -8.863  24.627  1.00  0.00    -0.031 C 
ENDROOT
BRANCH   1   3
ATOM      3  C   UNL     1     -10.043  -8.260  22.226  1.00  0.00     0.027 C 
BRANCH   3   4
ATOM      4  C   UNL     1      -8.918  -8.669  21.264  1.00  0.00     0.004 C 
BRANCH   4   5
ATOM      5  C   UNL     1      -9.370  -8.697  19.793  1.00  0.00     0.000 C 
BRANCH   5   6
ATOM      6  C   UNL     1      -8.390  -9.382  18.823  1.00  0.00     0.000 C 
BRANCH   6   7
ATOM      7  C   UNL     1      -7.363  -8.405  18.224  1.00  0.00     0.000 C 
BRANCH   7   8
ATOM      8  C   UNL     1      -5.912  -8.761  18.605  1.00  0.00     0.006 C 
BRANCH   8   9
ATOM      9  C   UNL     1      -5.128  -7.591  19.222  1.00  0.00     0.053 C 
BRANCH   9  10
ATOM     10  C   UNL     1      -5.203  -7.572  20.717  1.00  0.00     0.041 C 
ATOM     11  O   UNL     1      -4.158  -7.714  21.405  1.00  0.00    -0.550 OA
ATOM     12  O   UNL     1      -6.427  -7.401  21.351  1.00  0.00    -0.550 OA
ENDBRANCH   9  10
ENDBRANCH   8   9
ENDBRANCH   7   8
ENDBRANCH   6   7
ENDBRANCH   5   6
ENDBRANCH   4   5
ENDBRANCH   3   4
ENDBRANCH   1   3
BRANCH   2  13
ATOM     13  C   UNL     1     -10.908  -7.454  25.011  1.00  0.00     0.027 C 
BRANCH  13  14
ATOM     14  C   UNL     1      -9.717  -6.706  25.628  1.00  0.00     0.004 C 
BRANCH  14  15
ATOM     15  C   UNL     1     -10.066  -5.269  26.056  1.00  0.00     0.000 C 
BRANCH  15  16
ATOM     16  C   UNL     1     -10.891  -5.157  27.351  1.00  0.00     0.000 C 
BRANCH  16  17
ATOM     17  C   UNL     1     -10.145  -5.574  28.632  1.00  0.00    -0.000 C 
BRANCH  17  18
ATOM     18  C   UNL     1     -10.428  -7.029  29.068  1.00  0.00    -0.000 C 
BRANCH  18  19
ATOM     19  C   UNL     1     -11.617  -7.675  28.337  1.00  0.00    -0.003 C 
ATOM     20  C   UNL     1     -12.098  -8.959  29.016  1.00  0.00     0.004 C 
ENDBRANCH  18  19
ENDBRANCH  17  18
ENDBRANCH  16  17
ENDBRANCH  15  16
ENDBRANCH  14  15
ENDBRANCH  13  14
ENDBRANCH   2  13
TORSDOF 15
ENDMDL
MODEL 8
REMARK VINA RESULT:     1.496     12.146     15.331
REMARK INTER + INTRA:           1.576
REMARK INTER:                   2.384
REMARK INTRA:                  -0.808
REMARK UNBOUND:                -1.232
REMARK SMILES CCCCCCCCC=CCCCCCCCC(=O)[O-]
REMARK SMILES IDX 10 1 9 2 11 3 12 4 13 5 14 6 15 7 16 8 17 9 18 10 19 11
REMARK SMILES IDX 20 12 8 13 7 14 6 15 5 16 4 17 3 18 2 19 1 20
REMARK H PARENT
REMARK Flexibility Score: inf
ROOT
ATOM      1  C   UNL     1      -7.963   1.877  14.384  1.00  0.00    -0.031 C 
ATOM      2  C   UNL     1      -7.787   3.208  14.469  1.00  0.00    -0.031 C 
ENDROOT
BRANCH   1   3
ATOM      3  C   UNL     1      -7.565   1.044  13.192  1.00  0.00     0.027 C 
BRANCH   3   4
ATOM      4  C   UNL     1      -8.796   0.391  12.547  1.00  0.00     0.004 C 
BRANCH   4   5
ATOM      5  C   UNL     1      -9.716  -0.294  13.573  1.00  0.00     0.000 C 
BRANCH   5   6
ATOM      6  C   UNL     1      -9.249  -1.684  14.042  1.00  0.00     0.000 C 
BRANCH   6   7
ATOM      7  C   UNL     1      -9.609  -2.802  13.047  1.00  0.00     0.000 C 
BRANCH   7   8
ATOM      8  C   UNL     1     -10.228  -4.034  13.736  1.00  0.00     0.006 C 
BRANCH   8   9
ATOM      9  C   UNL     1     -11.591  -4.448  13.157  1.00  0.00     0.053 C 
BRANCH   9  10
ATOM     10  C   UNL     1     -12.738  -3.999  14.007  1.00  0.00     0.041 C 
ATOM     11  O   UNL     1     -13.583  -4.834  14.424  1.00  0.00    -0.550 OA
ATOM     12  O   UNL     1     -12.876  -2.656  14.338  1.00  0.00    -0.550 OA
ENDBRANCH   9  10
ENDBRANCH   8   9
ENDBRANCH   7   8
ENDBRANCH   6   7
ENDBRANCH   5   6
ENDBRANCH   4   5
ENDBRANCH   3   4
ENDBRANCH   1   3
BRANCH   2  13
ATOM     13  C   UNL     1      -7.129   4.031  13.388  1.00  0.00     0.027 C 
BRANCH  13  14
ATOM     14  C   UNL     1      -6.532   5.324  13.963  1.00  0.00     0.004 C 
BRANCH  14  15
ATOM     15  C   UNL     1      -7.379   6.571  13.645  1.00  0.00     0.000 C 
BRANCH  15  16
ATOM     16  C   UNL     1      -8.283   7.055  14.793  1.00  0.00     0.000 C 
BRANCH  16  17
ATOM     17  C   UNL     1      -8.789   5.944  15.731  1.00  0.00    -0.000 C 
BRANCH  17  18
ATOM     18  C   UNL     1      -8.207   6.026  17.161  1.00  0.00    -0.000 C 
BRANCH  18  19
ATOM     19  C   UNL     1      -7.524   4.729  17.628  1.00  0.00    -0.003 C 
ATOM     20  C   UNL     1      -8.476   3.532  17.630  1.00  0.00     0.004 C 
ENDBRANCH  18  19
ENDBRANCH  17  18
ENDBRANCH  16  17
ENDBRANCH  15  16
ENDBRANCH  14  15
ENDBRANCH  13  14
ENDBRANCH   2  13
TORSDOF 15
ENDMDL
MODEL 9
REMARK VINA RESULT:     1.615      1.200      2.690
REMARK INTER + INTRA:           1.799
REMARK INTER:                   3.046
REMARK INTRA:                  -1.247
REMARK UNBOUND:                -1.232
REMARK SMILES CCCCCCCCC=CCCCCCCCC(=O)[O-]
REMARK SMILES IDX 10 1 9 2 11 3 12 4 13 5 14 6 15 7 16 8 17 9 18 10 19 11
REMARK SMILES IDX 20 12 8 13 7 14 6 15 5 16 4 17 3 18 2 19 1 20
REMARK H PARENT
REMARK Flexibility Score: inf
ROOT
ATOM      1  C   UNL     1      -9.729  -9.896  23.426  1.00  0.00    -0.031 C 
ATOM      2  C   UNL     1      -9.129  -9.087  22.534  1.00  0.00    -0.031 C 
ENDROOT
BRANCH   1   3
ATOM      3  C   UNL     1     -11.085  -9.633  24.029  1.00  0.00     0.027 C 
BRANCH   3   4
ATOM      4  C   UNL     1     -10.956  -8.863  25.351  1.00  0.00     0.004 C 
BRANCH   4   5
ATOM      5  C   UNL     1     -10.947  -7.336  25.155  1.00  0.00     0.000 C 
BRANCH   5   6
ATOM      6  C   UNL     1      -9.626  -6.639  25.527  1.00  0.00     0.000 C 
BRANCH   6   7
ATOM      7  C   UNL     1      -9.827  -5.183  25.984  1.00  0.00     0.000 C 
BRANCH   7   8
ATOM      8  C   UNL     1     -11.021  -5.022  26.947  1.00  0.00     0.006 C 
BRANCH   8   9
ATOM      9  C   UNL     1     -10.628  -5.061  28.433  1.00  0.00     0.053 C 
BRANCH   9  10
ATOM     10  C   UNL     1     -10.332  -6.447  28.914  1.00  0.00     0.041 C 
ATOM     11  O   UNL     1      -9.298  -6.674  29.597  1.00  0.00    -0.550 OA
ATOM     12  O   UNL     1     -11.196  -7.491  28.606  1.00  0.00    -0.550 OA
ENDBRANCH   9  10
ENDBRANCH   8   9
ENDBRANCH   7   8
ENDBRANCH   6   7
ENDBRANCH   5   6
ENDBRANCH   4   5
ENDBRANCH   3   4
ENDBRANCH   1   3
BRANCH   2  13
ATOM     13  C   UNL     1      -9.763  -7.829  21.992  1.00  0.00     0.027 C 
BRANCH  13  14
ATOM     14  C   UNL     1      -9.592  -7.734  20.469  1.00  0.00     0.004 C 
BRANCH  14  15
ATOM     15  C   UNL     1      -8.994  -9.011  19.850  1.00  0.00     0.000 C 
BRANCH  15  16
ATOM     16  C   UNL     1      -8.216  -8.797  18.539  1.00  0.00     0.000 C 
BRANCH  16  17
ATOM     17  C   UNL     1      -6.762  -9.305  18.559  1.00  0.00    -0.000 C 
BRANCH  17  18
ATOM     18  C   UNL     1      -5.739  -8.239  19.014  1.00  0.00    -0.000 C 
BRANCH  18  19
ATOM     19  C   UNL     1      -6.030  -7.657  20.408  1.00  0.00    -0.003 C 
ATOM     20  C   UNL     1      -4.775  -7.549  21.275  1.00  0.00     0.004 C 
ENDBRANCH  18  19
ENDBRANCH  17  18
ENDBRANCH  16  17
ENDBRANCH  15  16
ENDBRANCH  14  15
ENDBRANCH  13  14
ENDBRANCH   2  13
TORSDOF 15
ENDMDL
