MODEL 1
REMARK VINA RESULT:    -3.730      0.000      0.000
REMARK INTER + INTRA:          -4.693
REMARK INTER:                  -4.493
REMARK INTRA:                  -0.200
REMARK UNBOUND:                -0.200
REMARK SMILES OCC(O)CO
REMARK SMILES IDX 3 1 5 2 6 3 2 5 1 6 4 8
REMARK H PARENT 6 4 1 7 4 9
REMARK Flexibility Score: inf
ROOT
ATOM      1  C   UNL     1      21.692  21.622  22.510  1.00  0.00     0.165 C 
ENDROOT
BRANCH   1   2
ATOM      2  C   UNL     1      22.949  21.154  21.759  1.00  0.00     0.190 C 
BRANCH   2   3
ATOM      3  O   UNL     1      24.034  21.992  22.052  1.00  0.00    -0.394 OA
ATOM      4  H   UNL     1      23.856  22.846  21.580  1.00  0.00     0.210 HD
ENDBRANCH   2   3
ENDBRANCH   1   2
BRANCH   1   5
ATOM      5  C   UNL     1      21.817  23.075  22.985  1.00  0.00     0.190 C 
BRANCH   5   6
ATOM      6  O   UNL     1      22.069  23.920  21.895  1.00  0.00    -0.394 OA
ATOM      7  H   UNL     1      21.232  24.433  21.747  1.00  0.00     0.210 HD
ENDBRANCH   5   6
ENDBRANCH   1   5
BRANCH   1   8
ATOM      8  O   UNL     1      21.463  20.796  23.622  1.00  0.00    -0.388 OA
ATOM      9  H   UNL     1      20.588  21.066  24.006  1.00  0.00     0.211 HD
ENDBRANCH   1   8
TORSDOF 5
ENDMDL
MODEL 2
REMARK VINA RESULT:    -3.467      4.147      5.377
REMARK INTER + INTRA:          -4.376
REMARK INTER:                  -4.168
REMARK INTRA:                  -0.208
REMARK UNBOUND:                -0.200
REMARK SMILES OCC(O)CO
REMARK SMILES IDX 3 1 5 2 6 3 2 5 1 6 4 8
REMARK H PARENT 6 4 1 7 4 9
REMARK Flexibility Score: inf
ROOT
ATOM      1  C   UNL     1      19.413  17.744  22.432  1.00  0.00     0.165 C 
ENDROOT
BRANCH   1   2
ATOM      2  C   UNL     1      20.429  18.782  21.930  1.00  0.00     0.190 C 
BRANCH   2   3
ATOM      3  O   UNL     1      20.823  19.627  22.976  1.00  0.00    -0.394 OA
ATOM      4  H   UNL     1      20.093  19.590  23.648  1.00  0.00     0.210 HD
ENDBRANCH   2   3
ENDBRANCH   1   2
BRANCH   1   5
ATOM      5  C   UNL     1      20.029  16.792  23.464  1.00  0.00     0.190 C 
BRANCH   5   6
ATOM      6  O   UNL     1      21.395  16.617  23.204  1.00  0.00    -0.394 OA
ATOM      7  H   UNL     1      21.865  17.328  23.713  1.00  0.00     0.210 HD
ENDBRANCH   5   6
ENDBRANCH   1   5
BRANCH   1   8
ATOM      8  O   UNL     1      18.925  16.991  21.351  1.00  0.00    -0.388 OA
ATOM      9  H   UNL     1      19.113  17.514  20.528  1.00  0.00     0.211 HD
ENDBRANCH   1   8
TORSDOF 5
ENDMDL
MODEL 3
REMARK VINA RESULT:    -3.446      4.339      5.272
REMARK INTER + INTRA:          -4.351
REMARK INTER:                  -4.156
REMARK INTRA:                  -0.195
REMARK UNBOUND:                -0.200
REMARK SMILES OCC(O)CO
REMARK SMILES IDX 3 1 5 2 6 3 2 5 1 6 4 8
REMARK H PARENT 6 4 1 7 4 9
REMARK Flexibility Score: inf
ROOT
ATOM      1  C   UNL     1      19.654  18.298  23.032  1.00  0.00     0.165 C 
ENDROOT
BRANCH   1   2
ATOM      2  C   UNL     1      20.078  16.930  23.589  1.00  0.00     0.190 C 
BRANCH   2   3
ATOM      3  O   UNL     1      21.365  16.598  23.143  1.00  0.00    -0.394 OA
ATOM      4  H   UNL     1      21.297  15.683  22.765  1.00  0.00     0.210 HD
ENDBRANCH   2   3
ENDBRANCH   1   2
BRANCH   1   5
ATOM      5  C   UNL     1      19.851  18.383  21.513  1.00  0.00     0.190 C 
BRANCH   5   6
ATOM      6  O   UNL     1      19.306  17.251  20.891  1.00  0.00    -0.394 OA
ATOM      7  H   UNL     1      18.919  17.568  20.034  1.00  0.00     0.210 HD
ENDBRANCH   5   6
ENDBRANCH   1   5
BRANCH   1   8
ATOM      8  O   UNL     1      20.399  19.317  23.646  1.00  0.00    -0.388 OA
ATOM      9  H   UNL     1      19.964  20.177  23.404  1.00  0.00     0.211 HD
ENDBRANCH   1   8
TORSDOF 5
ENDMDL
MODEL 4
REMARK VINA RESULT:    -3.397      3.632      4.702
REMARK INTER + INTRA:          -4.291
REMARK INTER:                  -4.288
REMARK INTRA:                  -0.003
REMARK UNBOUND:                -0.200
REMARK SMILES OCC(O)CO
REMARK SMILES IDX 3 1 5 2 6 3 2 5 1 6 4 8
REMARK H PARENT 6 4 1 7 4 9
REMARK Flexibility Score: inf
ROOT
ATOM      1  C   UNL     1      20.218  18.405  22.354  1.00  0.00     0.165 C 
ENDROOT
BRANCH   1   2
ATOM      2  C   UNL     1      19.359  17.990  21.149  1.00  0.00     0.190 C 
BRANCH   2   3
ATOM      3  O   UNL     1      18.648  16.816  21.436  1.00  0.00    -0.394 OA
ATOM      4  H   UNL     1      19.088  16.417  22.231  1.00  0.00     0.210 HD
ENDBRANCH   2   3
ENDBRANCH   1   2
BRANCH   1   5
ATOM      5  C   UNL     1      21.031  19.673  22.066  1.00  0.00     0.190 C 
BRANCH   5   6
ATOM      6  O   UNL     1      21.200  20.416  23.243  1.00  0.00    -0.394 OA
ATOM      7  H   UNL     1      22.087  20.854  23.166  1.00  0.00     0.210 HD
ENDBRANCH   5   6
ENDBRANCH   1   5
BRANCH   1   8
ATOM      8  O   UNL     1      21.099  17.366  22.694  1.00  0.00    -0.388 OA
ATOM      9  H   UNL     1      21.406  17.541  23.622  1.00  0.00     0.211 HD
ENDBRANCH   1   8
TORSDOF 5
ENDMDL
MODEL 5
REMARK VINA RESULT:    -3.368      1.000      2.686
REMARK INTER + INTRA:          -4.256
REMARK INTER:                  -4.087
REMARK INTRA:                  -0.170
REMARK UNBOUND:                -0.200
REMARK SMILES OCC(O)CO
REMARK SMILES IDX 3 1 5 2 6 3 2 5 1 6 4 8
REMARK H PARENT 6 4 1 7 4 9
REMARK Flexibility Score: inf
ROOT
ATOM      1  C   UNL     1      22.310  21.955  22.039  1.00  0.00     0.165 C 
ENDROOT
BRANCH   1   2
ATOM      2  C   UNL     1      21.795  23.172  22.825  1.00  0.00     0.190 C 
BRANCH   2   3
ATOM      3  O   UNL     1      22.776  23.628  23.717  1.00  0.00    -0.394 OA
ATOM      4  H   UNL     1      22.430  24.479  24.092  1.00  0.00     0.210 HD
ENDBRANCH   2   3
ENDBRANCH   1   2
BRANCH   1   5
ATOM      5  C   UNL     1      21.715  20.642  22.563  1.00  0.00     0.190 C 
BRANCH   5   6
ATOM      6  O   UNL     1      21.348  20.781  23.909  1.00  0.00    -0.394 OA
ATOM      7  H   UNL     1      21.496  21.736  24.136  1.00  0.00     0.210 HD
ENDBRANCH   5   6
ENDBRANCH   1   5
BRANCH   1   8
ATOM      8  O   UNL     1      23.710  21.887  22.125  1.00  0.00    -0.388 OA
ATOM      9  H   UNL     1      24.064  22.710  21.695  1.00  0.00     0.211 HD
ENDBRANCH   1   8
TORSDOF 5
ENDMDL
MODEL 6
REMARK VINA RESULT:    -3.363      1.404      2.667
REMARK INTER + INTRA:          -4.250
REMARK INTER:                  -4.248
REMARK INTRA:                  -0.002
REMARK UNBOUND:                -0.200
REMARK SMILES OCC(O)CO
REMARK SMILES IDX 3 1 5 2 6 3 2 5 1 6 4 8
REMARK H PARENT 6 4 1 7 4 9
REMARK Flexibility Score: inf
ROOT
ATOM      1  C   UNL     1      21.588  21.054  22.204  1.00  0.00     0.165 C 
ENDROOT
BRANCH   1   2
ATOM      2  C   UNL     1      20.964  19.657  22.055  1.00  0.00     0.190 C 
BRANCH   2   3
ATOM      3  O   UNL     1      20.346  19.267  23.252  1.00  0.00    -0.394 OA
ATOM      4  H   UNL     1      19.585  18.686  22.991  1.00  0.00     0.210 HD
ENDBRANCH   2   3
ENDBRANCH   1   2
BRANCH   1   5
ATOM      5  C   UNL     1      23.039  21.088  21.709  1.00  0.00     0.190 C 
BRANCH   5   6
ATOM      6  O   UNL     1      23.725  22.159  22.298  1.00  0.00    -0.394 OA
ATOM      7  H   UNL     1      24.545  21.771  22.700  1.00  0.00     0.210 HD
ENDBRANCH   5   6
ENDBRANCH   1   5
BRANCH   1   8
ATOM      8  O   UNL     1      21.555  21.451  23.551  1.00  0.00    -0.388 OA
ATOM      9  H   UNL     1      22.434  21.870  23.748  1.00  0.00     0.211 HD
ENDBRANCH   1   8
TORSDOF 5
ENDMDL
MODEL 7
REMARK VINA RESULT:    -3.339      0.717      2.263
REMARK INTER + INTRA:          -4.222
REMARK INTER:                  -4.041
REMARK INTRA:                  -0.181
REMARK UNBOUND:                -0.200
REMARK SMILES OCC(O)CO
REMARK SMILES IDX 3 1 5 2 6 3 2 5 1 6 4 8
REMARK H PARENT 6 4 1 7 4 9
REMARK Flexibility Score: inf
ROOT
ATOM      1  C   UNL     1      21.872  21.445  22.666  1.00  0.00     0.165 C 
ENDROOT
BRANCH   1   2
ATOM      2  C   UNL     1      21.647  22.927  23.008  1.00  0.00     0.190 C 
BRANCH   2   3
ATOM      3  O   UNL     1      22.023  23.740  21.931  1.00  0.00    -0.394 OA
ATOM      4  H   UNL     1      21.180  24.012  21.484  1.00  0.00     0.210 HD
ENDBRANCH   2   3
ENDBRANCH   1   2
BRANCH   1   5
ATOM      5  C   UNL     1      23.029  21.256  21.677  1.00  0.00     0.190 C 
BRANCH   5   6
ATOM      6  O   UNL     1      24.123  22.045  22.057  1.00  0.00    -0.394 OA
ATOM      7  H   UNL     1      24.574  21.553  22.792  1.00  0.00     0.210 HD
ENDBRANCH   5   6
ENDBRANCH   1   5
BRANCH   1   8
ATOM      8  O   UNL     1      20.703  20.900  22.110  1.00  0.00    -0.388 OA
ATOM      9  H   UNL     1      20.981  20.112  21.573  1.00  0.00     0.211 HD
ENDBRANCH   1   8
TORSDOF 5
ENDMDL
MODEL 8
REMARK VINA RESULT:    -3.268      3.282      4.525
REMARK INTER + INTRA:          -4.136
REMARK INTER:                  -4.134
REMARK INTRA:                  -0.003
REMARK UNBOUND:                -0.200
REMARK SMILES OCC(O)CO
REMARK SMILES IDX 3 1 5 2 6 3 2 5 1 6 4 8
REMARK H PARENT 6 4 1 7 4 9
REMARK Flexibility Score: inf
ROOT
ATOM      1  C   UNL     1      20.419  18.656  22.393  1.00  0.00     0.165 C 
ENDROOT
BRANCH   1   2
ATOM      2  C   UNL     1      21.132  19.987  22.106  1.00  0.00     0.190 C 
BRANCH   2   3
ATOM      3  O   UNL     1      21.476  20.626  23.306  1.00  0.00    -0.394 OA
ATOM      4  H   UNL     1      20.784  21.320  23.455  1.00  0.00     0.210 HD
ENDBRANCH   2   3
ENDBRANCH   1   2
BRANCH   1   5
ATOM      5  C   UNL     1      19.571  18.194  21.202  1.00  0.00     0.190 C 
BRANCH   5   6
ATOM      6  O   UNL     1      18.926  16.987  21.508  1.00  0.00    -0.394 OA
ATOM      7  H   UNL     1      18.350  17.175  22.294  1.00  0.00     0.210 HD
ENDBRANCH   5   6
ENDBRANCH   1   5
BRANCH   1   8
ATOM      8  O   UNL     1      19.591  18.790  23.519  1.00  0.00    -0.388 OA
ATOM      9  H   UNL     1      18.654  18.779  23.189  1.00  0.00     0.211 HD
ENDBRANCH   1   8
TORSDOF 5
ENDMDL
MODEL 9
REMARK VINA RESULT:    -3.188      1.658      2.826
REMARK INTER + INTRA:          -4.040
REMARK INTER:                  -4.038
REMARK INTRA:                  -0.003
REMARK UNBOUND:                -0.200
REMARK SMILES OCC(O)CO
REMARK SMILES IDX 3 1 5 2 6 3 2 5 1 6 4 8
REMARK H PARENT 6 4 1 7 4 9
REMARK Flexibility Score: inf
ROOT
ATOM      1  C   UNL     1      21.911  20.377  22.668  1.00  0.00     0.165 C 
ENDROOT
BRANCH   1   2
ATOM      2  C   UNL     1      22.402  21.413  21.644  1.00  0.00     0.190 C 
BRANCH   2   3
ATOM      3  O   UNL     1      23.803  21.435  21.604  1.00  0.00    -0.394 OA
ATOM      4  H   UNL     1      24.097  21.804  22.477  1.00  0.00     0.210 HD
ENDBRANCH   2   3
ENDBRANCH   1   2
BRANCH   1   5
ATOM      5  C   UNL     1      20.804  19.486  22.093  1.00  0.00     0.190 C 
BRANCH   5   6
ATOM      6  O   UNL     1      20.045  18.927  23.131  1.00  0.00    -0.394 OA
ATOM      7  H   UNL     1      19.095  19.097  22.899  1.00  0.00     0.210 HD
ENDBRANCH   5   6
ENDBRANCH   1   5
BRANCH   1   8
ATOM      8  O   UNL     1      21.424  21.030  23.812  1.00  0.00    -0.388 OA
ATOM      9  H   UNL     1      20.588  20.563  24.075  1.00  0.00     0.211 HD
ENDBRANCH   1   8
TORSDOF 5
ENDMDL
