MODEL 1
REMARK VINA RESULT:    -4.105      0.000      0.000
REMARK INTER + INTRA:          -4.105
REMARK INTER:                  -4.105
REMARK INTRA:                   0.000
REMARK UNBOUND:                 0.000
REMARK SMILES C=C1[C@@H]2CC[C@@H](C2)C1(C)C
REMARK SMILES IDX 9 1 8 2 6 3 5 4 4 5 3 6 7 7 2 8 1 9 10 10
REMARK H PARENT
REMARK Flexibility Score: inf
ROOT
ATOM      1  C   UNL     1       1.291  -4.261  17.839  1.00  0.00     0.016 C 
ATOM      2  C   UNL     1       1.441  -2.768  17.469  1.00  0.00    -0.012 C 
ATOM      3  C   UNL     1       1.062  -2.513  15.967  1.00  0.00    -0.001 C 
ATOM      4  C   UNL     1       1.026  -0.998  15.650  1.00  0.00     0.005 C 
ATOM      5  C   UNL     1       2.510  -0.588  15.762  1.00  0.00     0.008 C 
ATOM      6  C   UNL     1       3.221  -1.929  16.018  1.00  0.00     0.015 C 
ATOM      7  C   UNL     1       2.348  -2.886  15.235  1.00  0.00     0.012 C 
ATOM      8  C   UNL     1       2.891  -2.352  17.426  1.00  0.00    -0.068 C 
ATOM      9  C   UNL     1       3.737  -2.307  18.461  1.00  0.00     0.008 C 
ATOM     10  C   UNL     1       0.629  -1.917  18.472  1.00  0.00     0.016 C 
ENDROOT
TORSDOF 0
ENDMDL
MODEL 2
REMARK VINA RESULT:    -4.012      0.701      2.520
REMARK INTER + INTRA:          -4.012
REMARK INTER:                  -4.012
REMARK INTRA:                   0.000
REMARK UNBOUND:                 0.000
REMARK SMILES C=C1[C@@H]2CC[C@@H](C2)C1(C)C
REMARK SMILES IDX 9 1 8 2 6 3 5 4 4 5 3 6 7 7 2 8 1 9 10 10
REMARK H PARENT
REMARK Flexibility Score: inf
ROOT
ATOM      1  C   UNL     1       3.728  -1.869  18.268  1.00  0.00     0.016 C 
ATOM      2  C   UNL     1       2.763  -2.554  17.274  1.00  0.00    -0.012 C 
ATOM      3  C   UNL     1       3.107  -2.170  15.791  1.00  0.00    -0.001 C 
ATOM      4  C   UNL     1       2.269  -3.003  14.791  1.00  0.00     0.005 C 
ATOM      5  C   UNL     1       0.837  -2.472  15.017  1.00  0.00     0.008 C 
ATOM      6  C   UNL     1       1.046  -1.335  16.031  1.00  0.00     0.015 C 
ATOM      7  C   UNL     1       2.412  -0.822  15.630  1.00  0.00     0.012 C 
ATOM      8  C   UNL     1       1.374  -1.968  17.358  1.00  0.00    -0.068 C 
ATOM      9  C   UNL     1       0.543  -2.039  18.404  1.00  0.00     0.008 C 
ATOM     10  C   UNL     1       2.761  -4.076  17.543  1.00  0.00     0.016 C 
ENDROOT
TORSDOF 0
ENDMDL
MODEL 3
REMARK VINA RESULT:    -4.009      1.480      3.592
REMARK INTER + INTRA:          -4.009
REMARK INTER:                  -4.009
REMARK INTRA:                   0.000
REMARK UNBOUND:                 0.000
REMARK SMILES C=C1[C@@H]2CC[C@@H](C2)C1(C)C
REMARK SMILES IDX 9 1 8 2 6 3 5 4 4 5 3 6 7 7 2 8 1 9 10 10
REMARK H PARENT
REMARK Flexibility Score: inf
ROOT
ATOM      1  C   UNL     1       1.967  -0.408  13.187  1.00  0.00     0.016 C 
ATOM      2  C   UNL     1       1.298  -1.293  14.262  1.00  0.00    -0.012 C 
ATOM      3  C   UNL     1       1.614  -0.770  15.707  1.00  0.00    -0.001 C 
ATOM      4  C   UNL     1       0.791  -1.536  16.771  1.00  0.00     0.005 C 
ATOM      5  C   UNL     1       1.398  -2.954  16.720  1.00  0.00     0.008 C 
ATOM      6  C   UNL     1       2.557  -2.798  15.720  1.00  0.00     0.015 C 
ATOM      7  C   UNL     1       2.989  -1.371  15.982  1.00  0.00     0.012 C 
ATOM      8  C   UNL     1       1.953  -2.650  14.349  1.00  0.00    -0.068 C 
ATOM      9  C   UNL     1       1.958  -3.593  13.400  1.00  0.00     0.008 C 
ATOM     10  C   UNL     1      -0.213  -1.403  13.953  1.00  0.00     0.016 C 
ENDROOT
TORSDOF 0
ENDMDL
MODEL 4
REMARK VINA RESULT:    -3.995      1.436      3.185
REMARK INTER + INTRA:          -3.995
REMARK INTER:                  -3.995
REMARK INTRA:                   0.000
REMARK UNBOUND:                 0.000
REMARK SMILES C=C1[C@@H]2CC[C@@H](C2)C1(C)C
REMARK SMILES IDX 9 1 8 2 6 3 5 4 4 5 3 6 7 7 2 8 1 9 10 10
REMARK H PARENT
REMARK Flexibility Score: inf
ROOT
ATOM      1  C   UNL     1       0.123  -1.233  14.752  1.00  0.00     0.016 C 
ATOM      2  C   UNL     1       1.379  -1.933  15.316  1.00  0.00    -0.012 C 
ATOM      3  C   UNL     1       2.372  -0.897  15.951  1.00  0.00    -0.001 C 
ATOM      4  C   UNL     1       3.532  -1.612  16.684  1.00  0.00     0.005 C 
ATOM      5  C   UNL     1       4.322  -2.261  15.527  1.00  0.00     0.008 C 
ATOM      6  C   UNL     1       3.585  -1.750  14.277  1.00  0.00     0.015 C 
ATOM      7  C   UNL     1       3.132  -0.380  14.735  1.00  0.00     0.012 C 
ATOM      8  C   UNL     1       2.260  -2.464  14.210  1.00  0.00    -0.068 C 
ATOM      9  C   UNL     1       1.953  -3.438  13.347  1.00  0.00     0.008 C 
ATOM     10  C   UNL     1       0.938  -3.054  16.286  1.00  0.00     0.016 C 
ENDROOT
TORSDOF 0
ENDMDL
MODEL 5
REMARK VINA RESULT:    -3.965      1.696      3.596
REMARK INTER + INTRA:          -3.965
REMARK INTER:                  -3.965
REMARK INTRA:                   0.000
REMARK UNBOUND:                 0.000
REMARK SMILES C=C1[C@@H]2CC[C@@H](C2)C1(C)C
REMARK SMILES IDX 9 1 8 2 6 3 5 4 4 5 3 6 7 7 2 8 1 9 10 10
REMARK H PARENT
REMARK Flexibility Score: inf
ROOT
ATOM      1  C   UNL     1       0.081  -3.664  13.763  1.00  0.00     0.016 C 
ATOM      2  C   UNL     1       1.069  -2.490  13.940  1.00  0.00    -0.012 C 
ATOM      3  C   UNL     1       2.350  -2.939  14.729  1.00  0.00    -0.001 C 
ATOM      4  C   UNL     1       3.421  -1.820  14.738  1.00  0.00     0.005 C 
ATOM      5  C   UNL     1       2.772  -0.731  15.618  1.00  0.00     0.008 C 
ATOM      6  C   UNL     1       1.469  -1.399  16.091  1.00  0.00     0.015 C 
ATOM      7  C   UNL     1       1.891  -2.850  16.181  1.00  0.00     0.012 C 
ATOM      8  C   UNL     1       0.539  -1.460  14.908  1.00  0.00    -0.068 C 
ATOM      9  C   UNL     1      -0.540  -0.688  14.736  1.00  0.00     0.008 C 
ATOM     10  C   UNL     1       1.371  -1.874  12.554  1.00  0.00     0.016 C 
ENDROOT
TORSDOF 0
ENDMDL
MODEL 6
REMARK VINA RESULT:    -3.960      2.596      5.109
REMARK INTER + INTRA:          -3.960
REMARK INTER:                  -3.960
REMARK INTRA:                   0.000
REMARK UNBOUND:                 0.000
REMARK SMILES C=C1[C@@H]2CC[C@@H](C2)C1(C)C
REMARK SMILES IDX 9 1 8 2 6 3 5 4 4 5 3 6 7 7 2 8 1 9 10 10
REMARK H PARENT
REMARK Flexibility Score: inf
ROOT
ATOM      1  C   UNL     1       6.712  -2.818  17.956  1.00  0.00     0.016 C 
ATOM      2  C   UNL     1       5.718  -2.588  19.117  1.00  0.00    -0.012 C 
ATOM      3  C   UNL     1       5.754  -3.778  20.140  1.00  0.00    -0.001 C 
ATOM      4  C   UNL     1       4.906  -3.461  21.396  1.00  0.00     0.005 C 
ATOM      5  C   UNL     1       3.464  -3.454  20.844  1.00  0.00     0.008 C 
ATOM      6  C   UNL     1       3.654  -3.874  19.376  1.00  0.00     0.015 C 
ATOM      7  C   UNL     1       4.841  -4.807  19.482  1.00  0.00     0.012 C 
ATOM      8  C   UNL     1       4.287  -2.714  18.653  1.00  0.00    -0.068 C 
ATOM      9  C   UNL     1       3.657  -1.907  17.791  1.00  0.00     0.008 C 
ATOM     10  C   UNL     1       5.997  -1.207  19.753  1.00  0.00     0.016 C 
ENDROOT
TORSDOF 0
ENDMDL
MODEL 7
REMARK VINA RESULT:    -3.953      1.462      2.854
REMARK INTER + INTRA:          -3.953
REMARK INTER:                  -3.953
REMARK INTRA:                   0.000
REMARK UNBOUND:                 0.000
REMARK SMILES C=C1[C@@H]2CC[C@@H](C2)C1(C)C
REMARK SMILES IDX 9 1 8 2 6 3 5 4 4 5 3 6 7 7 2 8 1 9 10 10
REMARK H PARENT
REMARK Flexibility Score: inf
ROOT
ATOM      1  C   UNL     1       1.198  -3.294  16.837  1.00  0.00     0.016 C 
ATOM      2  C   UNL     1       1.384  -2.625  15.457  1.00  0.00    -0.012 C 
ATOM      3  C   UNL     1       2.887  -2.661  15.005  1.00  0.00    -0.001 C 
ATOM      4  C   UNL     1       3.043  -2.167  13.546  1.00  0.00     0.005 C 
ATOM      5  C   UNL     1       2.695  -0.667  13.651  1.00  0.00     0.008 C 
ATOM      6  C   UNL     1       2.491  -0.465  15.162  1.00  0.00     0.015 C 
ATOM      7  C   UNL     1       3.479  -1.459  15.734  1.00  0.00     0.012 C 
ATOM      8  C   UNL     1       1.192  -1.130  15.535  1.00  0.00    -0.068 C 
ATOM      9  C   UNL     1       0.056  -0.488  15.831  1.00  0.00     0.008 C 
ATOM     10  C   UNL     1       0.412  -3.277  14.447  1.00  0.00     0.016 C 
ENDROOT
TORSDOF 0
ENDMDL
MODEL 8
REMARK VINA RESULT:    -3.794      1.677      3.279
REMARK INTER + INTRA:          -3.794
REMARK INTER:                  -3.794
REMARK INTRA:                   0.000
REMARK UNBOUND:                 0.000
REMARK SMILES C=C1[C@@H]2CC[C@@H](C2)C1(C)C
REMARK SMILES IDX 9 1 8 2 6 3 5 4 4 5 3 6 7 7 2 8 1 9 10 10
REMARK H PARENT
REMARK Flexibility Score: inf
ROOT
ATOM      1  C   UNL     1      -0.110  -0.374  16.001  1.00  0.00     0.016 C 
ATOM      2  C   UNL     1       1.027  -1.105  15.253  1.00  0.00    -0.012 C 
ATOM      3  C   UNL     1       0.752  -1.157  13.709  1.00  0.00    -0.001 C 
ATOM      4  C   UNL     1       1.976  -1.715  12.942  1.00  0.00     0.005 C 
ATOM      5  C   UNL     1       2.017  -3.192  13.388  1.00  0.00     0.008 C 
ATOM      6  C   UNL     1       0.758  -3.324  14.262  1.00  0.00     0.015 C 
ATOM      7  C   UNL     1      -0.184  -2.355  13.580  1.00  0.00     0.012 C 
ATOM      8  C   UNL     1       1.021  -2.586  15.548  1.00  0.00    -0.068 C 
ATOM      9  C   UNL     1       1.261  -3.162  16.732  1.00  0.00     0.008 C 
ATOM     10  C   UNL     1       2.377  -0.450  15.627  1.00  0.00     0.016 C 
ENDROOT
TORSDOF 0
ENDMDL
MODEL 9
REMARK VINA RESULT:    -3.760      1.825      2.902
REMARK INTER + INTRA:          -3.760
REMARK INTER:                  -3.760
REMARK INTRA:                   0.000
REMARK UNBOUND:                 0.000
REMARK SMILES C=C1[C@@H]2CC[C@@H](C2)C1(C)C
REMARK SMILES IDX 9 1 8 2 6 3 5 4 4 5 3 6 7 7 2 8 1 9 10 10
REMARK H PARENT
REMARK Flexibility Score: inf
ROOT
ATOM      1  C   UNL     1       0.475  -4.918  19.500  1.00  0.00     0.016 C 
ATOM      2  C   UNL     1       1.305  -3.640  19.247  1.00  0.00    -0.012 C 
ATOM      3  C   UNL     1       2.068  -3.718  17.878  1.00  0.00    -0.001 C 
ATOM      4  C   UNL     1       2.742  -2.367  17.536  1.00  0.00     0.005 C 
ATOM      5  C   UNL     1       3.851  -2.255  18.603  1.00  0.00     0.008 C 
ATOM      6  C   UNL     1       3.747  -3.596  19.350  1.00  0.00     0.015 C 
ATOM      7  C   UNL     1       3.311  -4.526  18.238  1.00  0.00     0.012 C 
ATOM      8  C   UNL     1       2.491  -3.556  20.178  1.00  0.00    -0.068 C 
ATOM      9  C   UNL     1       2.449  -3.415  21.508  1.00  0.00     0.008 C 
ATOM     10  C   UNL     1       0.382  -2.407  19.380  1.00  0.00     0.016 C 
ENDROOT
TORSDOF 0
ENDMDL
