MODEL 1
REMARK VINA RESULT:    -3.676      0.000      0.000
REMARK INTER + INTRA:          -8.648
REMARK INTER:                  -6.900
REMARK INTRA:                  -1.749
REMARK UNBOUND:                -1.749
REMARK SMILES O=C([O-])CCCCCCCCCCCCCCC(=O)[O-]
REMARK SMILES IDX 10 1 9 2 8 3 7 4 6 5 5 6 4 7 2 8 1 9 3 10 11 11 12 12 13 13
REMARK SMILES IDX 14 14 15 15 16 16 17 17 18 18 19 19 20 20
REMARK H PARENT
REMARK Flexibility Score: inf
ROOT
ATOM      1  C   UNL     1    -103.556  30.316 -33.218  1.00  0.00     0.000 C 
ENDROOT
BRANCH   1   2
ATOM      2  C   UNL     1    -105.030  30.515 -33.616  1.00  0.00     0.000 C 
BRANCH   2   3
ATOM      3  C   UNL     1    -105.198  30.820 -35.113  1.00  0.00     0.000 C 
BRANCH   3   4
ATOM      4  C   UNL     1    -103.988  30.359 -35.945  1.00  0.00     0.000 C 
BRANCH   4   5
ATOM      5  C   UNL     1    -103.371  31.493 -36.780  1.00  0.00     0.000 C 
BRANCH   5   6
ATOM      6  C   UNL     1    -103.596  31.384 -38.300  1.00  0.00     0.006 C 
BRANCH   6   7
ATOM      7  C   UNL     1    -104.920  32.005 -38.787  1.00  0.00     0.053 C 
BRANCH   7   8
ATOM      8  C   UNL     1    -105.949  30.972 -39.135  1.00  0.00     0.041 C 
ATOM      9  O   UNL     1    -106.835  30.651 -38.298  1.00  0.00    -0.550 OA
ATOM     10  O   UNL     1    -105.957  30.393 -40.397  1.00  0.00    -0.550 OA
ENDBRANCH   7   8
ENDBRANCH   6   7
ENDBRANCH   5   6
ENDBRANCH   4   5
ENDBRANCH   3   4
ENDBRANCH   2   3
ENDBRANCH   1   2
BRANCH   1  11
ATOM     11  C   UNL     1    -102.859  31.633 -32.844  1.00  0.00     0.000 C 
BRANCH  11  12
ATOM     12  C   UNL     1    -101.515  31.816 -33.570  1.00  0.00     0.000 C 
BRANCH  12  13
ATOM     13  C   UNL     1    -100.710  30.509 -33.661  1.00  0.00     0.000 C 
BRANCH  13  14
ATOM     14  C   UNL     1    -100.177  30.241 -35.079  1.00  0.00     0.000 C 
BRANCH  14  15
ATOM     15  C   UNL     1     -99.360  31.417 -35.636  1.00  0.00     0.000 C 
BRANCH  15  16
ATOM     16  C   UNL     1     -99.980  32.019 -36.910  1.00  0.00     0.006 C 
BRANCH  16  17
ATOM     17  C   UNL     1     -99.153  31.700 -38.162  1.00  0.00     0.053 C 
BRANCH  17  18
ATOM     18  C   UNL     1     -98.272  32.847 -38.554  1.00  0.00     0.041 C 
ATOM     19  O   UNL     1     -98.527  34.011 -38.147  1.00  0.00    -0.550 OA
ATOM     20  O   UNL     1     -97.152  32.624 -39.346  1.00  0.00    -0.550 OA
ENDBRANCH  17  18
ENDBRANCH  16  17
ENDBRANCH  15  16
ENDBRANCH  14  15
ENDBRANCH  13  14
ENDBRANCH  12  13
ENDBRANCH  11  12
ENDBRANCH   1  11
TORSDOF 15
ENDMDL
MODEL 2
REMARK VINA RESULT:    -3.646      1.562      5.804
REMARK INTER + INTRA:          -8.592
REMARK INTER:                  -7.044
REMARK INTRA:                  -1.548
REMARK UNBOUND:                -1.749
REMARK SMILES O=C([O-])CCCCCCCCCCCCCCC(=O)[O-]
REMARK SMILES IDX 10 1 9 2 8 3 7 4 6 5 5 6 4 7 2 8 1 9 3 10 11 11 12 12 13 13
REMARK SMILES IDX 14 14 15 15 16 16 17 17 18 18 19 19 20 20
REMARK H PARENT
REMARK Flexibility Score: inf
ROOT
ATOM      1  C   UNL     1    -101.616  31.199 -33.593  1.00  0.00     0.000 C 
ENDROOT
BRANCH   1   2
ATOM      2  C   UNL     1    -100.239  30.558 -33.851  1.00  0.00     0.000 C 
BRANCH   2   3
ATOM      3  C   UNL     1    -100.107  30.011 -35.281  1.00  0.00     0.000 C 
BRANCH   3   4
ATOM      4  C   UNL     1    -101.395  30.194 -36.102  1.00  0.00     0.000 C 
BRANCH   4   5
ATOM      5  C   UNL     1    -101.245  31.232 -37.226  1.00  0.00     0.000 C 
BRANCH   5   6
ATOM      6  C   UNL     1     -99.921  32.019 -37.217  1.00  0.00     0.006 C 
BRANCH   6   7
ATOM      7  C   UNL     1     -99.023  31.755 -38.441  1.00  0.00     0.053 C 
BRANCH   7   8
ATOM      8  C   UNL     1     -98.136  32.918 -38.771  1.00  0.00     0.041 C 
ATOM      9  O   UNL     1     -98.458  34.083 -38.415  1.00  0.00    -0.550 OA
ATOM     10  O   UNL     1     -96.934  32.712 -39.435  1.00  0.00    -0.550 OA
ENDBRANCH   7   8
ENDBRANCH   6   7
ENDBRANCH   5   6
ENDBRANCH   4   5
ENDBRANCH   3   4
ENDBRANCH   2   3
ENDBRANCH   1   2
BRANCH   1  11
ATOM     11  C   UNL     1    -102.458  30.407 -32.582  1.00  0.00     0.000 C 
BRANCH  11  12
ATOM     12  C   UNL     1    -103.910  30.911 -32.501  1.00  0.00     0.000 C 
BRANCH  12  13
ATOM     13  C   UNL     1    -103.996  32.435 -32.314  1.00  0.00     0.000 C 
BRANCH  13  14
ATOM     14  C   UNL     1    -105.146  33.065 -33.118  1.00  0.00     0.000 C 
BRANCH  14  15
ATOM     15  C   UNL     1    -104.786  33.284 -34.595  1.00  0.00     0.000 C 
BRANCH  15  16
ATOM     16  C   UNL     1    -105.702  32.499 -35.552  1.00  0.00     0.006 C 
BRANCH  16  17
ATOM     17  C   UNL     1    -104.908  31.738 -36.621  1.00  0.00     0.053 C 
BRANCH  17  18
ATOM     18  C   UNL     1    -104.904  32.464 -37.932  1.00  0.00     0.041 C 
ATOM     19  O   UNL     1    -104.186  32.053 -38.882  1.00  0.00    -0.550 OA
ATOM     20  O   UNL     1    -105.715  33.577 -38.113  1.00  0.00    -0.550 OA
ENDBRANCH  17  18
ENDBRANCH  16  17
ENDBRANCH  15  16
ENDBRANCH  14  15
ENDBRANCH  13  14
ENDBRANCH  12  13
ENDBRANCH  11  12
ENDBRANCH   1  11
TORSDOF 15
ENDMDL
MODEL 3
REMARK VINA RESULT:    -3.543      2.804      5.878
REMARK INTER + INTRA:          -8.399
REMARK INTER:                  -6.715
REMARK INTRA:                  -1.684
REMARK UNBOUND:                -1.749
REMARK SMILES O=C([O-])CCCCCCCCCCCCCCC(=O)[O-]
REMARK SMILES IDX 10 1 9 2 8 3 7 4 6 5 5 6 4 7 2 8 1 9 3 10 11 11 12 12 13 13
REMARK SMILES IDX 14 14 15 15 16 16 17 17 18 18 19 19 20 20
REMARK H PARENT
REMARK Flexibility Score: inf
ROOT
ATOM      1  C   UNL     1    -100.047  31.900 -36.203  1.00  0.00     0.000 C 
ENDROOT
BRANCH   1   2
ATOM      2  C   UNL     1     -99.044  31.360 -35.166  1.00  0.00     0.000 C 
BRANCH   2   3
ATOM      3  C   UNL     1     -99.559  30.100 -34.454  1.00  0.00     0.000 C 
BRANCH   3   4
ATOM      4  C   UNL     1    -101.095  30.049 -34.386  1.00  0.00     0.000 C 
BRANCH   4   5
ATOM      5  C   UNL     1    -101.656  30.649 -33.087  1.00  0.00     0.000 C 
BRANCH   5   6
ATOM      6  C   UNL     1    -102.304  32.040 -33.234  1.00  0.00     0.006 C 
BRANCH   6   7
ATOM      7  C   UNL     1    -103.838  32.037 -33.091  1.00  0.00     0.053 C 
BRANCH   7   8
ATOM      8  C   UNL     1    -104.531  32.645 -34.273  1.00  0.00     0.041 C 
ATOM      9  O   UNL     1    -103.880  33.328 -35.108  1.00  0.00    -0.550 OA
ATOM     10  O   UNL     1    -105.887  32.426 -34.476  1.00  0.00    -0.550 OA
ENDBRANCH   7   8
ENDBRANCH   6   7
ENDBRANCH   5   6
ENDBRANCH   4   5
ENDBRANCH   3   4
ENDBRANCH   2   3
ENDBRANCH   1   2
BRANCH   1  11
ATOM     11  C   UNL     1     -99.407  32.135 -37.580  1.00  0.00     0.000 C 
BRANCH  11  12
ATOM     12  C   UNL     1     -99.809  31.063 -38.608  1.00  0.00     0.000 C 
BRANCH  12  13
ATOM     13  C   UNL     1    -100.903  30.120 -38.080  1.00  0.00     0.000 C 
BRANCH  13  14
ATOM     14  C   UNL     1    -102.237  30.285 -38.828  1.00  0.00     0.000 C 
BRANCH  14  15
ATOM     15  C   UNL     1    -103.141  31.356 -38.198  1.00  0.00     0.000 C 
BRANCH  15  16
ATOM     16  C   UNL     1    -104.448  31.567 -38.983  1.00  0.00     0.006 C 
BRANCH  16  17
ATOM     17  C   UNL     1    -105.673  31.629 -38.062  1.00  0.00     0.053 C 
BRANCH  17  18
ATOM     18  C   UNL     1    -106.216  33.021 -37.951  1.00  0.00     0.041 C 
ATOM     19  O   UNL     1    -105.447  34.013 -38.063  1.00  0.00    -0.550 OA
ATOM     20  O   UNL     1    -107.576  33.223 -37.750  1.00  0.00    -0.550 OA
ENDBRANCH  17  18
ENDBRANCH  16  17
ENDBRANCH  15  16
ENDBRANCH  14  15
ENDBRANCH  13  14
ENDBRANCH  12  13
ENDBRANCH  11  12
ENDBRANCH   1  11
TORSDOF 15
ENDMDL
MODEL 4
REMARK VINA RESULT:    -3.513      2.066      6.857
REMARK INTER + INTRA:          -8.342
REMARK INTER:                  -6.946
REMARK INTRA:                  -1.395
REMARK UNBOUND:                -1.749
REMARK SMILES O=C([O-])CCCCCCCCCCCCCCC(=O)[O-]
REMARK SMILES IDX 10 1 9 2 8 3 7 4 6 5 5 6 4 7 2 8 1 9 3 10 11 11 12 12 13 13
REMARK SMILES IDX 14 14 15 15 16 16 17 17 18 18 19 19 20 20
REMARK H PARENT
REMARK Flexibility Score: inf
ROOT
ATOM      1  C   UNL     1    -102.107  32.065 -33.263  1.00  0.00     0.000 C 
ENDROOT
BRANCH   1   2
ATOM      2  C   UNL     1    -101.240  30.793 -33.301  1.00  0.00     0.000 C 
BRANCH   2   3
ATOM      3  C   UNL     1    -100.261  30.786 -34.486  1.00  0.00     0.000 C 
BRANCH   3   4
ATOM      4  C   UNL     1    -100.929  30.336 -35.797  1.00  0.00     0.000 C 
BRANCH   4   5
ATOM      5  C   UNL     1    -100.939  31.437 -36.870  1.00  0.00     0.000 C 
BRANCH   5   6
ATOM      6  C   UNL     1     -99.589  32.147 -37.092  1.00  0.00     0.006 C 
BRANCH   6   7
ATOM      7  C   UNL     1     -98.905  31.794 -38.427  1.00  0.00     0.053 C 
BRANCH   7   8
ATOM      8  C   UNL     1     -97.982  32.874 -38.907  1.00  0.00     0.041 C 
ATOM      9  O   UNL     1     -96.883  32.577 -39.447  1.00  0.00    -0.550 OA
ATOM     10  O   UNL     1     -98.350  34.208 -38.794  1.00  0.00    -0.550 OA
ENDBRANCH   7   8
ENDBRANCH   6   7
ENDBRANCH   5   6
ENDBRANCH   4   5
ENDBRANCH   3   4
ENDBRANCH   2   3
ENDBRANCH   1   2
BRANCH   1  11
ATOM     11  C   UNL     1    -103.565  31.776 -32.871  1.00  0.00     0.000 C 
BRANCH  11  12
ATOM     12  C   UNL     1    -104.561  32.178 -33.973  1.00  0.00     0.000 C 
BRANCH  12  13
ATOM     13  C   UNL     1    -103.862  32.690 -35.243  1.00  0.00     0.000 C 
BRANCH  13  14
ATOM     14  C   UNL     1    -104.544  32.198 -36.532  1.00  0.00     0.000 C 
BRANCH  14  15
ATOM     15  C   UNL     1    -105.059  33.352 -37.406  1.00  0.00     0.000 C 
BRANCH  15  16
ATOM     16  C   UNL     1    -106.525  33.161 -37.836  1.00  0.00     0.006 C 
BRANCH  16  17
ATOM     17  C   UNL     1    -107.232  32.075 -37.015  1.00  0.00     0.053 C 
BRANCH  17  18
ATOM     18  C   UNL     1    -108.424  32.616 -36.285  1.00  0.00     0.041 C 
ATOM     19  O   UNL     1    -109.032  33.627 -36.726  1.00  0.00    -0.550 OA
ATOM     20  O   UNL     1    -108.878  31.987 -35.133  1.00  0.00    -0.550 OA
ENDBRANCH  17  18
ENDBRANCH  16  17
ENDBRANCH  15  16
ENDBRANCH  14  15
ENDBRANCH  13  14
ENDBRANCH  12  13
ENDBRANCH  11  12
ENDBRANCH   1  11
TORSDOF 15
ENDMDL
MODEL 5
REMARK VINA RESULT:    -3.507      1.033      6.000
REMARK INTER + INTRA:          -8.330
REMARK INTER:                  -6.582
REMARK INTRA:                  -1.748
REMARK UNBOUND:                -1.749
REMARK SMILES O=C([O-])CCCCCCCCCCCCCCC(=O)[O-]
REMARK SMILES IDX 10 1 9 2 8 3 7 4 6 5 5 6 4 7 2 8 1 9 3 10 11 11 12 12 13 13
REMARK SMILES IDX 14 14 15 15 16 16 17 17 18 18 19 19 20 20
REMARK H PARENT
REMARK Flexibility Score: inf
ROOT
ATOM      1  C   UNL     1    -101.996  31.930 -33.528  1.00  0.00     0.000 C 
ENDROOT
BRANCH   1   2
ATOM      2  C   UNL     1    -101.146  30.649 -33.426  1.00  0.00     0.000 C 
BRANCH   2   3
ATOM      3  C   UNL     1    -100.605  30.194 -34.790  1.00  0.00     0.000 C 
BRANCH   3   4
ATOM      4  C   UNL     1    -101.715  30.056 -35.846  1.00  0.00     0.000 C 
BRANCH   4   5
ATOM      5  C   UNL     1    -101.397  30.806 -37.149  1.00  0.00     0.000 C 
BRANCH   5   6
ATOM      6  C   UNL     1    -100.152  31.713 -37.095  1.00  0.00     0.006 C 
BRANCH   6   7
ATOM      7  C   UNL     1     -99.222  31.580 -38.316  1.00  0.00     0.053 C 
BRANCH   7   8
ATOM      8  C   UNL     1     -98.361  32.790 -38.523  1.00  0.00     0.041 C 
ATOM      9  O   UNL     1     -97.362  32.735 -39.289  1.00  0.00    -0.550 OA
ATOM     10  O   UNL     1     -98.683  33.989 -37.903  1.00  0.00    -0.550 OA
ENDBRANCH   7   8
ENDBRANCH   6   7
ENDBRANCH   5   6
ENDBRANCH   4   5
ENDBRANCH   3   4
ENDBRANCH   2   3
ENDBRANCH   1   2
BRANCH   1  11
ATOM     11  C   UNL     1    -103.252  31.879 -32.645  1.00  0.00     0.000 C 
BRANCH  11  12
ATOM     12  C   UNL     1    -104.533  31.621 -33.456  1.00  0.00     0.000 C 
BRANCH  12  13
ATOM     13  C   UNL     1    -104.706  32.613 -34.619  1.00  0.00     0.000 C 
BRANCH  13  14
ATOM     14  C   UNL     1    -104.962  31.910 -35.963  1.00  0.00     0.000 C 
BRANCH  14  15
ATOM     15  C   UNL     1    -105.274  32.898 -37.098  1.00  0.00     0.000 C 
BRANCH  15  16
ATOM     16  C   UNL     1    -104.747  32.419 -38.462  1.00  0.00     0.006 C 
BRANCH  16  17
ATOM     17  C   UNL     1    -104.796  30.892 -38.598  1.00  0.00     0.053 C 
BRANCH  17  18
ATOM     18  C   UNL     1    -106.012  30.439 -39.349  1.00  0.00     0.041 C 
ATOM     19  O   UNL     1    -107.093  30.228 -38.738  1.00  0.00    -0.550 OA
ATOM     20  O   UNL     1    -105.956  30.276 -40.728  1.00  0.00    -0.550 OA
ENDBRANCH  17  18
ENDBRANCH  16  17
ENDBRANCH  15  16
ENDBRANCH  14  15
ENDBRANCH  13  14
ENDBRANCH  12  13
ENDBRANCH  11  12
ENDBRANCH   1  11
TORSDOF 15
ENDMDL
MODEL 6
REMARK VINA RESULT:    -3.483      3.505      5.182
REMARK INTER + INTRA:          -8.287
REMARK INTER:                  -5.982
REMARK INTRA:                  -2.305
REMARK UNBOUND:                -1.749
REMARK SMILES O=C([O-])CCCCCCCCCCCCCCC(=O)[O-]
REMARK SMILES IDX 10 1 9 2 8 3 7 4 6 5 5 6 4 7 2 8 1 9 3 10 11 11 12 12 13 13
REMARK SMILES IDX 14 14 15 15 16 16 17 17 18 18 19 19 20 20
REMARK H PARENT
REMARK Flexibility Score: inf
ROOT
ATOM      1  C   UNL     1    -100.578  32.066 -36.152  1.00  0.00     0.000 C 
ENDROOT
BRANCH   1   2
ATOM      2  C   UNL     1    -100.864  31.365 -37.494  1.00  0.00     0.000 C 
BRANCH   2   3
ATOM      3  C   UNL     1    -101.796  30.154 -37.336  1.00  0.00     0.000 C 
BRANCH   3   4
ATOM      4  C   UNL     1    -103.100  30.307 -38.138  1.00  0.00     0.000 C 
BRANCH   4   5
ATOM      5  C   UNL     1    -103.594  31.761 -38.203  1.00  0.00     0.000 C 
BRANCH   5   6
ATOM      6  C   UNL     1    -105.087  31.931 -38.545  1.00  0.00     0.006 C 
BRANCH   6   7
ATOM      7  C   UNL     1    -105.775  33.091 -37.801  1.00  0.00     0.053 C 
BRANCH   7   8
ATOM      8  C   UNL     1    -107.142  32.729 -37.303  1.00  0.00     0.041 C 
ATOM      9  O   UNL     1    -108.155  33.356 -37.714  1.00  0.00    -0.550 OA
ATOM     10  O   UNL     1    -107.304  31.675 -36.414  1.00  0.00    -0.550 OA
ENDBRANCH   7   8
ENDBRANCH   6   7
ENDBRANCH   5   6
ENDBRANCH   4   5
ENDBRANCH   3   4
ENDBRANCH   2   3
ENDBRANCH   1   2
BRANCH   1  11
ATOM     11  C   UNL     1     -99.557  31.304 -35.293  1.00  0.00     0.000 C 
BRANCH  11  12
ATOM     12  C   UNL     1    -100.189  30.689 -34.032  1.00  0.00     0.000 C 
BRANCH  12  13
ATOM     13  C   UNL     1    -101.483  31.406 -33.611  1.00  0.00     0.000 C 
BRANCH  13  14
ATOM     14  C   UNL     1    -102.699  30.463 -33.585  1.00  0.00     0.000 C 
BRANCH  14  15
ATOM     15  C   UNL     1    -103.869  30.982 -34.436  1.00  0.00     0.000 C 
BRANCH  15  16
ATOM     16  C   UNL     1    -103.917  32.519 -34.504  1.00  0.00     0.006 C 
BRANCH  16  17
ATOM     17  C   UNL     1    -105.243  33.081 -33.976  1.00  0.00     0.053 C 
BRANCH  17  18
ATOM     18  C   UNL     1    -105.092  33.671 -32.607  1.00  0.00     0.041 C 
ATOM     19  O   UNL     1    -104.495  33.030 -31.702  1.00  0.00    -0.550 OA
ATOM     20  O   UNL     1    -105.588  34.941 -32.339  1.00  0.00    -0.550 OA
ENDBRANCH  17  18
ENDBRANCH  16  17
ENDBRANCH  15  16
ENDBRANCH  14  15
ENDBRANCH  13  14
ENDBRANCH  12  13
ENDBRANCH  11  12
ENDBRANCH   1  11
TORSDOF 15
ENDMDL
MODEL 7
REMARK VINA RESULT:    -3.427      2.757      4.686
REMARK INTER + INTRA:          -8.181
REMARK INTER:                  -6.762
REMARK INTRA:                  -1.419
REMARK UNBOUND:                -1.749
REMARK SMILES O=C([O-])CCCCCCCCCCCCCCC(=O)[O-]
REMARK SMILES IDX 10 1 9 2 8 3 7 4 6 5 5 6 4 7 2 8 1 9 3 10 11 11 12 12 13 13
REMARK SMILES IDX 14 14 15 15 16 16 17 17 18 18 19 19 20 20
REMARK H PARENT
REMARK Flexibility Score: inf
ROOT
ATOM      1  C   UNL     1    -105.206  32.594 -38.359  1.00  0.00     0.000 C 
ENDROOT
BRANCH   1   2
ATOM      2  C   UNL     1    -106.566  32.845 -37.679  1.00  0.00     0.000 C 
BRANCH   2   3
ATOM      3  C   UNL     1    -106.841  31.857 -36.536  1.00  0.00     0.000 C 
BRANCH   3   4
ATOM      4  C   UNL     1    -106.250  32.329 -35.196  1.00  0.00     0.000 C 
BRANCH   4   5
ATOM      5  C   UNL     1    -104.763  31.968 -35.039  1.00  0.00     0.000 C 
BRANCH   5   6
ATOM      6  C   UNL     1    -104.487  30.554 -34.492  1.00  0.00     0.006 C 
BRANCH   6   7
ATOM      7  C   UNL     1    -103.809  30.536 -33.109  1.00  0.00     0.053 C 
BRANCH   7   8
ATOM      8  C   UNL     1    -103.088  31.814 -32.801  1.00  0.00     0.041 C 
ATOM      9  O   UNL     1    -103.633  32.695 -32.084  1.00  0.00    -0.550 OA
ATOM     10  O   UNL     1    -101.797  32.017 -33.271  1.00  0.00    -0.550 OA
ENDBRANCH   7   8
ENDBRANCH   6   7
ENDBRANCH   5   6
ENDBRANCH   4   5
ENDBRANCH   3   4
ENDBRANCH   2   3
ENDBRANCH   1   2
BRANCH   1  11
ATOM     11  C   UNL     1    -105.200  31.320 -39.218  1.00  0.00     0.000 C 
BRANCH  11  12
ATOM     12  C   UNL     1    -104.142  30.303 -38.756  1.00  0.00     0.000 C 
BRANCH  12  13
ATOM     13  C   UNL     1    -102.745  30.930 -38.608  1.00  0.00     0.000 C 
BRANCH  13  14
ATOM     14  C   UNL     1    -102.115  30.651 -37.233  1.00  0.00     0.000 C 
BRANCH  14  15
ATOM     15  C   UNL     1    -101.089  31.719 -36.824  1.00  0.00     0.000 C 
BRANCH  15  16
ATOM     16  C   UNL     1     -99.636  31.257 -37.035  1.00  0.00     0.006 C 
BRANCH  16  17
ATOM     17  C   UNL     1     -99.139  31.540 -38.459  1.00  0.00     0.053 C 
BRANCH  17  18
ATOM     18  C   UNL     1     -98.248  32.745 -38.508  1.00  0.00     0.041 C 
ATOM     19  O   UNL     1     -97.150  32.697 -39.123  1.00  0.00    -0.550 OA
ATOM     20  O   UNL     1     -98.645  33.928 -37.897  1.00  0.00    -0.550 OA
ENDBRANCH  17  18
ENDBRANCH  16  17
ENDBRANCH  15  16
ENDBRANCH  14  15
ENDBRANCH  13  14
ENDBRANCH  12  13
ENDBRANCH  11  12
ENDBRANCH   1  11
TORSDOF 15
ENDMDL
MODEL 8
REMARK VINA RESULT:    -3.422      3.220      5.119
REMARK INTER + INTRA:          -8.171
REMARK INTER:                  -6.203
REMARK INTRA:                  -1.968
REMARK UNBOUND:                -1.749
REMARK SMILES O=C([O-])CCCCCCCCCCCCCCC(=O)[O-]
REMARK SMILES IDX 10 1 9 2 8 3 7 4 6 5 5 6 4 7 2 8 1 9 3 10 11 11 12 12 13 13
REMARK SMILES IDX 14 14 15 15 16 16 17 17 18 18 19 19 20 20
REMARK H PARENT
REMARK Flexibility Score: inf
ROOT
ATOM      1  C   UNL     1    -100.126  30.109 -38.330  1.00  0.00     0.000 C 
ENDROOT
BRANCH   1   2
ATOM      2  C   UNL     1    -101.382  29.959 -39.208  1.00  0.00     0.000 C 
BRANCH   2   3
ATOM      3  C   UNL     1    -102.528  30.875 -38.753  1.00  0.00     0.000 C 
BRANCH   3   4
ATOM      4  C   UNL     1    -103.572  30.132 -37.902  1.00  0.00     0.000 C 
BRANCH   4   5
ATOM      5  C   UNL     1    -103.908  30.865 -36.593  1.00  0.00     0.000 C 
BRANCH   5   6
ATOM      6  C   UNL     1    -104.100  32.388 -36.726  1.00  0.00     0.006 C 
BRANCH   6   7
ATOM      7  C   UNL     1    -105.220  32.798 -37.701  1.00  0.00     0.053 C 
BRANCH   7   8
ATOM      8  C   UNL     1    -106.548  32.960 -37.023  1.00  0.00     0.041 C 
ATOM      9  O   UNL     1    -107.582  33.202 -37.701  1.00  0.00    -0.550 OA
ATOM     10  O   UNL     1    -106.651  32.806 -35.647  1.00  0.00    -0.550 OA
ENDBRANCH   7   8
ENDBRANCH   6   7
ENDBRANCH   5   6
ENDBRANCH   4   5
ENDBRANCH   3   4
ENDBRANCH   2   3
ENDBRANCH   1   2
BRANCH   1  11
ATOM     11  C   UNL     1     -99.471  31.493 -38.463  1.00  0.00     0.000 C 
BRANCH  11  12
ATOM     12  C   UNL     1     -99.174  32.138 -37.099  1.00  0.00     0.000 C 
BRANCH  12  13
ATOM     13  C   UNL     1    -100.372  32.066 -36.138  1.00  0.00     0.000 C 
BRANCH  13  14
ATOM     14  C   UNL     1    -100.031  31.348 -34.821  1.00  0.00     0.000 C 
BRANCH  14  15
ATOM     15  C   UNL     1    -100.837  30.054 -34.626  1.00  0.00     0.000 C 
BRANCH  15  16
ATOM     16  C   UNL     1    -101.828  30.145 -33.451  1.00  0.00     0.006 C 
BRANCH  16  17
ATOM     17  C   UNL     1    -102.207  31.596 -33.125  1.00  0.00     0.053 C 
BRANCH  17  18
ATOM     18  C   UNL     1    -103.643  31.716 -32.711  1.00  0.00     0.041 C 
ATOM     19  O   UNL     1    -104.171  30.830 -31.989  1.00  0.00    -0.550 OA
ATOM     20  O   UNL     1    -104.388  32.822 -33.101  1.00  0.00    -0.550 OA
ENDBRANCH  17  18
ENDBRANCH  16  17
ENDBRANCH  15  16
ENDBRANCH  14  15
ENDBRANCH  13  14
ENDBRANCH  12  13
ENDBRANCH  11  12
ENDBRANCH   1  11
TORSDOF 15
ENDMDL
MODEL 9
REMARK VINA RESULT:    -3.368      2.785      6.866
REMARK INTER + INTRA:          -8.071
REMARK INTER:                  -6.299
REMARK INTRA:                  -1.771
REMARK UNBOUND:                -1.749
REMARK SMILES O=C([O-])CCCCCCCCCCCCCCC(=O)[O-]
REMARK SMILES IDX 10 1 9 2 8 3 7 4 6 5 5 6 4 7 2 8 1 9 3 10 11 11 12 12 13 13
REMARK SMILES IDX 14 14 15 15 16 16 17 17 18 18 19 19 20 20
REMARK H PARENT
REMARK Flexibility Score: inf
ROOT
ATOM      1  C   UNL     1    -103.564  31.708 -38.109  1.00  0.00     0.000 C 
ENDROOT
BRANCH   1   2
ATOM      2  C   UNL     1    -103.472  30.367 -37.358  1.00  0.00     0.000 C 
BRANCH   2   3
ATOM      3  C   UNL     1    -102.215  30.272 -36.479  1.00  0.00     0.000 C 
BRANCH   3   4
ATOM      4  C   UNL     1    -101.855  31.616 -35.821  1.00  0.00     0.000 C 
BRANCH   4   5
ATOM      5  C   UNL     1    -100.455  32.116 -36.212  1.00  0.00     0.000 C 
BRANCH   5   6
ATOM      6  C   UNL     1     -99.651  31.167 -37.122  1.00  0.00     0.006 C 
BRANCH   6   7
ATOM      7  C   UNL     1     -99.335  31.748 -38.514  1.00  0.00     0.053 C 
BRANCH   7   8
ATOM      8  C   UNL     1     -98.048  32.516 -38.542  1.00  0.00     0.041 C 
ATOM      9  O   UNL     1     -97.350  32.547 -39.591  1.00  0.00    -0.550 OA
ATOM     10  O   UNL     1     -97.637  33.229 -37.424  1.00  0.00    -0.550 OA
ENDBRANCH   7   8
ENDBRANCH   6   7
ENDBRANCH   5   6
ENDBRANCH   4   5
ENDBRANCH   3   4
ENDBRANCH   2   3
ENDBRANCH   1   2
BRANCH   1  11
ATOM     11  C   UNL     1    -104.961  31.964 -38.696  1.00  0.00     0.000 C 
BRANCH  11  12
ATOM     12  C   UNL     1    -105.658  33.175 -38.052  1.00  0.00     0.000 C 
BRANCH  12  13
ATOM     13  C   UNL     1    -107.052  32.831 -37.504  1.00  0.00     0.000 C 
BRANCH  13  14
ATOM     14  C   UNL     1    -106.991  31.941 -36.250  1.00  0.00     0.000 C 
BRANCH  14  15
ATOM     15  C   UNL     1    -106.639  32.732 -34.980  1.00  0.00     0.000 C 
BRANCH  15  16
ATOM     16  C   UNL     1    -105.186  32.505 -34.523  1.00  0.00     0.006 C 
BRANCH  16  17
ATOM     17  C   UNL     1    -104.975  31.099 -33.946  1.00  0.00     0.053 C 
BRANCH  17  18
ATOM     18  C   UNL     1    -104.309  31.143 -32.604  1.00  0.00     0.041 C 
ATOM     19  O   UNL     1    -104.901  31.657 -31.619  1.00  0.00    -0.550 OA
ATOM     20  O   UNL     1    -103.045  30.590 -32.437  1.00  0.00    -0.550 OA
ENDBRANCH  17  18
ENDBRANCH  16  17
ENDBRANCH  15  16
ENDBRANCH  14  15
ENDBRANCH  13  14
ENDBRANCH  12  13
ENDBRANCH  11  12
ENDBRANCH   1  11
TORSDOF 15
ENDMDL
