MODEL 1
REMARK VINA RESULT:    -3.283      0.000      0.000
REMARK INTER + INTRA:          -4.617
REMARK INTER:                  -4.339
REMARK INTRA:                  -0.278
REMARK UNBOUND:                -0.278
REMARK SMILES CC[C@H](C=C[C@@H](C)[C@@H]1CC[C@@H]2[C@@H]3CC=C4C[C@H](O)CC[C@]4(C)[C@H]3CC[C@@]21C)C(C)C
REMARK SMILES IDX 6 1 7 2 5 3 4 4 3 5 2 6 1 7 28 8 29 9 30 10 8 11 9 12 26 13
REMARK SMILES IDX 10 14 11 15 25 16 27 17 12 18 24 19 23 20 13 21 21 22 14 23
REMARK SMILES IDX 15 24 20 25 22 26 16 27 19 28 17 29 18 30
REMARK H PARENT 18 31
REMARK Flexibility Score: inf
ROOT
ATOM      1  C   UNL     1       3.318  41.996  12.391  1.00  0.00     0.012 C 
ATOM      2  C   UNL     1       3.132  40.600  11.764  1.00  0.00     0.012 C 
ENDROOT
BRANCH   1   3
ATOM      3  C   UNL     1       1.975  42.517  12.855  1.00  0.00    -0.028 C 
ATOM      4  C   UNL     1       0.979  41.701  13.250  1.00  0.00    -0.027 C 
BRANCH   4   5
ATOM      5  C   UNL     1      -0.331  42.233  13.794  1.00  0.00     0.014 C 
BRANCH   5   6
ATOM      6  C   UNL     1      -1.125  42.877  12.622  1.00  0.00     0.004 C 
ATOM      7  C   UNL     1      -1.112  44.407  12.673  1.00  0.00     0.004 C 
ENDBRANCH   5   6
BRANCH   5   8
ATOM      8  C   UNL     1      -1.112  41.074  14.492  1.00  0.00    -0.011 C 
ATOM      9  C   UNL     1      -0.739  40.927  15.975  1.00  0.00     0.008 C 
ATOM     10  C   UNL     1      -0.874  39.725  13.783  1.00  0.00     0.008 C 
ENDBRANCH   5   8
ENDBRANCH   4   5
ENDBRANCH   1   3
BRANCH   1  11
ATOM     11  C   UNL     1       4.040  42.984  11.416  1.00  0.00     0.002 C 
ATOM     12  C   UNL     1       4.574  44.233  12.139  1.00  0.00     0.005 C 
ATOM     13  C   UNL     1       3.206  43.548  10.221  1.00  0.00    -0.026 C 
ATOM     14  C   UNL     1       4.548  45.379  11.132  1.00  0.00     0.005 C 
ATOM     15  C   UNL     1       4.031  44.790   9.813  1.00  0.00    -0.001 C 
ATOM     16  C   UNL     1       1.776  43.970  10.672  1.00  0.00     0.007 C 
ATOM     17  C   UNL     1       3.136  42.537   9.048  1.00  0.00     0.012 C 
ATOM     18  C   UNL     1       3.291  45.793   8.869  1.00  0.00     0.000 C 
ATOM     19  C   UNL     1       1.065  44.849   9.643  1.00  0.00     0.005 C 
ATOM     20  C   UNL     1       1.860  46.146   9.345  1.00  0.00     0.003 C 
ATOM     21  C   UNL     1       4.120  47.071   8.663  1.00  0.00     0.031 C 
ATOM     22  C   UNL     1       1.121  47.110   8.329  1.00  0.00    -0.008 C 
ATOM     23  C   UNL     1       3.400  48.116   7.867  1.00  0.00    -0.027 C 
ATOM     24  C   UNL     1       2.055  48.230   7.837  1.00  0.00    -0.065 C 
ATOM     25  C   UNL     1      -0.093  47.770   9.055  1.00  0.00     0.014 C 
ATOM     26  C   UNL     1       0.612  46.332   7.081  1.00  0.00     0.016 C 
ATOM     27  C   UNL     1       1.451  49.426   7.121  1.00  0.00     0.063 C 
ATOM     28  C   UNL     1      -0.744  48.916   8.262  1.00  0.00     0.033 C 
ATOM     29  C   UNL     1       0.273  50.008   7.908  1.00  0.00     0.118 C 
BRANCH  29  30
ATOM     30  O   UNL     1       0.753  50.627   9.075  1.00  0.00    -0.393 OA
ATOM     31  H   UNL     1       1.741  50.527   9.070  1.00  0.00     0.210 HD
ENDBRANCH  29  30
ENDBRANCH   1  11
TORSDOF 6
ENDMDL
MODEL 2
REMARK VINA RESULT:    -2.779      0.898      1.759
REMARK INTER + INTRA:          -3.950
REMARK INTER:                  -3.838
REMARK INTRA:                  -0.112
REMARK UNBOUND:                -0.278
REMARK SMILES CC[C@H](C=C[C@@H](C)[C@@H]1CC[C@@H]2[C@@H]3CC=C4C[C@H](O)CC[C@]4(C)[C@H]3CC[C@@]21C)C(C)C
REMARK SMILES IDX 6 1 7 2 5 3 4 4 3 5 2 6 1 7 28 8 29 9 30 10 8 11 9 12 26 13
REMARK SMILES IDX 10 14 11 15 25 16 27 17 12 18 24 19 23 20 13 21 21 22 14 23
REMARK SMILES IDX 15 24 20 25 22 26 16 27 19 28 17 29 18 30
REMARK H PARENT 18 31
REMARK Flexibility Score: inf
ROOT
ATOM      1  C   UNL     1       3.634  41.795  12.784  1.00  0.00     0.012 C 
ATOM      2  C   UNL     1       4.425  40.474  12.881  1.00  0.00     0.012 C 
ENDROOT
BRANCH   1   3
ATOM      3  C   UNL     1       2.176  41.485  12.528  1.00  0.00    -0.028 C 
ATOM      4  C   UNL     1       1.458  40.668  13.323  1.00  0.00    -0.027 C 
BRANCH   4   5
ATOM      5  C   UNL     1      -0.024  40.431  13.108  1.00  0.00     0.014 C 
BRANCH   5   6
ATOM      6  C   UNL     1      -0.299  38.905  13.229  1.00  0.00     0.004 C 
ATOM      7  C   UNL     1       0.917  38.057  12.847  1.00  0.00     0.004 C 
ENDBRANCH   5   6
BRANCH   5   8
ATOM      8  C   UNL     1      -0.839  41.279  14.137  1.00  0.00    -0.011 C 
ATOM      9  C   UNL     1      -1.123  42.700  13.628  1.00  0.00     0.008 C 
ATOM     10  C   UNL     1      -0.114  41.371  15.494  1.00  0.00     0.008 C 
ENDBRANCH   5   8
ENDBRANCH   4   5
ENDBRANCH   1   3
BRANCH   1  11
ATOM     11  C   UNL     1       4.240  42.763  11.714  1.00  0.00     0.002 C 
ATOM     12  C   UNL     1       4.758  44.071  12.336  1.00  0.00     0.005 C 
ATOM     13  C   UNL     1       3.300  43.224  10.554  1.00  0.00    -0.026 C 
ATOM     14  C   UNL     1       4.607  45.160  11.279  1.00  0.00     0.005 C 
ATOM     15  C   UNL     1       4.032  44.479  10.029  1.00  0.00    -0.001 C 
ATOM     16  C   UNL     1       1.884  43.602  11.083  1.00  0.00     0.007 C 
ATOM     17  C   UNL     1       3.201  42.151   9.440  1.00  0.00     0.012 C 
ATOM     18  C   UNL     1       3.182  45.396   9.091  1.00  0.00     0.000 C 
ATOM     19  C   UNL     1       1.062  44.392  10.063  1.00  0.00     0.005 C 
ATOM     20  C   UNL     1       1.771  45.708   9.648  1.00  0.00     0.003 C 
ATOM     21  C   UNL     1       3.931  46.699   8.765  1.00  0.00     0.031 C 
ATOM     22  C   UNL     1       0.918  46.581   8.639  1.00  0.00    -0.008 C 
ATOM     23  C   UNL     1       3.107  47.666   7.971  1.00  0.00    -0.027 C 
ATOM     24  C   UNL     1       1.759  47.716   8.029  1.00  0.00    -0.065 C 
ATOM     25  C   UNL     1      -0.276  47.222   9.415  1.00  0.00     0.014 C 
ATOM     26  C   UNL     1       0.365  45.716   7.469  1.00  0.00     0.016 C 
ATOM     27  C   UNL     1       1.050  48.843   7.299  1.00  0.00     0.063 C 
ATOM     28  C   UNL     1      -1.036  48.292   8.614  1.00  0.00     0.033 C 
ATOM     29  C   UNL     1      -0.100  49.411   8.136  1.00  0.00     0.118 C 
BRANCH  29  30
ATOM     30  O   UNL     1       0.426  50.112   9.235  1.00  0.00    -0.393 OA
ATOM     31  H   UNL     1       0.462  49.474   9.995  1.00  0.00     0.210 HD
ENDBRANCH  29  30
ENDBRANCH   1  11
TORSDOF 6
ENDMDL
MODEL 3
REMARK VINA RESULT:    -1.409      1.470      2.749
REMARK INTER + INTRA:          -2.140
REMARK INTER:                  -1.552
REMARK INTRA:                  -0.588
REMARK UNBOUND:                -0.278
REMARK SMILES CC[C@H](C=C[C@@H](C)[C@@H]1CC[C@@H]2[C@@H]3CC=C4C[C@H](O)CC[C@]4(C)[C@H]3CC[C@@]21C)C(C)C
REMARK SMILES IDX 6 1 7 2 5 3 4 4 3 5 2 6 1 7 28 8 29 9 30 10 8 11 9 12 26 13
REMARK SMILES IDX 10 14 11 15 25 16 27 17 12 18 24 19 23 20 13 21 21 22 14 23
REMARK SMILES IDX 15 24 20 25 22 26 16 27 19 28 17 29 18 30
REMARK H PARENT 18 31
REMARK Flexibility Score: inf
ROOT
ATOM      1  C   UNL     1       1.725  42.313  12.545  1.00  0.00     0.012 C 
ATOM      2  C   UNL     1       1.613  42.876  13.977  1.00  0.00     0.012 C 
ENDROOT
BRANCH   1   3
ATOM      3  C   UNL     1       2.099  40.848  12.613  1.00  0.00    -0.028 C 
ATOM      4  C   UNL     1       1.267  39.910  13.105  1.00  0.00    -0.027 C 
BRANCH   4   5
ATOM      5  C   UNL     1       1.615  38.436  13.090  1.00  0.00     0.014 C 
BRANCH   5   6
ATOM      6  C   UNL     1       0.360  37.639  12.634  1.00  0.00     0.004 C 
ATOM      7  C   UNL     1      -0.949  38.343  13.003  1.00  0.00     0.004 C 
ENDBRANCH   5   6
BRANCH   5   8
ATOM      8  C   UNL     1       2.851  38.204  12.163  1.00  0.00    -0.011 C 
ATOM      9  C   UNL     1       2.963  36.746  11.690  1.00  0.00     0.008 C 
ATOM     10  C   UNL     1       4.166  38.603  12.863  1.00  0.00     0.008 C 
ENDBRANCH   5   8
ENDBRANCH   4   5
ENDBRANCH   1   3
BRANCH   1  11
ATOM     11  C   UNL     1       2.714  43.145  11.665  1.00  0.00     0.002 C 
ATOM     12  C   UNL     1       3.339  44.320  12.438  1.00  0.00     0.005 C 
ATOM     13  C   UNL     1       2.142  43.792  10.363  1.00  0.00    -0.026 C 
ATOM     14  C   UNL     1       3.626  45.422  11.423  1.00  0.00     0.005 C 
ATOM     15  C   UNL     1       3.198  44.877  10.053  1.00  0.00    -0.001 C 
ATOM     16  C   UNL     1       0.750  44.444  10.613  1.00  0.00     0.007 C 
ATOM     17  C   UNL     1       2.067  42.767   9.203  1.00  0.00     0.012 C 
ATOM     18  C   UNL     1       2.755  45.951   9.008  1.00  0.00     0.000 C 
ATOM     19  C   UNL     1       0.326  45.389   9.488  1.00  0.00     0.005 C 
ATOM     20  C   UNL     1       1.348  46.537   9.284  1.00  0.00     0.003 C 
ATOM     21  C   UNL     1       3.795  47.079   8.899  1.00  0.00     0.031 C 
ATOM     22  C   UNL     1       0.909  47.570   8.166  1.00  0.00    -0.008 C 
ATOM     23  C   UNL     1       3.358  48.196   8.002  1.00  0.00    -0.027 C 
ATOM     24  C   UNL     1       2.063  48.515   7.790  1.00  0.00    -0.065 C 
ATOM     25  C   UNL     1      -0.270  48.433   8.716  1.00  0.00     0.014 C 
ATOM     26  C   UNL     1       0.451  46.839   6.871  1.00  0.00     0.016 C 
ATOM     27  C   UNL     1       1.754  49.766   6.986  1.00  0.00     0.063 C 
ATOM     28  C   UNL     1      -0.624  49.639   7.829  1.00  0.00     0.033 C 
ATOM     29  C   UNL     1       0.590  50.549   7.602  1.00  0.00     0.118 C 
BRANCH  29  30
ATOM     30  O   UNL     1       1.006  51.124   8.815  1.00  0.00    -0.393 OA
ATOM     31  H   UNL     1       0.208  51.165   9.404  1.00  0.00     0.210 HD
ENDBRANCH  29  30
ENDBRANCH   1  11
TORSDOF 6
ENDMDL
MODEL 4
REMARK VINA RESULT:    -1.233      2.433      7.236
REMARK INTER + INTRA:          -1.908
REMARK INTER:                  -1.719
REMARK INTRA:                  -0.189
REMARK UNBOUND:                -0.278
REMARK SMILES CC[C@H](C=C[C@@H](C)[C@@H]1CC[C@@H]2[C@@H]3CC=C4C[C@H](O)CC[C@]4(C)[C@H]3CC[C@@]21C)C(C)C
REMARK SMILES IDX 6 1 7 2 5 3 4 4 3 5 2 6 1 7 28 8 29 9 30 10 8 11 9 12 26 13
REMARK SMILES IDX 10 14 11 15 25 16 27 17 12 18 24 19 23 20 13 21 21 22 14 23
REMARK SMILES IDX 15 24 20 25 22 26 16 27 19 28 17 29 18 30
REMARK H PARENT 18 31
REMARK Flexibility Score: inf
ROOT
ATOM      1  C   UNL     1       3.797  46.531   8.715  1.00  0.00     0.012 C 
ATOM      2  C   UNL     1       4.780  47.646   9.125  1.00  0.00     0.012 C 
ENDROOT
BRANCH   1   3
ATOM      3  C   UNL     1       2.406  46.894   9.187  1.00  0.00    -0.028 C 
ATOM      4  C   UNL     1       1.494  47.471   8.381  1.00  0.00    -0.027 C 
BRANCH   4   5
ATOM      5  C   UNL     1       0.077  47.753   8.837  1.00  0.00     0.014 C 
BRANCH   5   6
ATOM      6  C   UNL     1      -0.489  48.924   7.986  1.00  0.00     0.004 C 
ATOM      7  C   UNL     1       0.572  49.979   7.658  1.00  0.00     0.004 C 
ENDBRANCH   5   6
BRANCH   5   8
ATOM      8  C   UNL     1      -0.775  46.449   8.719  1.00  0.00    -0.011 C 
ATOM      9  C   UNL     1      -1.013  45.780  10.082  1.00  0.00     0.008 C 
ATOM     10  C   UNL     1      -0.116  45.427   7.771  1.00  0.00     0.008 C 
ENDBRANCH   5   8
ENDBRANCH   4   5
ENDBRANCH   1   3
BRANCH   1  11
ATOM     11  C   UNL     1       4.257  45.126   9.227  1.00  0.00     0.002 C 
ATOM     12  C   UNL     1       3.772  43.984   8.317  1.00  0.00     0.005 C 
ATOM     13  C   UNL     1       3.805  44.705  10.662  1.00  0.00    -0.026 C 
ATOM     14  C   UNL     1       3.587  42.755   9.201  1.00  0.00     0.005 C 
ATOM     15  C   UNL     1       3.996  43.172  10.620  1.00  0.00    -0.001 C 
ATOM     16  C   UNL     1       2.309  45.059  10.916  1.00  0.00     0.007 C 
ATOM     17  C   UNL     1       4.710  45.332  11.752  1.00  0.00     0.012 C 
ATOM     18  C   UNL     1       3.302  42.388  11.781  1.00  0.00     0.000 C 
ATOM     19  C   UNL     1       1.732  44.350  12.142  1.00  0.00     0.005 C 
ATOM     20  C   UNL     1       1.829  42.808  12.015  1.00  0.00     0.003 C 
ATOM     21  C   UNL     1       3.398  40.870  11.558  1.00  0.00     0.031 C 
ATOM     22  C   UNL     1       1.184  42.041  13.241  1.00  0.00    -0.008 C 
ATOM     23  C   UNL     1       2.641  40.077  12.578  1.00  0.00    -0.027 C 
ATOM     24  C   UNL     1       1.553  40.547  13.225  1.00  0.00    -0.065 C 
ATOM     25  C   UNL     1      -0.370  42.161  13.146  1.00  0.00     0.014 C 
ATOM     26  C   UNL     1       1.664  42.636  14.596  1.00  0.00     0.016 C 
ATOM     27  C   UNL     1       0.779  39.592  14.118  1.00  0.00     0.063 C 
ATOM     28  C   UNL     1      -1.125  41.252  14.130  1.00  0.00     0.033 C 
ATOM     29  C   UNL     1      -0.732  39.779  13.954  1.00  0.00     0.118 C 
BRANCH  29  30
ATOM     30  O   UNL     1      -1.125  39.315  12.687  1.00  0.00    -0.393 OA
ATOM     31  H   UNL     1      -1.076  40.090  12.068  1.00  0.00     0.210 HD
ENDBRANCH  29  30
ENDBRANCH   1  11
TORSDOF 6
ENDMDL
