MODEL 1
REMARK VINA RESULT:    -3.336      0.000      0.000
REMARK INTER + INTRA:          -3.999
REMARK INTER:                  -3.922
REMARK INTRA:                  -0.078
REMARK UNBOUND:                -0.078
REMARK SMILES O=C([O-])CCC(=O)[O-]
REMARK SMILES IDX 4 1 2 2 1 3 3 4 5 5 6 6 7 7 8 8
REMARK H PARENT
REMARK Flexibility Score: inf
ROOT
ATOM      1  C   UNL     1      -9.124  -8.714  -0.032  1.00  0.00     0.059 C 
ENDROOT
BRANCH   1   2
ATOM      2  C   UNL     1      -7.666  -8.586  -0.351  1.00  0.00     0.042 C 
ATOM      3  O   UNL     1      -7.134  -7.447  -0.435  1.00  0.00    -0.550 OA
ATOM      4  O   UNL     1      -6.904  -9.721  -0.596  1.00  0.00    -0.550 OA
ENDBRANCH   1   2
BRANCH   1   5
ATOM      5  C   UNL     1      -9.531  -7.793   1.124  1.00  0.00     0.059 C 
BRANCH   5   6
ATOM      6  C   UNL     1     -10.461  -6.712   0.667  1.00  0.00     0.042 C 
ATOM      7  O   UNL     1     -11.324  -6.950  -0.218  1.00  0.00    -0.550 OA
ATOM      8  O   UNL     1     -10.399  -5.451   1.245  1.00  0.00    -0.550 OA
ENDBRANCH   5   6
ENDBRANCH   1   5
TORSDOF 3
ENDMDL
MODEL 2
REMARK VINA RESULT:    -3.303      1.269      4.220
REMARK INTER + INTRA:          -3.960
REMARK INTER:                  -3.904
REMARK INTRA:                  -0.056
REMARK UNBOUND:                -0.078
REMARK SMILES O=C([O-])CCC(=O)[O-]
REMARK SMILES IDX 4 1 2 2 1 3 3 4 5 5 6 6 7 7 8 8
REMARK H PARENT
REMARK Flexibility Score: inf
ROOT
ATOM      1  C   UNL     1      -9.396  -8.622   0.041  1.00  0.00     0.059 C 
ENDROOT
BRANCH   1   2
ATOM      2  C   UNL     1      -9.948  -7.259   0.328  1.00  0.00     0.042 C 
ATOM      3  O   UNL     1      -9.285  -6.440   1.019  1.00  0.00    -0.550 OA
ATOM      4  O   UNL     1     -11.210  -6.906  -0.134  1.00  0.00    -0.550 OA
ENDBRANCH   1   2
BRANCH   1   5
ATOM      5  C   UNL     1      -7.913  -8.561  -0.342  1.00  0.00     0.059 C 
BRANCH   5   6
ATOM      6  C   UNL     1      -7.167  -9.762   0.152  1.00  0.00     0.042 C 
ATOM      7  O   UNL     1      -7.219 -10.087   1.367  1.00  0.00    -0.550 OA
ATOM      8  O   UNL     1      -6.444 -10.546  -0.738  1.00  0.00    -0.550 OA
ENDBRANCH   5   6
ENDBRANCH   1   5
TORSDOF 3
ENDMDL
MODEL 3
REMARK VINA RESULT:    -3.293      0.131      3.952
REMARK INTER + INTRA:          -3.949
REMARK INTER:                  -3.871
REMARK INTRA:                  -0.078
REMARK UNBOUND:                -0.078
REMARK SMILES O=C([O-])CCC(=O)[O-]
REMARK SMILES IDX 4 1 2 2 1 3 3 4 5 5 6 6 7 7 8 8
REMARK H PARENT
REMARK Flexibility Score: inf
ROOT
ATOM      1  C   UNL     1      -9.545  -7.673   1.159  1.00  0.00     0.059 C 
ENDROOT
BRANCH   1   2
ATOM      2  C   UNL     1     -10.515  -6.641   0.673  1.00  0.00     0.042 C 
ATOM      3  O   UNL     1     -11.330  -6.921  -0.245  1.00  0.00    -0.550 OA
ATOM      4  O   UNL     1     -10.494  -5.359   1.207  1.00  0.00    -0.550 OA
ENDBRANCH   1   2
BRANCH   1   5
ATOM      5  C   UNL     1      -9.157  -8.652   0.045  1.00  0.00     0.059 C 
BRANCH   5   6
ATOM      6  C   UNL     1      -7.703  -8.550  -0.297  1.00  0.00     0.042 C 
ATOM      7  O   UNL     1      -7.049  -9.581  -0.604  1.00  0.00    -0.550 OA
ATOM      8  O   UNL     1      -7.078  -7.310  -0.314  1.00  0.00    -0.550 OA
ENDBRANCH   5   6
ENDBRANCH   1   5
TORSDOF 3
ENDMDL
MODEL 4
REMARK VINA RESULT:    -3.244      1.265      1.730
REMARK INTER + INTRA:          -3.891
REMARK INTER:                  -3.835
REMARK INTRA:                  -0.056
REMARK UNBOUND:                -0.078
REMARK SMILES O=C([O-])CCC(=O)[O-]
REMARK SMILES IDX 4 1 2 2 1 3 3 4 5 5 6 6 7 7 8 8
REMARK H PARENT
REMARK Flexibility Score: inf
ROOT
ATOM      1  C   UNL     1      -7.892  -8.658  -0.418  1.00  0.00     0.059 C 
ENDROOT
BRANCH   1   2
ATOM      2  C   UNL     1      -7.105  -9.816   0.116  1.00  0.00     0.042 C 
ATOM      3  O   UNL     1      -6.390 -10.506  -0.657  1.00  0.00    -0.550 OA
ATOM      4  O   UNL     1      -7.192 -10.156   1.461  1.00  0.00    -0.550 OA
ENDBRANCH   1   2
BRANCH   1   5
ATOM      5  C   UNL     1      -9.362  -8.729   0.010  1.00  0.00     0.059 C 
BRANCH   5   6
ATOM      6  C   UNL     1      -9.906  -7.372   0.336  1.00  0.00     0.042 C 
ATOM      7  O   UNL     1     -11.072  -7.055  -0.018  1.00  0.00    -0.550 OA
ATOM      8  O   UNL     1      -9.140  -6.471   1.065  1.00  0.00    -0.550 OA
ENDBRANCH   5   6
ENDBRANCH   1   5
TORSDOF 3
ENDMDL
MODEL 5
REMARK VINA RESULT:    -3.207     17.285     17.875
REMARK INTER + INTRA:          -3.848
REMARK INTER:                  -3.816
REMARK INTRA:                  -0.032
REMARK UNBOUND:                -0.078
REMARK SMILES O=C([O-])CCC(=O)[O-]
REMARK SMILES IDX 4 1 2 2 1 3 3 4 5 5 6 6 7 7 8 8
REMARK H PARENT
REMARK Flexibility Score: inf
ROOT
ATOM      1  C   UNL     1     -19.908  -7.612 -13.849  1.00  0.00     0.059 C 
ENDROOT
BRANCH   1   2
ATOM      2  C   UNL     1     -20.518  -8.933 -13.494  1.00  0.00     0.042 C 
ATOM      3  O   UNL     1     -20.297  -9.450 -12.367  1.00  0.00    -0.550 OA
ATOM      4  O   UNL     1     -21.299  -9.612 -14.421  1.00  0.00    -0.550 OA
ENDBRANCH   1   2
BRANCH   1   5
ATOM      5  C   UNL     1     -20.393  -6.497 -12.916  1.00  0.00     0.059 C 
BRANCH   5   6
ATOM      6  C   UNL     1     -20.046  -5.142 -13.450  1.00  0.00     0.042 C 
ATOM      7  O   UNL     1     -20.290  -4.110 -12.770  1.00  0.00    -0.550 OA
ATOM      8  O   UNL     1     -19.418  -5.019 -14.683  1.00  0.00    -0.550 OA
ENDBRANCH   5   6
ENDBRANCH   1   5
TORSDOF 3
ENDMDL
MODEL 6
REMARK VINA RESULT:    -3.206     17.398     17.920
REMARK INTER + INTRA:          -3.846
REMARK INTER:                  -3.727
REMARK INTRA:                  -0.120
REMARK UNBOUND:                -0.078
REMARK SMILES O=C([O-])CCC(=O)[O-]
REMARK SMILES IDX 4 1 2 2 1 3 3 4 5 5 6 6 7 7 8 8
REMARK H PARENT
REMARK Flexibility Score: inf
ROOT
ATOM      1  C   UNL     1     -19.517  -7.761 -14.163  1.00  0.00     0.059 C 
ENDROOT
BRANCH   1   2
ATOM      2  C   UNL     1     -20.344  -8.700 -13.338  1.00  0.00     0.042 C 
ATOM      3  O   UNL     1     -20.664  -9.829 -13.795  1.00  0.00    -0.550 OA
ATOM      4  O   UNL     1     -20.792  -8.314 -12.081  1.00  0.00    -0.550 OA
ENDBRANCH   1   2
BRANCH   1   5
ATOM      5  C   UNL     1     -20.328  -6.539 -14.609  1.00  0.00     0.059 C 
BRANCH   5   6
ATOM      6  C   UNL     1     -19.842  -5.285 -13.952  1.00  0.00     0.042 C 
ATOM      7  O   UNL     1     -19.938  -5.144 -12.704  1.00  0.00    -0.550 OA
ATOM      8  O   UNL     1     -19.247  -4.286 -14.712  1.00  0.00    -0.550 OA
ENDBRANCH   5   6
ENDBRANCH   1   5
TORSDOF 3
ENDMDL
MODEL 7
REMARK VINA RESULT:    -3.199     17.418     18.017
REMARK INTER + INTRA:          -3.838
REMARK INTER:                  -3.717
REMARK INTRA:                  -0.120
REMARK UNBOUND:                -0.078
REMARK SMILES O=C([O-])CCC(=O)[O-]
REMARK SMILES IDX 4 1 2 2 1 3 3 4 5 5 6 6 7 7 8 8
REMARK H PARENT
REMARK Flexibility Score: inf
ROOT
ATOM      1  C   UNL     1     -20.333  -6.416 -14.661  1.00  0.00     0.059 C 
ENDROOT
BRANCH   1   2
ATOM      2  C   UNL     1     -19.789  -5.150 -14.074  1.00  0.00     0.042 C 
ATOM      3  O   UNL     1     -19.227  -4.299 -14.814  1.00  0.00    -0.550 OA
ATOM      4  O   UNL     1     -19.868  -4.927 -12.705  1.00  0.00    -0.550 OA
ENDBRANCH   1   2
BRANCH   1   5
ATOM      5  C   UNL     1     -19.533  -7.640 -14.202  1.00  0.00     0.059 C 
BRANCH   5   6
ATOM      6  C   UNL     1     -20.362  -8.553 -13.352  1.00  0.00     0.042 C 
ATOM      7  O   UNL     1     -20.568  -9.742 -13.712  1.00  0.00    -0.550 OA
ATOM      8  O   UNL     1     -20.876  -8.102 -12.143  1.00  0.00    -0.550 OA
ENDBRANCH   5   6
ENDBRANCH   1   5
TORSDOF 3
ENDMDL
MODEL 8
REMARK VINA RESULT:    -3.181     17.410     17.939
REMARK INTER + INTRA:          -3.817
REMARK INTER:                  -3.696
REMARK INTRA:                  -0.120
REMARK UNBOUND:                -0.078
REMARK SMILES O=C([O-])CCC(=O)[O-]
REMARK SMILES IDX 4 1 2 2 1 3 3 4 5 5 6 6 7 7 8 8
REMARK H PARENT
REMARK Flexibility Score: inf
ROOT
ATOM      1  C   UNL     1     -19.470  -7.793 -14.161  1.00  0.00     0.059 C 
ENDROOT
BRANCH   1   2
ATOM      2  C   UNL     1     -20.341  -8.701 -13.349  1.00  0.00     0.042 C 
ATOM      3  O   UNL     1     -20.680  -9.826 -13.804  1.00  0.00    -0.550 OA
ATOM      4  O   UNL     1     -20.811  -8.291 -12.108  1.00  0.00    -0.550 OA
ENDBRANCH   1   2
BRANCH   1   5
ATOM      5  C   UNL     1     -20.253  -6.588 -14.695  1.00  0.00     0.059 C 
BRANCH   5   6
ATOM      6  C   UNL     1     -19.775  -5.306 -14.085  1.00  0.00     0.042 C 
ATOM      7  O   UNL     1     -19.273  -4.407 -14.810  1.00  0.00    -0.550 OA
ATOM      8  O   UNL     1     -19.919  -5.088 -12.721  1.00  0.00    -0.550 OA
ENDBRANCH   5   6
ENDBRANCH   1   5
TORSDOF 3
ENDMDL
MODEL 9
REMARK VINA RESULT:    -3.161     17.394     18.051
REMARK INTER + INTRA:          -3.793
REMARK INTER:                  -3.678
REMARK INTRA:                  -0.114
REMARK UNBOUND:                -0.078
REMARK SMILES O=C([O-])CCC(=O)[O-]
REMARK SMILES IDX 4 1 2 2 1 3 3 4 5 5 6 6 7 7 8 8
REMARK H PARENT
REMARK Flexibility Score: inf
ROOT
ATOM      1  C   UNL     1     -20.511  -6.343 -14.429  1.00  0.00     0.059 C 
ENDROOT
BRANCH   1   2
ATOM      2  C   UNL     1     -19.832  -5.112 -13.912  1.00  0.00     0.042 C 
ATOM      3  O   UNL     1     -19.841  -4.854 -12.679  1.00  0.00    -0.550 OA
ATOM      4  O   UNL     1     -19.222  -4.229 -14.795  1.00  0.00    -0.550 OA
ENDBRANCH   1   2
BRANCH   1   5
ATOM      5  C   UNL     1     -19.678  -7.602 -14.161  1.00  0.00     0.059 C 
BRANCH   5   6
ATOM      6  C   UNL     1     -20.414  -8.574 -13.291  1.00  0.00     0.042 C 
ATOM      7  O   UNL     1     -20.814  -8.228 -12.149  1.00  0.00    -0.550 OA
ATOM      8  O   UNL     1     -20.692  -9.853 -13.758  1.00  0.00    -0.550 OA
ENDBRANCH   5   6
ENDBRANCH   1   5
TORSDOF 3
ENDMDL
