MODEL 1
REMARK VINA RESULT:    12.990      0.000      0.000
REMARK INTER + INTRA:          13.963
REMARK INTER:                  14.129
REMARK INTRA:                  -0.166
REMARK UNBOUND:                -0.166
REMARK SMILES CC(=O)[C@H]1CC[C@@H]2[C@@H]3CC=C4C[C@@H](O)CC[C@@]4(C)[C@@H]3CC[C@@]12C
REMARK SMILES IDX 4 1 5 2 6 3 7 4 22 5 21 6 20 7 19 8 8 9 9 10 10 11 11 12
REMARK SMILES IDX 17 13 16 14 15 15 13 16 12 17 18 18 23 19 2 20 1 21 3 22
REMARK SMILES IDX 14 23
REMARK H PARENT 14 24
REMARK Flexibility Score: inf
ROOT
ATOM      1  C   UNL     1    -116.735 -98.079  32.199  1.00  0.00     0.062 C 
ATOM      2  C   UNL     1    -115.494 -97.166  32.412  1.00  0.00     0.012 C 
ATOM      3  C   UNL     1    -115.209 -97.119  33.927  1.00  0.00     0.005 C 
ATOM      4  C   UNL     1    -116.401 -97.833  34.545  1.00  0.00    -0.001 C 
ATOM      5  C   UNL     1    -116.839 -98.899  33.523  1.00  0.00    -0.020 C 
ATOM      6  C   UNL     1    -118.243 -99.409  33.942  1.00  0.00     0.008 C 
ATOM      7  C   UNL     1    -118.268 -99.886  35.421  1.00  0.00     0.005 C 
ATOM      8  C   UNL     1    -117.797 -98.777  36.420  1.00  0.00     0.003 C 
ATOM      9  C   UNL     1    -116.386 -98.244  36.037  1.00  0.00     0.000 C 
ATOM     10  C   UNL     1    -115.274 -99.222  36.447  1.00  0.00     0.031 C 
ATOM     11  C   UNL     1    -115.412 -99.670  37.869  1.00  0.00    -0.027 C 
ATOM     12  C   UNL     1    -116.596 -99.748  38.517  1.00  0.00    -0.065 C 
ATOM     13  C   UNL     1    -117.887 -99.129  37.964  1.00  0.00    -0.008 C 
ATOM     14  C   UNL     1    -118.166 -97.811  38.784  1.00  0.00     0.014 C 
ATOM     15  C   UNL     1    -117.403 -97.694  40.126  1.00  0.00     0.033 C 
ATOM     16  C   UNL     1    -117.293 -99.045  40.856  1.00  0.00     0.118 C 
ATOM     17  C   UNL     1    -116.584-100.125  39.990  1.00  0.00     0.063 C 
ATOM     18  C   UNL     1    -119.062-100.117  38.210  1.00  0.00     0.016 C 
ATOM     19  C   UNL     1    -115.872-100.120  33.368  1.00  0.00     0.012 C 
ENDROOT
BRANCH   1  20
ATOM     20  C   UNL     1    -118.008 -97.327  31.819  1.00  0.00     0.133 C 
ATOM     21  C   UNL     1    -119.073 -97.872  30.905  1.00  0.00     0.088 C 
ATOM     22  O   UNL     1    -118.150 -96.188  32.244  1.00  0.00    -0.300 OA
ENDBRANCH   1  20
BRANCH  16  23
ATOM     23  O   UNL     1    -116.649 -98.886  42.093  1.00  0.00    -0.393 OA
ATOM     24  H   UNL     1    -116.630 -97.916  42.305  1.00  0.00     0.210 HD
ENDBRANCH  16  23
TORSDOF 2
ENDMDL
