MODEL 1
REMARK VINA RESULT:    -8.547      0.000      0.000
REMARK INTER + INTRA:         -13.148
REMARK INTER:                 -12.045
REMARK INTRA:                  -1.103
REMARK UNBOUND:                -1.103
REMARK SMILES COc1c(O[C@@H]2O[C@H](C(=O)[O-])[C@@H](O)[C@@H](O)[C@H]2O)cc(O)c2c(=O)cc(-c3ccccc3)oc12
REMARK SMILES IDX 5 1 6 2 8 3 12 4 7 5 14 6 16 7 9 8 10 9 11 10 13 11 15 13
REMARK SMILES IDX 17 15 4 17 3 18 18 19 33 20 19 21 21 22 32 23 22 24 25 25
REMARK SMILES IDX 24 26 23 27 2 28 1 29 20 30 26 32 27 33 31 34 28 35 30 36
REMARK SMILES IDX 29 37
REMARK H PARENT 13 12 15 14 17 16 20 31
REMARK Flexibility Score: inf
ROOT
ATOM      1  O   UNL     1      -1.355 -22.777  47.302  1.00  0.00    -0.458 OA
ENDROOT
BRANCH   1   2
ATOM      2  C   UNL     1      -1.941 -24.062  47.555  1.00  0.00     0.339 C 
ATOM      3  C   UNL     1      -3.930 -23.183  48.533  1.00  0.00     0.199 C 
ATOM      4  C   UNL     1      -3.557 -23.686  49.948  1.00  0.00     0.180 C 
ATOM      5  O   UNL     1      -3.360 -23.974  47.495  1.00  0.00    -0.328 OA
ATOM      6  C   UNL     1      -2.036 -23.875  50.088  1.00  0.00     0.181 C 
ATOM      7  C   UNL     1      -1.459 -24.663  48.899  1.00  0.00     0.214 C 
BRANCH   3   8
ATOM      8  C   UNL     1      -3.701 -21.705  48.313  1.00  0.00     0.073 C 
ATOM      9  O   UNL     1      -3.272 -20.997  49.262  1.00  0.00    -0.547 OA
ATOM     10  O   UNL     1      -3.953 -21.108  47.083  1.00  0.00    -0.547 OA
ENDBRANCH   3   8
BRANCH   4  11
ATOM     11  O   UNL     1      -4.228 -24.898  50.191  1.00  0.00    -0.387 OA
ATOM     12  H   UNL     1      -3.625 -25.632  49.903  1.00  0.00     0.211 HD
ENDBRANCH   4  11
BRANCH   6  13
ATOM     13  O   UNL     1      -1.741 -24.522  51.299  1.00  0.00    -0.387 OA
ATOM     14  H   UNL     1      -1.873 -25.494  51.144  1.00  0.00     0.211 HD
ENDBRANCH   6  13
BRANCH   7  15
ATOM     15  O   UNL     1      -1.764 -26.035  48.995  1.00  0.00    -0.384 OA
ATOM     16  H   UNL     1      -2.377 -26.169  49.764  1.00  0.00     0.211 HD
ENDBRANCH   7  15
ENDBRANCH   1   2
BRANCH   1  17
ATOM     17  C   UNL     1      -0.058 -22.484  46.840  1.00  0.00     0.172 A 
ATOM     18  C   UNL     1       0.959 -21.899  47.634  1.00  0.00     0.205 A 
ATOM     19  C   UNL     1       0.207 -22.818  45.511  1.00  0.00     0.097 A 
ATOM     20  C   UNL     1       2.221 -21.620  47.044  1.00  0.00     0.188 A 
ATOM     21  C   UNL     1       1.446 -22.556  44.925  1.00  0.00     0.134 A 
ATOM     22  C   UNL     1       2.465 -21.948  45.686  1.00  0.00     0.111 A 
ATOM     23  O   UNL     1       3.191 -21.060  47.766  1.00  0.00    -0.452 OA
ATOM     24  C   UNL     1       3.737 -21.655  45.151  1.00  0.00     0.197 A 
ATOM     25  C   UNL     1       4.403 -20.783  47.296  1.00  0.00     0.138 A 
ATOM     26  C   UNL     1       4.708 -21.071  45.960  1.00  0.00     0.100 A 
ATOM     27  O   UNL     1       4.022 -21.910  43.950  1.00  0.00    -0.289 OA
BRANCH  18  28
ATOM     28  O   UNL     1       0.685 -21.645  48.989  1.00  0.00    -0.490 OA
ATOM     29  C   UNL     1       1.232 -22.323  50.115  1.00  0.00     0.278 C 
ENDBRANCH  18  28
BRANCH  21  30
ATOM     30  O   UNL     1       1.654 -22.901  43.589  1.00  0.00    -0.507 OA
ATOM     31  H   UNL     1       2.513 -23.338  43.279  1.00  0.00     0.293 HD
ENDBRANCH  21  30
BRANCH  25  32
ATOM     32  C   UNL     1       5.404 -20.165  48.202  1.00  0.00     0.017 A 
ATOM     33  C   UNL     1       5.281 -20.251  49.603  1.00  0.00     0.012 A 
ATOM     34  C   UNL     1       6.486 -19.449  47.659  1.00  0.00     0.012 A 
ATOM     35  C   UNL     1       6.231 -19.652  50.435  1.00  0.00     0.001 A 
ATOM     36  C   UNL     1       7.433 -18.850  48.495  1.00  0.00     0.001 A 
ATOM     37  C   UNL     1       7.306 -18.954  49.882  1.00  0.00     0.000 A 
ENDBRANCH  25  32
ENDBRANCH   1  17
TORSDOF 9
ENDMDL
MODEL 2
REMARK VINA RESULT:    -8.221      4.242      8.527
REMARK INTER + INTRA:         -12.689
REMARK INTER:                 -11.527
REMARK INTRA:                  -1.161
REMARK UNBOUND:                -1.103
REMARK SMILES COc1c(O[C@@H]2O[C@H](C(=O)[O-])[C@@H](O)[C@@H](O)[C@H]2O)cc(O)c2c(=O)cc(-c3ccccc3)oc12
REMARK SMILES IDX 5 1 6 2 8 3 12 4 7 5 14 6 16 7 9 8 10 9 11 10 13 11 15 13
REMARK SMILES IDX 17 15 4 17 3 18 18 19 33 20 19 21 21 22 32 23 22 24 25 25
REMARK SMILES IDX 24 26 23 27 2 28 1 29 20 30 26 32 27 33 31 34 28 35 30 36
REMARK SMILES IDX 29 37
REMARK H PARENT 13 12 15 14 17 16 20 31
REMARK Flexibility Score: inf
ROOT
ATOM      1  O   UNL     1      -2.148 -22.239  47.810  1.00  0.00    -0.458 OA
ENDROOT
BRANCH   1   2
ATOM      2  C   UNL     1      -0.821 -22.701  48.097  1.00  0.00     0.339 C 
ATOM      3  C   UNL     1      -1.525 -24.366  49.653  1.00  0.00     0.199 C 
ATOM      4  C   UNL     1      -0.930 -23.605  50.863  1.00  0.00     0.180 C 
ATOM      5  O   UNL     1      -0.846 -24.084  48.433  1.00  0.00    -0.328 OA
ATOM      6  C   UNL     1      -0.803 -22.100  50.566  1.00  0.00     0.181 C 
ATOM      7  C   UNL     1      -0.139 -21.854  49.200  1.00  0.00     0.214 C 
BRANCH   3   8
ATOM      8  C   UNL     1      -3.024 -24.242  49.511  1.00  0.00     0.073 C 
ATOM      9  O   UNL     1      -3.614 -24.872  48.594  1.00  0.00    -0.547 OA
ATOM     10  O   UNL     1      -3.770 -23.447  50.374  1.00  0.00    -0.547 OA
ENDBRANCH   3   8
BRANCH   4  11
ATOM     11  O   UNL     1       0.328 -24.155  51.171  1.00  0.00    -0.387 OA
ATOM     12  H   UNL     1       0.893 -24.068  50.359  1.00  0.00     0.211 HD
ENDBRANCH   4  11
BRANCH   6  13
ATOM     13  O   UNL     1      -0.077 -21.468  51.590  1.00  0.00    -0.387 OA
ATOM     14  H   UNL     1       0.563 -22.140  51.944  1.00  0.00     0.211 HD
ENDBRANCH   6  13
BRANCH   7  15
ATOM     15  O   UNL     1       1.249 -22.088  49.254  1.00  0.00    -0.384 OA
ATOM     16  H   UNL     1       1.549 -21.998  50.195  1.00  0.00     0.211 HD
ENDBRANCH   7  15
ENDBRANCH   1   2
BRANCH   1  17
ATOM     17  C   UNL     1      -2.591 -21.488  46.705  1.00  0.00     0.172 A 
ATOM     18  C   UNL     1      -3.952 -21.213  46.420  1.00  0.00     0.205 A 
ATOM     19  C   UNL     1      -1.594 -20.988  45.865  1.00  0.00     0.097 A 
ATOM     20  C   UNL     1      -4.278 -20.470  45.254  1.00  0.00     0.188 A 
ATOM     21  C   UNL     1      -1.903 -20.250  44.723  1.00  0.00     0.134 A 
ATOM     22  C   UNL     1      -3.251 -19.988  44.402  1.00  0.00     0.111 A 
ATOM     23  O   UNL     1      -5.550 -20.208  44.958  1.00  0.00    -0.452 OA
ATOM     24  C   UNL     1      -3.628 -19.250  43.261  1.00  0.00     0.197 A 
ATOM     25  C   UNL     1      -5.938 -19.505  43.898  1.00  0.00     0.138 A 
ATOM     26  C   UNL     1      -4.976 -19.009  43.010  1.00  0.00     0.100 A 
ATOM     27  O   UNL     1      -2.771 -18.798  42.454  1.00  0.00    -0.289 OA
BRANCH  18  28
ATOM     28  O   UNL     1      -4.927 -21.665  47.326  1.00  0.00    -0.490 OA
ATOM     29  C   UNL     1      -5.467 -20.948  48.431  1.00  0.00     0.278 C 
ENDBRANCH  18  28
BRANCH  21  30
ATOM     30  O   UNL     1      -0.867 -19.784  43.913  1.00  0.00    -0.507 OA
ATOM     31  H   UNL     1      -1.048 -19.283  43.051  1.00  0.00     0.293 HD
ENDBRANCH  21  30
BRANCH  25  32
ATOM     32  C   UNL     1      -7.387 -19.272  43.679  1.00  0.00     0.017 A 
ATOM     33  C   UNL     1      -8.357 -19.793  44.558  1.00  0.00     0.012 A 
ATOM     34  C   UNL     1      -7.812 -18.541  42.556  1.00  0.00     0.012 A 
ATOM     35  C   UNL     1      -9.717 -19.568  44.324  1.00  0.00     0.001 A 
ATOM     36  C   UNL     1      -9.174 -18.319  42.326  1.00  0.00     0.001 A 
ATOM     37  C   UNL     1     -10.125 -18.831  43.211  1.00  0.00     0.000 A 
ENDBRANCH  25  32
ENDBRANCH   1  17
TORSDOF 9
ENDMDL
MODEL 3
REMARK VINA RESULT:    -8.150      4.789      8.275
REMARK INTER + INTRA:         -12.588
REMARK INTER:                 -11.535
REMARK INTRA:                  -1.054
REMARK UNBOUND:                -1.103
REMARK SMILES COc1c(O[C@@H]2O[C@H](C(=O)[O-])[C@@H](O)[C@@H](O)[C@H]2O)cc(O)c2c(=O)cc(-c3ccccc3)oc12
REMARK SMILES IDX 5 1 6 2 8 3 12 4 7 5 14 6 16 7 9 8 10 9 11 10 13 11 15 13
REMARK SMILES IDX 17 15 4 17 3 18 18 19 33 20 19 21 21 22 32 23 22 24 25 25
REMARK SMILES IDX 24 26 23 27 2 28 1 29 20 30 26 32 27 33 31 34 28 35 30 36
REMARK SMILES IDX 29 37
REMARK H PARENT 13 12 15 14 17 16 20 31
REMARK Flexibility Score: inf
ROOT
ATOM      1  O   UNL     1      -3.211 -22.206  47.372  1.00  0.00    -0.458 OA
ENDROOT
BRANCH   1   2
ATOM      2  C   UNL     1      -2.189 -23.067  47.892  1.00  0.00     0.339 C 
ATOM      3  C   UNL     1      -3.597 -24.069  49.537  1.00  0.00     0.199 C 
ATOM      4  C   UNL     1      -2.852 -23.388  50.710  1.00  0.00     0.180 C 
ATOM      5  O   UNL     1      -2.769 -24.266  48.394  1.00  0.00    -0.328 OA
ATOM      6  C   UNL     1      -2.134 -22.108  50.246  1.00  0.00     0.181 C 
ATOM      7  C   UNL     1      -1.322 -22.357  48.962  1.00  0.00     0.214 C 
BRANCH   3   8
ATOM      8  C   UNL     1      -4.918 -23.429  49.178  1.00  0.00     0.073 C 
ATOM      9  O   UNL     1      -5.684 -24.006  48.361  1.00  0.00    -0.547 OA
ATOM     10  O   UNL     1      -5.309 -22.216  49.732  1.00  0.00    -0.547 OA
ENDBRANCH   3   8
BRANCH   4  11
ATOM     11  O   UNL     1      -1.929 -24.301  51.253  1.00  0.00    -0.387 OA
ATOM     12  H   UNL     1      -1.450 -23.834  51.986  1.00  0.00     0.211 HD
ENDBRANCH   4  11
BRANCH   6  13
ATOM     13  O   UNL     1      -1.303 -21.624  51.270  1.00  0.00    -0.387 OA
ATOM     14  H   UNL     1      -1.494 -22.172  52.076  1.00  0.00     0.211 HD
ENDBRANCH   6  13
BRANCH   7  15
ATOM     15  O   UNL     1      -0.140 -23.071  49.233  1.00  0.00    -0.384 OA
ATOM     16  H   UNL     1      -0.147 -23.347  50.186  1.00  0.00     0.211 HD
ENDBRANCH   7  15
ENDBRANCH   1   2
BRANCH   1  17
ATOM     17  C   UNL     1      -3.171 -21.404  46.215  1.00  0.00     0.172 A 
ATOM     18  C   UNL     1      -4.291 -20.721  45.679  1.00  0.00     0.205 A 
ATOM     19  C   UNL     1      -1.927 -21.289  45.593  1.00  0.00     0.097 A 
ATOM     20  C   UNL     1      -4.134 -19.968  44.485  1.00  0.00     0.188 A 
ATOM     21  C   UNL     1      -1.760 -20.544  44.425  1.00  0.00     0.134 A 
ATOM     22  C   UNL     1      -2.865 -19.880  43.855  1.00  0.00     0.111 A 
ATOM     23  O   UNL     1      -5.173 -19.326  43.953  1.00  0.00    -0.452 OA
ATOM     24  C   UNL     1      -2.762 -19.113  42.676  1.00  0.00     0.197 A 
ATOM     25  C   UNL     1      -5.107 -18.586  42.851  1.00  0.00     0.138 A 
ATOM     26  C   UNL     1      -3.887 -18.465  42.173  1.00  0.00     0.100 A 
ATOM     27  O   UNL     1      -1.670 -18.998  42.058  1.00  0.00    -0.289 OA
BRANCH  18  28
ATOM     28  O   UNL     1      -5.512 -20.795  46.371  1.00  0.00    -0.490 OA
ATOM     29  C   UNL     1      -6.032 -19.844  47.294  1.00  0.00     0.278 C 
ENDBRANCH  18  28
BRANCH  21  30
ATOM     30  O   UNL     1      -0.497 -20.472  43.839  1.00  0.00    -0.507 OA
ATOM     31  H   UNL     1       0.201 -19.810  44.155  1.00  0.00     0.293 HD
ENDBRANCH  21  30
BRANCH  25  32
ATOM     32  C   UNL     1      -6.335 -17.912  42.360  1.00  0.00     0.017 A 
ATOM     33  C   UNL     1      -7.573 -18.583  42.310  1.00  0.00     0.012 A 
ATOM     34  C   UNL     1      -6.265 -16.583  41.905  1.00  0.00     0.012 A 
ATOM     35  C   UNL     1      -8.713 -17.928  41.834  1.00  0.00     0.001 A 
ATOM     36  C   UNL     1      -7.408 -15.933  41.429  1.00  0.00     0.001 A 
ATOM     37  C   UNL     1      -8.632 -16.606  41.396  1.00  0.00     0.000 A 
ENDBRANCH  25  32
ENDBRANCH   1  17
TORSDOF 9
ENDMDL
MODEL 4
REMARK VINA RESULT:    -8.118      2.248      4.513
REMARK INTER + INTRA:         -12.543
REMARK INTER:                 -11.433
REMARK INTRA:                  -1.110
REMARK UNBOUND:                -1.103
REMARK SMILES COc1c(O[C@@H]2O[C@H](C(=O)[O-])[C@@H](O)[C@@H](O)[C@H]2O)cc(O)c2c(=O)cc(-c3ccccc3)oc12
REMARK SMILES IDX 5 1 6 2 8 3 12 4 7 5 14 6 16 7 9 8 10 9 11 10 13 11 15 13
REMARK SMILES IDX 17 15 4 17 3 18 18 19 33 20 19 21 21 22 32 23 22 24 25 25
REMARK SMILES IDX 24 26 23 27 2 28 1 29 20 30 26 32 27 33 31 34 28 35 30 36
REMARK SMILES IDX 29 37
REMARK H PARENT 13 12 15 14 17 16 20 31
REMARK Flexibility Score: inf
ROOT
ATOM      1  O   UNL     1      -1.924 -22.792  49.369  1.00  0.00    -0.458 OA
ENDROOT
BRANCH   1   2
ATOM      2  C   UNL     1      -2.788 -22.317  50.411  1.00  0.00     0.339 C 
ATOM      3  C   UNL     1      -4.766 -23.263  49.472  1.00  0.00     0.199 C 
ATOM      4  C   UNL     1      -5.354 -21.879  49.106  1.00  0.00     0.180 C 
ATOM      5  O   UNL     1      -3.880 -23.212  50.587  1.00  0.00    -0.328 OA
ATOM      6  C   UNL     1      -4.244 -20.824  48.958  1.00  0.00     0.181 C 
ATOM      7  C   UNL     1      -3.268 -20.868  50.147  1.00  0.00     0.214 C 
BRANCH   3   8
ATOM      8  C   UNL     1      -4.170 -24.018  48.307  1.00  0.00     0.073 C 
ATOM      9  O   UNL     1      -4.374 -23.607  47.134  1.00  0.00    -0.547 OA
ATOM     10  O   UNL     1      -3.398 -25.158  48.501  1.00  0.00    -0.547 OA
ENDBRANCH   3   8
BRANCH   4  11
ATOM     11  O   UNL     1      -6.268 -21.495  50.105  1.00  0.00    -0.387 OA
ATOM     12  H   UNL     1      -7.065 -22.080  50.015  1.00  0.00     0.211 HD
ENDBRANCH   4  11
BRANCH   6  13
ATOM     13  O   UNL     1      -4.810 -19.544  48.831  1.00  0.00    -0.387 OA
ATOM     14  H   UNL     1      -4.486 -19.010  49.602  1.00  0.00     0.211 HD
ENDBRANCH   6  13
BRANCH   7  15
ATOM     15  O   UNL     1      -3.836 -20.290  51.299  1.00  0.00    -0.384 OA
ATOM     16  H   UNL     1      -4.716 -20.716  51.466  1.00  0.00     0.211 HD
ENDBRANCH   7  15
ENDBRANCH   1   2
BRANCH   1  17
ATOM     17  C   UNL     1      -0.582 -22.447  49.122  1.00  0.00     0.172 A 
ATOM     18  C   UNL     1      -0.022 -22.294  47.828  1.00  0.00     0.205 A 
ATOM     19  C   UNL     1       0.214 -22.237  50.249  1.00  0.00     0.097 A 
ATOM     20  C   UNL     1       1.356 -21.975  47.706  1.00  0.00     0.188 A 
ATOM     21  C   UNL     1       1.566 -21.915  50.139  1.00  0.00     0.134 A 
ATOM     22  C   UNL     1       2.154 -21.786  48.864  1.00  0.00     0.111 A 
ATOM     23  O   UNL     1       1.910 -21.837  46.502  1.00  0.00    -0.452 OA
ATOM     24  C   UNL     1       3.516 -21.464  48.687  1.00  0.00     0.197 A 
ATOM     25  C   UNL     1       3.186 -21.522  46.301  1.00  0.00     0.138 A 
ATOM     26  C   UNL     1       4.031 -21.333  47.400  1.00  0.00     0.100 A 
ATOM     27  O   UNL     1       4.286 -21.291  49.669  1.00  0.00    -0.289 OA
BRANCH  18  28
ATOM     28  O   UNL     1      -0.867 -22.436  46.715  1.00  0.00    -0.490 OA
ATOM     29  C   UNL     1      -1.667 -21.424  46.112  1.00  0.00     0.278 C 
ENDBRANCH  18  28
BRANCH  21  30
ATOM     30  O   UNL     1       2.318 -21.728  51.300  1.00  0.00    -0.507 OA
ATOM     31  H   UNL     1       2.129 -20.966  51.940  1.00  0.00     0.293 HD
ENDBRANCH  21  30
BRANCH  25  32
ATOM     32  C   UNL     1       3.684 -21.388  44.909  1.00  0.00     0.017 A 
ATOM     33  C   UNL     1       2.989 -21.952  43.821  1.00  0.00     0.012 A 
ATOM     34  C   UNL     1       4.893 -20.711  44.664  1.00  0.00     0.012 A 
ATOM     35  C   UNL     1       3.485 -21.820  42.520  1.00  0.00     0.001 A 
ATOM     36  C   UNL     1       5.384 -20.583  43.362  1.00  0.00     0.001 A 
ATOM     37  C   UNL     1       4.679 -21.136  42.290  1.00  0.00     0.000 A 
ENDBRANCH  25  32
ENDBRANCH   1  17
TORSDOF 9
ENDMDL
MODEL 5
REMARK VINA RESULT:    -8.068      1.438      2.977
REMARK INTER + INTRA:         -12.473
REMARK INTER:                 -11.430
REMARK INTRA:                  -1.043
REMARK UNBOUND:                -1.103
REMARK SMILES COc1c(O[C@@H]2O[C@H](C(=O)[O-])[C@@H](O)[C@@H](O)[C@H]2O)cc(O)c2c(=O)cc(-c3ccccc3)oc12
REMARK SMILES IDX 5 1 6 2 8 3 12 4 7 5 14 6 16 7 9 8 10 9 11 10 13 11 15 13
REMARK SMILES IDX 17 15 4 17 3 18 18 19 33 20 19 21 21 22 32 23 22 24 25 25
REMARK SMILES IDX 24 26 23 27 2 28 1 29 20 30 26 32 27 33 31 34 28 35 30 36
REMARK SMILES IDX 29 37
REMARK H PARENT 13 12 15 14 17 16 20 31
REMARK Flexibility Score: inf
ROOT
ATOM      1  O   UNL     1      -2.246 -22.927  49.032  1.00  0.00    -0.458 OA
ENDROOT
BRANCH   1   2
ATOM      2  C   UNL     1      -2.987 -21.981  49.815  1.00  0.00     0.339 C 
ATOM      3  C   UNL     1      -5.080 -23.088  49.532  1.00  0.00     0.199 C 
ATOM      4  C   UNL     1      -5.649 -21.963  48.636  1.00  0.00     0.180 C 
ATOM      5  O   UNL     1      -4.090 -22.624  50.444  1.00  0.00    -0.328 OA
ATOM      6  C   UNL     1      -4.520 -21.165  47.959  1.00  0.00     0.181 C 
ATOM      7  C   UNL     1      -3.436 -20.760  48.974  1.00  0.00     0.214 C 
BRANCH   3   8
ATOM      8  C   UNL     1      -4.628 -24.319  48.781  1.00  0.00     0.073 C 
ATOM      9  O   UNL     1      -4.104 -25.274  49.414  1.00  0.00    -0.547 OA
ATOM     10  O   UNL     1      -4.779 -24.422  47.403  1.00  0.00    -0.547 OA
ENDBRANCH   3   8
BRANCH   4  11
ATOM     11  O   UNL     1      -6.447 -21.114  49.424  1.00  0.00    -0.387 OA
ATOM     12  H   UNL     1      -5.879 -20.349  49.701  1.00  0.00     0.211 HD
ENDBRANCH   4  11
BRANCH   6  13
ATOM     13  O   UNL     1      -5.048 -20.031  47.321  1.00  0.00    -0.387 OA
ATOM     14  H   UNL     1      -5.180 -19.342  48.024  1.00  0.00     0.211 HD
ENDBRANCH   6  13
BRANCH   7  15
ATOM     15  O   UNL     1      -3.869 -19.697  49.790  1.00  0.00    -0.384 OA
ATOM     16  H   UNL     1      -4.077 -18.918  49.211  1.00  0.00     0.211 HD
ENDBRANCH   7  15
ENDBRANCH   1   2
BRANCH   1  17
ATOM     17  C   UNL     1      -1.114 -22.698  48.228  1.00  0.00     0.172 A 
ATOM     18  C   UNL     1       0.134 -22.236  48.718  1.00  0.00     0.205 A 
ATOM     19  C   UNL     1      -1.266 -22.968  46.866  1.00  0.00     0.097 A 
ATOM     20  C   UNL     1       1.195 -22.011  47.801  1.00  0.00     0.188 A 
ATOM     21  C   UNL     1      -0.227 -22.758  45.960  1.00  0.00     0.134 A 
ATOM     22  C   UNL     1       1.015 -22.271  46.418  1.00  0.00     0.111 A 
ATOM     23  O   UNL     1       2.374 -21.566  48.234  1.00  0.00    -0.452 OA
ATOM     24  C   UNL     1       2.103 -22.037  45.551  1.00  0.00     0.197 A 
ATOM     25  C   UNL     1       3.422 -21.347  47.446  1.00  0.00     0.138 A 
ATOM     26  C   UNL     1       3.309 -21.573  46.069  1.00  0.00     0.100 A 
ATOM     27  O   UNL     1       2.012 -22.237  44.310  1.00  0.00    -0.289 OA
BRANCH  18  28
ATOM     28  O   UNL     1       0.277 -22.047  50.102  1.00  0.00    -0.490 OA
ATOM     29  C   UNL     1       0.289 -23.056  51.107  1.00  0.00     0.278 C 
ENDBRANCH  18  28
BRANCH  21  30
ATOM     30  O   UNL     1      -0.437 -23.033  44.608  1.00  0.00    -0.507 OA
ATOM     31  H   UNL     1      -1.346 -23.301  44.254  1.00  0.00     0.293 HD
ENDBRANCH  21  30
BRANCH  25  32
ATOM     32  C   UNL     1       4.687 -20.858  48.048  1.00  0.00     0.017 A 
ATOM     33  C   UNL     1       5.898 -20.868  47.327  1.00  0.00     0.012 A 
ATOM     34  C   UNL     1       4.693 -20.399  49.378  1.00  0.00     0.012 A 
ATOM     35  C   UNL     1       7.078 -20.411  47.921  1.00  0.00     0.001 A 
ATOM     36  C   UNL     1       5.876 -19.943  49.967  1.00  0.00     0.001 A 
ATOM     37  C   UNL     1       7.068 -19.947  49.238  1.00  0.00     0.000 A 
ENDBRANCH  25  32
ENDBRANCH   1  17
TORSDOF 9
ENDMDL
MODEL 6
REMARK VINA RESULT:    -8.060      3.574      5.008
REMARK INTER + INTRA:         -12.462
REMARK INTER:                 -11.242
REMARK INTRA:                  -1.220
REMARK UNBOUND:                -1.103
REMARK SMILES COc1c(O[C@@H]2O[C@H](C(=O)[O-])[C@@H](O)[C@@H](O)[C@H]2O)cc(O)c2c(=O)cc(-c3ccccc3)oc12
REMARK SMILES IDX 5 1 6 2 8 3 12 4 7 5 14 6 16 7 9 8 10 9 11 10 13 11 15 13
REMARK SMILES IDX 17 15 4 17 3 18 18 19 33 20 19 21 21 22 32 23 22 24 25 25
REMARK SMILES IDX 24 26 23 27 2 28 1 29 20 30 26 32 27 33 31 34 28 35 30 36
REMARK SMILES IDX 29 37
REMARK H PARENT 13 12 15 14 17 16 20 31
REMARK Flexibility Score: inf
ROOT
ATOM      1  O   UNL     1      -3.153 -21.819  47.113  1.00  0.00    -0.458 OA
ENDROOT
BRANCH   1   2
ATOM      2  C   UNL     1      -3.452 -23.197  47.377  1.00  0.00     0.339 C 
ATOM      3  C   UNL     1      -5.285 -22.725  48.829  1.00  0.00     0.199 C 
ATOM      4  C   UNL     1      -4.526 -23.218  50.084  1.00  0.00     0.180 C 
ATOM      5  O   UNL     1      -4.843 -23.356  47.631  1.00  0.00    -0.328 OA
ATOM      6  C   UNL     1      -3.002 -23.144  49.878  1.00  0.00     0.181 C 
ATOM      7  C   UNL     1      -2.589 -23.764  48.532  1.00  0.00     0.214 C 
BRANCH   3   8
ATOM      8  C   UNL     1      -5.353 -21.223  48.688  1.00  0.00     0.073 C 
ATOM      9  O   UNL     1      -6.064 -20.716  47.780  1.00  0.00    -0.547 OA
ATOM     10  O   UNL     1      -4.647 -20.382  49.542  1.00  0.00    -0.547 OA
ENDBRANCH   3   8
BRANCH   4  11
ATOM     11  O   UNL     1      -4.921 -24.539  50.364  1.00  0.00    -0.387 OA
ATOM     12  H   UNL     1      -4.204 -25.139  50.028  1.00  0.00     0.211 HD
ENDBRANCH   4  11
BRANCH   6  13
ATOM     13  O   UNL     1      -2.342 -23.783  50.941  1.00  0.00    -0.387 OA
ATOM     14  H   UNL     1      -3.034 -24.001  51.618  1.00  0.00     0.211 HD
ENDBRANCH   6  13
BRANCH   7  15
ATOM     15  O   UNL     1      -2.640 -25.171  48.578  1.00  0.00    -0.384 OA
ATOM     16  H   UNL     1      -3.566 -25.447  48.802  1.00  0.00     0.211 HD
ENDBRANCH   7  15
ENDBRANCH   1   2
BRANCH   1  17
ATOM     17  C   UNL     1      -2.767 -21.227  45.895  1.00  0.00     0.172 A 
ATOM     18  C   UNL     1      -1.423 -21.064  45.478  1.00  0.00     0.205 A 
ATOM     19  C   UNL     1      -3.806 -20.797  45.068  1.00  0.00     0.097 A 
ATOM     20  C   UNL     1      -1.157 -20.421  44.240  1.00  0.00     0.188 A 
ATOM     21  C   UNL     1      -3.556 -20.172  43.847  1.00  0.00     0.134 A 
ATOM     22  C   UNL     1      -2.226 -19.972  43.422  1.00  0.00     0.111 A 
ATOM     23  O   UNL     1       0.098 -20.245  43.829  1.00  0.00    -0.452 OA
ATOM     24  C   UNL     1      -1.908 -19.345  42.199  1.00  0.00     0.197 A 
ATOM     25  C   UNL     1       0.431 -19.670  42.677  1.00  0.00     0.138 A 
ATOM     26  C   UNL     1      -0.575 -19.194  41.828  1.00  0.00     0.100 A 
ATOM     27  O   UNL     1      -2.805 -18.913  41.426  1.00  0.00    -0.289 OA
BRANCH  18  28
ATOM     28  O   UNL     1      -0.403 -21.577  46.298  1.00  0.00    -0.490 OA
ATOM     29  C   UNL     1       0.223 -22.851  46.190  1.00  0.00     0.278 C 
ENDBRANCH  18  28
BRANCH  21  30
ATOM     30  O   UNL     1      -4.632 -19.751  43.064  1.00  0.00    -0.507 OA
ATOM     31  H   UNL     1      -4.628 -18.857  42.588  1.00  0.00     0.293 HD
ENDBRANCH  21  30
BRANCH  25  32
ATOM     32  C   UNL     1       1.867 -19.539  42.326  1.00  0.00     0.017 A 
ATOM     33  C   UNL     1       2.877 -20.091  43.139  1.00  0.00     0.012 A 
ATOM     34  C   UNL     1       2.239 -18.824  41.174  1.00  0.00     0.012 A 
ATOM     35  C   UNL     1       4.223 -19.945  42.792  1.00  0.00     0.001 A 
ATOM     36  C   UNL     1       3.587 -18.680  40.831  1.00  0.00     0.001 A 
ATOM     37  C   UNL     1       4.578 -19.243  41.639  1.00  0.00     0.000 A 
ENDBRANCH  25  32
ENDBRANCH   1  17
TORSDOF 9
ENDMDL
MODEL 7
REMARK VINA RESULT:    -8.001      4.983      8.599
REMARK INTER + INTRA:         -12.379
REMARK INTER:                 -11.260
REMARK INTRA:                  -1.119
REMARK UNBOUND:                -1.103
REMARK SMILES COc1c(O[C@@H]2O[C@H](C(=O)[O-])[C@@H](O)[C@@H](O)[C@H]2O)cc(O)c2c(=O)cc(-c3ccccc3)oc12
REMARK SMILES IDX 5 1 6 2 8 3 12 4 7 5 14 6 16 7 9 8 10 9 11 10 13 11 15 13
REMARK SMILES IDX 17 15 4 17 3 18 18 19 33 20 19 21 21 22 32 23 22 24 25 25
REMARK SMILES IDX 24 26 23 27 2 28 1 29 20 30 26 32 27 33 31 34 28 35 30 36
REMARK SMILES IDX 29 37
REMARK H PARENT 13 12 15 14 17 16 20 31
REMARK Flexibility Score: inf
ROOT
ATOM      1  O   UNL     1      -3.437 -22.236  47.095  1.00  0.00    -0.458 OA
ENDROOT
BRANCH   1   2
ATOM      2  C   UNL     1      -3.232 -21.896  48.474  1.00  0.00     0.339 C 
ATOM      3  C   UNL     1      -1.729 -23.699  48.898  1.00  0.00     0.199 C 
ATOM      4  C   UNL     1      -2.743 -24.442  49.801  1.00  0.00     0.180 C 
ATOM      5  O   UNL     1      -1.928 -22.289  48.885  1.00  0.00    -0.328 OA
ATOM      6  C   UNL     1      -4.189 -24.030  49.471  1.00  0.00     0.181 C 
ATOM      7  C   UNL     1      -4.329 -22.500  49.387  1.00  0.00     0.214 C 
BRANCH   3   8
ATOM      8  C   UNL     1      -1.599 -24.267  47.504  1.00  0.00     0.073 C 
ATOM      9  O   UNL     1      -0.723 -23.805  46.726  1.00  0.00    -0.547 OA
ATOM     10  O   UNL     1      -2.425 -25.293  47.060  1.00  0.00    -0.547 OA
ENDBRANCH   3   8
BRANCH   4  11
ATOM     11  O   UNL     1      -2.446 -24.159  51.147  1.00  0.00    -0.387 OA
ATOM     12  H   UNL     1      -2.361 -25.028  51.619  1.00  0.00     0.211 HD
ENDBRANCH   4  11
BRANCH   6  13
ATOM     13  O   UNL     1      -5.070 -24.555  50.431  1.00  0.00    -0.387 OA
ATOM     14  H   UNL     1      -5.890 -23.996  50.403  1.00  0.00     0.211 HD
ENDBRANCH   6  13
BRANCH   7  15
ATOM     15  O   UNL     1      -4.321 -21.913  50.667  1.00  0.00    -0.384 OA
ATOM     16  H   UNL     1      -3.563 -21.276  50.719  1.00  0.00     0.211 HD
ENDBRANCH   7  15
ENDBRANCH   1   2
BRANCH   1  17
ATOM     17  C   UNL     1      -3.406 -21.386  45.973  1.00  0.00     0.172 A 
ATOM     18  C   UNL     1      -4.537 -20.708  45.454  1.00  0.00     0.205 A 
ATOM     19  C   UNL     1      -2.160 -21.218  45.368  1.00  0.00     0.097 A 
ATOM     20  C   UNL     1      -4.387 -19.903  44.293  1.00  0.00     0.188 A 
ATOM     21  C   UNL     1      -2.000 -20.422  44.233  1.00  0.00     0.134 A 
ATOM     22  C   UNL     1      -3.115 -19.760  43.680  1.00  0.00     0.111 A 
ATOM     23  O   UNL     1      -5.436 -19.263  43.779  1.00  0.00    -0.452 OA
ATOM     24  C   UNL     1      -3.020 -18.943  42.534  1.00  0.00     0.197 A 
ATOM     25  C   UNL     1      -5.377 -18.477  42.708  1.00  0.00     0.138 A 
ATOM     26  C   UNL     1      -4.155 -18.301  42.048  1.00  0.00     0.100 A 
ATOM     27  O   UNL     1      -1.925 -18.778  41.932  1.00  0.00    -0.289 OA
BRANCH  18  28
ATOM     28  O   UNL     1      -5.762 -20.838  46.131  1.00  0.00    -0.490 OA
ATOM     29  C   UNL     1      -6.252 -20.010  47.181  1.00  0.00     0.278 C 
ENDBRANCH  18  28
BRANCH  21  30
ATOM     30  O   UNL     1      -0.733 -20.297  43.662  1.00  0.00    -0.507 OA
ATOM     31  H   UNL     1       0.057 -19.948  44.189  1.00  0.00     0.293 HD
ENDBRANCH  21  30
BRANCH  25  32
ATOM     32  C   UNL     1      -6.616 -17.811  42.233  1.00  0.00     0.017 A 
ATOM     33  C   UNL     1      -7.843 -18.502  42.166  1.00  0.00     0.012 A 
ATOM     34  C   UNL     1      -6.568 -16.470  41.812  1.00  0.00     0.012 A 
ATOM     35  C   UNL     1      -8.994 -17.855  41.706  1.00  0.00     0.001 A 
ATOM     36  C   UNL     1      -7.722 -15.829  41.352  1.00  0.00     0.001 A 
ATOM     37  C   UNL     1      -8.934 -16.520  41.301  1.00  0.00     0.000 A 
ENDBRANCH  25  32
ENDBRANCH   1  17
TORSDOF 9
ENDMDL
MODEL 8
REMARK VINA RESULT:    -7.686      4.899      8.509
REMARK INTER + INTRA:         -11.935
REMARK INTER:                 -10.853
REMARK INTRA:                  -1.082
REMARK UNBOUND:                -1.103
REMARK SMILES COc1c(O[C@@H]2O[C@H](C(=O)[O-])[C@@H](O)[C@@H](O)[C@H]2O)cc(O)c2c(=O)cc(-c3ccccc3)oc12
REMARK SMILES IDX 5 1 6 2 8 3 12 4 7 5 14 6 16 7 9 8 10 9 11 10 13 11 15 13
REMARK SMILES IDX 17 15 4 17 3 18 18 19 33 20 19 21 21 22 32 23 22 24 25 25
REMARK SMILES IDX 24 26 23 27 2 28 1 29 20 30 26 32 27 33 31 34 28 35 30 36
REMARK SMILES IDX 29 37
REMARK H PARENT 13 12 15 14 17 16 20 31
REMARK Flexibility Score: inf
ROOT
ATOM      1  O   UNL     1      -3.561 -22.078  47.852  1.00  0.00    -0.458 OA
ENDROOT
BRANCH   1   2
ATOM      2  C   UNL     1      -3.892 -23.466  47.995  1.00  0.00     0.339 C 
ATOM      3  C   UNL     1      -2.377 -23.844  49.797  1.00  0.00     0.199 C 
ATOM      4  C   UNL     1      -1.438 -24.722  48.934  1.00  0.00     0.180 C 
ATOM      5  O   UNL     1      -3.728 -23.871  49.349  1.00  0.00    -0.328 OA
ATOM      6  C   UNL     1      -1.594 -24.398  47.437  1.00  0.00     0.181 C 
ATOM      7  C   UNL     1      -3.076 -24.358  47.025  1.00  0.00     0.214 C 
BRANCH   3   8
ATOM      8  C   UNL     1      -1.881 -22.435  50.025  1.00  0.00     0.073 C 
ATOM      9  O   UNL     1      -2.508 -21.678  50.813  1.00  0.00    -0.547 OA
ATOM     10  O   UNL     1      -0.745 -21.954  49.385  1.00  0.00    -0.547 OA
ENDBRANCH   3   8
BRANCH   4  11
ATOM     11  O   UNL     1      -1.731 -26.076  49.178  1.00  0.00    -0.387 OA
ATOM     12  H   UNL     1      -2.671 -26.229  48.897  1.00  0.00     0.211 HD
ENDBRANCH   4  11
BRANCH   6  13
ATOM     13  O   UNL     1      -0.892 -25.340  46.666  1.00  0.00    -0.387 OA
ATOM     14  H   UNL     1      -1.531 -25.692  45.994  1.00  0.00     0.211 HD
ENDBRANCH   6  13
BRANCH   7  15
ATOM     15  O   UNL     1      -3.617 -25.654  46.929  1.00  0.00    -0.384 OA
ATOM     16  H   UNL     1      -4.007 -25.769  46.024  1.00  0.00     0.211 HD
ENDBRANCH   7  15
ENDBRANCH   1   2
BRANCH   1  17
ATOM     17  C   UNL     1      -3.533 -21.303  46.677  1.00  0.00     0.172 A 
ATOM     18  C   UNL     1      -4.678 -20.716  46.081  1.00  0.00     0.205 A 
ATOM     19  C   UNL     1      -2.277 -21.114  46.098  1.00  0.00     0.097 A 
ATOM     20  C   UNL     1      -4.528 -19.982  44.874  1.00  0.00     0.188 A 
ATOM     21  C   UNL     1      -2.118 -20.388  44.918  1.00  0.00     0.134 A 
ATOM     22  C   UNL     1      -3.245 -19.818  44.289  1.00  0.00     0.111 A 
ATOM     23  O   UNL     1      -5.588 -19.429  44.287  1.00  0.00    -0.452 OA
ATOM     24  C   UNL     1      -3.151 -19.074  43.095  1.00  0.00     0.197 A 
ATOM     25  C   UNL     1      -5.532 -18.713  43.169  1.00  0.00     0.138 A 
ATOM     26  C   UNL     1      -4.298 -18.521  42.534  1.00  0.00     0.100 A 
ATOM     27  O   UNL     1      -2.046 -18.895  42.515  1.00  0.00    -0.289 OA
BRANCH  18  28
ATOM     28  O   UNL     1      -5.916 -20.861  46.729  1.00  0.00    -0.490 OA
ATOM     29  C   UNL     1      -6.431 -20.052  47.782  1.00  0.00     0.278 C 
ENDBRANCH  18  28
BRANCH  21  30
ATOM     30  O   UNL     1      -0.841 -20.239  44.376  1.00  0.00    -0.507 OA
ATOM     31  H   UNL     1      -0.688 -20.192  43.377  1.00  0.00     0.293 HD
ENDBRANCH  21  30
BRANCH  25  32
ATOM     32  C   UNL     1      -6.784 -18.140  42.615  1.00  0.00     0.017 A 
ATOM     33  C   UNL     1      -8.020 -18.802  42.754  1.00  0.00     0.012 A 
ATOM     34  C   UNL     1      -6.741 -16.925  41.908  1.00  0.00     0.012 A 
ATOM     35  C   UNL     1      -9.185 -18.247  42.215  1.00  0.00     0.001 A 
ATOM     36  C   UNL     1      -7.908 -16.375  41.370  1.00  0.00     0.001 A 
ATOM     37  C   UNL     1      -9.130 -17.034  41.526  1.00  0.00     0.000 A 
ENDBRANCH  25  32
ENDBRANCH   1  17
TORSDOF 9
ENDMDL
MODEL 9
REMARK VINA RESULT:    -7.656      3.759      5.686
REMARK INTER + INTRA:         -11.893
REMARK INTER:                 -10.993
REMARK INTRA:                  -0.899
REMARK UNBOUND:                -1.103
REMARK SMILES COc1c(O[C@@H]2O[C@H](C(=O)[O-])[C@@H](O)[C@@H](O)[C@H]2O)cc(O)c2c(=O)cc(-c3ccccc3)oc12
REMARK SMILES IDX 5 1 6 2 8 3 12 4 7 5 14 6 16 7 9 8 10 9 11 10 13 11 15 13
REMARK SMILES IDX 17 15 4 17 3 18 18 19 33 20 19 21 21 22 32 23 22 24 25 25
REMARK SMILES IDX 24 26 23 27 2 28 1 29 20 30 26 32 27 33 31 34 28 35 30 36
REMARK SMILES IDX 29 37
REMARK H PARENT 13 12 15 14 17 16 20 31
REMARK Flexibility Score: inf
ROOT
ATOM      1  O   UNL     1      -2.536 -21.828  47.278  1.00  0.00    -0.458 OA
ENDROOT
BRANCH   1   2
ATOM      2  C   UNL     1      -3.601 -21.647  48.222  1.00  0.00     0.339 C 
ATOM      3  C   UNL     1      -2.683 -23.137  49.842  1.00  0.00     0.199 C 
ATOM      4  C   UNL     1      -3.793 -24.192  49.623  1.00  0.00     0.180 C 
ATOM      5  O   UNL     1      -3.112 -21.811  49.548  1.00  0.00    -0.328 OA
ATOM      6  C   UNL     1      -4.430 -24.050  48.229  1.00  0.00     0.181 C 
ATOM      7  C   UNL     1      -4.798 -22.586  47.930  1.00  0.00     0.214 C 
BRANCH   3   8
ATOM      8  C   UNL     1      -1.366 -23.467  49.180  1.00  0.00     0.073 C 
ATOM      9  O   UNL     1      -0.381 -22.698  49.340  1.00  0.00    -0.547 OA
ATOM     10  O   UNL     1      -1.214 -24.605  48.395  1.00  0.00    -0.547 OA
ENDBRANCH   3   8
BRANCH   4  11
ATOM     11  O   UNL     1      -4.767 -24.042  50.627  1.00  0.00    -0.387 OA
ATOM     12  H   UNL     1      -4.443 -24.531  51.428  1.00  0.00     0.211 HD
ENDBRANCH   4  11
BRANCH   6  13
ATOM     13  O   UNL     1      -5.563 -24.874  48.131  1.00  0.00    -0.387 OA
ATOM     14  H   UNL     1      -5.246 -25.809  48.240  1.00  0.00     0.211 HD
ENDBRANCH   6  13
BRANCH   7  15
ATOM     15  O   UNL     1      -5.952 -22.193  48.635  1.00  0.00    -0.384 OA
ATOM     16  H   UNL     1      -6.726 -22.706  48.287  1.00  0.00     0.211 HD
ENDBRANCH   7  15
ENDBRANCH   1   2
BRANCH   1  17
ATOM     17  C   UNL     1      -2.370 -21.217  46.021  1.00  0.00     0.172 A 
ATOM     18  C   UNL     1      -1.123 -21.069  45.363  1.00  0.00     0.205 A 
ATOM     19  C   UNL     1      -3.535 -20.750  45.409  1.00  0.00     0.097 A 
ATOM     20  C   UNL     1      -1.078 -20.404  44.109  1.00  0.00     0.188 A 
ATOM     21  C   UNL     1      -3.502 -20.102  44.174  1.00  0.00     0.134 A 
ATOM     22  C   UNL     1      -2.271 -19.917  43.513  1.00  0.00     0.111 A 
ATOM     23  O   UNL     1       0.082 -20.242  43.476  1.00  0.00    -0.452 OA
ATOM     24  C   UNL     1      -2.171 -19.270  42.264  1.00  0.00     0.197 A 
ATOM     25  C   UNL     1       0.208 -19.648  42.293  1.00  0.00     0.138 A 
ATOM     26  C   UNL     1      -0.927 -19.135  41.654  1.00  0.00     0.100 A 
ATOM     27  O   UNL     1      -3.187 -18.804  41.680  1.00  0.00    -0.289 OA
BRANCH  18  28
ATOM     28  O   UNL     1       0.019 -21.618  45.970  1.00  0.00    -0.490 OA
ATOM     29  C   UNL     1       0.729 -22.783  45.562  1.00  0.00     0.278 C 
ENDBRANCH  18  28
BRANCH  21  30
ATOM     30  O   UNL     1      -4.695 -19.645  43.613  1.00  0.00    -0.507 OA
ATOM     31  H   UNL     1      -5.597 -19.893  44.002  1.00  0.00     0.293 HD
ENDBRANCH  21  30
BRANCH  25  32
ATOM     32  C   UNL     1       1.556 -19.535  41.683  1.00  0.00     0.017 A 
ATOM     33  C   UNL     1       1.797 -19.926  40.350  1.00  0.00     0.012 A 
ATOM     34  C   UNL     1       2.631 -19.056  42.453  1.00  0.00     0.012 A 
ATOM     35  C   UNL     1       3.078 -19.820  39.802  1.00  0.00     0.001 A 
ATOM     36  C   UNL     1       3.911 -18.952  41.900  1.00  0.00     0.001 A 
ATOM     37  C   UNL     1       4.133 -19.332  40.574  1.00  0.00     0.000 A 
ENDBRANCH  25  32
ENDBRANCH   1  17
TORSDOF 9
ENDMDL
