MODEL 1
REMARK VINA RESULT:    -6.123      0.000      0.000
REMARK INTER + INTRA:          -6.577
REMARK INTER:                  -6.481
REMARK INTRA:                  -0.096
REMARK UNBOUND:                -0.096
REMARK SMILES C=C(C)[C@H]1CC=C(C)C(=O)C1
REMARK SMILES IDX 8 1 7 2 6 3 5 4 4 5 11 6 9 7 10 8 2 9 1 10 3 11
REMARK H PARENT
REMARK Flexibility Score: inf
ROOT
ATOM      1  C   UNL     1      -2.743 -11.301  26.017  1.00  0.00     0.048 C 
ATOM      2  C   UNL     1      -3.443 -12.009  27.144  1.00  0.00    -0.012 C 
ATOM      3  C   UNL     1      -3.994 -13.218  26.944  1.00  0.00    -0.019 C 
ATOM      4  C   UNL     1      -4.774 -13.931  28.018  1.00  0.00     0.036 C 
ATOM      5  C   UNL     1      -4.253 -13.563  29.421  1.00  0.00     0.025 C 
ATOM      6  C   UNL     1      -4.261 -12.033  29.609  1.00  0.00     0.089 C 
ATOM      7  C   UNL     1      -3.547 -11.354  28.472  1.00  0.00     0.158 C 
ATOM      8  O   UNL     1      -3.073 -10.200  28.647  1.00  0.00    -0.295 OA
ENDROOT
BRANCH   5   9
ATOM      9  C   UNL     1      -5.042 -14.266  30.517  1.00  0.00    -0.077 C 
ATOM     10  C   UNL     1      -6.139 -14.991  30.234  1.00  0.00     0.008 C 
ATOM     11  C   UNL     1      -4.598 -14.162  31.953  1.00  0.00     0.039 C 
ENDBRANCH   5   9
TORSDOF 1
ENDMDL
MODEL 2
REMARK VINA RESULT:    -6.081      2.868      3.942
REMARK INTER + INTRA:          -6.533
REMARK INTER:                  -6.434
REMARK INTRA:                  -0.098
REMARK UNBOUND:                -0.096
REMARK SMILES C=C(C)[C@H]1CC=C(C)C(=O)C1
REMARK SMILES IDX 8 1 7 2 6 3 5 4 4 5 11 6 9 7 10 8 2 9 1 10 3 11
REMARK H PARENT
REMARK Flexibility Score: inf
ROOT
ATOM      1  C   UNL     1       0.155 -12.491  31.567  1.00  0.00     0.048 C 
ATOM      2  C   UNL     1      -0.992 -12.921  30.694  1.00  0.00    -0.012 C 
ATOM      3  C   UNL     1      -2.239 -12.967  31.193  1.00  0.00    -0.019 C 
ATOM      4  C   UNL     1      -3.407 -13.467  30.382  1.00  0.00     0.036 C 
ATOM      5  C   UNL     1      -3.205 -13.182  28.881  1.00  0.00     0.025 C 
ATOM      6  C   UNL     1      -1.865 -13.772  28.401  1.00  0.00     0.089 C 
ATOM      7  C   UNL     1      -0.737 -13.318  29.288  1.00  0.00     0.158 C 
ATOM      8  O   UNL     1       0.439 -13.320  28.834  1.00  0.00    -0.295 OA
ENDROOT
BRANCH   5   9
ATOM      9  C   UNL     1      -4.373 -13.694  28.049  1.00  0.00    -0.077 C 
ATOM     10  C   UNL     1      -4.222 -14.013  26.752  1.00  0.00     0.008 C 
ATOM     11  C   UNL     1      -5.733 -13.856  28.677  1.00  0.00     0.039 C 
ENDBRANCH   5   9
TORSDOF 1
ENDMDL
MODEL 3
REMARK VINA RESULT:    -6.003      2.082      4.833
REMARK INTER + INTRA:          -6.449
REMARK INTER:                  -6.354
REMARK INTRA:                  -0.096
REMARK UNBOUND:                -0.096
REMARK SMILES C=C(C)[C@H]1CC=C(C)C(=O)C1
REMARK SMILES IDX 8 1 7 2 6 3 5 4 4 5 11 6 9 7 10 8 2 9 1 10 3 11
REMARK H PARENT
REMARK Flexibility Score: inf
ROOT
ATOM      1  C   UNL     1      -5.388 -15.288  32.322  1.00  0.00     0.048 C 
ATOM      2  C   UNL     1      -4.959 -14.337  31.237  1.00  0.00    -0.012 C 
ATOM      3  C   UNL     1      -4.033 -13.397  31.491  1.00  0.00    -0.019 C 
ATOM      4  C   UNL     1      -3.629 -12.373  30.463  1.00  0.00     0.036 C 
ATOM      5  C   UNL     1      -3.760 -12.937  29.034  1.00  0.00     0.025 C 
ATOM      6  C   UNL     1      -5.186 -13.472  28.799  1.00  0.00     0.089 C 
ATOM      7  C   UNL     1      -5.582 -14.425  29.894  1.00  0.00     0.158 C 
ATOM      8  O   UNL     1      -6.485 -15.275  29.670  1.00  0.00    -0.295 OA
ENDROOT
BRANCH   5   9
ATOM      9  C   UNL     1      -3.367 -11.906  27.984  1.00  0.00    -0.077 C 
ATOM     10  C   UNL     1      -3.187 -10.614  28.306  1.00  0.00     0.008 C 
ATOM     11  C   UNL     1      -3.170 -12.327  26.551  1.00  0.00     0.039 C 
ENDBRANCH   5   9
TORSDOF 1
ENDMDL
MODEL 4
REMARK VINA RESULT:    -5.800      2.488      4.217
REMARK INTER + INTRA:          -6.235
REMARK INTER:                  -6.139
REMARK INTRA:                  -0.096
REMARK UNBOUND:                -0.096
REMARK SMILES C=C(C)[C@H]1CC=C(C)C(=O)C1
REMARK SMILES IDX 8 1 7 2 6 3 5 4 4 5 11 6 9 7 10 8 2 9 1 10 3 11
REMARK H PARENT
REMARK Flexibility Score: inf
ROOT
ATOM      1  C   UNL     1      -6.960 -15.152  28.921  1.00  0.00     0.048 C 
ATOM      2  C   UNL     1      -5.777 -14.323  29.341  1.00  0.00    -0.012 C 
ATOM      3  C   UNL     1      -5.201 -13.477  28.469  1.00  0.00    -0.019 C 
ATOM      4  C   UNL     1      -3.966 -12.686  28.818  1.00  0.00     0.036 C 
ATOM      5  C   UNL     1      -3.919 -12.364  30.325  1.00  0.00     0.025 C 
ATOM      6  C   UNL     1      -4.038 -13.659  31.152  1.00  0.00     0.089 C 
ATOM      7  C   UNL     1      -5.233 -14.462  30.714  1.00  0.00     0.158 C 
ATOM      8  O   UNL     1      -5.743 -15.289  31.517  1.00  0.00    -0.295 OA
ENDROOT
BRANCH   5   9
ATOM      9  C   UNL     1      -2.669 -11.576  30.693  1.00  0.00    -0.077 C 
ATOM     10  C   UNL     1      -1.731 -12.091  31.506  1.00  0.00     0.008 C 
ATOM     11  C   UNL     1      -2.462 -10.189  30.141  1.00  0.00     0.039 C 
ENDBRANCH   5   9
TORSDOF 1
ENDMDL
MODEL 5
REMARK VINA RESULT:    -5.794      2.726      4.146
REMARK INTER + INTRA:          -6.228
REMARK INTER:                  -6.140
REMARK INTRA:                  -0.088
REMARK UNBOUND:                -0.096
REMARK SMILES C=C(C)[C@H]1CC=C(C)C(=O)C1
REMARK SMILES IDX 8 1 7 2 6 3 5 4 4 5 11 6 9 7 10 8 2 9 1 10 3 11
REMARK H PARENT
REMARK Flexibility Score: inf
ROOT
ATOM      1  C   UNL     1      -6.640 -14.750  28.737  1.00  0.00     0.048 C 
ATOM      2  C   UNL     1      -5.416 -14.121  29.345  1.00  0.00    -0.012 C 
ATOM      3  C   UNL     1      -4.612 -13.346  28.596  1.00  0.00    -0.019 C 
ATOM      4  C   UNL     1      -3.334 -12.760  29.137  1.00  0.00     0.036 C 
ATOM      5  C   UNL     1      -3.442 -12.493  30.651  1.00  0.00     0.025 C 
ATOM      6  C   UNL     1      -3.855 -13.780  31.392  1.00  0.00     0.089 C 
ATOM      7  C   UNL     1      -5.085 -14.380  30.767  1.00  0.00     0.158 C 
ATOM      8  O   UNL     1      -5.812 -15.145  31.457  1.00  0.00    -0.295 OA
ENDROOT
BRANCH   5   9
ATOM      9  C   UNL     1      -2.151 -11.912  31.213  1.00  0.00    -0.077 C 
ATOM     10  C   UNL     1      -2.031 -10.600  31.478  1.00  0.00     0.008 C 
ATOM     11  C   UNL     1      -0.975 -12.813  31.487  1.00  0.00     0.039 C 
ENDBRANCH   5   9
TORSDOF 1
ENDMDL
MODEL 6
REMARK VINA RESULT:    -5.755      1.765      4.491
REMARK INTER + INTRA:          -6.187
REMARK INTER:                  -6.095
REMARK INTRA:                  -0.093
REMARK UNBOUND:                -0.096
REMARK SMILES C=C(C)[C@H]1CC=C(C)C(=O)C1
REMARK SMILES IDX 8 1 7 2 6 3 5 4 4 5 11 6 9 7 10 8 2 9 1 10 3 11
REMARK H PARENT
REMARK Flexibility Score: inf
ROOT
ATOM      1  C   UNL     1      -5.559 -14.957  32.336  1.00  0.00     0.048 C 
ATOM      2  C   UNL     1      -4.996 -14.399  31.057  1.00  0.00    -0.012 C 
ATOM      3  C   UNL     1      -5.714 -14.457  29.921  1.00  0.00    -0.019 C 
ATOM      4  C   UNL     1      -5.162 -13.985  28.601  1.00  0.00     0.036 C 
ATOM      5  C   UNL     1      -4.154 -12.837  28.798  1.00  0.00     0.025 C 
ATOM      6  C   UNL     1      -3.043 -13.262  29.777  1.00  0.00     0.089 C 
ATOM      7  C   UNL     1      -3.636 -13.808  31.048  1.00  0.00     0.158 C 
ATOM      8  O   UNL     1      -2.944 -13.796  32.102  1.00  0.00    -0.295 OA
ENDROOT
BRANCH   5   9
ATOM      9  C   UNL     1      -3.579 -12.359  27.471  1.00  0.00    -0.077 C 
ATOM     10  C   UNL     1      -3.091 -11.115  27.327  1.00  0.00     0.008 C 
ATOM     11  C   UNL     1      -3.547 -13.288  26.285  1.00  0.00     0.039 C 
ENDBRANCH   5   9
TORSDOF 1
ENDMDL
MODEL 7
REMARK VINA RESULT:    -5.668      2.386      4.211
REMARK INTER + INTRA:          -6.095
REMARK INTER:                  -6.007
REMARK INTRA:                  -0.088
REMARK UNBOUND:                -0.096
REMARK SMILES C=C(C)[C@H]1CC=C(C)C(=O)C1
REMARK SMILES IDX 8 1 7 2 6 3 5 4 4 5 11 6 9 7 10 8 2 9 1 10 3 11
REMARK H PARENT
REMARK Flexibility Score: inf
ROOT
ATOM      1  C   UNL     1      -6.531 -15.200  29.546  1.00  0.00     0.048 C 
ATOM      2  C   UNL     1      -5.354 -14.380  30.000  1.00  0.00    -0.012 C 
ATOM      3  C   UNL     1      -5.029 -14.330  31.304  1.00  0.00    -0.019 C 
ATOM      4  C   UNL     1      -3.909 -13.461  31.816  1.00  0.00     0.036 C 
ATOM      5  C   UNL     1      -2.803 -13.295  30.756  1.00  0.00     0.025 C 
ATOM      6  C   UNL     1      -3.401 -12.763  29.439  1.00  0.00     0.089 C 
ATOM      7  C   UNL     1      -4.569 -13.607  29.007  1.00  0.00     0.158 C 
ATOM      8  O   UNL     1      -4.903 -13.616  27.791  1.00  0.00    -0.295 OA
ENDROOT
BRANCH   5   9
ATOM      9  C   UNL     1      -1.672 -12.408  31.257  1.00  0.00    -0.077 C 
ATOM     10  C   UNL     1      -0.445 -12.905  31.494  1.00  0.00     0.008 C 
ATOM     11  C   UNL     1      -1.913 -10.940  31.496  1.00  0.00     0.039 C 
ENDBRANCH   5   9
TORSDOF 1
ENDMDL
MODEL 8
REMARK VINA RESULT:    -5.656      2.771      4.164
REMARK INTER + INTRA:          -6.083
REMARK INTER:                  -5.994
REMARK INTRA:                  -0.089
REMARK UNBOUND:                -0.096
REMARK SMILES C=C(C)[C@H]1CC=C(C)C(=O)C1
REMARK SMILES IDX 8 1 7 2 6 3 5 4 4 5 11 6 9 7 10 8 2 9 1 10 3 11
REMARK H PARENT
REMARK Flexibility Score: inf
ROOT
ATOM      1  C   UNL     1       0.251 -12.474  31.758  1.00  0.00     0.048 C 
ATOM      2  C   UNL     1      -0.594 -12.544  30.515  1.00  0.00    -0.012 C 
ATOM      3  C   UNL     1      -0.453 -13.572  29.661  1.00  0.00    -0.019 C 
ATOM      4  C   UNL     1      -1.218 -13.646  28.364  1.00  0.00     0.036 C 
ATOM      5  C   UNL     1      -2.587 -12.947  28.485  1.00  0.00     0.025 C 
ATOM      6  C   UNL     1      -2.406 -11.498  28.977  1.00  0.00     0.089 C 
ATOM      7  C   UNL     1      -1.565 -11.461  30.224  1.00  0.00     0.158 C 
ATOM      8  O   UNL     1      -1.663 -10.473  31.001  1.00  0.00    -0.295 OA
ENDROOT
BRANCH   5   9
ATOM      9  C   UNL     1      -3.364 -13.003  27.178  1.00  0.00    -0.077 C 
ATOM     10  C   UNL     1      -4.228 -14.000  26.919  1.00  0.00     0.008 C 
ATOM     11  C   UNL     1      -3.176 -11.926  26.141  1.00  0.00     0.039 C 
ENDBRANCH   5   9
TORSDOF 1
ENDMDL
MODEL 9
REMARK VINA RESULT:    -5.387      3.032      3.712
REMARK INTER + INTRA:          -5.797
REMARK INTER:                  -5.704
REMARK INTRA:                  -0.093
REMARK UNBOUND:                -0.096
REMARK SMILES C=C(C)[C@H]1CC=C(C)C(=O)C1
REMARK SMILES IDX 8 1 7 2 6 3 5 4 4 5 11 6 9 7 10 8 2 9 1 10 3 11
REMARK H PARENT
REMARK Flexibility Score: inf
ROOT
ATOM      1  C   UNL     1       0.419 -14.017  28.365  1.00  0.00     0.048 C 
ATOM      2  C   UNL     1      -0.697 -13.647  29.304  1.00  0.00    -0.012 C 
ATOM      3  C   UNL     1      -0.425 -13.325  30.581  1.00  0.00    -0.019 C 
ATOM      4  C   UNL     1      -1.514 -13.026  31.579  1.00  0.00     0.036 C 
ATOM      5  C   UNL     1      -2.746 -12.407  30.891  1.00  0.00     0.025 C 
ATOM      6  C   UNL     1      -3.234 -13.319  29.749  1.00  0.00     0.089 C 
ATOM      7  C   UNL     1      -2.100 -13.664  28.823  1.00  0.00     0.158 C 
ATOM      8  O   UNL     1      -2.358 -14.012  27.639  1.00  0.00    -0.295 OA
ENDROOT
BRANCH   5   9
ATOM      9  C   UNL     1      -3.858 -12.112  31.888  1.00  0.00    -0.077 C 
ATOM     10  C   UNL     1      -4.515 -13.102  32.518  1.00  0.00     0.008 C 
ATOM     11  C   UNL     1      -4.243 -10.687  32.190  1.00  0.00     0.039 C 
ENDBRANCH   5   9
TORSDOF 1
ENDMDL
