MODEL 1
REMARK VINA RESULT:    -4.302      0.000      0.000
REMARK INTER + INTRA:          -6.834
REMARK INTER:                  -6.063
REMARK INTRA:                  -0.771
REMARK UNBOUND:                -0.771
REMARK SMILES CCCCCCCCC(=O)[O-]
REMARK SMILES IDX 6 1 7 2 8 3 9 4 10 5 11 6 5 7 4 8 3 9 2 10 1 11
REMARK H PARENT
REMARK Flexibility Score: inf
ROOT
ATOM      1  C   UNL     1     -11.972 -27.854 -34.695  1.00  0.00     0.000 C 
ENDROOT
BRANCH   1   2
ATOM      2  C   UNL     1     -11.309 -26.529 -35.091  1.00  0.00     0.006 C 
BRANCH   2   3
ATOM      3  C   UNL     1     -12.105 -25.335 -34.558  1.00  0.00     0.053 C 
BRANCH   3   4
ATOM      4  C   UNL     1     -12.700 -24.555 -35.687  1.00  0.00     0.041 C 
ATOM      5  O   UNL     1     -12.651 -23.296 -35.683  1.00  0.00    -0.550 OA
ATOM      6  O   UNL     1     -13.353 -25.214 -36.720  1.00  0.00    -0.550 OA
ENDBRANCH   3   4
ENDBRANCH   2   3
ENDBRANCH   1   2
BRANCH   1   7
ATOM      7  C   UNL     1     -13.160 -27.617 -33.755  1.00  0.00     0.000 C 
BRANCH   7   8
ATOM      8  C   UNL     1     -12.922 -28.282 -32.391  1.00  0.00    -0.000 C 
BRANCH   8   9
ATOM      9  C   UNL     1     -12.401 -27.295 -31.334  1.00  0.00    -0.000 C 
BRANCH   9  10
ATOM     10  C   UNL     1     -10.906 -27.484 -31.037  1.00  0.00    -0.003 C 
ATOM     11  C   UNL     1     -10.121 -26.210 -31.341  1.00  0.00     0.004 C 
ENDBRANCH   9  10
ENDBRANCH   8   9
ENDBRANCH   7   8
ENDBRANCH   1   7
TORSDOF 7
ENDMDL
MODEL 2
REMARK VINA RESULT:    -4.173      3.065      4.874
REMARK INTER + INTRA:          -6.651
REMARK INTER:                  -6.150
REMARK INTRA:                  -0.500
REMARK UNBOUND:                -0.771
REMARK SMILES CCCCCCCCC(=O)[O-]
REMARK SMILES IDX 6 1 7 2 8 3 9 4 10 5 11 6 5 7 4 8 3 9 2 10 1 11
REMARK H PARENT
REMARK Flexibility Score: inf
ROOT
ATOM      1  C   UNL     1     -13.704 -27.519 -33.507  1.00  0.00     0.000 C 
ENDROOT
BRANCH   1   2
ATOM      2  C   UNL     1     -13.086 -28.217 -32.290  1.00  0.00     0.006 C 
BRANCH   2   3
ATOM      3  C   UNL     1     -12.611 -27.197 -31.252  1.00  0.00     0.053 C 
BRANCH   3   4
ATOM      4  C   UNL     1     -11.225 -27.523 -30.792  1.00  0.00     0.041 C 
ATOM      5  O   UNL     1     -11.029 -28.493 -30.011  1.00  0.00    -0.550 OA
ATOM      6  O   UNL     1     -10.157 -26.728 -31.183  1.00  0.00    -0.550 OA
ENDBRANCH   3   4
ENDBRANCH   2   3
ENDBRANCH   1   2
BRANCH   1   7
ATOM      7  C   UNL     1     -13.035 -27.983 -34.807  1.00  0.00     0.000 C 
BRANCH   7   8
ATOM      8  C   UNL     1     -11.602 -27.440 -34.912  1.00  0.00    -0.000 C 
BRANCH   8   9
ATOM      9  C   UNL     1     -11.548 -25.904 -34.877  1.00  0.00    -0.000 C 
BRANCH   9  10
ATOM     10  C   UNL     1     -12.358 -25.259 -36.011  1.00  0.00    -0.003 C 
ATOM     11  C   UNL     1     -12.690 -23.803 -35.689  1.00  0.00     0.004 C 
ENDBRANCH   9  10
ENDBRANCH   8   9
ENDBRANCH   7   8
ENDBRANCH   1   7
TORSDOF 7
ENDMDL
MODEL 3
REMARK VINA RESULT:    -4.058      1.329      2.176
REMARK INTER + INTRA:          -6.490
REMARK INTER:                  -5.930
REMARK INTRA:                  -0.560
REMARK UNBOUND:                -0.771
REMARK SMILES CCCCCCCCC(=O)[O-]
REMARK SMILES IDX 6 1 7 2 8 3 9 4 10 5 11 6 5 7 4 8 3 9 2 10 1 11
REMARK H PARENT
REMARK Flexibility Score: inf
ROOT
ATOM      1  C   UNL     1     -12.613 -28.352 -32.917  1.00  0.00     0.000 C 
ENDROOT
BRANCH   1   2
ATOM      2  C   UNL     1     -13.683 -27.499 -33.609  1.00  0.00     0.006 C 
BRANCH   2   3
ATOM      3  C   UNL     1     -13.494 -27.502 -35.128  1.00  0.00     0.053 C 
BRANCH   3   4
ATOM      4  C   UNL     1     -12.832 -26.238 -35.576  1.00  0.00     0.041 C 
ATOM      5  O   UNL     1     -13.491 -25.365 -36.201  1.00  0.00    -0.550 OA
ATOM      6  O   UNL     1     -11.476 -26.044 -35.349  1.00  0.00    -0.550 OA
ENDBRANCH   3   4
ENDBRANCH   2   3
ENDBRANCH   1   2
BRANCH   1   7
ATOM      7  C   UNL     1     -12.991 -28.636 -31.459  1.00  0.00     0.000 C 
BRANCH   7   8
ATOM      8  C   UNL     1     -11.825 -28.306 -30.515  1.00  0.00    -0.000 C 
BRANCH   8   9
ATOM      9  C   UNL     1     -10.689 -27.547 -31.221  1.00  0.00    -0.000 C 
BRANCH   9  10
ATOM     10  C   UNL     1     -10.611 -26.073 -30.795  1.00  0.00    -0.003 C 
ATOM     11  C   UNL     1     -10.872 -25.145 -31.979  1.00  0.00     0.004 C 
ENDBRANCH   9  10
ENDBRANCH   8   9
ENDBRANCH   7   8
ENDBRANCH   1   7
TORSDOF 7
ENDMDL
MODEL 4
REMARK VINA RESULT:    -4.049      1.988      3.881
REMARK INTER + INTRA:          -6.477
REMARK INTER:                  -5.632
REMARK INTRA:                  -0.844
REMARK UNBOUND:                -0.771
REMARK SMILES CCCCCCCCC(=O)[O-]
REMARK SMILES IDX 6 1 7 2 8 3 9 4 10 5 11 6 5 7 4 8 3 9 2 10 1 11
REMARK H PARENT
REMARK Flexibility Score: inf
ROOT
ATOM      1  C   UNL     1     -13.148 -28.125 -32.807  1.00  0.00     0.000 C 
ENDROOT
BRANCH   1   2
ATOM      2  C   UNL     1     -12.481 -27.337 -31.673  1.00  0.00     0.006 C 
BRANCH   2   3
ATOM      3  C   UNL     1     -12.973 -25.888 -31.648  1.00  0.00     0.053 C 
BRANCH   3   4
ATOM      4  C   UNL     1     -11.984 -24.987 -32.318  1.00  0.00     0.041 C 
ATOM      5  O   UNL     1     -10.792 -25.361 -32.477  1.00  0.00    -0.550 OA
ATOM      6  O   UNL     1     -12.366 -23.714 -32.722  1.00  0.00    -0.550 OA
ENDBRANCH   3   4
ENDBRANCH   2   3
ENDBRANCH   1   2
BRANCH   1   7
ATOM      7  C   UNL     1     -12.111 -28.603 -33.830  1.00  0.00     0.000 C 
BRANCH   7   8
ATOM      8  C   UNL     1     -11.999 -27.616 -35.002  1.00  0.00    -0.000 C 
BRANCH   8   9
ATOM      9  C   UNL     1     -13.371 -27.135 -35.503  1.00  0.00    -0.000 C 
BRANCH   9  10
ATOM     10  C   UNL     1     -13.345 -25.678 -35.986  1.00  0.00    -0.003 C 
ATOM     11  C   UNL     1     -11.923 -25.121 -35.975  1.00  0.00     0.004 C 
ENDBRANCH   9  10
ENDBRANCH   8   9
ENDBRANCH   7   8
ENDBRANCH   1   7
TORSDOF 7
ENDMDL
MODEL 5
REMARK VINA RESULT:    -4.043      2.314      4.010
REMARK INTER + INTRA:          -6.469
REMARK INTER:                  -5.778
REMARK INTRA:                  -0.691
REMARK UNBOUND:                -0.771
REMARK SMILES CCCCCCCCC(=O)[O-]
REMARK SMILES IDX 6 1 7 2 8 3 9 4 10 5 11 6 5 7 4 8 3 9 2 10 1 11
REMARK H PARENT
REMARK Flexibility Score: inf
ROOT
ATOM      1  C   UNL     1     -12.911 -28.238 -32.555  1.00  0.00     0.000 C 
ENDROOT
BRANCH   1   2
ATOM      2  C   UNL     1     -12.743 -27.340 -31.323  1.00  0.00     0.006 C 
BRANCH   2   3
ATOM      3  C   UNL     1     -12.575 -25.874 -31.729  1.00  0.00     0.053 C 
BRANCH   3   4
ATOM      4  C   UNL     1     -11.127 -25.497 -31.746  1.00  0.00     0.041 C 
ATOM      5  O   UNL     1     -10.776 -24.347 -32.124  1.00  0.00    -0.550 OA
ATOM      6  O   UNL     1     -10.161 -26.430 -31.393  1.00  0.00    -0.550 OA
ENDBRANCH   3   4
ENDBRANCH   2   3
ENDBRANCH   1   2
BRANCH   1   7
ATOM      7  C   UNL     1     -13.765 -27.550 -33.626  1.00  0.00     0.000 C 
BRANCH   7   8
ATOM      8  C   UNL     1     -13.134 -27.709 -35.018  1.00  0.00    -0.000 C 
BRANCH   8   9
ATOM      9  C   UNL     1     -11.613 -27.484 -35.006  1.00  0.00    -0.000 C 
BRANCH   9  10
ATOM     10  C   UNL     1     -11.226 -26.044 -35.372  1.00  0.00    -0.003 C 
ATOM     11  C   UNL     1     -12.436 -25.264 -35.883  1.00  0.00     0.004 C 
ENDBRANCH   9  10
ENDBRANCH   8   9
ENDBRANCH   7   8
ENDBRANCH   1   7
TORSDOF 7
ENDMDL
MODEL 6
REMARK VINA RESULT:    -3.978      3.318      5.044
REMARK INTER + INTRA:          -6.376
REMARK INTER:                  -5.848
REMARK INTRA:                  -0.528
REMARK UNBOUND:                -0.771
REMARK SMILES CCCCCCCCC(=O)[O-]
REMARK SMILES IDX 6 1 7 2 8 3 9 4 10 5 11 6 5 7 4 8 3 9 2 10 1 11
REMARK H PARENT
REMARK Flexibility Score: inf
ROOT
ATOM      1  C   UNL     1     -11.176 -25.350 -32.423  1.00  0.00     0.000 C 
ENDROOT
BRANCH   1   2
ATOM      2  C   UNL     1     -11.893 -25.607 -31.092  1.00  0.00     0.006 C 
BRANCH   2   3
ATOM      3  C   UNL     1     -12.937 -26.718 -31.235  1.00  0.00     0.053 C 
BRANCH   3   4
ATOM      4  C   UNL     1     -12.367 -28.032 -30.805  1.00  0.00     0.041 C 
ATOM      5  O   UNL     1     -13.029 -29.092 -30.962  1.00  0.00    -0.550 OA
ATOM      6  O   UNL     1     -11.125 -28.082 -30.186  1.00  0.00    -0.550 OA
ENDBRANCH   3   4
ENDBRANCH   2   3
ENDBRANCH   1   2
BRANCH   1   7
ATOM      7  C   UNL     1     -12.071 -25.719 -33.612  1.00  0.00     0.000 C 
BRANCH   7   8
ATOM      8  C   UNL     1     -11.309 -26.585 -34.626  1.00  0.00    -0.000 C 
BRANCH   8   9
ATOM      9  C   UNL     1     -12.155 -27.752 -35.161  1.00  0.00    -0.000 C 
BRANCH   9  10
ATOM     10  C   UNL     1     -13.534 -27.837 -34.491  1.00  0.00    -0.003 C 
ATOM     11  C   UNL     1     -14.651 -27.602 -35.506  1.00  0.00     0.004 C 
ENDBRANCH   9  10
ENDBRANCH   8   9
ENDBRANCH   7   8
ENDBRANCH   1   7
TORSDOF 7
ENDMDL
MODEL 7
REMARK VINA RESULT:    -3.860      2.032      3.661
REMARK INTER + INTRA:          -6.210
REMARK INTER:                  -5.340
REMARK INTRA:                  -0.870
REMARK UNBOUND:                -0.771
REMARK SMILES CCCCCCCCC(=O)[O-]
REMARK SMILES IDX 6 1 7 2 8 3 9 4 10 5 11 6 5 7 4 8 3 9 2 10 1 11
REMARK H PARENT
REMARK Flexibility Score: inf
ROOT
ATOM      1  C   UNL     1     -10.672 -27.553 -31.260  1.00  0.00     0.000 C 
ENDROOT
BRANCH   1   2
ATOM      2  C   UNL     1     -10.534 -26.074 -30.880  1.00  0.00     0.006 C 
BRANCH   2   3
ATOM      3  C   UNL     1     -10.745 -25.171 -32.097  1.00  0.00     0.053 C 
BRANCH   3   4
ATOM      4  C   UNL     1     -12.142 -24.634 -32.116  1.00  0.00     0.041 C 
ATOM      5  O   UNL     1     -12.541 -23.940 -33.089  1.00  0.00    -0.550 OA
ATOM      6  O   UNL     1     -12.987 -24.858 -31.037  1.00  0.00    -0.550 OA
ENDBRANCH   3   4
ENDBRANCH   2   3
ENDBRANCH   1   2
BRANCH   1   7
ATOM      7  C   UNL     1     -11.798 -28.225 -30.465  1.00  0.00     0.000 C 
BRANCH   7   8
ATOM      8  C   UNL     1     -12.976 -28.587 -31.381  1.00  0.00    -0.000 C 
BRANCH   8   9
ATOM      9  C   UNL     1     -12.646 -28.402 -32.871  1.00  0.00    -0.000 C 
BRANCH   9  10
ATOM     10  C   UNL     1     -13.683 -27.538 -33.603  1.00  0.00    -0.003 C 
ATOM     11  C   UNL     1     -13.125 -27.013 -34.924  1.00  0.00     0.004 C 
ENDBRANCH   9  10
ENDBRANCH   8   9
ENDBRANCH   7   8
ENDBRANCH   1   7
TORSDOF 7
ENDMDL
MODEL 8
REMARK VINA RESULT:    -3.838      2.067      3.026
REMARK INTER + INTRA:          -6.180
REMARK INTER:                  -5.565
REMARK INTRA:                  -0.616
REMARK UNBOUND:                -0.771
REMARK SMILES CCCCCCCCC(=O)[O-]
REMARK SMILES IDX 6 1 7 2 8 3 9 4 10 5 11 6 5 7 4 8 3 9 2 10 1 11
REMARK H PARENT
REMARK Flexibility Score: inf
ROOT
ATOM      1  C   UNL     1     -12.242 -24.761 -33.662  1.00  0.00     0.000 C 
ENDROOT
BRANCH   1   2
ATOM      2  C   UNL     1     -11.761 -25.759 -34.722  1.00  0.00     0.006 C 
BRANCH   2   3
ATOM      3  C   UNL     1     -12.912 -26.188 -35.636  1.00  0.00     0.053 C 
BRANCH   3   4
ATOM      4  C   UNL     1     -13.535 -27.453 -35.136  1.00  0.00     0.041 C 
ATOM      5  O   UNL     1     -14.761 -27.673 -35.324  1.00  0.00    -0.550 OA
ATOM      6  O   UNL     1     -12.774 -28.367 -34.418  1.00  0.00    -0.550 OA
ENDBRANCH   3   4
ENDBRANCH   2   3
ENDBRANCH   1   2
BRANCH   1   7
ATOM      7  C   UNL     1     -12.210 -25.387 -32.262  1.00  0.00     0.000 C 
BRANCH   7   8
ATOM      8  C   UNL     1     -10.882 -26.118 -32.017  1.00  0.00    -0.000 C 
BRANCH   8   9
ATOM      9  C   UNL     1     -11.082 -27.526 -31.431  1.00  0.00    -0.000 C 
BRANCH   9  10
ATOM     10  C   UNL     1     -12.374 -27.646 -30.611  1.00  0.00    -0.003 C 
ATOM     11  C   UNL     1     -13.117 -28.938 -30.944  1.00  0.00     0.004 C 
ENDBRANCH   9  10
ENDBRANCH   8   9
ENDBRANCH   7   8
ENDBRANCH   1   7
TORSDOF 7
ENDMDL
MODEL 9
REMARK VINA RESULT:    -3.700      2.376      3.284
REMARK INTER + INTRA:          -5.985
REMARK INTER:                  -5.493
REMARK INTRA:                  -0.491
REMARK UNBOUND:                -0.771
REMARK SMILES CCCCCCCCC(=O)[O-]
REMARK SMILES IDX 6 1 7 2 8 3 9 4 10 5 11 6 5 7 4 8 3 9 2 10 1 11
REMARK H PARENT
REMARK Flexibility Score: inf
ROOT
ATOM      1  C   UNL     1     -13.004 -25.221 -35.989  1.00  0.00     0.000 C 
ENDROOT
BRANCH   1   2
ATOM      2  C   UNL     1     -11.949 -25.194 -34.876  1.00  0.00     0.006 C 
BRANCH   2   3
ATOM      3  C   UNL     1     -12.413 -24.331 -33.700  1.00  0.00     0.053 C 
BRANCH   3   4
ATOM      4  C   UNL     1     -11.760 -24.780 -32.431  1.00  0.00     0.041 C 
ATOM      5  O   UNL     1     -10.741 -25.519 -32.469  1.00  0.00    -0.550 OA
ATOM      6  O   UNL     1     -12.306 -24.424 -31.204  1.00  0.00    -0.550 OA
ENDBRANCH   3   4
ENDBRANCH   2   3
ENDBRANCH   1   2
BRANCH   1   7
ATOM      7  C   UNL     1     -13.927 -26.438 -35.845  1.00  0.00     0.000 C 
BRANCH   7   8
ATOM      8  C   UNL     1     -13.187 -27.613 -35.189  1.00  0.00    -0.000 C 
BRANCH   8   9
ATOM      9  C   UNL     1     -13.644 -27.868 -33.743  1.00  0.00    -0.000 C 
BRANCH   9  10
ATOM     10  C   UNL     1     -12.535 -28.477 -32.872  1.00  0.00    -0.003 C 
ATOM     11  C   UNL     1     -12.924 -28.456 -31.396  1.00  0.00     0.004 C 
ENDBRANCH   9  10
ENDBRANCH   8   9
ENDBRANCH   7   8
ENDBRANCH   1   7
TORSDOF 7
ENDMDL
