MODEL 1
REMARK VINA RESULT:    -0.899      0.000      0.000
REMARK INTER + INTRA:          -1.321
REMARK INTER:                  -1.083
REMARK INTRA:                  -0.238
REMARK UNBOUND:                -0.238
REMARK SMILES O=c1c(O)c(-c2ccc(O)cc2O)oc2cc(O)cc(O)c12
REMARK SMILES IDX 5 1 3 2 2 3 1 4 22 5 20 6 19 7 17 8 16 9 15 10 14 11 6 12
REMARK SMILES IDX 8 13 7 14 9 15 11 16 12 17 10 18 13 20 4 22 21 24 18 26
REMARK H PARENT 10 19 13 21 4 23 21 25 18 27
REMARK Flexibility Score: inf
ROOT
ATOM      1  C   UNL     1      16.045  -2.004  27.146  1.00  0.00     0.184 A 
ATOM      2  C   UNL     1      16.312  -1.546  28.447  1.00  0.00     0.208 A 
ATOM      3  C   UNL     1      16.109  -0.190  28.747  1.00  0.00     0.238 A 
ATOM      4  O   UNL     1      16.403   0.224  29.899  1.00  0.00    -0.285 OA
ATOM      5  C   UNL     1      15.621   0.687  27.749  1.00  0.00     0.111 A 
ATOM      6  C   UNL     1      15.340   2.071  27.953  1.00  0.00     0.134 A 
ATOM      7  C   UNL     1      14.984   2.872  26.860  1.00  0.00     0.093 A 
ATOM      8  C   UNL     1      14.835   2.324  25.584  1.00  0.00     0.123 A 
ATOM      9  C   UNL     1      15.049   0.962  25.386  1.00  0.00     0.094 A 
ATOM     10  C   UNL     1      15.441   0.145  26.450  1.00  0.00     0.146 A 
ATOM     11  O   UNL     1      15.647  -1.146  26.215  1.00  0.00    -0.451 OA
ENDROOT
BRANCH   1  12
ATOM     12  C   UNL     1      16.216  -3.426  26.768  1.00  0.00     0.063 A 
ATOM     13  C   UNL     1      15.274  -5.524  25.971  1.00  0.00     0.047 A 
ATOM     14  C   UNL     1      15.111  -4.191  26.354  1.00  0.00     0.020 A 
ATOM     15  C   UNL     1      16.546  -6.109  25.983  1.00  0.00     0.119 A 
ATOM     16  C   UNL     1      17.653  -5.353  26.378  1.00  0.00     0.093 A 
ATOM     17  C   UNL     1      17.497  -4.014  26.768  1.00  0.00     0.130 A 
BRANCH  15  18
ATOM     18  O   UNL     1      16.721  -7.437  25.602  1.00  0.00    -0.508 OA
ATOM     19  H   UNL     1      17.640  -7.863  25.572  1.00  0.00     0.293 HD
ENDBRANCH  15  18
BRANCH  17  20
ATOM     20  O   UNL     1      18.610  -3.274  27.166  1.00  0.00    -0.507 OA
ATOM     21  H   UNL     1      19.045  -2.596  26.552  1.00  0.00     0.293 HD
ENDBRANCH  17  20
ENDBRANCH   1  12
BRANCH   2  22
ATOM     22  O   UNL     1      16.805  -2.428  29.413  1.00  0.00    -0.502 OA
ATOM     23  H   UNL     1      17.039  -2.130  30.352  1.00  0.00     0.293 HD
ENDBRANCH   2  22
BRANCH   6  24
ATOM     24  O   UNL     1      15.369   2.698  29.202  1.00  0.00    -0.507 OA
ATOM     25  H   UNL     1      14.558   3.048  29.689  1.00  0.00     0.293 HD
ENDBRANCH   6  24
BRANCH   8  26
ATOM     26  O   UNL     1      14.464   3.125  24.506  1.00  0.00    -0.508 OA
ATOM     27  H   UNL     1      13.552   3.041  24.073  1.00  0.00     0.293 HD
ENDBRANCH   8  26
TORSDOF 6
ENDMDL
MODEL 2
REMARK VINA RESULT:    -0.121      2.784      6.164
REMARK INTER + INTRA:          -0.384
REMARK INTER:                  -0.121
REMARK INTRA:                  -0.263
REMARK UNBOUND:                -0.238
REMARK SMILES O=c1c(O)c(-c2ccc(O)cc2O)oc2cc(O)cc(O)c12
REMARK SMILES IDX 5 1 3 2 2 3 1 4 22 5 20 6 19 7 17 8 16 9 15 10 14 11 6 12
REMARK SMILES IDX 8 13 7 14 9 15 11 16 12 17 10 18 13 20 4 22 21 24 18 26
REMARK H PARENT 10 19 13 21 4 23 21 25 18 27
REMARK Flexibility Score: inf
ROOT
ATOM      1  C   UNL     1      16.254  -0.423  26.853  1.00  0.00     0.184 A 
ATOM      2  C   UNL     1      15.558  -0.908  27.973  1.00  0.00     0.208 A 
ATOM      3  C   UNL     1      16.217  -1.770  28.863  1.00  0.00     0.238 A 
ATOM      4  O   UNL     1      15.570  -2.245  29.833  1.00  0.00    -0.285 OA
ATOM      5  C   UNL     1      17.570  -2.119  28.634  1.00  0.00     0.111 A 
ATOM      6  C   UNL     1      18.347  -2.953  29.493  1.00  0.00     0.134 A 
ATOM      7  C   UNL     1      19.636  -3.336  29.101  1.00  0.00     0.093 A 
ATOM      8  C   UNL     1      20.199  -2.862  27.913  1.00  0.00     0.123 A 
ATOM      9  C   UNL     1      19.469  -2.000  27.097  1.00  0.00     0.094 A 
ATOM     10  C   UNL     1      18.167  -1.630  27.444  1.00  0.00     0.146 A 
ATOM     11  O   UNL     1      17.503  -0.816  26.632  1.00  0.00    -0.451 OA
ENDROOT
BRANCH   1  12
ATOM     12  C   UNL     1      15.627   0.508  25.886  1.00  0.00     0.063 A 
ATOM     13  C   UNL     1      14.719   0.953  23.672  1.00  0.00     0.047 A 
ATOM     14  C   UNL     1      15.335   0.086  24.576  1.00  0.00     0.020 A 
ATOM     15  C   UNL     1      14.373   2.251  24.066  1.00  0.00     0.119 A 
ATOM     16  C   UNL     1      14.645   2.676  25.369  1.00  0.00     0.093 A 
ATOM     17  C   UNL     1      15.267   1.812  26.283  1.00  0.00     0.130 A 
BRANCH  15  18
ATOM     18  O   UNL     1      13.758   3.125  23.172  1.00  0.00    -0.508 OA
ATOM     19  H   UNL     1      13.164   2.785  22.424  1.00  0.00     0.293 HD
ENDBRANCH  15  18
BRANCH  17  20
ATOM     20  O   UNL     1      15.539   2.252  27.579  1.00  0.00    -0.507 OA
ATOM     21  H   UNL     1      14.798   2.525  28.214  1.00  0.00     0.293 HD
ENDBRANCH  17  20
ENDBRANCH   1  12
BRANCH   2  22
ATOM     22  O   UNL     1      14.219  -0.559  28.170  1.00  0.00    -0.502 OA
ATOM     23  H   UNL     1      13.928   0.394  28.352  1.00  0.00     0.293 HD
ENDBRANCH   2  22
BRANCH   6  24
ATOM     24  O   UNL     1      17.916  -3.405  30.743  1.00  0.00    -0.507 OA
ATOM     25  H   UNL     1      18.444  -3.323  31.599  1.00  0.00     0.293 HD
ENDBRANCH   6  24
BRANCH   8  26
ATOM     26  O   UNL     1      21.488  -3.235  27.539  1.00  0.00    -0.508 OA
ATOM     27  H   UNL     1      21.754  -3.319  26.566  1.00  0.00     0.293 HD
ENDBRANCH   8  26
TORSDOF 6
ENDMDL
MODEL 3
REMARK VINA RESULT:     0.132      7.250     12.510
REMARK INTER + INTRA:          -0.079
REMARK INTER:                   0.011
REMARK INTRA:                  -0.090
REMARK UNBOUND:                -0.238
REMARK SMILES O=c1c(O)c(-c2ccc(O)cc2O)oc2cc(O)cc(O)c12
REMARK SMILES IDX 5 1 3 2 2 3 1 4 22 5 20 6 19 7 17 8 16 9 15 10 14 11 6 12
REMARK SMILES IDX 8 13 7 14 9 15 11 16 12 17 10 18 13 20 4 22 21 24 18 26
REMARK H PARENT 10 19 13 21 4 23 21 25 18 27
REMARK Flexibility Score: inf
ROOT
ATOM      1  C   UNL     1      14.426 -11.406  28.155  1.00  0.00     0.184 A 
ATOM      2  C   UNL     1      14.051 -11.501  29.506  1.00  0.00     0.208 A 
ATOM      3  C   UNL     1      14.130 -12.746  30.150  1.00  0.00     0.238 A 
ATOM      4  O   UNL     1      13.739 -12.834  31.343  1.00  0.00    -0.285 OA
ATOM      5  C   UNL     1      14.605 -13.875  29.442  1.00  0.00     0.111 A 
ATOM      6  C   UNL     1      14.764 -15.177  30.006  1.00  0.00     0.134 A 
ATOM      7  C   UNL     1      15.119 -16.249  29.178  1.00  0.00     0.093 A 
ATOM      8  C   UNL     1      15.383 -16.055  27.820  1.00  0.00     0.123 A 
ATOM      9  C   UNL     1      15.287 -14.778  27.273  1.00  0.00     0.094 A 
ATOM     10  C   UNL     1      14.900 -13.694  28.066  1.00  0.00     0.146 A 
ATOM     11  O   UNL     1      14.809 -12.496  27.501  1.00  0.00    -0.451 OA
ENDROOT
BRANCH   1  12
ATOM     12  C   UNL     1      14.389 -10.120  27.421  1.00  0.00     0.063 A 
ATOM     13  C   UNL     1      15.511  -8.415  26.096  1.00  0.00     0.047 A 
ATOM     14  C   UNL     1      15.551  -9.613  26.811  1.00  0.00     0.020 A 
ATOM     15  C   UNL     1      14.308  -7.711  25.969  1.00  0.00     0.119 A 
ATOM     16  C   UNL     1      13.145  -8.213  26.558  1.00  0.00     0.093 A 
ATOM     17  C   UNL     1      13.176  -9.415  27.282  1.00  0.00     0.130 A 
BRANCH  15  18
ATOM     18  O   UNL     1      14.257  -6.514  25.257  1.00  0.00    -0.508 OA
ATOM     19  H   UNL     1      13.764  -5.705  25.616  1.00  0.00     0.293 HD
ENDBRANCH  15  18
BRANCH  17  20
ATOM     20  O   UNL     1      12.009  -9.901  27.871  1.00  0.00    -0.507 OA
ATOM     21  H   UNL     1      11.093  -9.679  27.497  1.00  0.00     0.293 HD
ENDBRANCH  17  20
ENDBRANCH   1  12
BRANCH   2  22
ATOM     22  O   UNL     1      13.574 -10.373  30.180  1.00  0.00    -0.502 OA
ATOM     23  H   UNL     1      13.198 -10.420  31.120  1.00  0.00     0.293 HD
ENDBRANCH   2  22
BRANCH   6  24
ATOM     24  O   UNL     1      14.615 -15.462  31.366  1.00  0.00    -0.507 OA
ATOM     25  H   UNL     1      14.317 -14.796  32.064  1.00  0.00     0.293 HD
ENDBRANCH   6  24
BRANCH   8  26
ATOM     26  O   UNL     1      15.751 -17.125  27.008  1.00  0.00    -0.508 OA
ATOM     27  H   UNL     1      15.864 -18.059  27.381  1.00  0.00     0.293 HD
ENDBRANCH   8  26
TORSDOF 6
ENDMDL
MODEL 4
REMARK VINA RESULT:     0.132     10.336     12.120
REMARK INTER + INTRA:          -0.079
REMARK INTER:                   0.367
REMARK INTRA:                  -0.446
REMARK UNBOUND:                -0.238
REMARK SMILES O=c1c(O)c(-c2ccc(O)cc2O)oc2cc(O)cc(O)c12
REMARK SMILES IDX 5 1 3 2 2 3 1 4 22 5 20 6 19 7 17 8 16 9 15 10 14 11 6 12
REMARK SMILES IDX 8 13 7 14 9 15 11 16 12 17 10 18 13 20 4 22 21 24 18 26
REMARK H PARENT 10 19 13 21 4 23 21 25 18 27
REMARK Flexibility Score: inf
ROOT
ATOM      1  C   UNL     1      13.565 -13.044  28.688  1.00  0.00     0.184 A 
ATOM      2  C   UNL     1      12.234 -12.743  28.352  1.00  0.00     0.208 A 
ATOM      3  C   UNL     1      11.580 -11.701  29.028  1.00  0.00     0.238 A 
ATOM      4  O   UNL     1      10.371 -11.475  28.761  1.00  0.00    -0.285 OA
ATOM      5  C   UNL     1      12.271 -10.960  30.016  1.00  0.00     0.111 A 
ATOM      6  C   UNL     1      11.718  -9.858  30.736  1.00  0.00     0.134 A 
ATOM      7  C   UNL     1      12.449  -9.281  31.782  1.00  0.00     0.093 A 
ATOM      8  C   UNL     1      13.738  -9.724  32.091  1.00  0.00     0.123 A 
ATOM      9  C   UNL     1      14.308 -10.760  31.355  1.00  0.00     0.094 A 
ATOM     10  C   UNL     1      13.590 -11.379  30.329  1.00  0.00     0.146 A 
ATOM     11  O   UNL     1      14.167 -12.371  29.661  1.00  0.00    -0.451 OA
ENDROOT
BRANCH   1  12
ATOM     12  C   UNL     1      14.322 -14.114  27.998  1.00  0.00     0.063 A 
ATOM     13  C   UNL     1      15.409 -14.976  25.998  1.00  0.00     0.047 A 
ATOM     14  C   UNL     1      14.671 -13.980  26.642  1.00  0.00     0.020 A 
ATOM     15  C   UNL     1      15.820 -16.114  26.701  1.00  0.00     0.119 A 
ATOM     16  C   UNL     1      15.491 -16.250  28.053  1.00  0.00     0.093 A 
ATOM     17  C   UNL     1      14.747 -15.256  28.707  1.00  0.00     0.130 A 
BRANCH  15  18
ATOM     18  O   UNL     1      16.556 -17.113  26.069  1.00  0.00    -0.508 OA
ATOM     19  H   UNL     1      16.145 -17.703  25.354  1.00  0.00     0.293 HD
ENDBRANCH  15  18
BRANCH  17  20
ATOM     20  O   UNL     1      14.421 -15.408  30.055  1.00  0.00    -0.507 OA
ATOM     21  H   UNL     1      14.218 -14.611  30.646  1.00  0.00     0.293 HD
ENDBRANCH  17  20
ENDBRANCH   1  12
BRANCH   2  22
ATOM     22  O   UNL     1      11.570 -13.498  27.381  1.00  0.00    -0.502 OA
ATOM     23  H   UNL     1      11.971 -13.683  26.469  1.00  0.00     0.293 HD
ENDBRANCH   2  22
BRANCH   6  24
ATOM     24  O   UNL     1      10.479  -9.279  30.448  1.00  0.00    -0.507 OA
ATOM     25  H   UNL     1      10.273  -8.746  29.616  1.00  0.00     0.293 HD
ENDBRANCH   6  24
BRANCH   8  26
ATOM     26  O   UNL     1      14.464  -9.132  33.122  1.00  0.00    -0.508 OA
ATOM     27  H   UNL     1      14.363  -9.436  34.083  1.00  0.00     0.293 HD
ENDBRANCH   8  26
TORSDOF 6
ENDMDL
MODEL 5
REMARK VINA RESULT:     1.800      7.210     10.680
REMARK INTER + INTRA:           1.931
REMARK INTER:                   2.317
REMARK INTRA:                  -0.386
REMARK UNBOUND:                -0.238
REMARK SMILES O=c1c(O)c(-c2ccc(O)cc2O)oc2cc(O)cc(O)c12
REMARK SMILES IDX 5 1 3 2 2 3 1 4 22 5 20 6 19 7 17 8 16 9 15 10 14 11 6 12
REMARK SMILES IDX 8 13 7 14 9 15 11 16 12 17 10 18 13 20 4 22 21 24 18 26
REMARK H PARENT 10 19 13 21 4 23 21 25 18 27
REMARK Flexibility Score: inf
ROOT
ATOM      1  C   UNL     1      14.049 -11.996  28.380  1.00  0.00     0.184 A 
ATOM      2  C   UNL     1      12.739 -11.490  28.444  1.00  0.00     0.208 A 
ATOM      3  C   UNL     1      12.466 -10.234  27.881  1.00  0.00     0.238 A 
ATOM      4  O   UNL     1      11.304  -9.763  27.992  1.00  0.00    -0.285 OA
ATOM      5  C   UNL     1      13.500  -9.509  27.242  1.00  0.00     0.111 A 
ATOM      6  C   UNL     1      13.327  -8.244  26.602  1.00  0.00     0.134 A 
ATOM      7  C   UNL     1      14.446  -7.559  26.114  1.00  0.00     0.093 A 
ATOM      8  C   UNL     1      15.723  -8.121  26.185  1.00  0.00     0.123 A 
ATOM      9  C   UNL     1      15.894  -9.380  26.755  1.00  0.00     0.094 A 
ATOM     10  C   UNL     1      14.801 -10.073  27.283  1.00  0.00     0.146 A 
ATOM     11  O   UNL     1      15.010 -11.265  27.828  1.00  0.00    -0.451 OA
ENDROOT
BRANCH   1  12
ATOM     12  C   UNL     1      14.402 -13.324  28.934  1.00  0.00     0.063 A 
ATOM     13  C   UNL     1      14.631 -14.821  30.839  1.00  0.00     0.047 A 
ATOM     14  C   UNL     1      14.325 -13.562  30.318  1.00  0.00     0.020 A 
ATOM     15  C   UNL     1      15.005 -15.865  29.984  1.00  0.00     0.119 A 
ATOM     16  C   UNL     1      15.069 -15.642  28.605  1.00  0.00     0.093 A 
ATOM     17  C   UNL     1      14.767 -14.380  28.074  1.00  0.00     0.130 A 
BRANCH  15  18
ATOM     18  O   UNL     1      15.311 -17.125  30.492  1.00  0.00    -0.508 OA
ATOM     19  H   UNL     1      15.370 -17.939  29.890  1.00  0.00     0.293 HD
ENDBRANCH  15  18
BRANCH  17  20
ATOM     20  O   UNL     1      14.842 -14.170  26.697  1.00  0.00    -0.507 OA
ATOM     21  H   UNL     1      15.463 -13.477  26.298  1.00  0.00     0.293 HD
ENDBRANCH  17  20
ENDBRANCH   1  12
BRANCH   2  22
ATOM     22  O   UNL     1      11.738 -12.219  29.092  1.00  0.00    -0.502 OA
ATOM     23  H   UNL     1      11.018 -12.721  28.586  1.00  0.00     0.293 HD
ENDBRANCH   2  22
BRANCH   6  24
ATOM     24  O   UNL     1      12.085  -7.637  26.396  1.00  0.00    -0.507 OA
ATOM     25  H   UNL     1      11.294  -8.080  25.953  1.00  0.00     0.293 HD
ENDBRANCH   6  24
BRANCH   8  26
ATOM     26  O   UNL     1      16.829  -7.438  25.683  1.00  0.00    -0.508 OA
ATOM     27  H   UNL     1      17.751  -7.857  25.674  1.00  0.00     0.293 HD
ENDBRANCH   8  26
TORSDOF 6
ENDMDL
