MODEL 1
REMARK VINA RESULT:    -4.639      0.000      0.000
REMARK INTER + INTRA:          -6.964
REMARK INTER:                  -7.080
REMARK INTRA:                   0.116
REMARK UNBOUND:                 0.116
REMARK SMILES CC1=CCC[C@H](C)C(=O)C[C@@H](C(C)C)C(=O)C1
REMARK SMILES IDX 8 1 9 2 6 3 7 4 5 5 4 6 3 7 2 8 1 9 10 11 11 12 15 13 16 14
REMARK SMILES IDX 17 15 12 17 13 18 14 19
REMARK H PARENT
REMARK Flexibility Score: 70.00
ROOT
ATOM      1  C   UNL     1     122.139 178.523 129.447  1.00  0.00     0.136 C 
ATOM      2  O   UNL     1     121.891 179.424 130.238  1.00  0.00    -0.299 OA
ENDROOT
BRANCH   1   3
ATOM      3  C   UNL     1     122.538 177.154 129.965  1.00  0.00     0.053 C 
ATOM      4  C   UNL     1     123.967 177.173 130.531  1.00  0.00     0.016 C 
BRANCH   3   5
ATOM      5  C   UNL     1     121.526 176.669 131.034  1.00  0.00     0.015 C 
BRANCH   5   6
ATOM      6  C   UNL     1     120.196 176.204 130.411  1.00  0.00     0.028 C 
BRANCH   6   7
ATOM      7  C   UNL     1     120.409 175.049 129.467  1.00  0.00    -0.028 C 
ATOM      8  C   UNL     1     120.008 175.025 128.174  1.00  0.00    -0.070 CG0
ATOM      9  C   UNL     1     120.254 173.769 127.378  1.00  0.00     0.039 C 
ATOM     10  G   UNL     1     119.327 176.203 127.496  1.00  0.00     0.000 G0
ENDBRANCH   6   7
ENDBRANCH   5   6
ENDBRANCH   3   5
ENDBRANCH   1   3
BRANCH   1  11
ATOM     11  C   UNL     1     122.012 178.796 127.966  1.00  0.00     0.087 C 
BRANCH  11  12
ATOM     12  C   UNL     1     120.561 178.582 127.461  1.00  0.00     0.066 C 
BRANCH  12  13
ATOM     13  C   UNL     1     120.343 177.183 126.894  1.00  0.00     0.140 C 
ATOM     14  O   UNL     1     121.063 176.806 125.981  1.00  0.00    -0.299 OA
BRANCH  13  15
ATOM     15  C   UNL     1     119.346 176.212 127.479  1.00  0.00     0.106 CG0
ATOM     16  G   UNL     1     120.020 175.036 128.168  1.00  0.00     0.000 G0
ENDBRANCH  13  15
ENDBRANCH  12  13
BRANCH  12  17
ATOM     17  C   UNL     1     120.042 179.701 126.498  1.00  0.00    -0.006 C 
ATOM     18  C   UNL     1     120.874 179.749 125.204  1.00  0.00     0.008 C 
ATOM     19  C   UNL     1     118.548 179.600 126.139  1.00  0.00     0.008 C 
ENDBRANCH  12  17
ENDBRANCH  11  12
ENDBRANCH   1  11
TORSDOF 1
ENDMDL
MODEL 2
REMARK VINA RESULT:    -4.512      2.324      4.778
REMARK INTER + INTRA:          -6.770
REMARK INTER:                  -6.802
REMARK INTRA:                   0.033
REMARK UNBOUND:                 0.116
REMARK SMILES CC1=CCC[C@H](C)C(=O)C[C@@H](C(C)C)C(=O)C1
REMARK SMILES IDX 8 1 9 2 6 3 7 4 5 5 4 6 3 7 2 8 1 9 10 11 11 12 15 13 16 14
REMARK SMILES IDX 17 15 12 17 13 18 14 19
REMARK H PARENT
REMARK Flexibility Score: 70.00
ROOT
ATOM      1  C   UNL     1     119.057 178.367 126.408  1.00  0.00     0.136 C 
ATOM      2  O   UNL     1     118.251 179.219 126.760  1.00  0.00    -0.299 OA
ENDROOT
BRANCH   1   3
ATOM      3  C   UNL     1     120.108 178.709 125.368  1.00  0.00     0.053 C 
ATOM      4  C   UNL     1     119.456 179.128 124.042  1.00  0.00     0.016 C 
BRANCH   3   5
ATOM      5  C   UNL     1     121.048 179.821 125.900  1.00  0.00     0.015 C 
BRANCH   5   6
ATOM      6  C   UNL     1     122.429 179.275 126.307  1.00  0.00     0.028 C 
BRANCH   6   7
ATOM      7  C   UNL     1     122.762 178.013 125.553  1.00  0.00    -0.028 C 
ATOM      8  C   UNL     1     122.851 176.782 126.109  1.00  0.00    -0.070 CG0
ATOM      9  C   UNL     1     123.245 175.629 125.221  1.00  0.00     0.039 C 
ATOM     10  G   UNL     1     122.569 176.515 127.579  1.00  0.00     0.000 G0
ENDBRANCH   6   7
ENDBRANCH   5   6
ENDBRANCH   3   5
ENDBRANCH   1   3
BRANCH   1  11
ATOM     11  C   UNL     1     118.999 176.998 127.046  1.00  0.00     0.087 C 
BRANCH  11  12
ATOM     12  C   UNL     1     120.017 176.858 128.206  1.00  0.00     0.066 C 
BRANCH  12  13
ATOM     13  C   UNL     1     121.197 175.964 127.839  1.00  0.00     0.140 C 
ATOM     14  O   UNL     1     120.992 174.771 127.664  1.00  0.00    -0.299 OA
BRANCH  13  15
ATOM     15  C   UNL     1     122.584 176.506 127.587  1.00  0.00     0.106 CG0
ATOM     16  G   UNL     1     122.837 176.785 126.114  1.00  0.00     0.000 G0
ENDBRANCH  13  15
ENDBRANCH  12  13
BRANCH  12  17
ATOM     17  C   UNL     1     119.379 176.464 129.580  1.00  0.00    -0.006 C 
ATOM     18  C   UNL     1     118.316 175.366 129.404  1.00  0.00     0.008 C 
ATOM     19  C   UNL     1     120.388 176.028 130.658  1.00  0.00     0.008 C 
ENDBRANCH  12  17
ENDBRANCH  11  12
ENDBRANCH   1  11
TORSDOF 1
ENDMDL
MODEL 3
REMARK VINA RESULT:    -4.478      2.427      4.131
REMARK INTER + INTRA:          -6.718
REMARK INTER:                  -6.788
REMARK INTRA:                   0.070
REMARK UNBOUND:                 0.116
REMARK SMILES CC1=CCC[C@H](C)C(=O)C[C@@H](C(C)C)C(=O)C1
REMARK SMILES IDX 8 1 9 2 6 3 7 4 5 5 4 6 3 7 2 8 1 9 10 11 11 12 15 13 16 14
REMARK SMILES IDX 17 15 12 17 13 18 14 19
REMARK H PARENT
REMARK Flexibility Score: 70.00
ROOT
ATOM      1  C   UNL     1     119.460 179.414 126.230  1.00  0.00     0.136 C 
ATOM      2  O   UNL     1     119.620 179.797 127.381  1.00  0.00    -0.299 OA
ENDROOT
BRANCH   1   3
ATOM      3  C   UNL     1     118.172 178.713 125.840  1.00  0.00     0.053 C 
ATOM      4  C   UNL     1     117.702 179.158 124.446  1.00  0.00     0.016 C 
BRANCH   3   5
ATOM      5  C   UNL     1     118.358 177.175 125.898  1.00  0.00     0.015 C 
BRANCH   5   6
ATOM      6  C   UNL     1     119.105 176.724 127.166  1.00  0.00     0.028 C 
BRANCH   6   7
ATOM      7  C   UNL     1     120.160 175.697 126.844  1.00  0.00    -0.028 C 
ATOM      8  C   UNL     1     121.492 175.930 126.854  1.00  0.00    -0.070 CG0
ATOM      9  C   UNL     1     122.413 174.804 126.456  1.00  0.00     0.039 C 
ATOM     10  G   UNL     1     122.097 177.268 127.249  1.00  0.00     0.000 G0
ENDBRANCH   6   7
ENDBRANCH   5   6
ENDBRANCH   3   5
ENDBRANCH   1   3
BRANCH   1  11
ATOM     11  C   UNL     1     120.549 179.678 125.215  1.00  0.00     0.087 C 
BRANCH  11  12
ATOM     12  C   UNL     1     121.408 178.415 124.947  1.00  0.00     0.066 C 
BRANCH  12  13
ATOM     13  C   UNL     1     122.414 178.149 126.062  1.00  0.00     0.140 C 
ATOM     14  O   UNL     1     123.488 178.734 126.028  1.00  0.00    -0.299 OA
BRANCH  13  15
ATOM     15  C   UNL     1     122.102 177.274 127.252  1.00  0.00     0.106 CG0
ATOM     16  G   UNL     1     121.516 175.932 126.845  1.00  0.00     0.000 G0
ENDBRANCH  13  15
ENDBRANCH  12  13
BRANCH  12  17
ATOM     17  C   UNL     1     122.068 178.373 123.528  1.00  0.00    -0.006 C 
ATOM     18  C   UNL     1     122.619 176.971 123.214  1.00  0.00     0.008 C 
ATOM     19  C   UNL     1     121.152 178.830 122.378  1.00  0.00     0.008 C 
ENDBRANCH  12  17
ENDBRANCH  11  12
ENDBRANCH   1  11
TORSDOF 1
ENDMDL
MODEL 4
REMARK VINA RESULT:    -4.462      2.402      4.890
REMARK INTER + INTRA:          -6.694
REMARK INTER:                  -6.849
REMARK INTRA:                   0.155
REMARK UNBOUND:                 0.116
REMARK SMILES CC1=CCC[C@H](C)C(=O)C[C@@H](C(C)C)C(=O)C1
REMARK SMILES IDX 8 1 9 2 6 3 7 4 5 5 4 6 3 7 2 8 1 9 10 11 11 12 15 13 16 14
REMARK SMILES IDX 17 15 12 17 13 18 14 19
REMARK H PARENT
REMARK Flexibility Score: 70.00
ROOT
ATOM      1  C   UNL     1     122.157 176.217 126.482  1.00  0.00     0.136 C 
ATOM      2  O   UNL     1     121.917 175.070 126.128  1.00  0.00    -0.299 OA
ENDROOT
BRANCH   1   3
ATOM      3  C   UNL     1     122.931 177.144 125.563  1.00  0.00     0.053 C 
ATOM      4  C   UNL     1     123.951 176.361 124.722  1.00  0.00     0.016 C 
BRANCH   3   5
ATOM      5  C   UNL     1     121.956 177.936 124.655  1.00  0.00     0.015 C 
BRANCH   5   6
ATOM      6  C   UNL     1     121.575 179.301 125.258  1.00  0.00     0.028 C 
BRANCH   6   7
ATOM      7  C   UNL     1     120.141 179.653 124.952  1.00  0.00    -0.028 C 
ATOM      8  C   UNL     1     119.091 179.383 125.761  1.00  0.00    -0.070 CG0
ATOM      9  C   UNL     1     117.711 179.757 125.282  1.00  0.00     0.039 C 
ATOM     10  G   UNL     1     119.242 178.725 127.124  1.00  0.00     0.000 G0
ENDBRANCH   6   7
ENDBRANCH   5   6
ENDBRANCH   3   5
ENDBRANCH   1   3
BRANCH   1  11
ATOM     11  C   UNL     1     121.646 176.689 127.824  1.00  0.00     0.087 C 
BRANCH  11  12
ATOM     12  C   UNL     1     120.137 176.381 128.009  1.00  0.00     0.066 C 
BRANCH  12  13
ATOM     13  C   UNL     1     119.255 177.226 127.096  1.00  0.00     0.140 C 
ATOM     14  O   UNL     1     118.479 176.655 126.344  1.00  0.00    -0.299 OA
BRANCH  13  15
ATOM     15  C   UNL     1     119.230 178.735 127.154  1.00  0.00     0.106 CG0
ATOM     16  G   UNL     1     119.096 179.365 125.777  1.00  0.00     0.000 G0
ENDBRANCH  13  15
ENDBRANCH  12  13
BRANCH  12  17
ATOM     17  C   UNL     1     119.651 176.408 129.496  1.00  0.00    -0.006 C 
ATOM     18  C   UNL     1     118.172 175.995 129.605  1.00  0.00     0.008 C 
ATOM     19  C   UNL     1     120.490 175.555 130.464  1.00  0.00     0.008 C 
ENDBRANCH  12  17
ENDBRANCH  11  12
ENDBRANCH   1  11
TORSDOF 1
ENDMDL
MODEL 5
REMARK VINA RESULT:    -4.411      2.157      3.873
REMARK INTER + INTRA:          -6.615
REMARK INTER:                  -6.791
REMARK INTRA:                   0.176
REMARK UNBOUND:                 0.116
REMARK SMILES CC1=CCC[C@H](C)C(=O)C[C@@H](C(C)C)C(=O)C1
REMARK SMILES IDX 8 1 9 2 6 3 7 4 5 5 4 6 3 7 2 8 1 9 10 11 11 12 15 13 16 14
REMARK SMILES IDX 17 15 12 17 13 18 14 19
REMARK H PARENT
REMARK Flexibility Score: 70.00
ROOT
ATOM      1  C   UNL     1     121.309 179.329 126.816  1.00  0.00     0.136 C 
ATOM      2  O   UNL     1     121.207 179.367 128.036  1.00  0.00    -0.299 OA
ENDROOT
BRANCH   1   3
ATOM      3  C   UNL     1     120.170 179.833 125.949  1.00  0.00     0.053 C 
ATOM      4  C   UNL     1     120.389 179.453 124.476  1.00  0.00     0.016 C 
BRANCH   3   5
ATOM      5  C   UNL     1     118.816 179.282 126.467  1.00  0.00     0.015 C 
BRANCH   5   6
ATOM      6  C   UNL     1     118.650 177.778 126.182  1.00  0.00     0.028 C 
BRANCH   6   7
ATOM      7  C   UNL     1     118.858 176.958 127.430  1.00  0.00    -0.028 C 
ATOM      8  C   UNL     1     119.754 175.951 127.550  1.00  0.00    -0.070 CG0
ATOM      9  C   UNL     1     119.802 175.196 128.854  1.00  0.00     0.039 C 
ATOM     10  G   UNL     1     120.710 175.555 126.436  1.00  0.00     0.000 G0
ENDBRANCH   6   7
ENDBRANCH   5   6
ENDBRANCH   3   5
ENDBRANCH   1   3
BRANCH   1  11
ATOM     11  C   UNL     1     122.588 178.805 126.206  1.00  0.00     0.087 C 
BRANCH  11  12
ATOM     12  C   UNL     1     122.378 177.436 125.509  1.00  0.00     0.066 C 
BRANCH  12  13
ATOM     13  C   UNL     1     122.028 176.328 126.497  1.00  0.00     0.140 C 
ATOM     14  O   UNL     1     122.794 176.112 127.425  1.00  0.00    -0.299 OA
BRANCH  13  15
ATOM     15  C   UNL     1     120.731 175.557 126.433  1.00  0.00     0.106 CG0
ATOM     16  G   UNL     1     119.771 175.948 127.545  1.00  0.00     0.000 G0
ENDBRANCH  13  15
ENDBRANCH  12  13
BRANCH  12  17
ATOM     17  C   UNL     1     123.533 177.022 124.537  1.00  0.00    -0.006 C 
ATOM     18  C   UNL     1     123.203 177.409 123.085  1.00  0.00     0.008 C 
ATOM     19  C   UNL     1     124.919 177.580 124.910  1.00  0.00     0.008 C 
ENDBRANCH  12  17
ENDBRANCH  11  12
ENDBRANCH   1  11
TORSDOF 1
ENDMDL
MODEL 6
REMARK VINA RESULT:    -4.375      2.202      5.023
REMARK INTER + INTRA:          -6.560
REMARK INTER:                  -6.339
REMARK INTRA:                  -0.221
REMARK UNBOUND:                 0.116
REMARK SMILES CC1=CCC[C@H](C)C(=O)C[C@@H](C(C)C)C(=O)C1
REMARK SMILES IDX 8 1 9 2 6 3 7 4 5 5 4 6 3 7 2 8 1 9 10 11 11 12 15 13 16 14
REMARK SMILES IDX 17 15 12 17 13 18 14 19
REMARK H PARENT
REMARK Flexibility Score: 70.00
ROOT
ATOM      1  C   UNL     1     121.478 174.430 127.471  1.00  0.00     0.136 C 
ATOM      2  O   UNL     1     120.336 174.158 127.124  1.00  0.00    -0.299 OA
ENDROOT
BRANCH   1   3
ATOM      3  C   UNL     1     122.620 174.293 126.482  1.00  0.00     0.053 C 
ATOM      4  C   UNL     1     122.762 172.840 126.002  1.00  0.00     0.016 C 
BRANCH   3   5
ATOM      5  C   UNL     1     122.410 175.254 125.283  1.00  0.00     0.015 C 
BRANCH   5   6
ATOM      6  C   UNL     1     123.066 176.628 125.514  1.00  0.00     0.028 C 
BRANCH   6   7
ATOM      7  C   UNL     1     122.029 177.697 125.745  1.00  0.00    -0.028 C 
ATOM      8  C   UNL     1     121.774 178.280 126.939  1.00  0.00    -0.070 CG0
ATOM      9  C   UNL     1     120.665 179.300 127.009  1.00  0.00     0.039 C 
ATOM     10  G   UNL     1     122.554 177.956 128.203  1.00  0.00     0.000 G0
ENDBRANCH   6   7
ENDBRANCH   5   6
ENDBRANCH   3   5
ENDBRANCH   1   3
BRANCH   1  11
ATOM     11  C   UNL     1     121.714 174.926 128.879  1.00  0.00     0.087 C 
BRANCH  11  12
ATOM     12  C   UNL     1     120.833 176.158 129.213  1.00  0.00     0.066 C 
BRANCH  12  13
ATOM     13  C   UNL     1     121.646 177.443 129.321  1.00  0.00     0.140 C 
ATOM     14  O   UNL     1     121.634 178.053 130.381  1.00  0.00    -0.299 OA
BRANCH  13  15
ATOM     15  C   UNL     1     122.541 177.938 128.210  1.00  0.00     0.106 CG0
ATOM     16  G   UNL     1     121.763 178.270 126.946  1.00  0.00     0.000 G0
ENDBRANCH  13  15
ENDBRANCH  12  13
BRANCH  12  17
ATOM     17  C   UNL     1     119.878 175.955 130.438  1.00  0.00    -0.006 C 
ATOM     18  C   UNL     1     118.422 176.286 130.067  1.00  0.00     0.008 C 
ATOM     19  C   UNL     1     119.936 174.554 131.074  1.00  0.00     0.008 C 
ENDBRANCH  12  17
ENDBRANCH  11  12
ENDBRANCH   1  11
TORSDOF 1
ENDMDL
MODEL 7
REMARK VINA RESULT:    -4.356      1.788      2.704
REMARK INTER + INTRA:          -6.532
REMARK INTER:                  -6.666
REMARK INTRA:                   0.134
REMARK UNBOUND:                 0.116
REMARK SMILES CC1=CCC[C@H](C)C(=O)C[C@@H](C(C)C)C(=O)C1
REMARK SMILES IDX 8 1 9 2 6 3 7 4 5 5 4 6 3 7 2 8 1 9 10 11 11 12 15 13 16 14
REMARK SMILES IDX 17 15 12 17 13 18 14 19
REMARK H PARENT
REMARK Flexibility Score: 70.00
ROOT
ATOM      1  C   UNL     1     120.904 176.461 129.896  1.00  0.00     0.136 C 
ATOM      2  O   UNL     1     122.007 176.094 130.281  1.00  0.00    -0.299 OA
ENDROOT
BRANCH   1   3
ATOM      3  C   UNL     1     119.654 175.892 130.542  1.00  0.00     0.053 C 
ATOM      4  C   UNL     1     118.398 176.281 129.746  1.00  0.00     0.016 C 
BRANCH   3   5
ATOM      5  C   UNL     1     119.771 174.353 130.676  1.00  0.00     0.015 C 
BRANCH   5   6
ATOM      6  C   UNL     1     119.551 173.631 129.334  1.00  0.00     0.028 C 
BRANCH   6   7
ATOM      7  C   UNL     1     120.846 173.083 128.789  1.00  0.00    -0.028 C 
ATOM      8  C   UNL     1     121.378 173.411 127.589  1.00  0.00    -0.070 CG0
ATOM      9  C   UNL     1     122.657 172.732 127.170  1.00  0.00     0.039 C 
ATOM     10  G   UNL     1     120.746 174.429 126.653  1.00  0.00     0.000 G0
ENDBRANCH   6   7
ENDBRANCH   5   6
ENDBRANCH   3   5
ENDBRANCH   1   3
BRANCH   1  11
ATOM     11  C   UNL     1     120.820 177.498 128.801  1.00  0.00     0.087 C 
BRANCH  11  12
ATOM     12  C   UNL     1     120.285 176.897 127.475  1.00  0.00     0.066 C 
BRANCH  12  13
ATOM     13  C   UNL     1     121.212 175.830 126.904  1.00  0.00     0.140 C 
ATOM     14  O   UNL     1     122.390 176.112 126.737  1.00  0.00    -0.299 OA
BRANCH  13  15
ATOM     15  C   UNL     1     120.759 174.416 126.631  1.00  0.00     0.106 CG0
ATOM     16  G   UNL     1     121.385 173.414 127.588  1.00  0.00     0.000 G0
ENDBRANCH  13  15
ENDBRANCH  12  13
BRANCH  12  17
ATOM     17  C   UNL     1     119.873 177.962 126.404  1.00  0.00    -0.006 C 
ATOM     18  C   UNL     1     118.343 178.049 126.267  1.00  0.00     0.008 C 
ATOM     19  C   UNL     1     120.444 179.372 126.645  1.00  0.00     0.008 C 
ENDBRANCH  12  17
ENDBRANCH  11  12
ENDBRANCH   1  11
TORSDOF 1
ENDMDL
MODEL 8
REMARK VINA RESULT:    -4.274      1.840      3.891
REMARK INTER + INTRA:          -6.407
REMARK INTER:                  -6.470
REMARK INTRA:                   0.063
REMARK UNBOUND:                 0.116
REMARK SMILES CC1=CCC[C@H](C)C(=O)C[C@@H](C(C)C)C(=O)C1
REMARK SMILES IDX 8 1 9 2 6 3 7 4 5 5 4 6 3 7 2 8 1 9 10 11 11 12 15 13 16 14
REMARK SMILES IDX 17 15 12 17 13 18 14 19
REMARK H PARENT
REMARK Flexibility Score: 70.00
ROOT
ATOM      1  C   UNL     1     121.132 178.397 126.814  1.00  0.00     0.136 C 
ATOM      2  O   UNL     1     120.067 178.263 126.225  1.00  0.00    -0.299 OA
ENDROOT
BRANCH   1   3
ATOM      3  C   UNL     1     122.430 178.432 126.028  1.00  0.00     0.053 C 
ATOM      4  C   UNL     1     123.378 179.509 126.578  1.00  0.00     0.016 C 
BRANCH   3   5
ATOM      5  C   UNL     1     123.105 177.037 126.044  1.00  0.00     0.015 C 
BRANCH   5   6
ATOM      6  C   UNL     1     122.195 175.940 125.462  1.00  0.00     0.028 C 
BRANCH   6   7
ATOM      7  C   UNL     1     122.263 174.679 126.285  1.00  0.00    -0.028 C 
ATOM      8  C   UNL     1     121.492 174.420 127.366  1.00  0.00    -0.070 CG0
ATOM      9  C   UNL     1     121.723 173.129 128.110  1.00  0.00     0.039 C 
ATOM     10  G   UNL     1     120.409 175.367 127.857  1.00  0.00     0.000 G0
ENDBRANCH   6   7
ENDBRANCH   5   6
ENDBRANCH   3   5
ENDBRANCH   1   3
BRANCH   1  11
ATOM     11  C   UNL     1     121.121 178.554 128.318  1.00  0.00     0.087 C 
BRANCH  11  12
ATOM     12  C   UNL     1     121.755 177.332 129.031  1.00  0.00     0.066 C 
BRANCH  12  13
ATOM     13  C   UNL     1     120.806 176.140 129.097  1.00  0.00     0.140 C 
ATOM     14  O   UNL     1     120.299 175.858 130.173  1.00  0.00    -0.299 OA
BRANCH  13  15
ATOM     15  C   UNL     1     120.391 175.359 127.873  1.00  0.00     0.106 CG0
ATOM     16  G   UNL     1     121.490 174.432 127.379  1.00  0.00     0.000 G0
ENDBRANCH  13  15
ENDBRANCH  12  13
BRANCH  12  17
ATOM     17  C   UNL     1     122.395 177.659 130.422  1.00  0.00    -0.006 C 
ATOM     18  C   UNL     1     123.839 177.133 130.505  1.00  0.00     0.008 C 
ATOM     19  C   UNL     1     122.373 179.149 130.808  1.00  0.00     0.008 C 
ENDBRANCH  12  17
ENDBRANCH  11  12
ENDBRANCH   1  11
TORSDOF 1
ENDMDL
MODEL 9
REMARK VINA RESULT:    -4.226      2.414      5.043
REMARK INTER + INTRA:          -6.334
REMARK INTER:                  -6.575
REMARK INTRA:                   0.241
REMARK UNBOUND:                 0.116
REMARK SMILES CC1=CCC[C@H](C)C(=O)C[C@@H](C(C)C)C(=O)C1
REMARK SMILES IDX 8 1 9 2 6 3 7 4 5 5 4 6 3 7 2 8 1 9 10 11 11 12 15 13 16 14
REMARK SMILES IDX 17 15 12 17 13 18 14 19
REMARK H PARENT
REMARK Flexibility Score: 70.00
ROOT
ATOM      1  C   UNL     1     119.605 177.119 127.904  1.00  0.00     0.136 C 
ATOM      2  O   UNL     1     118.645 176.797 128.592  1.00  0.00    -0.299 OA
ENDROOT
BRANCH   1   3
ATOM      3  C   UNL     1     119.381 177.762 126.548  1.00  0.00     0.053 C 
ATOM      4  C   UNL     1     118.097 177.229 125.892  1.00  0.00     0.016 C 
BRANCH   3   5
ATOM      5  C   UNL     1     119.332 179.305 126.687  1.00  0.00     0.015 C 
BRANCH   5   6
ATOM      6  C   UNL     1     120.340 180.007 125.757  1.00  0.00     0.028 C 
BRANCH   6   7
ATOM      7  C   UNL     1     121.292 179.017 125.135  1.00  0.00    -0.028 C 
ATOM      8  C   UNL     1     122.529 178.737 125.605  1.00  0.00    -0.070 CG0
ATOM      9  C   UNL     1     123.377 177.757 124.835  1.00  0.00     0.039 C 
ATOM     10  G   UNL     1     123.097 179.363 126.870  1.00  0.00     0.000 G0
ENDBRANCH   6   7
ENDBRANCH   5   6
ENDBRANCH   3   5
ENDBRANCH   1   3
BRANCH   1  11
ATOM     11  C   UNL     1     120.999 176.891 128.444  1.00  0.00     0.087 C 
BRANCH  11  12
ATOM     12  C   UNL     1     121.694 178.223 128.829  1.00  0.00     0.066 C 
BRANCH  12  13
ATOM     13  C   UNL     1     122.997 178.440 128.067  1.00  0.00     0.140 C 
ATOM     14  O   UNL     1     123.974 177.777 128.384  1.00  0.00    -0.299 OA
BRANCH  13  15
ATOM     15  C   UNL     1     123.103 179.363 126.876  1.00  0.00     0.106 CG0
ATOM     16  G   UNL     1     122.532 178.743 125.611  1.00  0.00     0.000 G0
ENDBRANCH  13  15
ENDBRANCH  12  13
BRANCH  12  17
ATOM     17  C   UNL     1     121.864 178.440 130.370  1.00  0.00    -0.006 C 
ATOM     18  C   UNL     1     122.030 177.098 131.104  1.00  0.00     0.008 C 
ATOM     19  C   UNL     1     123.016 179.383 130.764  1.00  0.00     0.008 C 
ENDBRANCH  12  17
ENDBRANCH  11  12
ENDBRANCH   1  11
TORSDOF 1
ENDMDL
