MODEL 1
REMARK VINA RESULT:    -6.586      0.000      0.000
REMARK INTER + INTRA:          -7.888
REMARK INTER:                  -7.742
REMARK INTRA:                  -0.147
REMARK UNBOUND:                -0.147
REMARK SMILES O=c1c(O)c(-c2ccc(O)cc2)oc2cc(O)cc(O)c12
REMARK SMILES IDX 5 1 3 2 2 3 1 4 21 5 19 6 18 7 16 8 15 9 14 10 13 11 6 12
REMARK SMILES IDX 7 13 8 14 9 15 12 16 11 17 10 18 4 20 20 22 17 24
REMARK H PARENT 10 19 4 21 20 23 17 25
REMARK Flexibility Score: inf
ROOT
ATOM      1  C   UNL     1      31.247 -91.554  37.717  1.00  0.00     0.180 A 
ATOM      2  C   UNL     1      30.009 -92.151  37.408  1.00  0.00     0.208 A 
ATOM      3  C   UNL     1      29.862 -93.536  37.580  1.00  0.00     0.238 A 
ATOM      4  O   UNL     1      28.755 -94.080  37.316  1.00  0.00    -0.285 OA
ATOM      5  C   UNL     1      30.955 -94.302  38.037  1.00  0.00     0.111 A 
ATOM      6  C   UNL     1      30.892 -95.702  38.234  1.00  0.00     0.134 A 
ATOM      7  C   UNL     1      32.026 -96.394  38.682  1.00  0.00     0.093 A 
ATOM      8  C   UNL     1      33.220 -95.716  38.938  1.00  0.00     0.123 A 
ATOM      9  C   UNL     1      33.289 -94.332  38.746  1.00  0.00     0.094 A 
ATOM     10  C   UNL     1      32.169 -93.624  38.301  1.00  0.00     0.146 A 
ATOM     11  O   UNL     1      32.259 -92.309  38.132  1.00  0.00    -0.452 OA
ENDROOT
BRANCH   1  12
ATOM     12  C   UNL     1      31.473 -90.097  37.580  1.00  0.00     0.021 A 
ATOM     13  C   UNL     1      32.469 -89.633  36.704  1.00  0.00     0.016 A 
ATOM     14  C   UNL     1      32.716 -88.262  36.575  1.00  0.00     0.047 A 
ATOM     15  C   UNL     1      31.980 -87.341  37.332  1.00  0.00     0.115 A 
ATOM     16  C   UNL     1      30.754 -89.167  38.351  1.00  0.00     0.016 A 
ATOM     17  C   UNL     1      31.002 -87.797  38.220  1.00  0.00     0.047 A 
BRANCH  15  18
ATOM     18  O   UNL     1      32.217 -85.973  37.211  1.00  0.00    -0.508 OA
ATOM     19  H   UNL     1      32.056 -85.483  36.339  1.00  0.00     0.293 HD
ENDBRANCH  15  18
ENDBRANCH   1  12
BRANCH   2  20
ATOM     20  O   UNL     1      28.958 -91.378  36.909  1.00  0.00    -0.502 OA
ATOM     21  H   UNL     1      29.001 -90.367  36.863  1.00  0.00     0.293 HD
ENDBRANCH   2  20
BRANCH   6  22
ATOM     22  O   UNL     1      29.714 -96.409  37.987  1.00  0.00    -0.507 OA
ATOM     23  H   UNL     1      29.128 -96.750  38.741  1.00  0.00     0.293 HD
ENDBRANCH   6  22
BRANCH   8  24
ATOM     24  O   UNL     1      34.332 -96.427  39.381  1.00  0.00    -0.508 OA
ATOM     25  H   UNL     1      34.236 -97.311  39.867  1.00  0.00     0.293 HD
ENDBRANCH   8  24
TORSDOF 5
ENDMDL
MODEL 2
REMARK VINA RESULT:    -6.097      1.456      3.189
REMARK INTER + INTRA:          -7.313
REMARK INTER:                  -7.127
REMARK INTRA:                  -0.186
REMARK UNBOUND:                -0.147
REMARK SMILES O=c1c(O)c(-c2ccc(O)cc2)oc2cc(O)cc(O)c12
REMARK SMILES IDX 5 1 3 2 2 3 1 4 21 5 19 6 18 7 16 8 15 9 14 10 13 11 6 12
REMARK SMILES IDX 7 13 8 14 9 15 12 16 11 17 10 18 4 20 20 22 17 24
REMARK H PARENT 10 19 4 21 20 23 17 25
REMARK Flexibility Score: inf
ROOT
ATOM      1  C   UNL     1      31.055 -92.192  37.861  1.00  0.00     0.180 A 
ATOM      2  C   UNL     1      32.282 -92.836  38.111  1.00  0.00     0.208 A 
ATOM      3  C   UNL     1      32.299 -94.233  38.249  1.00  0.00     0.238 A 
ATOM      4  O   UNL     1      33.394 -94.822  38.462  1.00  0.00    -0.285 OA
ATOM      5  C   UNL     1      31.093 -94.958  38.155  1.00  0.00     0.111 A 
ATOM      6  C   UNL     1      31.023 -96.366  38.286  1.00  0.00     0.134 A 
ATOM      7  C   UNL     1      29.783 -97.013  38.189  1.00  0.00     0.093 A 
ATOM      8  C   UNL     1      28.614 -96.282  37.965  1.00  0.00     0.123 A 
ATOM      9  C   UNL     1      28.676 -94.891  37.835  1.00  0.00     0.094 A 
ATOM     10  C   UNL     1      29.903 -94.228  37.926  1.00  0.00     0.146 A 
ATOM     11  O   UNL     1      29.935 -92.906  37.794  1.00  0.00    -0.452 OA
ENDROOT
BRANCH   1  12
ATOM     12  C   UNL     1      30.958 -90.725  37.685  1.00  0.00     0.021 A 
ATOM     13  C   UNL     1      30.236 -89.963  38.620  1.00  0.00     0.016 A 
ATOM     14  C   UNL     1      30.113 -88.580  38.461  1.00  0.00     0.047 A 
ATOM     15  C   UNL     1      30.697 -87.943  37.358  1.00  0.00     0.115 A 
ATOM     16  C   UNL     1      31.525 -90.081  36.571  1.00  0.00     0.016 A 
ATOM     17  C   UNL     1      31.400 -88.697  36.415  1.00  0.00     0.047 A 
BRANCH  15  18
ATOM     18  O   UNL     1      30.581 -86.564  37.191  1.00  0.00    -0.508 OA
ATOM     19  H   UNL     1      30.453 -86.151  36.275  1.00  0.00     0.293 HD
ENDBRANCH  15  18
ENDBRANCH   1  12
BRANCH   2  20
ATOM     20  O   UNL     1      33.456 -92.091  38.250  1.00  0.00    -0.502 OA
ATOM     21  H   UNL     1      33.727 -91.377  37.585  1.00  0.00     0.293 HD
ENDBRANCH   2  20
BRANCH   6  22
ATOM     22  O   UNL     1      32.173 -97.124  38.511  1.00  0.00    -0.507 OA
ATOM     23  H   UNL     1      32.165 -98.136  38.452  1.00  0.00     0.293 HD
ENDBRANCH   6  22
BRANCH   8  24
ATOM     24  O   UNL     1      27.394 -96.950  37.875  1.00  0.00    -0.508 OA
ATOM     25  H   UNL     1      26.879 -96.996  37.003  1.00  0.00     0.293 HD
ENDBRANCH   8  24
TORSDOF 5
ENDMDL
MODEL 3
REMARK VINA RESULT:    -5.820      9.617     10.930
REMARK INTER + INTRA:          -6.987
REMARK INTER:                  -6.697
REMARK INTRA:                  -0.290
REMARK UNBOUND:                -0.147
REMARK SMILES O=c1c(O)c(-c2ccc(O)cc2)oc2cc(O)cc(O)c12
REMARK SMILES IDX 5 1 3 2 2 3 1 4 21 5 19 6 18 7 16 8 15 9 14 10 13 11 6 12
REMARK SMILES IDX 7 13 8 14 9 15 12 16 11 17 10 18 4 20 20 22 17 24
REMARK H PARENT 10 19 4 21 20 23 17 25
REMARK Flexibility Score: inf
ROOT
ATOM      1  C   UNL     1      36.569 -94.828  29.931  1.00  0.00     0.180 A 
ATOM      2  C   UNL     1      37.656 -95.182  29.108  1.00  0.00     0.208 A 
ATOM      3  C   UNL     1      38.947 -95.204  29.662  1.00  0.00     0.238 A 
ATOM      4  O   UNL     1      39.927 -95.529  28.937  1.00  0.00    -0.285 OA
ATOM      5  C   UNL     1      39.131 -94.854  31.015  1.00  0.00     0.111 A 
ATOM      6  C   UNL     1      40.397 -94.846  31.648  1.00  0.00     0.134 A 
ATOM      7  C   UNL     1      40.499 -94.477  32.997  1.00  0.00     0.093 A 
ATOM      8  C   UNL     1      39.363 -94.115  33.724  1.00  0.00     0.123 A 
ATOM      9  C   UNL     1      38.109 -94.121  33.105  1.00  0.00     0.094 A 
ATOM     10  C   UNL     1      37.986 -94.488  31.762  1.00  0.00     0.146 A 
ATOM     11  O   UNL     1      36.783 -94.490  31.199  1.00  0.00    -0.452 OA
ENDROOT
BRANCH   1  12
ATOM     12  C   UNL     1      35.177 -94.801  29.426  1.00  0.00     0.021 A 
ATOM     13  C   UNL     1      34.392 -95.964  29.504  1.00  0.00     0.016 A 
ATOM     14  C   UNL     1      33.083 -95.968  29.013  1.00  0.00     0.047 A 
ATOM     15  C   UNL     1      32.549 -94.815  28.425  1.00  0.00     0.115 A 
ATOM     16  C   UNL     1      34.640 -93.654  28.816  1.00  0.00     0.016 A 
ATOM     17  C   UNL     1      33.331 -93.661  28.326  1.00  0.00     0.047 A 
BRANCH  15  18
ATOM     18  O   UNL     1      31.244 -94.808  27.933  1.00  0.00    -0.508 OA
ATOM     19  H   UNL     1      30.921 -95.511  27.279  1.00  0.00     0.293 HD
ENDBRANCH  15  18
ENDBRANCH   1  12
BRANCH   2  20
ATOM     20  O   UNL     1      37.454 -95.476  27.758  1.00  0.00    -0.502 OA
ATOM     21  H   UNL     1      36.671 -96.031  27.435  1.00  0.00     0.293 HD
ENDBRANCH   2  20
BRANCH   6  22
ATOM     22  O   UNL     1      41.552 -95.202  30.948  1.00  0.00    -0.507 OA
ATOM     23  H   UNL     1      41.671 -94.979  29.967  1.00  0.00     0.293 HD
ENDBRANCH   6  22
BRANCH   8  24
ATOM     24  O   UNL     1      39.492 -93.751  35.063  1.00  0.00    -0.508 OA
ATOM     25  H   UNL     1      38.683 -93.531  35.632  1.00  0.00     0.293 HD
ENDBRANCH   8  24
TORSDOF 5
ENDMDL
MODEL 4
REMARK VINA RESULT:    -5.567      9.517     11.061
REMARK INTER + INTRA:          -6.690
REMARK INTER:                  -6.501
REMARK INTRA:                  -0.189
REMARK UNBOUND:                -0.147
REMARK SMILES O=c1c(O)c(-c2ccc(O)cc2)oc2cc(O)cc(O)c12
REMARK SMILES IDX 5 1 3 2 2 3 1 4 21 5 19 6 18 7 16 8 15 9 14 10 13 11 6 12
REMARK SMILES IDX 7 13 8 14 9 15 12 16 11 17 10 18 4 20 20 22 17 24
REMARK H PARENT 10 19 4 21 20 23 17 25
REMARK Flexibility Score: inf
ROOT
ATOM      1  C   UNL     1      37.906 -94.930  31.185  1.00  0.00     0.180 A 
ATOM      2  C   UNL     1      38.492 -95.691  30.155  1.00  0.00     0.208 A 
ATOM      3  C   UNL     1      37.796 -95.845  28.945  1.00  0.00     0.238 A 
ATOM      4  O   UNL     1      38.315 -96.516  28.012  1.00  0.00    -0.285 OA
ATOM      5  C   UNL     1      36.524 -95.255  28.793  1.00  0.00     0.111 A 
ATOM      6  C   UNL     1      35.755 -95.365  27.609  1.00  0.00     0.134 A 
ATOM      7  C   UNL     1      34.494 -94.756  27.539  1.00  0.00     0.093 A 
ATOM      8  C   UNL     1      33.986 -94.042  28.627  1.00  0.00     0.123 A 
ATOM      9  C   UNL     1      34.740 -93.929  29.799  1.00  0.00     0.094 A 
ATOM     10  C   UNL     1      36.001 -94.527  29.888  1.00  0.00     0.146 A 
ATOM     11  O   UNL     1      36.699 -94.401  31.012  1.00  0.00    -0.452 OA
ENDROOT
BRANCH   1  12
ATOM     12  C   UNL     1      38.586 -94.707  32.482  1.00  0.00     0.021 A 
ATOM     13  C   UNL     1      38.023 -95.234  33.657  1.00  0.00     0.016 A 
ATOM     14  C   UNL     1      38.636 -95.017  34.894  1.00  0.00     0.047 A 
ATOM     15  C   UNL     1      39.810 -94.257  34.974  1.00  0.00     0.115 A 
ATOM     16  C   UNL     1      39.754 -93.928  32.574  1.00  0.00     0.016 A 
ATOM     17  C   UNL     1      40.364 -93.712  33.812  1.00  0.00     0.047 A 
BRANCH  15  18
ATOM     18  O   UNL     1      40.429 -94.035  36.203  1.00  0.00    -0.508 OA
ATOM     19  H   UNL     1      41.354 -93.624  36.264  1.00  0.00     0.293 HD
ENDBRANCH  15  18
ENDBRANCH   1  12
BRANCH   2  20
ATOM     20  O   UNL     1      39.730 -96.307  30.349  1.00  0.00    -0.502 OA
ATOM     21  H   UNL     1      40.127 -96.451  31.269  1.00  0.00     0.293 HD
ENDBRANCH   2  20
BRANCH   6  22
ATOM     22  O   UNL     1      36.235 -96.072  26.505  1.00  0.00    -0.507 OA
ATOM     23  H   UNL     1      36.291 -95.651  25.585  1.00  0.00     0.293 HD
ENDBRANCH   6  22
BRANCH   8  24
ATOM     24  O   UNL     1      32.729 -93.449  28.532  1.00  0.00    -0.508 OA
ATOM     25  H   UNL     1      32.128 -93.608  27.732  1.00  0.00     0.293 HD
ENDBRANCH   8  24
TORSDOF 5
ENDMDL
MODEL 5
REMARK VINA RESULT:    -5.463      7.805     10.334
REMARK INTER + INTRA:          -6.568
REMARK INTER:                  -6.368
REMARK INTRA:                  -0.200
REMARK UNBOUND:                -0.147
REMARK SMILES O=c1c(O)c(-c2ccc(O)cc2)oc2cc(O)cc(O)c12
REMARK SMILES IDX 5 1 3 2 2 3 1 4 21 5 19 6 18 7 16 8 15 9 14 10 13 11 6 12
REMARK SMILES IDX 7 13 8 14 9 15 12 16 11 17 10 18 4 20 20 22 17 24
REMARK H PARENT 10 19 4 21 20 23 17 25
REMARK Flexibility Score: inf
ROOT
ATOM      1  C   UNL     1      40.236 -94.892  35.524  1.00  0.00     0.180 A 
ATOM      2  C   UNL     1      41.268 -94.527  36.410  1.00  0.00     0.208 A 
ATOM      3  C   UNL     1      41.048 -94.644  37.792  1.00  0.00     0.238 A 
ATOM      4  O   UNL     1      41.969 -94.330  38.595  1.00  0.00    -0.285 OA
ATOM      5  C   UNL     1      39.800 -95.102  38.263  1.00  0.00     0.111 A 
ATOM      6  C   UNL     1      39.497 -95.245  39.639  1.00  0.00     0.134 A 
ATOM      7  C   UNL     1      38.228 -95.699  40.027  1.00  0.00     0.093 A 
ATOM      8  C   UNL     1      37.259 -96.012  39.072  1.00  0.00     0.123 A 
ATOM      9  C   UNL     1      37.553 -95.873  37.711  1.00  0.00     0.094 A 
ATOM     10  C   UNL     1      38.812 -95.424  37.303  1.00  0.00     0.146 A 
ATOM     11  O   UNL     1      39.067 -95.306  36.004  1.00  0.00    -0.452 OA
ENDROOT
BRANCH   1  12
ATOM     12  C   UNL     1      40.398 -94.815  34.054  1.00  0.00     0.021 A 
ATOM     13  C   UNL     1      39.631 -93.893  33.322  1.00  0.00     0.016 A 
ATOM     14  C   UNL     1      39.751 -93.818  31.931  1.00  0.00     0.047 A 
ATOM     15  C   UNL     1      40.629 -94.675  31.254  1.00  0.00     0.115 A 
ATOM     16  C   UNL     1      41.262 -95.685  33.364  1.00  0.00     0.016 A 
ATOM     17  C   UNL     1      41.380 -95.608  31.974  1.00  0.00     0.047 A 
BRANCH  15  18
ATOM     18  O   UNL     1      40.757 -94.609  29.867  1.00  0.00    -0.508 OA
ATOM     19  H   UNL     1      41.100 -95.396  29.329  1.00  0.00     0.293 HD
ENDBRANCH  15  18
ENDBRANCH   1  12
BRANCH   2  20
ATOM     20  O   UNL     1      42.477 -94.028  35.920  1.00  0.00    -0.502 OA
ATOM     21  H   UNL     1      42.558 -93.607  35.002  1.00  0.00     0.293 HD
ENDBRANCH   2  20
BRANCH   6  22
ATOM     22  O   UNL     1      40.443 -94.940  40.618  1.00  0.00    -0.507 OA
ATOM     23  H   UNL     1      40.257 -95.088  41.604  1.00  0.00     0.293 HD
ENDBRANCH   6  22
BRANCH   8  24
ATOM     24  O   UNL     1      36.006 -96.459  39.485  1.00  0.00    -0.508 OA
ATOM     25  H   UNL     1      35.386 -95.869  40.029  1.00  0.00     0.293 HD
ENDBRANCH   8  24
TORSDOF 5
ENDMDL
MODEL 6
REMARK VINA RESULT:    -5.152      8.300      9.730
REMARK INTER + INTRA:          -6.202
REMARK INTER:                  -5.921
REMARK INTRA:                  -0.281
REMARK UNBOUND:                -0.147
REMARK SMILES O=c1c(O)c(-c2ccc(O)cc2)oc2cc(O)cc(O)c12
REMARK SMILES IDX 5 1 3 2 2 3 1 4 21 5 19 6 18 7 16 8 15 9 14 10 13 11 6 12
REMARK SMILES IDX 7 13 8 14 9 15 12 16 11 17 10 18 4 20 20 22 17 24
REMARK H PARENT 10 19 4 21 20 23 17 25
REMARK Flexibility Score: inf
ROOT
ATOM      1  C   UNL     1      39.402 -95.259  35.152  1.00  0.00     0.180 A 
ATOM      2  C   UNL     1      38.360 -96.165  35.430  1.00  0.00     0.208 A 
ATOM      3  C   UNL     1      37.937 -96.325  36.759  1.00  0.00     0.238 A 
ATOM      4  O   UNL     1      36.997 -97.125  37.019  1.00  0.00    -0.285 OA
ATOM      5  C   UNL     1      38.573 -95.596  37.786  1.00  0.00     0.111 A 
ATOM      6  C   UNL     1      38.211 -95.702  39.150  1.00  0.00     0.134 A 
ATOM      7  C   UNL     1      38.898 -94.950  40.113  1.00  0.00     0.093 A 
ATOM      8  C   UNL     1      39.939 -94.097  39.741  1.00  0.00     0.123 A 
ATOM      9  C   UNL     1      40.302 -93.987  38.395  1.00  0.00     0.094 A 
ATOM     10  C   UNL     1      39.628 -94.727  37.419  1.00  0.00     0.146 A 
ATOM     11  O   UNL     1      39.989 -94.600  36.147  1.00  0.00    -0.452 OA
ENDROOT
BRANCH   1  12
ATOM     12  C   UNL     1      39.890 -95.021  33.774  1.00  0.00     0.021 A 
ATOM     13  C   UNL     1      39.211 -94.108  32.949  1.00  0.00     0.016 A 
ATOM     14  C   UNL     1      39.641 -93.884  31.638  1.00  0.00     0.047 A 
ATOM     15  C   UNL     1      40.744 -94.582  31.130  1.00  0.00     0.115 A 
ATOM     16  C   UNL     1      40.985 -95.732  33.250  1.00  0.00     0.016 A 
ATOM     17  C   UNL     1      41.412 -95.506  31.938  1.00  0.00     0.047 A 
BRANCH  15  18
ATOM     18  O   UNL     1      41.181 -94.366  29.824  1.00  0.00    -0.508 OA
ATOM     19  H   UNL     1      42.156 -94.186  29.615  1.00  0.00     0.293 HD
ENDBRANCH  15  18
ENDBRANCH   1  12
BRANCH   2  20
ATOM     20  O   UNL     1      37.780 -96.911  34.402  1.00  0.00    -0.502 OA
ATOM     21  H   UNL     1      36.864 -96.699  34.027  1.00  0.00     0.293 HD
ENDBRANCH   2  20
BRANCH   6  22
ATOM     22  O   UNL     1      37.175 -96.547  39.555  1.00  0.00    -0.507 OA
ATOM     23  H   UNL     1      36.967 -96.704  40.534  1.00  0.00     0.293 HD
ENDBRANCH   6  22
BRANCH   8  24
ATOM     24  O   UNL     1      40.607 -93.362  40.718  1.00  0.00    -0.508 OA
ATOM     25  H   UNL     1      40.305 -92.431  40.980  1.00  0.00     0.293 HD
ENDBRANCH   8  24
TORSDOF 5
ENDMDL
MODEL 7
REMARK VINA RESULT:    -5.024      9.119     11.046
REMARK INTER + INTRA:          -6.052
REMARK INTER:                  -5.872
REMARK INTRA:                  -0.180
REMARK UNBOUND:                -0.147
REMARK SMILES O=c1c(O)c(-c2ccc(O)cc2)oc2cc(O)cc(O)c12
REMARK SMILES IDX 5 1 3 2 2 3 1 4 21 5 19 6 18 7 16 8 15 9 14 10 13 11 6 12
REMARK SMILES IDX 7 13 8 14 9 15 12 16 11 17 10 18 4 20 20 22 17 24
REMARK H PARENT 10 19 4 21 20 23 17 25
REMARK Flexibility Score: inf
ROOT
ATOM      1  C   UNL     1      39.795 -94.708  34.443  1.00  0.00     0.180 A 
ATOM      2  C   UNL     1      38.757 -94.341  33.565  1.00  0.00     0.208 A 
ATOM      3  C   UNL     1      38.994 -94.381  32.181  1.00  0.00     0.238 A 
ATOM      4  O   UNL     1      38.069 -94.064  31.384  1.00  0.00    -0.285 OA
ATOM      5  C   UNL     1      40.264 -94.764  31.702  1.00  0.00     0.111 A 
ATOM      6  C   UNL     1      40.586 -94.826  30.325  1.00  0.00     0.134 A 
ATOM      7  C   UNL     1      41.875 -95.208  29.929  1.00  0.00     0.093 A 
ATOM      8  C   UNL     1      42.847 -95.529  30.879  1.00  0.00     0.123 A 
ATOM      9  C   UNL     1      42.535 -95.471  32.241  1.00  0.00     0.094 A 
ATOM     10  C   UNL     1      41.255 -95.093  32.657  1.00  0.00     0.146 A 
ATOM     11  O   UNL     1      40.983 -95.051  33.956  1.00  0.00    -0.452 OA
ENDROOT
BRANCH   1  12
ATOM     12  C   UNL     1      39.616 -94.712  35.914  1.00  0.00     0.021 A 
ATOM     13  C   UNL     1      40.375 -93.831  36.703  1.00  0.00     0.016 A 
ATOM     14  C   UNL     1      40.238 -93.832  38.095  1.00  0.00     0.047 A 
ATOM     15  C   UNL     1      39.354 -94.724  38.714  1.00  0.00     0.115 A 
ATOM     16  C   UNL     1      38.745 -95.617  36.545  1.00  0.00     0.016 A 
ATOM     17  C   UNL     1      38.611 -95.617  37.936  1.00  0.00     0.047 A 
BRANCH  15  18
ATOM     18  O   UNL     1      39.209 -94.733  40.101  1.00  0.00    -0.508 OA
ATOM     19  H   UNL     1      38.308 -94.589  40.540  1.00  0.00     0.293 HD
ENDBRANCH  15  18
ENDBRANCH   1  12
BRANCH   2  20
ATOM     20  O   UNL     1      37.524 -93.917  34.066  1.00  0.00    -0.502 OA
ATOM     21  H   UNL     1      37.396 -93.009  34.496  1.00  0.00     0.293 HD
ENDBRANCH   2  20
BRANCH   6  22
ATOM     22  O   UNL     1      39.637 -94.511  29.351  1.00  0.00    -0.507 OA
ATOM     23  H   UNL     1      38.735 -94.116  29.592  1.00  0.00     0.293 HD
ENDBRANCH   6  22
BRANCH   8  24
ATOM     24  O   UNL     1      44.121 -95.905  30.458  1.00  0.00    -0.508 OA
ATOM     25  H   UNL     1      44.852 -95.219  30.307  1.00  0.00     0.293 HD
ENDBRANCH   8  24
TORSDOF 5
ENDMDL
MODEL 8
REMARK VINA RESULT:    -4.924      8.620     10.315
REMARK INTER + INTRA:          -5.934
REMARK INTER:                  -5.705
REMARK INTRA:                  -0.229
REMARK UNBOUND:                -0.147
REMARK SMILES O=c1c(O)c(-c2ccc(O)cc2)oc2cc(O)cc(O)c12
REMARK SMILES IDX 5 1 3 2 2 3 1 4 21 5 19 6 18 7 16 8 15 9 14 10 13 11 6 12
REMARK SMILES IDX 7 13 8 14 9 15 12 16 11 17 10 18 4 20 20 22 17 24
REMARK H PARENT 10 19 4 21 20 23 17 25
REMARK Flexibility Score: inf
ROOT
ATOM      1  C   UNL     1      39.221 -95.063  34.492  1.00  0.00     0.180 A 
ATOM      2  C   UNL     1      40.577 -94.707  34.356  1.00  0.00     0.208 A 
ATOM      3  C   UNL     1      41.346 -94.508  35.515  1.00  0.00     0.238 A 
ATOM      4  O   UNL     1      42.564 -94.199  35.406  1.00  0.00    -0.285 OA
ATOM      5  C   UNL     1      40.744 -94.648  36.783  1.00  0.00     0.111 A 
ATOM      6  C   UNL     1      41.446 -94.461  37.998  1.00  0.00     0.134 A 
ATOM      7  C   UNL     1      40.774 -94.609  39.220  1.00  0.00     0.093 A 
ATOM      8  C   UNL     1      39.417 -94.939  39.251  1.00  0.00     0.123 A 
ATOM      9  C   UNL     1      38.718 -95.125  38.054  1.00  0.00     0.094 A 
ATOM     10  C   UNL     1      39.370 -94.984  36.826  1.00  0.00     0.146 A 
ATOM     11  O   UNL     1      38.684 -95.171  35.703  1.00  0.00    -0.452 OA
ENDROOT
BRANCH   1  12
ATOM     12  C   UNL     1      38.352 -95.308  33.319  1.00  0.00     0.021 A 
ATOM     13  C   UNL     1      38.052 -96.630  32.947  1.00  0.00     0.016 A 
ATOM     14  C   UNL     1      37.251 -96.886  31.829  1.00  0.00     0.047 A 
ATOM     15  C   UNL     1      36.754 -95.825  31.061  1.00  0.00     0.115 A 
ATOM     16  C   UNL     1      37.865 -94.250  32.531  1.00  0.00     0.016 A 
ATOM     17  C   UNL     1      37.066 -94.509  31.414  1.00  0.00     0.047 A 
BRANCH  15  18
ATOM     18  O   UNL     1      35.955 -96.069  29.946  1.00  0.00    -0.508 OA
ATOM     19  H   UNL     1      35.675 -95.322  29.322  1.00  0.00     0.293 HD
ENDBRANCH  15  18
ENDBRANCH   1  12
BRANCH   2  20
ATOM     20  O   UNL     1      41.137 -94.526  33.089  1.00  0.00    -0.502 OA
ATOM     21  H   UNL     1      41.810 -95.172  32.696  1.00  0.00     0.293 HD
ENDBRANCH   2  20
BRANCH   6  22
ATOM     22  O   UNL     1      42.802 -94.130  38.000  1.00  0.00    -0.507 OA
ATOM     23  H   UNL     1      43.234 -93.645  37.223  1.00  0.00     0.293 HD
ENDBRANCH   6  22
BRANCH   8  24
ATOM     24  O   UNL     1      38.773 -95.078  40.478  1.00  0.00    -0.508 OA
ATOM     25  H   UNL     1      38.405 -94.277  40.977  1.00  0.00     0.293 HD
ENDBRANCH   8  24
TORSDOF 5
ENDMDL
MODEL 9
REMARK VINA RESULT:    -4.830      8.875     11.147
REMARK INTER + INTRA:          -5.823
REMARK INTER:                  -5.544
REMARK INTRA:                  -0.280
REMARK UNBOUND:                -0.147
REMARK SMILES O=c1c(O)c(-c2ccc(O)cc2)oc2cc(O)cc(O)c12
REMARK SMILES IDX 5 1 3 2 2 3 1 4 21 5 19 6 18 7 16 8 15 9 14 10 13 11 6 12
REMARK SMILES IDX 7 13 8 14 9 15 12 16 11 17 10 18 4 20 20 22 17 24
REMARK H PARENT 10 19 4 21 20 23 17 25
REMARK Flexibility Score: inf
ROOT
ATOM      1  C   UNL     1      40.448 -95.098  35.921  1.00  0.00     0.180 A 
ATOM      2  C   UNL     1      41.631 -95.093  35.156  1.00  0.00     0.208 A 
ATOM      3  C   UNL     1      41.539 -94.930  33.765  1.00  0.00     0.238 A 
ATOM      4  O   UNL     1      42.592 -94.913  33.071  1.00  0.00    -0.285 OA
ATOM      5  C   UNL     1      40.271 -94.796  33.161  1.00  0.00     0.111 A 
ATOM      6  C   UNL     1      40.091 -94.632  31.767  1.00  0.00     0.134 A 
ATOM      7  C   UNL     1      38.796 -94.515  31.242  1.00  0.00     0.093 A 
ATOM      8  C   UNL     1      37.680 -94.558  32.080  1.00  0.00     0.123 A 
ATOM      9  C   UNL     1      37.851 -94.720  33.459  1.00  0.00     0.094 A 
ATOM     10  C   UNL     1      39.134 -94.837  34.002  1.00  0.00     0.146 A 
ATOM     11  O   UNL     1      39.270 -94.984  35.316  1.00  0.00    -0.452 OA
ENDROOT
BRANCH   1  12
ATOM     12  C   UNL     1      40.464 -95.246  37.394  1.00  0.00     0.021 A 
ATOM     13  C   UNL     1      40.497 -96.532  37.959  1.00  0.00     0.016 A 
ATOM     14  C   UNL     1      40.491 -96.696  39.347  1.00  0.00     0.047 A 
ATOM     15  C   UNL     1      40.436 -95.576  40.188  1.00  0.00     0.115 A 
ATOM     16  C   UNL     1      40.390 -94.128  38.245  1.00  0.00     0.016 A 
ATOM     17  C   UNL     1      40.383 -94.295  39.632  1.00  0.00     0.047 A 
BRANCH  15  18
ATOM     18  O   UNL     1      40.430 -95.728  41.573  1.00  0.00    -0.508 OA
ATOM     19  H   UNL     1      41.046 -95.185  42.168  1.00  0.00     0.293 HD
ENDBRANCH  15  18
ENDBRANCH   1  12
BRANCH   2  20
ATOM     20  O   UNL     1      42.871 -95.278  35.773  1.00  0.00    -0.502 OA
ATOM     21  H   UNL     1      43.360 -96.164  35.753  1.00  0.00     0.293 HD
ENDBRANCH   2  20
BRANCH   6  22
ATOM     22  O   UNL     1      41.185 -94.585  30.902  1.00  0.00    -0.507 OA
ATOM     23  H   UNL     1      41.116 -94.886  29.936  1.00  0.00     0.293 HD
ENDBRANCH   6  22
BRANCH   8  24
ATOM     24  O   UNL     1      36.405 -94.441  31.533  1.00  0.00    -0.508 OA
ATOM     25  H   UNL     1      36.160 -94.892  30.659  1.00  0.00     0.293 HD
ENDBRANCH   8  24
TORSDOF 5
ENDMDL
