MODEL 1
REMARK VINA RESULT:    32.621      0.000      0.000
REMARK INTER + INTRA:          33.575
REMARK INTER:                  33.575
REMARK INTRA:                   0.000
REMARK UNBOUND:                 0.000
REMARK SMILES CC1(C)CC[C@]2(C)CC[C@@]3(C)C(=CC[C@@H]4[C@]5(C)CC[C@@H](O)C(C)(C)[C@H]5CC[C@@]43C)[C@@H]2C1
REMARK SMILES IDX 1 1 2 2 4 3 5 4 6 5 8 6 9 7 10 8 12 9 13 10 14 11 15 12
REMARK SMILES IDX 28 13 27 14 26 15 25 16 16 17 18 18 19 19 20 20 22 21 23 22
REMARK SMILES IDX 24 23 17 24 29 25 30 26 31 27 11 28 7 29 3 30 21 31
REMARK H PARENT 21 32
REMARK Flexibility Score: inf
ROOT
ATOM      1  C   UNL     1     132.312 130.803 138.228  1.00  0.00     0.011 C 
ATOM      2  C   UNL     1     131.795 129.458 137.672  1.00  0.00    -0.035 C 
ATOM      3  C   UNL     1     130.524 129.064 138.455  1.00  0.00     0.007 C 
ATOM      4  C   UNL     1     129.978 127.702 138.027  1.00  0.00     0.008 C 
ATOM      5  C   UNL     1     131.002 126.533 138.180  1.00  0.00    -0.026 C 
ATOM      6  C   UNL     1     131.068 126.062 139.682  1.00  0.00     0.008 C 
ATOM      7  C   UNL     1     132.467 126.091 140.324  1.00  0.00     0.012 C 
ATOM      8  C   UNL     1     133.565 125.386 139.459  1.00  0.00    -0.006 C 
ATOM      9  C   UNL     1     133.501 125.944 138.033  1.00  0.00    -0.064 C 
ATOM     10  C   UNL     1     134.464 125.589 137.167  1.00  0.00    -0.027 C 
ATOM     11  C   UNL     1     135.576 124.676 137.597  1.00  0.00     0.032 C 
ATOM     12  C   UNL     1     136.191 125.147 138.951  1.00  0.00     0.006 C 
ATOM     13  C   UNL     1     135.067 125.589 140.045  1.00  0.00    -0.020 C 
ATOM     14  C   UNL     1     135.159 124.862 141.444  1.00  0.00     0.008 C 
ATOM     15  C   UNL     1     136.502 124.242 141.809  1.00  0.00     0.005 C 
ATOM     16  C   UNL     1     137.031 123.370 140.649  1.00  0.00     0.003 C 
ATOM     17  C   UNL     1     137.454 124.295 139.470  1.00  0.00    -0.025 C 
ATOM     18  C   UNL     1     138.021 123.367 138.356  1.00  0.00     0.010 C 
ATOM     19  C   UNL     1     139.274 122.567 138.741  1.00  0.00     0.033 C 
ATOM     20  C   UNL     1     139.397 122.174 140.227  1.00  0.00     0.120 C 
ATOM     21  C   UNL     1     138.043 122.178 141.038  1.00  0.00    -0.006 C 
ATOM     22  C   UNL     1     137.335 120.826 140.741  1.00  0.00     0.014 C 
ATOM     23  C   UNL     1     138.390 122.148 142.554  1.00  0.00     0.014 C 
ATOM     24  C   UNL     1     138.579 125.301 139.891  1.00  0.00     0.012 C 
ATOM     25  C   UNL     1     135.331 127.101 140.343  1.00  0.00     0.012 C 
ATOM     26  C   UNL     1     132.410 126.925 137.593  1.00  0.00     0.022 C 
ATOM     27  C   UNL     1     132.873 128.377 137.894  1.00  0.00     0.015 C 
ATOM     28  C   UNL     1     133.190 123.858 139.393  1.00  0.00     0.017 C 
ATOM     29  C   UNL     1     130.425 125.369 137.329  1.00  0.00     0.012 C 
ATOM     30  C   UNL     1     131.504 129.650 136.164  1.00  0.00     0.011 C 
ENDROOT
BRANCH  20  31
ATOM     31  O   UNL     1     140.386 122.977 140.831  1.00  0.00    -0.393 OA
ATOM     32  H   UNL     1     141.271 122.559 140.659  1.00  0.00     0.210 HD
ENDBRANCH  20  31
TORSDOF 1
ENDMDL
MODEL 2
REMARK VINA RESULT:    33.816      2.658      7.904
REMARK INTER + INTRA:          34.805
REMARK INTER:                  34.805
REMARK INTRA:                   0.000
REMARK UNBOUND:                 0.000
REMARK SMILES CC1(C)CC[C@]2(C)CC[C@@]3(C)C(=CC[C@@H]4[C@]5(C)CC[C@@H](O)C(C)(C)[C@H]5CC[C@@]43C)[C@@H]2C1
REMARK SMILES IDX 1 1 2 2 4 3 5 4 6 5 8 6 9 7 10 8 12 9 13 10 14 11 15 12
REMARK SMILES IDX 28 13 27 14 26 15 25 16 16 17 18 18 19 19 20 20 22 21 23 22
REMARK SMILES IDX 24 23 17 24 29 25 30 26 31 27 11 28 7 29 3 30 21 31
REMARK H PARENT 21 32
REMARK Flexibility Score: inf
ROOT
ATOM      1  C   UNL     1     140.176 124.958 141.099  1.00  0.00     0.011 C 
ATOM      2  C   UNL     1     139.131 123.894 141.500  1.00  0.00    -0.035 C 
ATOM      3  C   UNL     1     139.391 122.618 140.671  1.00  0.00     0.007 C 
ATOM      4  C   UNL     1     138.355 121.528 140.942  1.00  0.00     0.008 C 
ATOM      5  C   UNL     1     136.884 121.971 140.668  1.00  0.00    -0.026 C 
ATOM      6  C   UNL     1     136.578 121.911 139.123  1.00  0.00     0.008 C 
ATOM      7  C   UNL     1     136.073 123.224 138.497  1.00  0.00     0.012 C 
ATOM      8  C   UNL     1     134.888 123.875 139.285  1.00  0.00    -0.006 C 
ATOM      9  C   UNL     1     135.278 123.978 140.763  1.00  0.00    -0.064 C 
ATOM     10  C   UNL     1     134.466 124.655 141.590  1.00  0.00    -0.027 C 
ATOM     11  C   UNL     1     133.214 125.300 141.069  1.00  0.00     0.032 C 
ATOM     12  C   UNL     1     133.509 126.126 139.779  1.00  0.00     0.006 C 
ATOM     13  C   UNL     1     134.491 125.351 138.734  1.00  0.00    -0.020 C 
ATOM     14  C   UNL     1     133.933 125.202 137.264  1.00  0.00     0.008 C 
ATOM     15  C   UNL     1     132.841 126.176 136.840  1.00  0.00     0.005 C 
ATOM     16  C   UNL     1     131.718 126.227 137.901  1.00  0.00     0.003 C 
ATOM     17  C   UNL     1     132.256 126.937 139.177  1.00  0.00    -0.025 C 
ATOM     18  C   UNL     1     131.071 127.002 140.185  1.00  0.00     0.010 C 
ATOM     19  C   UNL     1     129.858 127.820 139.721  1.00  0.00     0.033 C 
ATOM     20  C   UNL     1     129.596 127.844 138.202  1.00  0.00     0.120 C 
ATOM     21  C   UNL     1     130.254 126.662 137.388  1.00  0.00    -0.006 C 
ATOM     22  C   UNL     1     129.308 125.436 137.530  1.00  0.00     0.014 C 
ATOM     23  C   UNL     1     130.227 127.043 135.881  1.00  0.00     0.014 C 
ATOM     24  C   UNL     1     132.726 128.402 138.877  1.00  0.00     0.012 C 
ATOM     25  C   UNL     1     135.768 126.243 138.606  1.00  0.00     0.012 C 
ATOM     26  C   UNL     1     136.582 123.381 141.302  1.00  0.00     0.022 C 
ATOM     27  C   UNL     1     137.721 124.426 141.166  1.00  0.00     0.015 C 
ATOM     28  C   UNL     1     133.665 122.889 139.179  1.00  0.00     0.017 C 
ATOM     29  C   UNL     1     135.997 120.913 141.381  1.00  0.00     0.012 C 
ATOM     30  C   UNL     1     139.280 123.633 143.019  1.00  0.00     0.011 C 
ENDROOT
BRANCH  20  31
ATOM     31  O   UNL     1     129.959 129.108 137.696  1.00  0.00    -0.393 OA
ATOM     32  H   UNL     1     130.904 129.059 137.391  1.00  0.00     0.210 HD
ENDBRANCH  20  31
TORSDOF 1
ENDMDL
MODEL 3
REMARK VINA RESULT:    34.617      1.399      3.507
REMARK INTER + INTRA:          35.629
REMARK INTER:                  35.629
REMARK INTRA:                   0.000
REMARK UNBOUND:                 0.000
REMARK SMILES CC1(C)CC[C@]2(C)CC[C@@]3(C)C(=CC[C@@H]4[C@]5(C)CC[C@@H](O)C(C)(C)[C@H]5CC[C@@]43C)[C@@H]2C1
REMARK SMILES IDX 1 1 2 2 4 3 5 4 6 5 8 6 9 7 10 8 12 9 13 10 14 11 15 12
REMARK SMILES IDX 28 13 27 14 26 15 25 16 16 17 18 18 19 19 20 20 22 21 23 22
REMARK SMILES IDX 24 23 17 24 29 25 30 26 31 27 11 28 7 29 3 30 21 31
REMARK H PARENT 21 32
REMARK Flexibility Score: inf
ROOT
ATOM      1  C   UNL     1     128.468 125.055 137.039  1.00  0.00     0.011 C 
ATOM      2  C   UNL     1     129.235 126.316 137.495  1.00  0.00    -0.035 C 
ATOM      3  C   UNL     1     129.639 127.121 136.242  1.00  0.00     0.007 C 
ATOM      4  C   UNL     1     130.473 128.355 136.588  1.00  0.00     0.008 C 
ATOM      5  C   UNL     1     131.780 128.033 137.377  1.00  0.00    -0.026 C 
ATOM      6  C   UNL     1     132.899 127.523 136.390  1.00  0.00     0.008 C 
ATOM      7  C   UNL     1     133.501 126.147 136.727  1.00  0.00     0.012 C 
ATOM      8  C   UNL     1     133.957 126.014 138.219  1.00  0.00    -0.006 C 
ATOM      9  C   UNL     1     132.801 126.448 139.126  1.00  0.00    -0.064 C 
ATOM     10  C   UNL     1     132.925 126.258 140.449  1.00  0.00    -0.027 C 
ATOM     11  C   UNL     1     134.165 125.627 141.015  1.00  0.00     0.032 C 
ATOM     12  C   UNL     1     134.539 124.332 140.230  1.00  0.00     0.006 C 
ATOM     13  C   UNL     1     134.409 124.504 138.614  1.00  0.00    -0.020 C 
ATOM     14  C   UNL     1     135.703 124.138 137.787  1.00  0.00     0.008 C 
ATOM     15  C   UNL     1     136.718 123.225 138.465  1.00  0.00     0.005 C 
ATOM     16  C   UNL     1     137.044 123.737 139.885  1.00  0.00     0.003 C 
ATOM     17  C   UNL     1     135.805 123.519 140.802  1.00  0.00    -0.025 C 
ATOM     18  C   UNL     1     136.209 124.006 142.224  1.00  0.00     0.010 C 
ATOM     19  C   UNL     1     137.364 123.235 142.879  1.00  0.00     0.033 C 
ATOM     20  C   UNL     1     138.422 122.654 141.919  1.00  0.00     0.120 C 
ATOM     21  C   UNL     1     138.479 123.328 140.494  1.00  0.00    -0.006 C 
ATOM     22  C   UNL     1     139.328 124.623 140.641  1.00  0.00     0.014 C 
ATOM     23  C   UNL     1     139.294 122.396 139.552  1.00  0.00     0.014 C 
ATOM     24  C   UNL     1     135.406 122.006 140.896  1.00  0.00     0.012 C 
ATOM     25  C   UNL     1     133.321 123.477 138.162  1.00  0.00     0.012 C 
ATOM     26  C   UNL     1     131.503 127.035 138.563  1.00  0.00     0.022 C 
ATOM     27  C   UNL     1     130.514 125.882 138.242  1.00  0.00     0.015 C 
ATOM     28  C   UNL     1     135.141 127.029 138.432  1.00  0.00     0.017 C 
ATOM     29  C   UNL     1     132.242 129.390 137.977  1.00  0.00     0.012 C 
ATOM     30  C   UNL     1     128.300 127.128 138.423  1.00  0.00     0.011 C 
ENDROOT
BRANCH  20  31
ATOM     31  O   UNL     1     138.251 121.257 141.844  1.00  0.00    -0.393 OA
ATOM     32  H   UNL     1     138.993 120.884 141.297  1.00  0.00     0.210 HD
ENDBRANCH  20  31
TORSDOF 1
ENDMDL
MODEL 4
REMARK VINA RESULT:    34.781      3.499      6.129
REMARK INTER + INTRA:          35.798
REMARK INTER:                  35.798
REMARK INTRA:                   0.000
REMARK UNBOUND:                 0.000
REMARK SMILES CC1(C)CC[C@]2(C)CC[C@@]3(C)C(=CC[C@@H]4[C@]5(C)CC[C@@H](O)C(C)(C)[C@H]5CC[C@@]43C)[C@@H]2C1
REMARK SMILES IDX 1 1 2 2 4 3 5 4 6 5 8 6 9 7 10 8 12 9 13 10 14 11 15 12
REMARK SMILES IDX 28 13 27 14 26 15 25 16 16 17 18 18 19 19 20 20 22 21 23 22
REMARK SMILES IDX 24 23 17 24 29 25 30 26 31 27 11 28 7 29 3 30 21 31
REMARK H PARENT 21 32
REMARK Flexibility Score: inf
ROOT
ATOM      1  C   UNL     1     133.381 124.727 141.469  1.00  0.00     0.011 C 
ATOM      2  C   UNL     1     134.180 124.657 140.149  1.00  0.00    -0.035 C 
ATOM      3  C   UNL     1     134.095 123.215 139.604  1.00  0.00     0.007 C 
ATOM      4  C   UNL     1     134.923 123.025 138.333  1.00  0.00     0.008 C 
ATOM      5  C   UNL     1     136.435 123.369 138.505  1.00  0.00    -0.026 C 
ATOM      6  C   UNL     1     137.189 122.175 139.205  1.00  0.00     0.008 C 
ATOM      7  C   UNL     1     137.949 122.535 140.494  1.00  0.00     0.012 C 
ATOM      8  C   UNL     1     138.882 123.782 140.340  1.00  0.00    -0.006 C 
ATOM      9  C   UNL     1     138.071 124.930 139.730  1.00  0.00    -0.064 C 
ATOM     10  C   UNL     1     138.640 126.145 139.662  1.00  0.00    -0.027 C 
ATOM     11  C   UNL     1     140.033 126.363 140.180  1.00  0.00     0.032 C 
ATOM     12  C   UNL     1     140.199 125.751 141.605  1.00  0.00     0.006 C 
ATOM     13  C   UNL     1     139.528 124.272 141.748  1.00  0.00    -0.020 C 
ATOM     14  C   UNL     1     140.492 123.138 142.277  1.00  0.00     0.008 C 
ATOM     15  C   UNL     1     141.726 123.589 143.048  1.00  0.00     0.005 C 
ATOM     16  C   UNL     1     142.476 124.695 142.274  1.00  0.00     0.003 C 
ATOM     17  C   UNL     1     141.628 126.001 142.302  1.00  0.00    -0.025 C 
ATOM     18  C   UNL     1     142.455 127.086 141.552  1.00  0.00     0.010 C 
ATOM     19  C   UNL     1     143.805 127.442 142.190  1.00  0.00     0.033 C 
ATOM     20  C   UNL     1     144.515 126.305 142.953  1.00  0.00     0.120 C 
ATOM     21  C   UNL     1     144.054 124.846 142.567  1.00  0.00    -0.006 C 
ATOM     22  C   UNL     1     144.825 124.457 141.274  1.00  0.00     0.014 C 
ATOM     23  C   UNL     1     144.561 123.874 143.670  1.00  0.00     0.014 C 
ATOM     24  C   UNL     1     141.374 126.501 143.765  1.00  0.00     0.012 C 
ATOM     25  C   UNL     1     138.414 124.412 142.835  1.00  0.00     0.012 C 
ATOM     26  C   UNL     1     136.628 124.742 139.254  1.00  0.00     0.022 C 
ATOM     27  C   UNL     1     135.658 124.992 140.440  1.00  0.00     0.015 C 
ATOM     28  C   UNL     1     140.008 123.391 139.311  1.00  0.00     0.017 C 
ATOM     29  C   UNL     1     136.989 123.517 137.062  1.00  0.00     0.012 C 
ATOM     30  C   UNL     1     133.561 125.680 139.166  1.00  0.00     0.011 C 
ENDROOT
BRANCH  20  31
ATOM     31  O   UNL     1     144.410 126.551 144.337  1.00  0.00    -0.393 OA
ATOM     32  H   UNL     1     144.164 127.506 144.463  1.00  0.00     0.210 HD
ENDBRANCH  20  31
TORSDOF 1
ENDMDL
MODEL 5
REMARK VINA RESULT:    35.019      3.996      7.542
REMARK INTER + INTRA:          36.042
REMARK INTER:                  36.042
REMARK INTRA:                   0.000
REMARK UNBOUND:                 0.000
REMARK SMILES CC1(C)CC[C@]2(C)CC[C@@]3(C)C(=CC[C@@H]4[C@]5(C)CC[C@@H](O)C(C)(C)[C@H]5CC[C@@]43C)[C@@H]2C1
REMARK SMILES IDX 1 1 2 2 4 3 5 4 6 5 8 6 9 7 10 8 12 9 13 10 14 11 15 12
REMARK SMILES IDX 28 13 27 14 26 15 25 16 16 17 18 18 19 19 20 20 22 21 23 22
REMARK SMILES IDX 24 23 17 24 29 25 30 26 31 27 11 28 7 29 3 30 21 31
REMARK H PARENT 21 32
REMARK Flexibility Score: inf
ROOT
ATOM      1  C   UNL     1     139.783 127.537 147.441  1.00  0.00     0.011 C 
ATOM      2  C   UNL     1     138.308 127.093 147.553  1.00  0.00    -0.035 C 
ATOM      3  C   UNL     1     138.239 125.861 148.481  1.00  0.00     0.007 C 
ATOM      4  C   UNL     1     136.822 125.299 148.593  1.00  0.00     0.008 C 
ATOM      5  C   UNL     1     136.193 124.888 147.225  1.00  0.00    -0.026 C 
ATOM      6  C   UNL     1     136.742 123.482 146.775  1.00  0.00     0.008 C 
ATOM      7  C   UNL     1     137.407 123.443 145.387  1.00  0.00     0.012 C 
ATOM      8  C   UNL     1     136.540 124.101 144.262  1.00  0.00    -0.006 C 
ATOM      9  C   UNL     1     136.105 125.494 144.727  1.00  0.00    -0.064 C 
ATOM     10  C   UNL     1     135.486 126.295 143.845  1.00  0.00    -0.027 C 
ATOM     11  C   UNL     1     135.239 125.831 142.439  1.00  0.00     0.032 C 
ATOM     12  C   UNL     1     136.532 125.217 141.819  1.00  0.00     0.006 C 
ATOM     13  C   UNL     1     137.327 124.231 142.846  1.00  0.00    -0.020 C 
ATOM     14  C   UNL     1     137.619 122.778 142.301  1.00  0.00     0.008 C 
ATOM     15  C   UNL     1     137.603 122.595 140.788  1.00  0.00     0.005 C 
ATOM     16  C   UNL     1     136.325 123.212 140.181  1.00  0.00     0.003 C 
ATOM     17  C   UNL     1     136.413 124.764 140.280  1.00  0.00    -0.025 C 
ATOM     18  C   UNL     1     135.126 125.328 139.609  1.00  0.00     0.010 C 
ATOM     19  C   UNL     1     134.966 125.005 138.117  1.00  0.00     0.033 C 
ATOM     20  C   UNL     1     135.576 123.670 137.643  1.00  0.00     0.120 C 
ATOM     21  C   UNL     1     135.818 122.601 138.778  1.00  0.00    -0.006 C 
ATOM     22  C   UNL     1     134.457 121.889 139.025  1.00  0.00     0.014 C 
ATOM     23  C   UNL     1     136.769 121.507 138.215  1.00  0.00     0.014 C 
ATOM     24  C   UNL     1     137.655 125.329 139.510  1.00  0.00     0.012 C 
ATOM     25  C   UNL     1     138.730 124.884 143.065  1.00  0.00     0.012 C 
ATOM     26  C   UNL     1     136.404 126.009 146.138  1.00  0.00     0.022 C 
ATOM     27  C   UNL     1     137.799 126.691 146.152  1.00  0.00     0.015 C 
ATOM     28  C   UNL     1     135.244 123.221 144.105  1.00  0.00     0.017 C 
ATOM     29  C   UNL     1     134.669 124.753 147.498  1.00  0.00     0.012 C 
ATOM     30  C   UNL     1     137.497 128.285 148.118  1.00  0.00     0.011 C 
ENDROOT
BRANCH  20  31
ATOM     31  O   UNL     1     136.745 123.940 136.904  1.00  0.00    -0.393 OA
ATOM     32  H   UNL     1     136.986 124.894 137.046  1.00  0.00     0.210 HD
ENDBRANCH  20  31
TORSDOF 1
ENDMDL
MODEL 6
REMARK VINA RESULT:    35.438      4.022      7.737
REMARK INTER + INTRA:          36.474
REMARK INTER:                  36.474
REMARK INTRA:                   0.000
REMARK UNBOUND:                 0.000
REMARK SMILES CC1(C)CC[C@]2(C)CC[C@@]3(C)C(=CC[C@@H]4[C@]5(C)CC[C@@H](O)C(C)(C)[C@H]5CC[C@@]43C)[C@@H]2C1
REMARK SMILES IDX 1 1 2 2 4 3 5 4 6 5 8 6 9 7 10 8 12 9 13 10 14 11 15 12
REMARK SMILES IDX 28 13 27 14 26 15 25 16 16 17 18 18 19 19 20 20 22 21 23 22
REMARK SMILES IDX 24 23 17 24 29 25 30 26 31 27 11 28 7 29 3 30 21 31
REMARK H PARENT 21 32
REMARK Flexibility Score: inf
ROOT
ATOM      1  C   UNL     1     134.720 124.110 148.982  1.00  0.00     0.011 C 
ATOM      2  C   UNL     1     135.935 124.810 148.335  1.00  0.00    -0.035 C 
ATOM      3  C   UNL     1     135.776 126.334 148.523  1.00  0.00     0.007 C 
ATOM      4  C   UNL     1     136.897 127.122 147.846  1.00  0.00     0.008 C 
ATOM      5  C   UNL     1     137.025 126.852 146.314  1.00  0.00    -0.026 C 
ATOM      6  C   UNL     1     135.936 127.674 145.525  1.00  0.00     0.008 C 
ATOM      7  C   UNL     1     135.009 126.845 144.617  1.00  0.00     0.012 C 
ATOM      8  C   UNL     1     135.778 125.866 143.669  1.00  0.00    -0.006 C 
ATOM      9  C   UNL     1     136.761 125.042 144.507  1.00  0.00    -0.064 C 
ATOM     10  C   UNL     1     137.409 124.026 143.912  1.00  0.00    -0.027 C 
ATOM     11  C   UNL     1     137.162 123.709 142.465  1.00  0.00     0.032 C 
ATOM     12  C   UNL     1     135.633 123.648 142.162  1.00  0.00     0.006 C 
ATOM     13  C   UNL     1     134.793 124.860 142.857  1.00  0.00    -0.020 C 
ATOM     14  C   UNL     1     133.902 125.718 141.876  1.00  0.00     0.008 C 
ATOM     15  C   UNL     1     133.518 125.070 140.552  1.00  0.00     0.005 C 
ATOM     16  C   UNL     1     134.763 124.474 139.858  1.00  0.00     0.003 C 
ATOM     17  C   UNL     1     135.243 123.228 140.658  1.00  0.00    -0.025 C 
ATOM     18  C   UNL     1     136.463 122.645 139.886  1.00  0.00     0.010 C 
ATOM     19  C   UNL     1     136.167 122.149 138.464  1.00  0.00     0.033 C 
ATOM     20  C   UNL     1     135.042 122.888 137.709  1.00  0.00     0.120 C 
ATOM     21  C   UNL     1     134.702 124.330 138.254  1.00  0.00    -0.006 C 
ATOM     22  C   UNL     1     135.750 125.302 137.642  1.00  0.00     0.014 C 
ATOM     23  C   UNL     1     133.331 124.758 137.658  1.00  0.00     0.014 C 
ATOM     24  C   UNL     1     134.137 122.121 140.735  1.00  0.00     0.012 C 
ATOM     25  C   UNL     1     133.790 124.175 143.841  1.00  0.00     0.012 C 
ATOM     26  C   UNL     1     136.981 125.309 145.999  1.00  0.00     0.022 C 
ATOM     27  C   UNL     1     135.949 124.493 146.824  1.00  0.00     0.015 C 
ATOM     28  C   UNL     1     136.620 126.750 142.675  1.00  0.00     0.017 C 
ATOM     29  C   UNL     1     138.426 127.393 145.918  1.00  0.00     0.012 C 
ATOM     30  C   UNL     1     137.212 124.275 149.027  1.00  0.00     0.011 C 
ENDROOT
BRANCH  20  31
ATOM     31  O   UNL     1     133.907 122.055 137.654  1.00  0.00    -0.393 OA
ATOM     32  H   UNL     1     133.114 122.626 137.471  1.00  0.00     0.210 HD
ENDBRANCH  20  31
TORSDOF 1
ENDMDL
