MODEL 1
REMARK VINA RESULT:    15.327      0.000      0.000
REMARK INTER + INTRA:          28.072
REMARK INTER:                  23.391
REMARK INTRA:                   4.681
REMARK UNBOUND:                 4.681
REMARK SMILES CC1=CCC[C@H](C)C(=O)C[C@@H](C(C)C)C(=O)C1
REMARK SMILES IDX 8 1 9 2 6 3 7 4 5 5 4 6 3 7 2 8 1 9 10 11 11 12 15 13 16 14
REMARK SMILES IDX 17 15 12 17 13 18 14 19
REMARK H PARENT
REMARK Flexibility Score: 70.00
ROOT
ATOM      1  C   UNL     1      34.652  12.391  39.944  1.00  0.00     0.136 C 
ATOM      2  O   UNL     1      33.517  12.458  39.491  1.00  0.00    -0.299 OA
ENDROOT
BRANCH   1   3
ATOM      3  C   UNL     1      35.538  11.213  39.593  1.00  0.00     0.053 C 
ATOM      4  C   UNL     1      36.977  11.516  40.017  1.00  0.00     0.016 C 
BRANCH   3   5
ATOM      5  C   UNL     1      35.047   9.906  40.258  1.00  0.00     0.015 C 
BRANCH   5   6
ATOM      6  C   UNL     1      33.733   9.376  39.664  1.00  0.00     0.028 C 
BRANCH   6   7
ATOM      7  C   UNL     1      32.538  10.075  40.266  1.00  0.00    -0.028 C 
ATOM      8  C   UNL     1      32.510  10.705  41.463  1.00  0.00    -0.070 CG0
ATOM      9  C   UNL     1      31.217  11.353  41.889  1.00  0.00     0.039 C 
ATOM     10  G   UNL     1      33.717  10.823  42.372  1.00  0.00     0.000 G0
ENDBRANCH   6   7
ENDBRANCH   5   6
ENDBRANCH   3   5
ENDBRANCH   1   3
BRANCH   1  11
ATOM     11  C   UNL     1      35.129  13.472  40.880  1.00  0.00     0.087 C 
BRANCH  11  12
ATOM     12  C   UNL     1      35.247  12.960  42.339  1.00  0.00     0.066 C 
BRANCH  12  13
ATOM     13  C   UNL     1      33.950  12.271  42.733  1.00  0.00     0.140 C 
ATOM     14  O   UNL     1      33.128  12.878  43.406  1.00  0.00    -0.299 OA
BRANCH  13  15
ATOM     15  C   UNL     1      33.692  10.825  42.395  1.00  0.00     0.106 CG0
ATOM     16  G   UNL     1      32.497  10.685  41.473  1.00  0.00     0.000 G0
ENDBRANCH  13  15
ENDBRANCH  12  13
BRANCH  12  17
ATOM     17  C   UNL     1      35.580  14.110  43.346  1.00  0.00    -0.006 C 
ATOM     18  C   UNL     1      37.102  14.293  43.510  1.00  0.00     0.008 C 
ATOM     19  C   UNL     1      34.970  15.459  42.913  1.00  0.00     0.008 C 
ENDBRANCH  12  17
ENDBRANCH  11  12
ENDBRANCH   1  11
TORSDOF 1
ENDMDL
MODEL 2
REMARK VINA RESULT:    16.250      1.670      3.266
REMARK INTER + INTRA:          29.480
REMARK INTER:                  26.854
REMARK INTRA:                   2.626
REMARK UNBOUND:                 4.681
REMARK SMILES CC1=CCC[C@H](C)C(=O)C[C@@H](C(C)C)C(=O)C1
REMARK SMILES IDX 8 1 9 2 6 3 7 4 5 5 4 6 3 7 2 8 1 9 10 11 11 12 15 13 16 14
REMARK SMILES IDX 17 15 12 17 13 18 14 19
REMARK H PARENT
REMARK Flexibility Score: 70.00
ROOT
ATOM      1  C   UNL     1      33.856  11.139  42.742  1.00  0.00     0.136 C 
ATOM      2  O   UNL     1      34.566  10.150  42.626  1.00  0.00    -0.299 OA
ENDROOT
BRANCH   1   3
ATOM      3  C   UNL     1      32.419  11.098  42.260  1.00  0.00     0.053 C 
ATOM      4  C   UNL     1      32.094  12.402  41.526  1.00  0.00     0.016 C 
BRANCH   3   5
ATOM      5  C   UNL     1      32.155   9.885  41.340  1.00  0.00     0.015 C 
BRANCH   5   6
ATOM      6  C   UNL     1      32.565  10.127  39.880  1.00  0.00     0.028 C 
BRANCH   6   7
ATOM      7  C   UNL     1      34.018   9.784  39.653  1.00  0.00    -0.028 C 
ATOM      8  C   UNL     1      35.045  10.664  39.643  1.00  0.00    -0.070 CG0
ATOM      9  C   UNL     1      36.433  10.125  39.406  1.00  0.00     0.039 C 
ATOM     10  G   UNL     1      34.875  12.150  39.895  1.00  0.00     0.000 G0
ENDBRANCH   6   7
ENDBRANCH   5   6
ENDBRANCH   3   5
ENDBRANCH   1   3
BRANCH   1  11
ATOM     11  C   UNL     1      34.444  12.395  43.330  1.00  0.00     0.087 C 
BRANCH  11  12
ATOM     12  C   UNL     1      34.869  13.402  42.231  1.00  0.00     0.066 C 
BRANCH  12  13
ATOM     13  C   UNL     1      35.588  12.654  41.118  1.00  0.00     0.140 C 
ATOM     14  O   UNL     1      36.799  12.495  41.188  1.00  0.00    -0.299 OA
BRANCH  13  15
ATOM     15  C   UNL     1      34.860  12.187  39.885  1.00  0.00     0.106 CG0
ATOM     16  G   UNL     1      35.052  10.699  39.668  1.00  0.00     0.000 G0
ENDBRANCH  13  15
ENDBRANCH  12  13
BRANCH  12  17
ATOM     17  C   UNL     1      35.776  14.546  42.793  1.00  0.00    -0.006 C 
ATOM     18  C   UNL     1      34.938  15.652  43.465  1.00  0.00     0.008 C 
ATOM     19  C   UNL     1      36.806  14.024  43.815  1.00  0.00     0.008 C 
ENDBRANCH  12  17
ENDBRANCH  11  12
ENDBRANCH   1  11
TORSDOF 1
ENDMDL
MODEL 3
REMARK VINA RESULT:    16.348      1.657      2.891
REMARK INTER + INTRA:          29.630
REMARK INTER:                  27.052
REMARK INTRA:                   2.578
REMARK UNBOUND:                 4.681
REMARK SMILES CC1=CCC[C@H](C)C(=O)C[C@@H](C(C)C)C(=O)C1
REMARK SMILES IDX 8 1 9 2 6 3 7 4 5 5 4 6 3 7 2 8 1 9 10 11 11 12 15 13 16 14
REMARK SMILES IDX 17 15 12 17 13 18 14 19
REMARK H PARENT
REMARK Flexibility Score: 70.00
ROOT
ATOM      1  C   UNL     1      33.275  11.144  42.184  1.00  0.00     0.136 C 
ATOM      2  O   UNL     1      32.263  11.722  42.558  1.00  0.00    -0.299 OA
ENDROOT
BRANCH   1   3
ATOM      3  C   UNL     1      33.176   9.750  41.598  1.00  0.00     0.053 C 
ATOM      4  C   UNL     1      31.741   9.496  41.130  1.00  0.00     0.016 C 
BRANCH   3   5
ATOM      5  C   UNL     1      34.166   9.545  40.428  1.00  0.00     0.015 C 
BRANCH   5   6
ATOM      6  C   UNL     1      33.507   9.664  39.046  1.00  0.00     0.028 C 
BRANCH   6   7
ATOM      7  C   UNL     1      32.644  10.900  38.953  1.00  0.00    -0.028 C 
ATOM      8  C   UNL     1      33.040  12.164  39.228  1.00  0.00    -0.070 CG0
ATOM      9  C   UNL     1      32.029  13.270  39.068  1.00  0.00     0.039 C 
ATOM     10  G   UNL     1      34.452  12.523  39.648  1.00  0.00     0.000 G0
ENDBRANCH   6   7
ENDBRANCH   5   6
ENDBRANCH   3   5
ENDBRANCH   1   3
BRANCH   1  11
ATOM     11  C   UNL     1      34.608  11.824  42.355  1.00  0.00     0.087 C 
BRANCH  11  12
ATOM     12  C   UNL     1      34.509  13.355  42.130  1.00  0.00     0.066 C 
BRANCH  12  13
ATOM     13  C   UNL     1      34.521  13.642  40.636  1.00  0.00     0.140 C 
ATOM     14  O   UNL     1      34.494  14.802  40.248  1.00  0.00    -0.299 OA
BRANCH  13  15
ATOM     15  C   UNL     1      34.469  12.530  39.620  1.00  0.00     0.106 CG0
ATOM     16  G   UNL     1      33.037  12.195  39.250  1.00  0.00     0.000 G0
ENDBRANCH  13  15
ENDBRANCH  12  13
BRANCH  12  17
ATOM     17  C   UNL     1      35.661  14.136  42.844  1.00  0.00    -0.006 C 
ATOM     18  C   UNL     1      35.138  15.418  43.522  1.00  0.00     0.008 C 
ATOM     19  C   UNL     1      36.375  13.277  43.907  1.00  0.00     0.008 C 
ENDBRANCH  12  17
ENDBRANCH  11  12
ENDBRANCH   1  11
TORSDOF 1
ENDMDL
MODEL 4
REMARK VINA RESULT:    16.968      1.390      2.133
REMARK INTER + INTRA:          30.577
REMARK INTER:                  27.573
REMARK INTRA:                   3.004
REMARK UNBOUND:                 4.681
REMARK SMILES CC1=CCC[C@H](C)C(=O)C[C@@H](C(C)C)C(=O)C1
REMARK SMILES IDX 8 1 9 2 6 3 7 4 5 5 4 6 3 7 2 8 1 9 10 11 11 12 15 13 16 14
REMARK SMILES IDX 17 15 12 17 13 18 14 19
REMARK H PARENT
REMARK Flexibility Score: 70.00
ROOT
ATOM      1  C   UNL     1      36.082  11.223  40.664  1.00  0.00     0.136 C 
ATOM      2  O   UNL     1      36.855  12.000  40.121  1.00  0.00    -0.299 OA
ENDROOT
BRANCH   1   3
ATOM      3  C   UNL     1      35.598   9.994  39.921  1.00  0.00     0.053 C 
ATOM      4  C   UNL     1      35.454   8.830  40.904  1.00  0.00     0.016 C 
BRANCH   3   5
ATOM      5  C   UNL     1      34.258  10.251  39.194  1.00  0.00     0.015 C 
BRANCH   5   6
ATOM      6  C   UNL     1      33.095   9.416  39.749  1.00  0.00     0.028 C 
BRANCH   6   7
ATOM      7  C   UNL     1      32.541  10.019  41.017  1.00  0.00    -0.028 C 
ATOM      8  C   UNL     1      32.457  11.341  41.294  1.00  0.00    -0.070 CG0
ATOM      9  C   UNL     1      31.864  11.748  42.618  1.00  0.00     0.039 C 
ATOM     10  G   UNL     1      32.891  12.425  40.326  1.00  0.00     0.000 G0
ENDBRANCH   6   7
ENDBRANCH   5   6
ENDBRANCH   3   5
ENDBRANCH   1   3
BRANCH   1  11
ATOM     11  C   UNL     1      35.594  11.533  42.056  1.00  0.00     0.087 C 
BRANCH  11  12
ATOM     12  C   UNL     1      34.793  12.860  42.105  1.00  0.00     0.066 C 
BRANCH  12  13
ATOM     13  C   UNL     1      34.165  13.115  40.743  1.00  0.00     0.140 C 
ATOM     14  O   UNL     1      34.669  13.941  39.995  1.00  0.00    -0.299 OA
BRANCH  13  15
ATOM     15  C   UNL     1      32.880  12.443  40.330  1.00  0.00     0.106 CG0
ATOM     16  G   UNL     1      32.496  11.351  41.309  1.00  0.00     0.000 G0
ENDBRANCH  13  15
ENDBRANCH  12  13
BRANCH  12  17
ATOM     17  C   UNL     1      35.682  14.074  42.530  1.00  0.00    -0.006 C 
ATOM     18  C   UNL     1      34.883  15.093  43.368  1.00  0.00     0.008 C 
ATOM     19  C   UNL     1      36.917  13.636  43.343  1.00  0.00     0.008 C 
ENDBRANCH  12  17
ENDBRANCH  11  12
ENDBRANCH   1  11
TORSDOF 1
ENDMDL
MODEL 5
REMARK VINA RESULT:    17.017      1.922      3.184
REMARK INTER + INTRA:          30.652
REMARK INTER:                  26.854
REMARK INTRA:                   3.798
REMARK UNBOUND:                 4.681
REMARK SMILES CC1=CCC[C@H](C)C(=O)C[C@@H](C(C)C)C(=O)C1
REMARK SMILES IDX 8 1 9 2 6 3 7 4 5 5 4 6 3 7 2 8 1 9 10 11 11 12 15 13 16 14
REMARK SMILES IDX 17 15 12 17 13 18 14 19
REMARK H PARENT
REMARK Flexibility Score: 70.00
ROOT
ATOM      1  C   UNL     1      33.976  10.990  42.363  1.00  0.00     0.136 C 
ATOM      2  O   UNL     1      34.798  10.302  41.774  1.00  0.00    -0.299 OA
ENDROOT
BRANCH   1   3
ATOM      3  C   UNL     1      32.498  10.808  42.084  1.00  0.00     0.053 C 
ATOM      4  C   UNL     1      31.763  12.122  42.361  1.00  0.00     0.016 C 
BRANCH   3   5
ATOM      5  C   UNL     1      32.239  10.344  40.632  1.00  0.00     0.015 C 
BRANCH   5   6
ATOM      6  C   UNL     1      33.218  10.951  39.616  1.00  0.00     0.028 C 
BRANCH   6   7
ATOM      7  C   UNL     1      33.122  12.458  39.594  1.00  0.00    -0.028 C 
ATOM      8  C   UNL     1      34.139  13.319  39.831  1.00  0.00    -0.070 CG0
ATOM      9  C   UNL     1      33.845  14.795  39.756  1.00  0.00     0.039 C 
ATOM     10  G   UNL     1      35.558  12.873  40.128  1.00  0.00     0.000 G0
ENDBRANCH   6   7
ENDBRANCH   5   6
ENDBRANCH   3   5
ENDBRANCH   1   3
BRANCH   1  11
ATOM     11  C   UNL     1      34.462  12.038  43.331  1.00  0.00     0.087 C 
BRANCH  11  12
ATOM     12  C   UNL     1      34.821  13.365  42.612  1.00  0.00     0.066 C 
BRANCH  12  13
ATOM     13  C   UNL     1      35.899  13.094  41.574  1.00  0.00     0.140 C 
ATOM     14  O   UNL     1      37.076  13.121  41.911  1.00  0.00    -0.299 OA
BRANCH  13  15
ATOM     15  C   UNL     1      35.560  12.887  40.121  1.00  0.00     0.106 CG0
ATOM     16  G   UNL     1      34.137  13.321  39.826  1.00  0.00     0.000 G0
ENDBRANCH  13  15
ENDBRANCH  12  13
BRANCH  12  17
ATOM     17  C   UNL     1      35.292  14.472  43.612  1.00  0.00    -0.006 C 
ATOM     18  C   UNL     1      36.802  14.364  43.903  1.00  0.00     0.008 C 
ATOM     19  C   UNL     1      34.996  15.892  43.089  1.00  0.00     0.008 C 
ENDBRANCH  12  17
ENDBRANCH  11  12
ENDBRANCH   1  11
TORSDOF 1
ENDMDL
MODEL 6
REMARK VINA RESULT:    17.948      2.508      5.284
REMARK INTER + INTRA:          32.072
REMARK INTER:                  31.616
REMARK INTRA:                   0.455
REMARK UNBOUND:                 4.681
REMARK SMILES CC1=CCC[C@H](C)C(=O)C[C@@H](C(C)C)C(=O)C1
REMARK SMILES IDX 8 1 9 2 6 3 7 4 5 5 4 6 3 7 2 8 1 9 10 11 11 12 15 13 16 14
REMARK SMILES IDX 17 15 12 17 13 18 14 19
REMARK H PARENT
REMARK Flexibility Score: 70.00
ROOT
ATOM      1  C   UNL     1      35.858  13.441  42.712  1.00  0.00     0.136 C 
ATOM      2  O   UNL     1      36.902  13.243  42.105  1.00  0.00    -0.299 OA
ENDROOT
BRANCH   1   3
ATOM      3  C   UNL     1      35.823  14.446  43.846  1.00  0.00     0.053 C 
ATOM      4  C   UNL     1      37.011  14.198  44.780  1.00  0.00     0.016 C 
BRANCH   3   5
ATOM      5  C   UNL     1      35.845  15.902  43.327  1.00  0.00     0.015 C 
BRANCH   5   6
ATOM      6  C   UNL     1      34.451  16.443  42.975  1.00  0.00     0.028 C 
BRANCH   6   7
ATOM      7  C   UNL     1      34.406  16.964  41.558  1.00  0.00    -0.028 C 
ATOM      8  C   UNL     1      33.952  16.285  40.480  1.00  0.00    -0.070 CG0
ATOM      9  C   UNL     1      33.982  16.983  39.144  1.00  0.00     0.039 C 
ATOM     10  G   UNL     1      33.383  14.882  40.556  1.00  0.00     0.000 G0
ENDBRANCH   6   7
ENDBRANCH   5   6
ENDBRANCH   3   5
ENDBRANCH   1   3
BRANCH   1  11
ATOM     11  C   UNL     1      34.635  12.645  42.340  1.00  0.00     0.087 C 
BRANCH  11  12
ATOM     12  C   UNL     1      34.513  12.457  40.806  1.00  0.00     0.066 C 
BRANCH  12  13
ATOM     13  C   UNL     1      34.447  13.823  40.139  1.00  0.00     0.140 C 
ATOM     14  O   UNL     1      35.290  14.124  39.304  1.00  0.00    -0.299 OA
BRANCH  13  15
ATOM     15  C   UNL     1      33.426  14.852  40.550  1.00  0.00     0.106 CG0
ATOM     16  G   UNL     1      33.982  16.257  40.419  1.00  0.00     0.000 G0
ENDBRANCH  13  15
ENDBRANCH  12  13
BRANCH  12  17
ATOM     17  C   UNL     1      33.267  11.598  40.410  1.00  0.00    -0.006 C 
ATOM     18  C   UNL     1      33.678  10.338  39.622  1.00  0.00     0.008 C 
ATOM     19  C   UNL     1      32.447  11.160  41.640  1.00  0.00     0.008 C 
ENDBRANCH  12  17
ENDBRANCH  11  12
ENDBRANCH   1  11
TORSDOF 1
ENDMDL
