MODEL 1
REMARK VINA RESULT:    -4.980      0.000      0.000
REMARK INTER + INTRA:          -4.980
REMARK INTER:                  -4.980
REMARK INTRA:                   0.000
REMARK UNBOUND:                 0.000
REMARK SMILES CC1=CC[C@H]2[C@@H](C1)C2(C)C
REMARK SMILES IDX 1 1 2 2 3 3 4 4 5 5 6 6 7 7 8 8 9 9 10 10
REMARK H PARENT
REMARK Flexibility Score: inf
ROOT
ATOM      1  C   UNL     1     145.017 143.126 133.669  1.00  0.00     0.039 C 
ATOM      2  C   UNL     1     145.121 144.612 133.455  1.00  0.00    -0.077 C 
ATOM      3  C   UNL     1     143.999 145.322 133.272  1.00  0.00    -0.028 C 
ATOM      4  C   UNL     1     143.979 146.816 133.117  1.00  0.00     0.031 C 
ATOM      5  C   UNL     1     145.311 147.487 132.738  1.00  0.00     0.003 C 
ATOM      6  C   UNL     1     146.597 146.688 132.948  1.00  0.00     0.003 C 
ATOM      7  C   UNL     1     146.483 145.260 133.512  1.00  0.00     0.034 C 
ATOM      8  C   UNL     1     146.116 147.001 131.514  1.00  0.00    -0.029 C 
ATOM      9  C   UNL     1     146.912 148.099 130.796  1.00  0.00     0.012 C 
ATOM     10  C   UNL     1     145.555 145.871 130.622  1.00  0.00     0.012 C 
ENDROOT
TORSDOF 0
ENDMDL
MODEL 2
REMARK VINA RESULT:    -4.962      1.561      3.702
REMARK INTER + INTRA:          -4.962
REMARK INTER:                  -4.962
REMARK INTRA:                   0.000
REMARK UNBOUND:                 0.000
REMARK SMILES CC1=CC[C@H]2[C@@H](C1)C2(C)C
REMARK SMILES IDX 1 1 2 2 3 3 4 4 5 5 6 6 7 7 8 8 9 9 10 10
REMARK H PARENT
REMARK Flexibility Score: inf
ROOT
ATOM      1  C   UNL     1     145.740 147.638 133.758  1.00  0.00     0.039 C 
ATOM      2  C   UNL     1     145.653 146.149 133.554  1.00  0.00    -0.077 C 
ATOM      3  C   UNL     1     146.776 145.460 133.310  1.00  0.00    -0.028 C 
ATOM      4  C   UNL     1     146.816 143.967 133.158  1.00  0.00     0.031 C 
ATOM      5  C   UNL     1     145.478 143.268 132.857  1.00  0.00     0.003 C 
ATOM      6  C   UNL     1     144.191 144.043 133.137  1.00  0.00     0.003 C 
ATOM      7  C   UNL     1     144.309 145.475 133.690  1.00  0.00     0.034 C 
ATOM      8  C   UNL     1     144.596 143.735 131.679  1.00  0.00    -0.029 C 
ATOM      9  C   UNL     1     143.782 142.619 131.010  1.00  0.00     0.012 C 
ATOM     10  C   UNL     1     145.084 144.871 130.754  1.00  0.00     0.012 C 
ENDROOT
TORSDOF 0
ENDMDL
MODEL 3
REMARK VINA RESULT:    -4.783      1.490      2.626
REMARK INTER + INTRA:          -4.783
REMARK INTER:                  -4.783
REMARK INTRA:                   0.000
REMARK UNBOUND:                 0.000
REMARK SMILES CC1=CC[C@H]2[C@@H](C1)C2(C)C
REMARK SMILES IDX 1 1 2 2 3 3 4 4 5 5 6 6 7 7 8 8 9 9 10 10
REMARK H PARENT
REMARK Flexibility Score: inf
ROOT
ATOM      1  C   UNL     1     143.850 142.751 130.750  1.00  0.00     0.039 C 
ATOM      2  C   UNL     1     144.705 143.552 131.693  1.00  0.00    -0.077 C 
ATOM      3  C   UNL     1     144.727 143.220 132.991  1.00  0.00    -0.028 C 
ATOM      4  C   UNL     1     145.594 143.906 134.008  1.00  0.00     0.031 C 
ATOM      5  C   UNL     1     146.146 145.290 133.622  1.00  0.00     0.003 C 
ATOM      6  C   UNL     1     146.130 145.677 132.144  1.00  0.00     0.003 C 
ATOM      7  C   UNL     1     145.555 144.668 131.134  1.00  0.00     0.034 C 
ATOM      8  C   UNL     1     145.197 146.406 133.135  1.00  0.00    -0.029 C 
ATOM      9  C   UNL     1     145.639 147.828 133.505  1.00  0.00     0.012 C 
ATOM     10  C   UNL     1     143.673 146.157 133.090  1.00  0.00     0.012 C 
ENDROOT
TORSDOF 0
ENDMDL
MODEL 4
REMARK VINA RESULT:    -4.779      0.814      3.680
REMARK INTER + INTRA:          -4.779
REMARK INTER:                  -4.779
REMARK INTRA:                   0.000
REMARK UNBOUND:                 0.000
REMARK SMILES CC1=CC[C@H]2[C@@H](C1)C2(C)C
REMARK SMILES IDX 1 1 2 2 3 3 4 4 5 5 6 6 7 7 8 8 9 9 10 10
REMARK H PARENT
REMARK Flexibility Score: inf
ROOT
ATOM      1  C   UNL     1     146.881 148.039 130.718  1.00  0.00     0.039 C 
ATOM      2  C   UNL     1     146.031 147.237 131.665  1.00  0.00    -0.077 C 
ATOM      3  C   UNL     1     146.008 147.573 132.963  1.00  0.00    -0.028 C 
ATOM      4  C   UNL     1     145.147 146.886 133.983  1.00  0.00     0.031 C 
ATOM      5  C   UNL     1     144.602 145.497 133.602  1.00  0.00     0.003 C 
ATOM      6  C   UNL     1     144.618 145.106 132.125  1.00  0.00     0.003 C 
ATOM      7  C   UNL     1     145.186 146.115 131.110  1.00  0.00     0.034 C 
ATOM      8  C   UNL     1     145.556 144.385 133.117  1.00  0.00    -0.029 C 
ATOM      9  C   UNL     1     145.121 142.962 133.492  1.00  0.00     0.012 C 
ATOM     10  C   UNL     1     147.079 144.642 133.069  1.00  0.00     0.012 C 
ENDROOT
TORSDOF 0
ENDMDL
MODEL 5
REMARK VINA RESULT:    -4.668      1.410      2.558
REMARK INTER + INTRA:          -4.668
REMARK INTER:                  -4.668
REMARK INTRA:                   0.000
REMARK UNBOUND:                 0.000
REMARK SMILES CC1=CC[C@H]2[C@@H](C1)C2(C)C
REMARK SMILES IDX 1 1 2 2 3 3 4 4 5 5 6 6 7 7 8 8 9 9 10 10
REMARK H PARENT
REMARK Flexibility Score: inf
ROOT
ATOM      1  C   UNL     1     147.696 144.985 133.707  1.00  0.00     0.039 C 
ATOM      2  C   UNL     1     146.214 145.098 133.469  1.00  0.00    -0.077 C 
ATOM      3  C   UNL     1     145.507 143.985 133.230  1.00  0.00    -0.028 C 
ATOM      4  C   UNL     1     144.016 143.973 133.046  1.00  0.00     0.031 C 
ATOM      5  C   UNL     1     143.353 145.319 132.706  1.00  0.00     0.003 C 
ATOM      6  C   UNL     1     144.148 146.595 132.979  1.00  0.00     0.003 C 
ATOM      7  C   UNL     1     145.565 146.458 133.566  1.00  0.00     0.034 C 
ATOM      8  C   UNL     1     143.863 146.169 131.522  1.00  0.00    -0.029 C 
ATOM      9  C   UNL     1     142.779 146.993 130.814  1.00  0.00     0.012 C 
ATOM     10  C   UNL     1     145.009 145.641 130.631  1.00  0.00     0.012 C 
ENDROOT
TORSDOF 0
ENDMDL
MODEL 6
REMARK VINA RESULT:    -4.638      1.396      2.575
REMARK INTER + INTRA:          -4.638
REMARK INTER:                  -4.638
REMARK INTRA:                   0.000
REMARK UNBOUND:                 0.000
REMARK SMILES CC1=CC[C@H]2[C@@H](C1)C2(C)C
REMARK SMILES IDX 1 1 2 2 3 3 4 4 5 5 6 6 7 7 8 8 9 9 10 10
REMARK H PARENT
REMARK Flexibility Score: inf
ROOT
ATOM      1  C   UNL     1     142.947 145.831 133.624  1.00  0.00     0.039 C 
ATOM      2  C   UNL     1     144.432 145.721 133.412  1.00  0.00    -0.077 C 
ATOM      3  C   UNL     1     145.141 146.837 133.187  1.00  0.00    -0.028 C 
ATOM      4  C   UNL     1     146.634 146.853 133.030  1.00  0.00     0.031 C 
ATOM      5  C   UNL     1     147.307 145.509 132.699  1.00  0.00     0.003 C 
ATOM      6  C   UNL     1     146.510 144.231 132.956  1.00  0.00     0.003 C 
ATOM      7  C   UNL     1     145.083 144.363 133.518  1.00  0.00     0.034 C 
ATOM      8  C   UNL     1     146.820 144.659 131.505  1.00  0.00    -0.029 C 
ATOM      9  C   UNL     1     147.918 143.839 130.815  1.00  0.00     0.012 C 
ATOM     10  C   UNL     1     145.688 145.186 130.595  1.00  0.00     0.012 C 
ENDROOT
TORSDOF 0
ENDMDL
MODEL 7
REMARK VINA RESULT:    -4.462      1.517      3.276
REMARK INTER + INTRA:          -4.462
REMARK INTER:                  -4.462
REMARK INTRA:                   0.000
REMARK UNBOUND:                 0.000
REMARK SMILES CC1=CC[C@H]2[C@@H](C1)C2(C)C
REMARK SMILES IDX 1 1 2 2 3 3 4 4 5 5 6 6 7 7 8 8 9 9 10 10
REMARK H PARENT
REMARK Flexibility Score: inf
ROOT
ATOM      1  C   UNL     1     147.940 143.842 130.744  1.00  0.00     0.039 C 
ATOM      2  C   UNL     1     147.209 144.697 131.744  1.00  0.00    -0.077 C 
ATOM      3  C   UNL     1     147.515 144.581 133.044  1.00  0.00    -0.028 C 
ATOM      4  C   UNL     1     146.899 145.429 134.120  1.00  0.00     0.031 C 
ATOM      5  C   UNL     1     145.586 146.148 133.763  1.00  0.00     0.003 C 
ATOM      6  C   UNL     1     145.230 146.290 132.284  1.00  0.00     0.003 C 
ATOM      7  C   UNL     1     146.197 145.698 131.242  1.00  0.00     0.034 C 
ATOM      8  C   UNL     1     144.390 145.360 133.186  1.00  0.00    -0.029 C 
ATOM      9  C   UNL     1     143.013 145.915 133.573  1.00  0.00     0.012 C 
ATOM     10  C   UNL     1     144.485 143.827 133.019  1.00  0.00     0.012 C 
ENDROOT
TORSDOF 0
ENDMDL
MODEL 8
REMARK VINA RESULT:    -4.447      1.315      3.094
REMARK INTER + INTRA:          -4.447
REMARK INTER:                  -4.447
REMARK INTRA:                   0.000
REMARK UNBOUND:                 0.000
REMARK SMILES CC1=CC[C@H]2[C@@H](C1)C2(C)C
REMARK SMILES IDX 1 1 2 2 3 3 4 4 5 5 6 6 7 7 8 8 9 9 10 10
REMARK H PARENT
REMARK Flexibility Score: inf
ROOT
ATOM      1  C   UNL     1     142.802 146.874 130.722  1.00  0.00     0.039 C 
ATOM      2  C   UNL     1     143.538 146.041 131.736  1.00  0.00    -0.077 C 
ATOM      3  C   UNL     1     143.226 146.170 133.033  1.00  0.00    -0.028 C 
ATOM      4  C   UNL     1     143.847 145.343 134.122  1.00  0.00     0.031 C 
ATOM      5  C   UNL     1     145.171 144.636 133.780  1.00  0.00     0.003 C 
ATOM      6  C   UNL     1     145.535 144.479 132.305  1.00  0.00     0.003 C 
ATOM      7  C   UNL     1     144.565 145.046 131.251  1.00  0.00     0.034 C 
ATOM      8  C   UNL     1     146.359 145.431 133.198  1.00  0.00    -0.029 C 
ATOM      9  C   UNL     1     147.741 144.898 133.598  1.00  0.00     0.012 C 
ATOM     10  C   UNL     1     146.245 146.960 133.012  1.00  0.00     0.012 C 
ENDROOT
TORSDOF 0
ENDMDL
MODEL 9
REMARK VINA RESULT:    -4.418     12.617     14.100
REMARK INTER + INTRA:          -4.418
REMARK INTER:                  -4.418
REMARK INTRA:                   0.000
REMARK UNBOUND:                 0.000
REMARK SMILES CC1=CC[C@H]2[C@@H](C1)C2(C)C
REMARK SMILES IDX 1 1 2 2 3 3 4 4 5 5 6 6 7 7 8 8 9 9 10 10
REMARK H PARENT
REMARK Flexibility Score: inf
ROOT
ATOM      1  C   UNL     1     136.013 134.970 130.677  1.00  0.00     0.039 C 
ATOM      2  C   UNL     1     135.533 135.794 129.513  1.00  0.00    -0.077 C 
ATOM      3  C   UNL     1     135.521 135.245 128.290  1.00  0.00    -0.028 C 
ATOM      4  C   UNL     1     135.000 135.950 127.070  1.00  0.00     0.031 C 
ATOM      5  C   UNL     1     134.875 137.481 127.159  1.00  0.00     0.003 C 
ATOM      6  C   UNL     1     134.883 138.117 128.549  1.00  0.00     0.003 C 
ATOM      7  C   UNL     1     135.027 137.193 129.772  1.00  0.00     0.034 C 
ATOM      8  C   UNL     1     136.078 138.344 127.598  1.00  0.00    -0.029 C 
ATOM      9  C   UNL     1     136.132 139.737 126.957  1.00  0.00     0.012 C 
ATOM     10  C   UNL     1     137.439 137.675 127.892  1.00  0.00     0.012 C 
ENDROOT
TORSDOF 0
ENDMDL
