MODEL 1
REMARK VINA RESULT:    -4.392      0.000      0.000
REMARK INTER + INTRA:          -9.071
REMARK INTER:                  -6.702
REMARK INTRA:                  -2.369
REMARK UNBOUND:                -2.369
REMARK SMILES CC(=O)CCC=C(C)CCC=C(C)CCC=C(C)C
REMARK SMILES IDX 10 1 11 2 12 3 13 4 14 5 15 6 16 7 18 8 17 9 19 10 9 11 7 12
REMARK SMILES IDX 6 13 8 14 5 15 4 16 2 17 3 18 1 19
REMARK H PARENT
REMARK Flexibility Score: inf
ROOT
ATOM      1  C   UNL     1     128.860 121.771  98.553  1.00  0.00     0.032 C 
ENDROOT
BRANCH   1   2
ATOM      2  C   UNL     1     128.972 120.688  99.599  1.00  0.00    -0.028 C 
ATOM      3  C   UNL     1     129.572 119.488  99.429  1.00  0.00    -0.077 C 
ATOM      4  C   UNL     1     129.520 118.502 100.567  1.00  0.00     0.039 C 
BRANCH   3   5
ATOM      5  C   UNL     1     130.301 119.097  98.157  1.00  0.00     0.034 C 
BRANCH   5   6
ATOM      6  C   UNL     1     131.825 119.139  98.333  1.00  0.00     0.032 C 
BRANCH   6   7
ATOM      7  C   UNL     1     132.360 120.537  98.121  1.00  0.00    -0.028 C 
ATOM      8  C   UNL     1     132.817 120.931 100.553  1.00  0.00     0.039 C 
ATOM      9  C   UNL     1     132.833 121.340  99.100  1.00  0.00    -0.080 C 
ATOM     10  C   UNL     1     133.392 122.685  98.714  1.00  0.00     0.039 C 
ENDBRANCH   6   7
ENDBRANCH   5   6
ENDBRANCH   3   5
ENDBRANCH   1   2
BRANCH   1  11
ATOM     11  C   UNL     1     128.404 123.101  99.169  1.00  0.00     0.034 C 
BRANCH  11  12
ATOM     12  C   UNL     1     129.472 124.175  99.059  1.00  0.00    -0.077 C 
ATOM     13  C   UNL     1     130.371 124.436 100.037  1.00  0.00    -0.028 C 
ATOM     14  C   UNL     1     129.517 125.017  97.810  1.00  0.00     0.039 C 
BRANCH  13  15
ATOM     15  C   UNL     1     130.506 123.659 101.322  1.00  0.00     0.035 C 
BRANCH  15  16
ATOM     16  C   UNL     1     130.266 124.565 102.534  1.00  0.00     0.079 C 
BRANCH  16  17
ATOM     17  C   UNL     1     128.829 124.501 102.970  1.00  0.00     0.130 C 
ATOM     18  O   UNL     1     128.141 123.543 102.652  1.00  0.00    -0.300 OA
ATOM     19  C   UNL     1     128.240 125.592 103.812  1.00  0.00     0.087 C 
ENDBRANCH  16  17
ENDBRANCH  15  16
ENDBRANCH  13  15
ENDBRANCH  11  12
ENDBRANCH   1  11
TORSDOF 9
ENDMDL
MODEL 2
REMARK VINA RESULT:    -4.363     12.055     15.593
REMARK INTER + INTRA:          -9.028
REMARK INTER:                  -6.764
REMARK INTRA:                  -2.265
REMARK UNBOUND:                -2.369
REMARK SMILES CC(=O)CCC=C(C)CCC=C(C)CCC=C(C)C
REMARK SMILES IDX 10 1 11 2 12 3 13 4 14 5 15 6 16 7 18 8 17 9 19 10 9 11 7 12
REMARK SMILES IDX 6 13 8 14 5 15 4 16 2 17 3 18 1 19
REMARK H PARENT
REMARK Flexibility Score: inf
ROOT
ATOM      1  C   UNL     1     117.221 125.151 110.226  1.00  0.00     0.032 C 
ENDROOT
BRANCH   1   2
ATOM      2  C   UNL     1     118.061 123.934 109.919  1.00  0.00    -0.028 C 
ATOM      3  C   UNL     1     117.633 122.822 109.279  1.00  0.00    -0.077 C 
ATOM      4  C   UNL     1     118.597 121.674 109.129  1.00  0.00     0.039 C 
BRANCH   3   5
ATOM      5  C   UNL     1     116.238 122.684 108.698  1.00  0.00     0.034 C 
BRANCH   5   6
ATOM      6  C   UNL     1     116.269 122.236 107.230  1.00  0.00     0.032 C 
BRANCH   6   7
ATOM      7  C   UNL     1     115.145 121.271 106.932  1.00  0.00    -0.028 C 
ATOM      8  C   UNL     1     116.628 119.251 106.948  1.00  0.00     0.039 C 
ATOM      9  C   UNL     1     115.285 119.931 106.831  1.00  0.00    -0.080 C 
ATOM     10  C   UNL     1     114.051 119.098 106.592  1.00  0.00     0.039 C 
ENDBRANCH   6   7
ENDBRANCH   5   6
ENDBRANCH   3   5
ENDBRANCH   1   2
BRANCH   1  11
ATOM     11  C   UNL     1     117.551 126.312 109.278  1.00  0.00     0.034 C 
BRANCH  11  12
ATOM     12  C   UNL     1     116.939 126.116 107.902  1.00  0.00    -0.077 C 
ATOM     13  C   UNL     1     117.671 125.902 106.784  1.00  0.00    -0.028 C 
ATOM     14  C   UNL     1     115.440 126.193 107.766  1.00  0.00     0.039 C 
BRANCH  13  15
ATOM     15  C   UNL     1     119.170 125.741 106.745  1.00  0.00     0.035 C 
BRANCH  15  16
ATOM     16  C   UNL     1     119.555 124.284 106.464  1.00  0.00     0.079 C 
BRANCH  16  17
ATOM     17  C   UNL     1     119.816 124.075 104.998  1.00  0.00     0.130 C 
ATOM     18  O   UNL     1     118.875 123.963 104.225  1.00  0.00    -0.300 OA
ATOM     19  C   UNL     1     121.219 124.028 104.474  1.00  0.00     0.087 C 
ENDBRANCH  16  17
ENDBRANCH  15  16
ENDBRANCH  13  15
ENDBRANCH  11  12
ENDBRANCH   1  11
TORSDOF 9
ENDMDL
MODEL 3
REMARK VINA RESULT:    -4.354     11.111     15.528
REMARK INTER + INTRA:          -9.013
REMARK INTER:                  -6.893
REMARK INTRA:                  -2.120
REMARK UNBOUND:                -2.369
REMARK SMILES CC(=O)CCC=C(C)CCC=C(C)CCC=C(C)C
REMARK SMILES IDX 10 1 11 2 12 3 13 4 14 5 15 6 16 7 18 8 17 9 19 10 9 11 7 12
REMARK SMILES IDX 6 13 8 14 5 15 4 16 2 17 3 18 1 19
REMARK H PARENT
REMARK Flexibility Score: inf
ROOT
ATOM      1  C   UNL     1     118.805 125.870 108.325  1.00  0.00     0.032 C 
ENDROOT
BRANCH   1   2
ATOM      2  C   UNL     1     118.175 127.047 109.031  1.00  0.00    -0.028 C 
ATOM      3  C   UNL     1     117.227 126.973 109.993  1.00  0.00    -0.077 C 
ATOM      4  C   UNL     1     116.661 128.261 110.532  1.00  0.00     0.039 C 
BRANCH   3   5
ATOM      5  C   UNL     1     116.720 125.660 110.559  1.00  0.00     0.034 C 
BRANCH   5   6
ATOM      6  C   UNL     1     115.342 125.286 109.999  1.00  0.00     0.032 C 
BRANCH   6   7
ATOM      7  C   UNL     1     115.471 124.378 108.797  1.00  0.00    -0.028 C 
ATOM      8  C   UNL     1     114.971 126.192 107.142  1.00  0.00     0.039 C 
ATOM      9  C   UNL     1     115.335 124.774 107.512  1.00  0.00    -0.080 C 
ATOM     10  C   UNL     1     115.559 123.758 106.422  1.00  0.00     0.039 C 
ENDBRANCH   6   7
ENDBRANCH   5   6
ENDBRANCH   3   5
ENDBRANCH   1   2
BRANCH   1  11
ATOM     11  C   UNL     1     119.148 126.209 106.868  1.00  0.00     0.034 C 
BRANCH  11  12
ATOM     12  C   UNL     1     120.610 126.584 106.699  1.00  0.00    -0.077 C 
ATOM     13  C   UNL     1     121.568 125.704 106.326  1.00  0.00    -0.028 C 
ATOM     14  C   UNL     1     121.024 128.004 106.992  1.00  0.00     0.039 C 
BRANCH  13  15
ATOM     15  C   UNL     1     121.324 124.267 105.941  1.00  0.00     0.035 C 
BRANCH  15  16
ATOM     16  C   UNL     1     120.986 124.150 104.451  1.00  0.00     0.079 C 
BRANCH  16  17
ATOM     17  C   UNL     1     119.621 123.551 104.260  1.00  0.00     0.130 C 
ATOM     18  O   UNL     1     119.053 123.668 103.184  1.00  0.00    -0.300 OA
ATOM     19  C   UNL     1     118.961 122.791 105.370  1.00  0.00     0.087 C 
ENDBRANCH  16  17
ENDBRANCH  15  16
ENDBRANCH  13  15
ENDBRANCH  11  12
ENDBRANCH   1  11
TORSDOF 9
ENDMDL
MODEL 4
REMARK VINA RESULT:    -4.323     12.846     16.059
REMARK INTER + INTRA:          -8.966
REMARK INTER:                  -6.559
REMARK INTRA:                  -2.407
REMARK UNBOUND:                -2.369
REMARK SMILES CC(=O)CCC=C(C)CCC=C(C)CCC=C(C)C
REMARK SMILES IDX 10 1 11 2 12 3 13 4 14 5 15 6 16 7 18 8 17 9 19 10 9 11 7 12
REMARK SMILES IDX 6 13 8 14 5 15 4 16 2 17 3 18 1 19
REMARK H PARENT
REMARK Flexibility Score: inf
ROOT
ATOM      1  C   UNL     1     118.106 126.217 107.091  1.00  0.00     0.032 C 
ENDROOT
BRANCH   1   2
ATOM      2  C   UNL     1     117.378 124.934 107.410  1.00  0.00    -0.028 C 
ATOM      3  C   UNL     1     116.036 124.789 107.492  1.00  0.00    -0.077 C 
ATOM      4  C   UNL     1     115.490 123.443 107.897  1.00  0.00     0.039 C 
BRANCH   3   5
ATOM      5  C   UNL     1     115.060 125.908 107.183  1.00  0.00     0.034 C 
BRANCH   5   6
ATOM      6  C   UNL     1     114.374 126.439 108.449  1.00  0.00     0.032 C 
BRANCH   6   7
ATOM      7  C   UNL     1     115.130 127.615 109.025  1.00  0.00    -0.028 C 
ATOM      8  C   UNL     1     116.167 126.278 110.873  1.00  0.00     0.039 C 
ATOM      9  C   UNL     1     115.957 127.552 110.091  1.00  0.00    -0.080 C 
ATOM     10  C   UNL     1     116.689 128.804 110.504  1.00  0.00     0.039 C 
ENDBRANCH   6   7
ENDBRANCH   5   6
ENDBRANCH   3   5
ENDBRANCH   1   2
BRANCH   1  11
ATOM     11  C   UNL     1     119.011 126.652 108.251  1.00  0.00     0.034 C 
BRANCH  11  12
ATOM     12  C   UNL     1     120.463 126.783 107.823  1.00  0.00    -0.077 C 
ATOM     13  C   UNL     1     121.354 125.767 107.885  1.00  0.00    -0.028 C 
ATOM     14  C   UNL     1     120.947 128.123 107.331  1.00  0.00     0.039 C 
BRANCH  13  15
ATOM     15  C   UNL     1     121.030 124.352 108.296  1.00  0.00     0.035 C 
BRANCH  15  16
ATOM     16  C   UNL     1     121.350 124.129 109.778  1.00  0.00     0.079 C 
BRANCH  16  17
ATOM     17  C   UNL     1     120.320 123.238 110.416  1.00  0.00     0.130 C 
ATOM     18  O   UNL     1     120.645 122.134 110.829  1.00  0.00    -0.300 OA
ATOM     19  C   UNL     1     118.903 123.702 110.570  1.00  0.00     0.087 C 
ENDBRANCH  16  17
ENDBRANCH  15  16
ENDBRANCH  13  15
ENDBRANCH  11  12
ENDBRANCH   1  11
TORSDOF 9
ENDMDL
MODEL 5
REMARK VINA RESULT:    -4.323     12.993     15.774
REMARK INTER + INTRA:          -8.966
REMARK INTER:                  -5.821
REMARK INTRA:                  -3.145
REMARK UNBOUND:                -2.369
REMARK SMILES CC(=O)CCC=C(C)CCC=C(C)CCC=C(C)C
REMARK SMILES IDX 10 1 11 2 12 3 13 4 14 5 15 6 16 7 18 8 17 9 19 10 9 11 7 12
REMARK SMILES IDX 6 13 8 14 5 15 4 16 2 17 3 18 1 19
REMARK H PARENT
REMARK Flexibility Score: inf
ROOT
ATOM      1  C   UNL     1     116.610 126.362 110.551  1.00  0.00     0.032 C 
ENDROOT
BRANCH   1   2
ATOM      2  C   UNL     1     118.095 126.097 110.495  1.00  0.00    -0.028 C 
ATOM      3  C   UNL     1     118.681 124.879 110.540  1.00  0.00    -0.077 C 
ATOM      4  C   UNL     1     120.187 124.815 110.547  1.00  0.00     0.039 C 
BRANCH   3   5
ATOM      5  C   UNL     1     117.896 123.581 110.569  1.00  0.00     0.034 C 
BRANCH   5   6
ATOM      6  C   UNL     1     118.252 122.667 109.389  1.00  0.00     0.032 C 
BRANCH   6   7
ATOM      7  C   UNL     1     117.007 122.113 108.735  1.00  0.00    -0.028 C 
ATOM      8  C   UNL     1     118.096 121.805 106.499  1.00  0.00     0.039 C 
ATOM      9  C   UNL     1     116.930 121.697 107.451  1.00  0.00    -0.080 C 
ATOM     10  C   UNL     1     115.630 121.107 106.967  1.00  0.00     0.039 C 
ENDBRANCH   6   7
ENDBRANCH   5   6
ENDBRANCH   3   5
ENDBRANCH   1   2
BRANCH   1  11
ATOM     11  C   UNL     1     116.073 126.833 109.192  1.00  0.00     0.034 C 
BRANCH  11  12
ATOM     12  C   UNL     1     115.838 125.674 108.239  1.00  0.00    -0.077 C 
ATOM     13  C   UNL     1     116.611 125.431 107.156  1.00  0.00    -0.028 C 
ATOM     14  C   UNL     1     114.663 124.764 108.493  1.00  0.00     0.039 C 
BRANCH  13  15
ATOM     15  C   UNL     1     117.852 126.202 106.784  1.00  0.00     0.035 C 
BRANCH  15  16
ATOM     16  C   UNL     1     119.102 125.327 106.930  1.00  0.00     0.079 C 
BRANCH  16  17
ATOM     17  C   UNL     1     120.349 126.166 106.867  1.00  0.00     0.130 C 
ATOM     18  O   UNL     1     121.238 125.872 106.081  1.00  0.00    -0.300 OA
ATOM     19  C   UNL     1     120.499 127.372 107.743  1.00  0.00     0.087 C 
ENDBRANCH  16  17
ENDBRANCH  15  16
ENDBRANCH  13  15
ENDBRANCH  11  12
ENDBRANCH   1  11
TORSDOF 9
ENDMDL
MODEL 6
REMARK VINA RESULT:    -4.293     12.979     16.280
REMARK INTER + INTRA:          -8.921
REMARK INTER:                  -5.843
REMARK INTRA:                  -3.079
REMARK UNBOUND:                -2.369
REMARK SMILES CC(=O)CCC=C(C)CCC=C(C)CCC=C(C)C
REMARK SMILES IDX 10 1 11 2 12 3 13 4 14 5 15 6 16 7 18 8 17 9 19 10 9 11 7 12
REMARK SMILES IDX 6 13 8 14 5 15 4 16 2 17 3 18 1 19
REMARK H PARENT
REMARK Flexibility Score: inf
ROOT
ATOM      1  C   UNL     1     119.194 124.140 110.485  1.00  0.00     0.032 C 
ENDROOT
BRANCH   1   2
ATOM      2  C   UNL     1     118.742 125.554 110.208  1.00  0.00    -0.028 C 
ATOM      3  C   UNL     1     117.474 126.012 110.323  1.00  0.00    -0.077 C 
ATOM      4  C   UNL     1     117.197 127.440 109.930  1.00  0.00     0.039 C 
BRANCH   3   5
ATOM      5  C   UNL     1     116.328 125.162 110.838  1.00  0.00     0.034 C 
BRANCH   5   6
ATOM      6  C   UNL     1     115.005 125.492 110.134  1.00  0.00     0.032 C 
BRANCH   6   7
ATOM      7  C   UNL     1     114.638 124.419 109.134  1.00  0.00    -0.028 C 
ATOM      8  C   UNL     1     115.233 125.815 107.140  1.00  0.00     0.039 C 
ATOM      9  C   UNL     1     114.761 124.538 107.794  1.00  0.00    -0.080 C 
ATOM     10  C   UNL     1     114.412 123.350 106.934  1.00  0.00     0.039 C 
ENDBRANCH   6   7
ENDBRANCH   5   6
ENDBRANCH   3   5
ENDBRANCH   1   2
BRANCH   1  11
ATOM     11  C   UNL     1     119.610 123.422 109.194  1.00  0.00     0.034 C 
BRANCH  11  12
ATOM     12  C   UNL     1     118.409 123.005 108.362  1.00  0.00    -0.077 C 
ATOM     13  C   UNL     1     118.195 123.431 107.095  1.00  0.00    -0.028 C 
ATOM     14  C   UNL     1     117.384 122.095 108.989  1.00  0.00     0.039 C 
BRANCH  13  15
ATOM     15  C   UNL     1     119.140 124.294 106.298  1.00  0.00     0.035 C 
BRANCH  15  16
ATOM     16  C   UNL     1     118.988 125.770 106.684  1.00  0.00     0.079 C 
BRANCH  16  17
ATOM     17  C   UNL     1     120.334 126.427 106.814  1.00  0.00     0.130 C 
ATOM     18  O   UNL     1     121.282 126.001 106.171  1.00  0.00    -0.300 OA
ATOM     19  C   UNL     1     120.517 127.616 107.709  1.00  0.00     0.087 C 
ENDBRANCH  16  17
ENDBRANCH  15  16
ENDBRANCH  13  15
ENDBRANCH  11  12
ENDBRANCH   1  11
TORSDOF 9
ENDMDL
MODEL 7
REMARK VINA RESULT:    -4.254     12.196     15.147
REMARK INTER + INTRA:          -8.861
REMARK INTER:                  -5.805
REMARK INTRA:                  -3.056
REMARK UNBOUND:                -2.369
REMARK SMILES CC(=O)CCC=C(C)CCC=C(C)CCC=C(C)C
REMARK SMILES IDX 10 1 11 2 12 3 13 4 14 5 15 6 16 7 18 8 17 9 19 10 9 11 7 12
REMARK SMILES IDX 6 13 8 14 5 15 4 16 2 17 3 18 1 19
REMARK H PARENT
REMARK Flexibility Score: inf
ROOT
ATOM      1  C   UNL     1     121.982 124.962 108.612  1.00  0.00     0.032 C 
ENDROOT
BRANCH   1   2
ATOM      2  C   UNL     1     121.318 123.637 108.899  1.00  0.00    -0.028 C 
ATOM      3  C   UNL     1     120.332 123.429 109.801  1.00  0.00    -0.077 C 
ATOM      4  C   UNL     1     119.841 122.018 110.003  1.00  0.00     0.039 C 
BRANCH   3   5
ATOM      5  C   UNL     1     119.691 124.546 110.603  1.00  0.00     0.034 C 
BRANCH   5   6
ATOM      6  C   UNL     1     118.290 124.896 110.084  1.00  0.00     0.032 C 
BRANCH   6   7
ATOM      7  C   UNL     1     117.952 126.343 110.364  1.00  0.00    -0.028 C 
ATOM      8  C   UNL     1     116.131 126.442 108.645  1.00  0.00     0.039 C 
ATOM      9  C   UNL     1     116.970 127.039 109.749  1.00  0.00    -0.080 C 
ATOM     10  C   UNL     1     116.716 128.458 110.188  1.00  0.00     0.039 C 
ENDBRANCH   6   7
ENDBRANCH   5   6
ENDBRANCH   3   5
ENDBRANCH   1   2
BRANCH   1  11
ATOM     11  C   UNL     1     121.633 125.472 107.208  1.00  0.00     0.034 C 
BRANCH  11  12
ATOM     12  C   UNL     1     120.345 126.279 107.199  1.00  0.00    -0.077 C 
ATOM     13  C   UNL     1     119.192 125.836 106.646  1.00  0.00    -0.028 C 
ATOM     14  C   UNL     1     120.358 127.657 107.809  1.00  0.00     0.039 C 
BRANCH  13  15
ATOM     15  C   UNL     1     118.985 124.469 106.045  1.00  0.00     0.035 C 
BRANCH  15  16
ATOM     16  C   UNL     1     117.572 123.952 106.336  1.00  0.00     0.079 C 
BRANCH  16  17
ATOM     17  C   UNL     1     117.625 122.614 107.021  1.00  0.00     0.130 C 
ATOM     18  O   UNL     1     118.501 121.816 106.724  1.00  0.00    -0.300 OA
ATOM     19  C   UNL     1     116.626 122.262 108.081  1.00  0.00     0.087 C 
ENDBRANCH  16  17
ENDBRANCH  15  16
ENDBRANCH  13  15
ENDBRANCH  11  12
ENDBRANCH   1  11
TORSDOF 9
ENDMDL
MODEL 8
REMARK VINA RESULT:    -4.253     12.441     15.660
REMARK INTER + INTRA:          -8.859
REMARK INTER:                  -5.755
REMARK INTRA:                  -3.105
REMARK UNBOUND:                -2.369
REMARK SMILES CC(=O)CCC=C(C)CCC=C(C)CCC=C(C)C
REMARK SMILES IDX 10 1 11 2 12 3 13 4 14 5 15 6 16 7 18 8 17 9 19 10 9 11 7 12
REMARK SMILES IDX 6 13 8 14 5 15 4 16 2 17 3 18 1 19
REMARK H PARENT
REMARK Flexibility Score: inf
ROOT
ATOM      1  C   UNL     1     119.238 122.070 108.862  1.00  0.00     0.032 C 
ENDROOT
BRANCH   1   2
ATOM      2  C   UNL     1     119.780 123.279 109.586  1.00  0.00    -0.028 C 
ATOM      3  C   UNL     1     119.043 124.179 110.277  1.00  0.00    -0.077 C 
ATOM      4  C   UNL     1     119.751 125.367 110.874  1.00  0.00     0.039 C 
BRANCH   3   5
ATOM      5  C   UNL     1     117.547 124.039 110.489  1.00  0.00     0.034 C 
BRANCH   5   6
ATOM      6  C   UNL     1     116.843 125.402 110.534  1.00  0.00     0.032 C 
BRANCH   6   7
ATOM      7  C   UNL     1     116.444 125.855 109.148  1.00  0.00    -0.028 C 
ATOM      8  C   UNL     1     114.209 124.724 109.224  1.00  0.00     0.039 C 
ATOM      9  C   UNL     1     115.258 125.583 108.560  1.00  0.00    -0.080 C 
ATOM     10  C   UNL     1     114.986 126.164 107.196  1.00  0.00     0.039 C 
ENDBRANCH   6   7
ENDBRANCH   5   6
ENDBRANCH   3   5
ENDBRANCH   1   2
BRANCH   1  11
ATOM     11  C   UNL     1     119.230 122.284 107.342  1.00  0.00     0.034 C 
BRANCH  11  12
ATOM     12  C   UNL     1     117.991 123.031 106.879  1.00  0.00    -0.077 C 
ATOM     13  C   UNL     1     118.018 124.296 106.399  1.00  0.00    -0.028 C 
ATOM     14  C   UNL     1     116.656 122.340 106.987  1.00  0.00     0.039 C 
BRANCH  13  15
ATOM     15  C   UNL     1     119.265 125.111 106.171  1.00  0.00     0.035 C 
BRANCH  15  16
ATOM     16  C   UNL     1     119.231 126.403 106.996  1.00  0.00     0.079 C 
BRANCH  16  17
ATOM     17  C   UNL     1     120.618 126.800 107.421  1.00  0.00     0.130 C 
ATOM     18  O   UNL     1     120.873 127.976 107.632  1.00  0.00    -0.300 OA
ATOM     19  C   UNL     1     121.681 125.761 107.611  1.00  0.00     0.087 C 
ENDBRANCH  16  17
ENDBRANCH  15  16
ENDBRANCH  13  15
ENDBRANCH  11  12
ENDBRANCH   1  11
TORSDOF 9
ENDMDL
MODEL 9
REMARK VINA RESULT:    -4.245     10.970     14.657
REMARK INTER + INTRA:          -8.847
REMARK INTER:                  -5.560
REMARK INTRA:                  -3.286
REMARK UNBOUND:                -2.369
REMARK SMILES CC(=O)CCC=C(C)CCC=C(C)CCC=C(C)C
REMARK SMILES IDX 10 1 11 2 12 3 13 4 14 5 15 6 16 7 18 8 17 9 19 10 9 11 7 12
REMARK SMILES IDX 6 13 8 14 5 15 4 16 2 17 3 18 1 19
REMARK H PARENT
REMARK Flexibility Score: inf
ROOT
ATOM      1  C   UNL     1     118.006 125.969 110.363  1.00  0.00     0.032 C 
ENDROOT
BRANCH   1   2
ATOM      2  C   UNL     1     119.372 125.373 110.116  1.00  0.00    -0.028 C 
ATOM      3  C   UNL     1     120.227 125.744 109.137  1.00  0.00    -0.077 C 
ATOM      4  C   UNL     1     121.521 124.982 108.998  1.00  0.00     0.039 C 
BRANCH   3   5
ATOM      5  C   UNL     1     119.952 126.893 108.185  1.00  0.00     0.034 C 
BRANCH   5   6
ATOM      6  C   UNL     1     120.497 126.617 106.777  1.00  0.00     0.032 C 
BRANCH   6   7
ATOM      7  C   UNL     1     119.580 125.691 106.011  1.00  0.00    -0.028 C 
ATOM      8  C   UNL     1     121.449 124.285 105.111  1.00  0.00     0.039 C 
ATOM      9  C   UNL     1     119.989 124.627 105.285  1.00  0.00    -0.080 C 
ATOM     10  C   UNL     1     118.942 123.763 104.630  1.00  0.00     0.039 C 
ENDBRANCH   6   7
ENDBRANCH   5   6
ENDBRANCH   3   5
ENDBRANCH   1   2
BRANCH   1  11
ATOM     11  C   UNL     1     116.890 124.989 109.978  1.00  0.00     0.034 C 
BRANCH  11  12
ATOM     12  C   UNL     1     116.700 124.903 108.473  1.00  0.00    -0.077 C 
ATOM     13  C   UNL     1     117.003 123.804 107.744  1.00  0.00    -0.028 C 
ATOM     14  C   UNL     1     116.177 126.116 107.747  1.00  0.00     0.039 C 
BRANCH  13  15
ATOM     15  C   UNL     1     117.481 122.491 108.311  1.00  0.00     0.035 C 
BRANCH  15  16
ATOM     16  C   UNL     1     118.989 122.321 108.097  1.00  0.00     0.079 C 
BRANCH  16  17
ATOM     17  C   UNL     1     119.634 121.714 109.312  1.00  0.00     0.130 C 
ATOM     18  O   UNL     1     120.719 121.160 109.209  1.00  0.00    -0.300 OA
ATOM     19  C   UNL     1     118.969 121.805 110.652  1.00  0.00     0.087 C 
ENDBRANCH  16  17
ENDBRANCH  15  16
ENDBRANCH  13  15
ENDBRANCH  11  12
ENDBRANCH   1  11
TORSDOF 9
ENDMDL
