MODEL 1
REMARK VINA RESULT:    -1.865      0.000      0.000
REMARK INTER + INTRA:          -3.664
REMARK INTER:                  -3.609
REMARK INTRA:                  -0.056
REMARK UNBOUND:                -0.056
REMARK SMILES CCCCCCCCCCCCCCCCCC(=O)[O-]
REMARK SMILES IDX 10 1 11 2 12 3 13 4 14 5 15 6 16 7 17 8 18 9 19 10 20 11
REMARK SMILES IDX 9 12 8 13 7 14 6 15 5 16 4 17 3 18 2 19 1 20
REMARK H PARENT
REMARK Flexibility Score: inf
ROOT
ATOM      1  C   UNL     1      36.358 107.236 263.589  1.00  0.00     0.000 C 
ENDROOT
BRANCH   1   2
ATOM      2  C   UNL     1      35.778 105.941 262.985  1.00  0.00     0.000 C 
BRANCH   2   3
ATOM      3  C   UNL     1      35.392 104.855 264.006  1.00  0.00     0.000 C 
BRANCH   3   4
ATOM      4  C   UNL     1      36.582 104.396 264.867  1.00  0.00     0.000 C 
BRANCH   4   5
ATOM      5  C   UNL     1      36.279 104.465 266.373  1.00  0.00     0.000 C 
BRANCH   5   6
ATOM      6  C   UNL     1      34.882 105.034 266.669  1.00  0.00     0.000 C 
BRANCH   6   7
ATOM      7  C   UNL     1      34.932 106.359 267.451  1.00  0.00     0.006 C 
BRANCH   7   8
ATOM      8  C   UNL     1      35.016 107.615 266.568  1.00  0.00     0.053 C 
BRANCH   8   9
ATOM      9  C   UNL     1      35.130 108.867 267.383  1.00  0.00     0.041 C 
ATOM     10  O   UNL     1      34.938 109.991 266.849  1.00  0.00    -0.550 OA
ATOM     11  O   UNL     1      35.482 108.792 268.725  1.00  0.00    -0.550 OA
ENDBRANCH   8   9
ENDBRANCH   7   8
ENDBRANCH   6   7
ENDBRANCH   5   6
ENDBRANCH   4   5
ENDBRANCH   3   4
ENDBRANCH   2   3
ENDBRANCH   1   2
BRANCH   1  12
ATOM     12  C   UNL     1      37.890 107.257 263.743  1.00  0.00     0.000 C 
BRANCH  12  13
ATOM     13  C   UNL     1      38.626 107.180 262.399  1.00  0.00    -0.000 C 
BRANCH  13  14
ATOM     14  C   UNL     1      37.705 106.633 261.299  1.00  0.00    -0.000 C 
BRANCH  14  15
ATOM     15  C   UNL     1      38.409 105.626 260.373  1.00  0.00    -0.000 C 
BRANCH  15  16
ATOM     16  C   UNL     1      38.297 105.935 258.866  1.00  0.00    -0.000 C 
BRANCH  16  17
ATOM     17  C   UNL     1      36.965 105.522 258.211  1.00  0.00    -0.000 C 
BRANCH  17  18
ATOM     18  C   UNL     1      36.012 106.689 257.880  1.00  0.00    -0.000 C 
BRANCH  18  19
ATOM     19  C   UNL     1      35.994 107.823 258.921  1.00  0.00    -0.003 C 
ATOM     20  C   UNL     1      35.521 109.155 258.342  1.00  0.00     0.004 C 
ENDBRANCH  18  19
ENDBRANCH  17  18
ENDBRANCH  16  17
ENDBRANCH  15  16
ENDBRANCH  14  15
ENDBRANCH  13  14
ENDBRANCH  12  13
ENDBRANCH   1  12
TORSDOF 16
ENDMDL
MODEL 2
REMARK VINA RESULT:    -1.459      1.922      2.594
REMARK INTER + INTRA:          -2.879
REMARK INTER:                  -2.264
REMARK INTRA:                  -0.615
REMARK UNBOUND:                -0.056
REMARK SMILES CCCCCCCCCCCCCCCCCC(=O)[O-]
REMARK SMILES IDX 10 1 11 2 12 3 13 4 14 5 15 6 16 7 17 8 18 9 19 10 20 11
REMARK SMILES IDX 9 12 8 13 7 14 6 15 5 16 4 17 3 18 2 19 1 20
REMARK H PARENT
REMARK Flexibility Score: inf
ROOT
ATOM      1  C   UNL     1      36.908 105.963 262.953  1.00  0.00     0.000 C 
ENDROOT
BRANCH   1   2
ATOM      2  C   UNL     1      35.376 105.936 263.132  1.00  0.00     0.000 C 
BRANCH   2   3
ATOM      3  C   UNL     1      34.878 106.172 264.570  1.00  0.00     0.000 C 
BRANCH   3   4
ATOM      4  C   UNL     1      35.666 107.274 265.299  1.00  0.00     0.000 C 
BRANCH   4   5
ATOM      5  C   UNL     1      34.877 108.590 265.404  1.00  0.00     0.000 C 
BRANCH   5   6
ATOM      6  C   UNL     1      35.248 109.402 266.655  1.00  0.00     0.000 C 
BRANCH   6   7
ATOM      7  C   UNL     1      34.875 108.682 267.965  1.00  0.00     0.006 C 
BRANCH   7   8
ATOM      8  C   UNL     1      35.888 107.616 268.414  1.00  0.00     0.053 C 
BRANCH   8   9
ATOM      9  C   UNL     1      35.234 106.510 269.183  1.00  0.00     0.041 C 
ATOM     10  O   UNL     1      35.005 106.641 270.414  1.00  0.00    -0.550 OA
ATOM     11  O   UNL     1      34.907 105.320 268.545  1.00  0.00    -0.550 OA
ENDBRANCH   8   9
ENDBRANCH   7   8
ENDBRANCH   6   7
ENDBRANCH   5   6
ENDBRANCH   4   5
ENDBRANCH   3   4
ENDBRANCH   2   3
ENDBRANCH   1   2
BRANCH   1  12
ATOM     12  C   UNL     1      37.528 107.366 262.829  1.00  0.00     0.000 C 
BRANCH  12  13
ATOM     13  C   UNL     1      38.937 107.451 263.431  1.00  0.00    -0.000 C 
BRANCH  13  14
ATOM     14  C   UNL     1      40.008 107.375 262.333  1.00  0.00    -0.000 C 
BRANCH  14  15
ATOM     15  C   UNL     1      39.917 106.088 261.495  1.00  0.00    -0.000 C 
BRANCH  15  16
ATOM     16  C   UNL     1      39.207 106.242 260.135  1.00  0.00    -0.000 C 
BRANCH  16  17
ATOM     17  C   UNL     1      38.165 105.154 259.814  1.00  0.00    -0.000 C 
BRANCH  17  18
ATOM     18  C   UNL     1      36.826 105.678 259.256  1.00  0.00    -0.000 C 
BRANCH  18  19
ATOM     19  C   UNL     1      36.698 107.212 259.218  1.00  0.00    -0.003 C 
ATOM     20  C   UNL     1      35.783 107.706 258.100  1.00  0.00     0.004 C 
ENDBRANCH  18  19
ENDBRANCH  17  18
ENDBRANCH  16  17
ENDBRANCH  15  16
ENDBRANCH  14  15
ENDBRANCH  13  14
ENDBRANCH  12  13
ENDBRANCH   1  12
TORSDOF 16
ENDMDL
MODEL 3
REMARK VINA RESULT:    -1.042      2.595      7.122
REMARK INTER + INTRA:          -2.073
REMARK INTER:                  -2.216
REMARK INTRA:                   0.143
REMARK UNBOUND:                -0.056
REMARK SMILES CCCCCCCCCCCCCCCCCC(=O)[O-]
REMARK SMILES IDX 10 1 11 2 12 3 13 4 14 5 15 6 16 7 17 8 18 9 19 10 20 11
REMARK SMILES IDX 9 12 8 13 7 14 6 15 5 16 4 17 3 18 2 19 1 20
REMARK H PARENT
REMARK Flexibility Score: inf
ROOT
ATOM      1  C   UNL     1      36.005 107.215 265.183  1.00  0.00     0.000 C 
ENDROOT
BRANCH   1   2
ATOM      2  C   UNL     1      36.101 106.342 263.915  1.00  0.00     0.000 C 
BRANCH   2   3
ATOM      3  C   UNL     1      34.914 105.391 263.681  1.00  0.00     0.000 C 
BRANCH   3   4
ATOM      4  C   UNL     1      34.968 104.696 262.309  1.00  0.00     0.000 C 
BRANCH   4   5
ATOM      5  C   UNL     1      36.385 104.683 261.713  1.00  0.00     0.000 C 
BRANCH   5   6
ATOM      6  C   UNL     1      36.397 105.024 260.213  1.00  0.00     0.000 C 
BRANCH   6   7
ATOM      7  C   UNL     1      37.180 106.313 259.902  1.00  0.00     0.006 C 
BRANCH   7   8
ATOM      8  C   UNL     1      38.666 106.264 260.295  1.00  0.00     0.053 C 
BRANCH   8   9
ATOM      9  C   UNL     1      38.902 106.818 261.666  1.00  0.00     0.041 C 
ATOM     10  O   UNL     1      38.141 107.706 262.131  1.00  0.00    -0.550 OA
ATOM     11  O   UNL     1      39.985 106.376 262.417  1.00  0.00    -0.550 OA
ENDBRANCH   8   9
ENDBRANCH   7   8
ENDBRANCH   6   7
ENDBRANCH   5   6
ENDBRANCH   4   5
ENDBRANCH   3   4
ENDBRANCH   2   3
ENDBRANCH   1   2
BRANCH   1  12
ATOM     12  C   UNL     1      35.081 108.441 265.065  1.00  0.00     0.000 C 
BRANCH  12  13
ATOM     13  C   UNL     1      35.261 109.437 266.219  1.00  0.00    -0.000 C 
BRANCH  13  14
ATOM     14  C   UNL     1      34.876 108.798 267.561  1.00  0.00    -0.000 C 
BRANCH  14  15
ATOM     15  C   UNL     1      36.034 108.014 268.204  1.00  0.00    -0.000 C 
BRANCH  15  16
ATOM     16  C   UNL     1      35.621 107.057 269.341  1.00  0.00    -0.000 C 
BRANCH  16  17
ATOM     17  C   UNL     1      34.905 105.772 268.885  1.00  0.00    -0.000 C 
BRANCH  17  18
ATOM     18  C   UNL     1      34.875 105.547 267.359  1.00  0.00    -0.000 C 
BRANCH  18  19
ATOM     19  C   UNL     1      35.239 104.121 266.909  1.00  0.00    -0.003 C 
ATOM     20  C   UNL     1      36.620 104.034 266.264  1.00  0.00     0.004 C 
ENDBRANCH  18  19
ENDBRANCH  17  18
ENDBRANCH  16  17
ENDBRANCH  15  16
ENDBRANCH  14  15
ENDBRANCH  13  14
ENDBRANCH  12  13
ENDBRANCH   1  12
TORSDOF 16
ENDMDL
MODEL 4
REMARK VINA RESULT:    -0.342      1.797      3.530
REMARK INTER + INTRA:          -0.717
REMARK INTER:                  -1.300
REMARK INTRA:                   0.583
REMARK UNBOUND:                -0.056
REMARK SMILES CCCCCCCCCCCCCCCCCC(=O)[O-]
REMARK SMILES IDX 10 1 11 2 12 3 13 4 14 5 15 6 16 7 17 8 18 9 19 10 20 11
REMARK SMILES IDX 9 12 8 13 7 14 6 15 5 16 4 17 3 18 2 19 1 20
REMARK H PARENT
REMARK Flexibility Score: inf
ROOT
ATOM      1  C   UNL     1      35.998 105.043 263.188  1.00  0.00     0.000 C 
ENDROOT
BRANCH   1   2
ATOM      2  C   UNL     1      34.910 105.674 264.081  1.00  0.00     0.000 C 
BRANCH   2   3
ATOM      3  C   UNL     1      34.927 105.226 265.554  1.00  0.00     0.000 C 
BRANCH   3   4
ATOM      4  C   UNL     1      35.201 106.385 266.527  1.00  0.00     0.000 C 
BRANCH   4   5
ATOM      5  C   UNL     1      35.287 107.744 265.813  1.00  0.00     0.000 C 
BRANCH   5   6
ATOM      6  C   UNL     1      35.573 108.903 266.783  1.00  0.00     0.000 C 
BRANCH   6   7
ATOM      7  C   UNL     1      34.887 108.719 268.149  1.00  0.00     0.006 C 
BRANCH   7   8
ATOM      8  C   UNL     1      34.880 107.271 268.666  1.00  0.00     0.053 C 
BRANCH   8   9
ATOM      9  C   UNL     1      35.560 107.146 269.995  1.00  0.00     0.041 C 
ATOM     10  O   UNL     1      36.161 106.083 270.302  1.00  0.00    -0.550 OA
ATOM     11  O   UNL     1      35.502 108.193 270.906  1.00  0.00    -0.550 OA
ENDBRANCH   8   9
ENDBRANCH   7   8
ENDBRANCH   6   7
ENDBRANCH   5   6
ENDBRANCH   4   5
ENDBRANCH   3   4
ENDBRANCH   2   3
ENDBRANCH   1   2
BRANCH   1  12
ATOM     12  C   UNL     1      35.474 104.161 262.041  1.00  0.00     0.000 C 
BRANCH  12  13
ATOM     13  C   UNL     1      36.110 104.503 260.686  1.00  0.00    -0.000 C 
BRANCH  13  14
ATOM     14  C   UNL     1      36.046 106.013 260.416  1.00  0.00    -0.000 C 
BRANCH  14  15
ATOM     15  C   UNL     1      36.983 106.458 259.279  1.00  0.00    -0.000 C 
BRANCH  15  16
ATOM     16  C   UNL     1      38.413 105.887 259.351  1.00  0.00    -0.000 C 
BRANCH  16  17
ATOM     17  C   UNL     1      38.994 105.754 260.772  1.00  0.00    -0.000 C 
BRANCH  17  18
ATOM     18  C   UNL     1      39.485 107.074 261.402  1.00  0.00    -0.000 C 
BRANCH  18  19
ATOM     19  C   UNL     1      39.682 107.028 262.928  1.00  0.00    -0.003 C 
ATOM     20  C   UNL     1      38.398 107.316 263.703  1.00  0.00     0.004 C 
ENDBRANCH  18  19
ENDBRANCH  17  18
ENDBRANCH  16  17
ENDBRANCH  15  16
ENDBRANCH  14  15
ENDBRANCH  13  14
ENDBRANCH  12  13
ENDBRANCH   1  12
TORSDOF 16
ENDMDL
MODEL 5
REMARK VINA RESULT:    -0.177      2.568      7.497
REMARK INTER + INTRA:          -0.398
REMARK INTER:                   0.410
REMARK INTRA:                  -0.808
REMARK UNBOUND:                -0.056
REMARK SMILES CCCCCCCCCCCCCCCCCC(=O)[O-]
REMARK SMILES IDX 10 1 11 2 12 3 13 4 14 5 15 6 16 7 17 8 18 9 19 10 20 11
REMARK SMILES IDX 9 12 8 13 7 14 6 15 5 16 4 17 3 18 2 19 1 20
REMARK H PARENT
REMARK Flexibility Score: inf
ROOT
ATOM      1  C   UNL     1      34.932 104.874 263.515  1.00  0.00     0.000 C 
ENDROOT
BRANCH   1   2
ATOM      2  C   UNL     1      35.681 105.137 262.192  1.00  0.00     0.000 C 
BRANCH   2   3
ATOM      3  C   UNL     1      35.830 106.620 261.805  1.00  0.00     0.000 C 
BRANCH   3   4
ATOM      4  C   UNL     1      36.360 106.812 260.374  1.00  0.00     0.000 C 
BRANCH   4   5
ATOM      5  C   UNL     1      36.788 105.487 259.722  1.00  0.00     0.000 C 
BRANCH   5   6
ATOM      6  C   UNL     1      38.308 105.262 259.785  1.00  0.00     0.000 C 
BRANCH   6   7
ATOM      7  C   UNL     1      39.058 106.441 260.434  1.00  0.00     0.006 C 
BRANCH   7   8
ATOM      8  C   UNL     1      39.849 106.070 261.699  1.00  0.00     0.053 C 
BRANCH   8   9
ATOM      9  C   UNL     1      39.621 107.048 262.810  1.00  0.00     0.041 C 
ATOM     10  O   UNL     1      39.027 108.135 262.586  1.00  0.00    -0.550 OA
ATOM     11  O   UNL     1      40.095 106.772 264.087  1.00  0.00    -0.550 OA
ENDBRANCH   8   9
ENDBRANCH   7   8
ENDBRANCH   6   7
ENDBRANCH   5   6
ENDBRANCH   4   5
ENDBRANCH   3   4
ENDBRANCH   2   3
ENDBRANCH   1   2
BRANCH   1  12
ATOM     12  C   UNL     1      35.764 105.087 264.792  1.00  0.00     0.000 C 
BRANCH  12  13
ATOM     13  C   UNL     1      35.059 105.982 265.821  1.00  0.00    -0.000 C 
BRANCH  13  14
ATOM     14  C   UNL     1      34.885 107.409 265.280  1.00  0.00    -0.000 C 
BRANCH  14  15
ATOM     15  C   UNL     1      35.366 108.487 266.267  1.00  0.00    -0.000 C 
BRANCH  15  16
ATOM     16  C   UNL     1      35.005 108.227 267.744  1.00  0.00    -0.000 C 
BRANCH  16  17
ATOM     17  C   UNL     1      36.189 108.291 268.727  1.00  0.00    -0.000 C 
BRANCH  17  18
ATOM     18  C   UNL     1      35.940 107.614 270.091  1.00  0.00    -0.000 C 
BRANCH  18  19
ATOM     19  C   UNL     1      34.914 106.468 270.065  1.00  0.00    -0.003 C 
ATOM     20  C   UNL     1      35.204 105.432 268.981  1.00  0.00     0.004 C 
ENDBRANCH  18  19
ENDBRANCH  17  18
ENDBRANCH  16  17
ENDBRANCH  15  16
ENDBRANCH  14  15
ENDBRANCH  13  14
ENDBRANCH  12  13
ENDBRANCH   1  12
TORSDOF 16
ENDMDL
MODEL 6
REMARK VINA RESULT:     0.330      2.798      4.846
REMARK INTER + INTRA:           0.583
REMARK INTER:                  -0.595
REMARK INTRA:                   1.178
REMARK UNBOUND:                -0.056
REMARK SMILES CCCCCCCCCCCCCCCCCC(=O)[O-]
REMARK SMILES IDX 10 1 11 2 12 3 13 4 14 5 15 6 16 7 17 8 18 9 19 10 20 11
REMARK SMILES IDX 9 12 8 13 7 14 6 15 5 16 4 17 3 18 2 19 1 20
REMARK H PARENT
REMARK Flexibility Score: inf
ROOT
ATOM      1  C   UNL     1      35.442 105.527 267.711  1.00  0.00     0.000 C 
ENDROOT
BRANCH   1   2
ATOM      2  C   UNL     1      34.878 106.962 267.670  1.00  0.00     0.000 C 
BRANCH   2   3
ATOM      3  C   UNL     1      35.930 108.079 267.540  1.00  0.00     0.000 C 
BRANCH   3   4
ATOM      4  C   UNL     1      35.840 108.830 266.201  1.00  0.00     0.000 C 
BRANCH   4   5
ATOM      5  C   UNL     1      35.715 107.879 264.999  1.00  0.00     0.000 C 
BRANCH   5   6
ATOM      6  C   UNL     1      36.904 106.910 264.889  1.00  0.00     0.000 C 
BRANCH   6   7
ATOM      7  C   UNL     1      37.477 106.829 263.462  1.00  0.00     0.006 C 
BRANCH   7   8
ATOM      8  C   UNL     1      38.607 107.831 263.174  1.00  0.00     0.053 C 
BRANCH   8   9
ATOM      9  C   UNL     1      39.634 107.265 262.242  1.00  0.00     0.041 C 
ATOM     10  O   UNL     1      39.538 107.453 261.001  1.00  0.00    -0.550 OA
ATOM     11  O   UNL     1      40.682 106.502 262.744  1.00  0.00    -0.550 OA
ENDBRANCH   8   9
ENDBRANCH   7   8
ENDBRANCH   6   7
ENDBRANCH   5   6
ENDBRANCH   4   5
ENDBRANCH   3   4
ENDBRANCH   2   3
ENDBRANCH   1   2
BRANCH   1  12
ATOM     12  C   UNL     1      34.890 104.575 266.636  1.00  0.00     0.000 C 
BRANCH  12  13
ATOM     13  C   UNL     1      34.875 105.201 265.234  1.00  0.00    -0.000 C 
BRANCH  13  14
ATOM     14  C   UNL     1      35.490 104.247 264.200  1.00  0.00    -0.000 C 
BRANCH  14  15
ATOM     15  C   UNL     1      34.970 104.495 262.774  1.00  0.00    -0.000 C 
BRANCH  15  16
ATOM     16  C   UNL     1      36.013 104.299 261.655  1.00  0.00    -0.000 C 
BRANCH  16  17
ATOM     17  C   UNL     1      36.182 105.498 260.701  1.00  0.00    -0.000 C 
BRANCH  17  18
ATOM     18  C   UNL     1      37.433 105.443 259.801  1.00  0.00    -0.000 C 
BRANCH  18  19
ATOM     19  C   UNL     1      37.185 105.813 258.328  1.00  0.00    -0.003 C 
ATOM     20  C   UNL     1      36.374 107.097 258.164  1.00  0.00     0.004 C 
ENDBRANCH  18  19
ENDBRANCH  17  18
ENDBRANCH  16  17
ENDBRANCH  15  16
ENDBRANCH  14  15
ENDBRANCH  13  14
ENDBRANCH  12  13
ENDBRANCH   1  12
TORSDOF 16
ENDMDL
