MODEL 1
REMARK VINA RESULT:    -4.917      0.000      0.000
REMARK INTER + INTRA:         -10.586
REMARK INTER:                  -8.941
REMARK INTRA:                  -1.645
REMARK UNBOUND:                -1.645
REMARK SMILES CCCCCC=CCC=CCCCCCCCC(=O)[O-]
REMARK SMILES IDX 11 1 12 2 13 3 14 4 15 5 16 6 17 7 18 8 19 9 20 10 10 11
REMARK SMILES IDX 9 12 8 13 7 14 6 15 5 16 4 17 3 18 2 19 1 20
REMARK H PARENT
REMARK Flexibility Score: inf
ROOT
ATOM      1  C   UNL     1      -9.489  -8.344  14.968  1.00  0.00     0.027 C 
ENDROOT
BRANCH   1   2
ATOM      2  C   UNL     1      -8.691  -7.805  13.770  1.00  0.00     0.004 C 
BRANCH   2   3
ATOM      3  C   UNL     1      -8.832  -6.281  13.610  1.00  0.00     0.000 C 
BRANCH   3   4
ATOM      4  C   UNL     1      -7.492  -5.560  13.379  1.00  0.00     0.000 C 
BRANCH   4   5
ATOM      5  C   UNL     1      -7.561  -4.070  13.746  1.00  0.00     0.000 C 
BRANCH   5   6
ATOM      6  C   UNL     1      -9.017  -3.583  13.827  1.00  0.00     0.006 C 
BRANCH   6   7
ATOM      7  C   UNL     1      -9.258  -2.331  12.975  1.00  0.00     0.053 C 
BRANCH   7   8
ATOM      8  C   UNL     1     -10.680  -1.865  13.055  1.00  0.00     0.041 C 
ATOM      9  O   UNL     1     -11.608  -2.579  12.590  1.00  0.00    -0.550 OA
ATOM     10  O   UNL     1     -10.978  -0.635  13.627  1.00  0.00    -0.550 OA
ENDBRANCH   7   8
ENDBRANCH   6   7
ENDBRANCH   5   6
ENDBRANCH   4   5
ENDBRANCH   3   4
ENDBRANCH   2   3
ENDBRANCH   1   2
BRANCH   1  11
ATOM     11  C   UNL     1     -10.269  -7.237  15.630  1.00  0.00    -0.031 C 
ATOM     12  C   UNL     1     -10.773  -7.296  16.878  1.00  0.00    -0.027 C 
BRANCH  12  13
ATOM     13  C   UNL     1     -10.694  -8.505  17.779  1.00  0.00     0.054 C 
BRANCH  13  14
ATOM     14  C   UNL     1      -9.880  -8.218  19.015  1.00  0.00    -0.027 C 
ATOM     15  C   UNL     1      -8.543  -8.349  19.103  1.00  0.00    -0.031 C 
BRANCH  15  16
ATOM     16  C   UNL     1      -7.645  -8.845  17.994  1.00  0.00     0.027 C 
BRANCH  16  17
ATOM     17  C   UNL     1      -6.554  -7.821  17.658  1.00  0.00     0.004 C 
BRANCH  17  18
ATOM     18  C   UNL     1      -6.185  -6.949  18.867  1.00  0.00     0.000 C 
BRANCH  18  19
ATOM     19  C   UNL     1      -4.665  -6.787  18.985  1.00  0.00    -0.003 C 
ATOM     20  C   UNL     1      -3.959  -7.256  17.716  1.00  0.00     0.004 C 
ENDBRANCH  18  19
ENDBRANCH  17  18
ENDBRANCH  16  17
ENDBRANCH  15  16
ENDBRANCH  13  14
ENDBRANCH  12  13
ENDBRANCH   1  11
TORSDOF 14
ENDMDL
MODEL 2
REMARK VINA RESULT:    -4.828      3.430      6.777
REMARK INTER + INTRA:         -10.425
REMARK INTER:                  -8.062
REMARK INTRA:                  -2.363
REMARK UNBOUND:                -1.645
REMARK SMILES CCCCCC=CCC=CCCCCCCCC(=O)[O-]
REMARK SMILES IDX 11 1 12 2 13 3 14 4 15 5 16 6 17 7 18 8 19 9 20 10 10 11
REMARK SMILES IDX 9 12 8 13 7 14 6 15 5 16 4 17 3 18 2 19 1 20
REMARK H PARENT
REMARK Flexibility Score: inf
ROOT
ATOM      1  C   UNL     1     -10.518  -7.862  17.557  1.00  0.00     0.027 C 
ENDROOT
BRANCH   1   2
ATOM      2  C   UNL     1     -10.011  -8.581  18.816  1.00  0.00     0.004 C 
BRANCH   2   3
ATOM      3  C   UNL     1      -8.481  -8.749  18.819  1.00  0.00     0.000 C 
BRANCH   3   4
ATOM      4  C   UNL     1      -7.719  -7.445  19.120  1.00  0.00     0.000 C 
BRANCH   4   5
ATOM      5  C   UNL     1      -6.403  -7.346  18.335  1.00  0.00     0.000 C 
BRANCH   5   6
ATOM      6  C   UNL     1      -6.320  -8.427  17.246  1.00  0.00     0.006 C 
BRANCH   6   7
ATOM      7  C   UNL     1      -5.515  -7.962  16.026  1.00  0.00     0.053 C 
BRANCH   7   8
ATOM      8  C   UNL     1      -4.181  -7.401  16.416  1.00  0.00     0.041 C 
ATOM      9  O   UNL     1      -3.862  -6.231  16.076  1.00  0.00    -0.550 OA
ATOM     10  O   UNL     1      -3.285  -8.179  17.138  1.00  0.00    -0.550 OA
ENDBRANCH   7   8
ENDBRANCH   6   7
ENDBRANCH   5   6
ENDBRANCH   4   5
ENDBRANCH   3   4
ENDBRANCH   2   3
ENDBRANCH   1   2
BRANCH   1  11
ATOM     11  C   UNL     1     -10.236  -8.684  16.324  1.00  0.00    -0.031 C 
ATOM     12  C   UNL     1      -9.532  -8.250  15.261  1.00  0.00    -0.027 C 
BRANCH  12  13
ATOM     13  C   UNL     1      -8.977  -6.855  15.109  1.00  0.00     0.054 C 
BRANCH  13  14
ATOM     14  C   UNL     1      -8.321  -6.667  13.765  1.00  0.00    -0.027 C 
ATOM     15  C   UNL     1      -7.850  -5.495  13.296  1.00  0.00    -0.031 C 
BRANCH  15  16
ATOM     16  C   UNL     1      -7.941  -4.172  14.019  1.00  0.00     0.027 C 
BRANCH  16  17
ATOM     17  C   UNL     1      -8.667  -3.120  13.171  1.00  0.00     0.004 C 
BRANCH  17  18
ATOM     18  C   UNL     1      -9.932  -2.593  13.861  1.00  0.00     0.000 C 
BRANCH  18  19
ATOM     19  C   UNL     1     -11.026  -3.667  13.902  1.00  0.00    -0.003 C 
ATOM     20  C   UNL     1     -11.357  -4.063  15.337  1.00  0.00     0.004 C 
ENDBRANCH  18  19
ENDBRANCH  17  18
ENDBRANCH  16  17
ENDBRANCH  15  16
ENDBRANCH  13  14
ENDBRANCH  12  13
ENDBRANCH   1  11
TORSDOF 14
ENDMDL
MODEL 3
REMARK VINA RESULT:    -4.802      2.974      7.230
REMARK INTER + INTRA:         -10.378
REMARK INTER:                  -8.660
REMARK INTRA:                  -1.718
REMARK UNBOUND:                -1.645
REMARK SMILES CCCCCC=CCC=CCCCCCCCC(=O)[O-]
REMARK SMILES IDX 11 1 12 2 13 3 14 4 15 5 16 6 17 7 18 8 19 9 20 10 10 11
REMARK SMILES IDX 9 12 8 13 7 14 6 15 5 16 4 17 3 18 2 19 1 20
REMARK H PARENT
REMARK Flexibility Score: inf
ROOT
ATOM      1  C   UNL     1     -10.167  -7.217  16.426  1.00  0.00     0.027 C 
ENDROOT
BRANCH   1   2
ATOM      2  C   UNL     1     -11.327  -7.769  17.270  1.00  0.00     0.004 C 
BRANCH   2   3
ATOM      3  C   UNL     1     -11.281  -9.302  17.398  1.00  0.00     0.000 C 
BRANCH   3   4
ATOM      4  C   UNL     1     -10.728  -9.791  18.749  1.00  0.00     0.000 C 
BRANCH   4   5
ATOM      5  C   UNL     1      -9.294 -10.327  18.631  1.00  0.00     0.000 C 
BRANCH   5   6
ATOM      6  C   UNL     1      -8.261  -9.209  18.846  1.00  0.00     0.006 C 
BRANCH   6   7
ATOM      7  C   UNL     1      -7.094  -9.297  17.854  1.00  0.00     0.053 C 
BRANCH   7   8
ATOM      8  C   UNL     1      -6.435  -7.968  17.646  1.00  0.00     0.041 C 
ATOM      9  O   UNL     1      -6.107  -7.597  16.488  1.00  0.00    -0.550 OA
ATOM     10  O   UNL     1      -6.166  -7.147  18.735  1.00  0.00    -0.550 OA
ENDBRANCH   7   8
ENDBRANCH   6   7
ENDBRANCH   5   6
ENDBRANCH   4   5
ENDBRANCH   3   4
ENDBRANCH   2   3
ENDBRANCH   1   2
BRANCH   1  11
ATOM     11  C   UNL     1      -9.634  -8.278  15.496  1.00  0.00    -0.031 C 
ATOM     12  C   UNL     1      -9.206  -8.048  14.239  1.00  0.00    -0.027 C 
BRANCH  12  13
ATOM     13  C   UNL     1      -9.261  -6.709  13.545  1.00  0.00     0.054 C 
BRANCH  13  14
ATOM     14  C   UNL     1      -7.903  -6.058  13.499  1.00  0.00    -0.027 C 
ATOM     15  C   UNL     1      -7.657  -4.768  13.800  1.00  0.00    -0.031 C 
BRANCH  15  16
ATOM     16  C   UNL     1      -8.705  -3.754  14.192  1.00  0.00     0.027 C 
BRANCH  16  17
ATOM     17  C   UNL     1      -9.053  -2.828  13.020  1.00  0.00     0.004 C 
BRANCH  17  18
ATOM     18  C   UNL     1      -9.503  -1.439  13.493  1.00  0.00     0.000 C 
BRANCH  18  19
ATOM     19  C   UNL     1     -10.912  -1.114  12.984  1.00  0.00    -0.003 C 
ATOM     20  C   UNL     1     -11.650  -2.379  12.555  1.00  0.00     0.004 C 
ENDBRANCH  18  19
ENDBRANCH  17  18
ENDBRANCH  16  17
ENDBRANCH  15  16
ENDBRANCH  13  14
ENDBRANCH  12  13
ENDBRANCH   1  11
TORSDOF 14
ENDMDL
MODEL 4
REMARK VINA RESULT:    -4.802      1.450      3.703
REMARK INTER + INTRA:         -10.377
REMARK INTER:                  -8.153
REMARK INTRA:                  -2.223
REMARK UNBOUND:                -1.645
REMARK SMILES CCCCCC=CCC=CCCCCCCCC(=O)[O-]
REMARK SMILES IDX 11 1 12 2 13 3 14 4 15 5 16 6 17 7 18 8 19 9 20 10 10 11
REMARK SMILES IDX 9 12 8 13 7 14 6 15 5 16 4 17 3 18 2 19 1 20
REMARK H PARENT
REMARK Flexibility Score: inf
ROOT
ATOM      1  C   UNL     1      -5.832  -6.988  14.259  1.00  0.00     0.027 C 
ENDROOT
BRANCH   1   2
ATOM      2  C   UNL     1      -5.821  -5.508  13.845  1.00  0.00     0.004 C 
BRANCH   2   3
ATOM      3  C   UNL     1      -7.124  -5.085  13.144  1.00  0.00     0.000 C 
BRANCH   3   4
ATOM      4  C   UNL     1      -8.347  -5.924  13.560  1.00  0.00     0.000 C 
BRANCH   4   5
ATOM      5  C   UNL     1      -9.074  -5.331  14.775  1.00  0.00     0.000 C 
BRANCH   5   6
ATOM      6  C   UNL     1     -10.526  -4.961  14.431  1.00  0.00     0.006 C 
BRANCH   6   7
ATOM      7  C   UNL     1     -10.790  -3.456  14.567  1.00  0.00     0.053 C 
BRANCH   7   8
ATOM      8  C   UNL     1     -10.611  -2.736  13.265  1.00  0.00     0.041 C 
ATOM      9  O   UNL     1     -11.599  -2.538  12.509  1.00  0.00    -0.550 OA
ATOM     10  O   UNL     1      -9.350  -2.301  12.879  1.00  0.00    -0.550 OA
ENDBRANCH   7   8
ENDBRANCH   6   7
ENDBRANCH   5   6
ENDBRANCH   4   5
ENDBRANCH   3   4
ENDBRANCH   2   3
ENDBRANCH   1   2
BRANCH   1  11
ATOM     11  C   UNL     1      -4.903  -7.222  15.423  1.00  0.00    -0.031 C 
ATOM     12  C   UNL     1      -5.289  -7.681  16.630  1.00  0.00    -0.027 C 
BRANCH  12  13
ATOM     13  C   UNL     1      -6.718  -7.964  17.023  1.00  0.00     0.054 C 
BRANCH  13  14
ATOM     14  C   UNL     1      -7.018  -7.458  18.411  1.00  0.00    -0.027 C 
ATOM     15  C   UNL     1      -8.090  -7.812  19.145  1.00  0.00    -0.031 C 
BRANCH  15  16
ATOM     16  C   UNL     1      -9.189  -8.740  18.684  1.00  0.00     0.027 C 
BRANCH  16  17
ATOM     17  C   UNL     1     -10.439  -7.960  18.260  1.00  0.00     0.004 C 
BRANCH  17  18
ATOM     18  C   UNL     1     -10.638  -7.968  16.738  1.00  0.00     0.000 C 
BRANCH  18  19
ATOM     19  C   UNL     1     -10.246  -9.323  16.138  1.00  0.00    -0.003 C 
ATOM     20  C   UNL     1      -9.474  -9.147  14.834  1.00  0.00     0.004 C 
ENDBRANCH  18  19
ENDBRANCH  17  18
ENDBRANCH  16  17
ENDBRANCH  15  16
ENDBRANCH  13  14
ENDBRANCH  12  13
ENDBRANCH   1  11
TORSDOF 14
ENDMDL
MODEL 5
REMARK VINA RESULT:    -4.800      1.684      3.960
REMARK INTER + INTRA:         -10.373
REMARK INTER:                  -8.642
REMARK INTRA:                  -1.731
REMARK UNBOUND:                -1.645
REMARK SMILES CCCCCC=CCC=CCCCCCCCC(=O)[O-]
REMARK SMILES IDX 11 1 12 2 13 3 14 4 15 5 16 6 17 7 18 8 19 9 20 10 10 11
REMARK SMILES IDX 9 12 8 13 7 14 6 15 5 16 4 17 3 18 2 19 1 20
REMARK H PARENT
REMARK Flexibility Score: inf
ROOT
ATOM      1  C   UNL     1      -7.746  -8.095  17.210  1.00  0.00     0.027 C 
ENDROOT
BRANCH   1   2
ATOM      2  C   UNL     1      -8.054  -7.012  16.164  1.00  0.00     0.004 C 
BRANCH   2   3
ATOM      3  C   UNL     1      -9.496  -7.101  15.635  1.00  0.00     0.000 C 
BRANCH   3   4
ATOM      4  C   UNL     1      -9.901  -5.909  14.748  1.00  0.00     0.000 C 
BRANCH   4   5
ATOM      5  C   UNL     1      -8.690  -5.234  14.090  1.00  0.00     0.000 C 
BRANCH   5   6
ATOM      6  C   UNL     1      -8.691  -3.718  14.343  1.00  0.00     0.006 C 
BRANCH   6   7
ATOM      7  C   UNL     1      -8.732  -2.911  13.039  1.00  0.00     0.053 C 
BRANCH   7   8
ATOM      8  C   UNL     1      -9.978  -2.087  12.930  1.00  0.00     0.041 C 
ATOM      9  O   UNL     1      -9.908  -0.829  12.920  1.00  0.00    -0.550 OA
ATOM     10  O   UNL     1     -11.219  -2.708  12.858  1.00  0.00    -0.550 OA
ENDBRANCH   7   8
ENDBRANCH   6   7
ENDBRANCH   5   6
ENDBRANCH   4   5
ENDBRANCH   3   4
ENDBRANCH   2   3
ENDBRANCH   1   2
BRANCH   1  11
ATOM     11  C   UNL     1      -7.589  -7.483  18.579  1.00  0.00    -0.031 C 
ATOM     12  C   UNL     1      -6.421  -7.059  19.099  1.00  0.00    -0.027 C 
BRANCH  12  13
ATOM     13  C   UNL     1      -5.080  -7.195  18.420  1.00  0.00     0.054 C 
BRANCH  13  14
ATOM     14  C   UNL     1      -4.205  -5.996  18.685  1.00  0.00    -0.027 C 
ATOM     15  C   UNL     1      -3.084  -5.695  18.002  1.00  0.00    -0.031 C 
BRANCH  15  16
ATOM     16  C   UNL     1      -2.497  -6.528  16.888  1.00  0.00     0.027 C 
BRANCH  16  17
ATOM     17  C   UNL     1      -2.866  -5.963  15.511  1.00  0.00     0.004 C 
BRANCH  17  18
ATOM     18  C   UNL     1      -3.877  -6.851  14.772  1.00  0.00     0.000 C 
BRANCH  18  19
ATOM     19  C   UNL     1      -5.083  -6.033  14.296  1.00  0.00    -0.003 C 
ATOM     20  C   UNL     1      -4.669  -4.617  13.905  1.00  0.00     0.004 C 
ENDBRANCH  18  19
ENDBRANCH  17  18
ENDBRANCH  16  17
ENDBRANCH  15  16
ENDBRANCH  13  14
ENDBRANCH  12  13
ENDBRANCH   1  11
TORSDOF 14
ENDMDL
MODEL 6
REMARK VINA RESULT:    -4.762      1.315      2.181
REMARK INTER + INTRA:         -10.305
REMARK INTER:                  -8.797
REMARK INTRA:                  -1.507
REMARK UNBOUND:                -1.645
REMARK SMILES CCCCCC=CCC=CCCCCCCCC(=O)[O-]
REMARK SMILES IDX 11 1 12 2 13 3 14 4 15 5 16 6 17 7 18 8 19 9 20 10 10 11
REMARK SMILES IDX 9 12 8 13 7 14 6 15 5 16 4 17 3 18 2 19 1 20
REMARK H PARENT
REMARK Flexibility Score: inf
ROOT
ATOM      1  C   UNL     1     -10.192  -8.410  16.189  1.00  0.00     0.027 C 
ENDROOT
BRANCH   1   2
ATOM      2  C   UNL     1      -9.794  -6.935  16.034  1.00  0.00     0.004 C 
BRANCH   2   3
ATOM      3  C   UNL     1     -10.980  -6.047  15.618  1.00  0.00     0.000 C 
BRANCH   3   4
ATOM      4  C   UNL     1     -10.661  -5.100  14.447  1.00  0.00     0.000 C 
BRANCH   4   5
ATOM      5  C   UNL     1      -9.163  -4.774  14.354  1.00  0.00     0.000 C 
BRANCH   5   6
ATOM      6  C   UNL     1      -8.932  -3.393  13.720  1.00  0.00     0.006 C 
BRANCH   6   7
ATOM      7  C   UNL     1      -9.960  -2.357  14.193  1.00  0.00     0.053 C 
BRANCH   7   8
ATOM      8  C   UNL     1     -10.653  -1.690  13.044  1.00  0.00     0.041 C 
ATOM      9  O   UNL     1     -10.301  -0.539  12.673  1.00  0.00    -0.550 OA
ATOM     10  O   UNL     1     -11.699  -2.334  12.395  1.00  0.00    -0.550 OA
ENDBRANCH   7   8
ENDBRANCH   6   7
ENDBRANCH   5   6
ENDBRANCH   4   5
ENDBRANCH   3   4
ENDBRANCH   2   3
ENDBRANCH   1   2
BRANCH   1  11
ATOM     11  C   UNL     1     -10.865  -8.644  17.518  1.00  0.00    -0.031 C 
ATOM     12  C   UNL     1     -10.217  -8.947  18.660  1.00  0.00    -0.027 C 
BRANCH  12  13
ATOM     13  C   UNL     1      -8.728  -9.167  18.770  1.00  0.00     0.054 C 
BRANCH  13  14
ATOM     14  C   UNL     1      -8.025  -7.934  19.277  1.00  0.00    -0.027 C 
ATOM     15  C   UNL     1      -7.038  -7.288  18.627  1.00  0.00    -0.031 C 
BRANCH  15  16
ATOM     16  C   UNL     1      -6.444  -7.717  17.306  1.00  0.00     0.027 C 
BRANCH  16  17
ATOM     17  C   UNL     1      -5.050  -8.327  17.492  1.00  0.00     0.004 C 
BRANCH  17  18
ATOM     18  C   UNL     1      -3.988  -7.618  16.640  1.00  0.00     0.000 C 
BRANCH  18  19
ATOM     19  C   UNL     1      -2.929  -6.949  17.524  1.00  0.00    -0.003 C 
ATOM     20  C   UNL     1      -3.159  -5.443  17.615  1.00  0.00     0.004 C 
ENDBRANCH  18  19
ENDBRANCH  17  18
ENDBRANCH  16  17
ENDBRANCH  15  16
ENDBRANCH  13  14
ENDBRANCH  12  13
ENDBRANCH   1  11
TORSDOF 14
ENDMDL
MODEL 7
REMARK VINA RESULT:    -4.741      1.484      3.474
REMARK INTER + INTRA:         -10.266
REMARK INTER:                  -8.379
REMARK INTRA:                  -1.887
REMARK UNBOUND:                -1.645
REMARK SMILES CCCCCC=CCC=CCCCCCCCC(=O)[O-]
REMARK SMILES IDX 11 1 12 2 13 3 14 4 15 5 16 6 17 7 18 8 19 9 20 10 10 11
REMARK SMILES IDX 9 12 8 13 7 14 6 15 5 16 4 17 3 18 2 19 1 20
REMARK H PARENT
REMARK Flexibility Score: inf
ROOT
ATOM      1  C   UNL     1      -8.280  -8.269  13.878  1.00  0.00     0.027 C 
ENDROOT
BRANCH   1   2
ATOM      2  C   UNL     1      -9.101  -7.009  13.562  1.00  0.00     0.004 C 
BRANCH   2   3
ATOM      3  C   UNL     1      -9.139  -6.023  14.743  1.00  0.00     0.000 C 
BRANCH   3   4
ATOM      4  C   UNL     1      -9.985  -4.766  14.469  1.00  0.00     0.000 C 
BRANCH   4   5
ATOM      5  C   UNL     1      -9.140  -3.483  14.475  1.00  0.00     0.000 C 
BRANCH   5   6
ATOM      6  C   UNL     1      -9.111  -2.828  13.085  1.00  0.00     0.006 C 
BRANCH   6   7
ATOM      7  C   UNL     1      -9.622  -1.382  13.114  1.00  0.00     0.053 C 
BRANCH   7   8
ATOM      8  C   UNL     1     -11.088  -1.301  12.817  1.00  0.00     0.041 C 
ATOM      9  O   UNL     1     -11.729  -2.337  12.497  1.00  0.00    -0.550 OA
ATOM     10  O   UNL     1     -11.743  -0.076  12.877  1.00  0.00    -0.550 OA
ENDBRANCH   7   8
ENDBRANCH   6   7
ENDBRANCH   5   6
ENDBRANCH   4   5
ENDBRANCH   3   4
ENDBRANCH   2   3
ENDBRANCH   1   2
BRANCH   1  11
ATOM     11  C   UNL     1      -6.829  -7.920  14.089  1.00  0.00    -0.031 C 
ATOM     12  C   UNL     1      -6.138  -8.172  15.218  1.00  0.00    -0.027 C 
BRANCH  12  13
ATOM     13  C   UNL     1      -6.728  -8.776  16.469  1.00  0.00     0.054 C 
BRANCH  13  14
ATOM     14  C   UNL     1      -6.592  -7.846  17.647  1.00  0.00    -0.027 C 
ATOM     15  C   UNL     1      -7.614  -7.426  18.418  1.00  0.00    -0.031 C 
BRANCH  15  16
ATOM     16  C   UNL     1      -9.065  -7.783  18.205  1.00  0.00     0.027 C 
BRANCH  16  17
ATOM     17  C   UNL     1      -9.457  -9.032  19.003  1.00  0.00     0.004 C 
BRANCH  17  18
ATOM     18  C   UNL     1     -10.432  -9.931  18.230  1.00  0.00     0.000 C 
BRANCH  18  19
ATOM     19  C   UNL     1     -10.876  -9.266  16.922  1.00  0.00    -0.003 C 
ATOM     20  C   UNL     1     -10.650 -10.190  15.729  1.00  0.00     0.004 C 
ENDBRANCH  18  19
ENDBRANCH  17  18
ENDBRANCH  16  17
ENDBRANCH  15  16
ENDBRANCH  13  14
ENDBRANCH  12  13
ENDBRANCH   1  11
TORSDOF 14
ENDMDL
MODEL 8
REMARK VINA RESULT:    -4.669      1.278      2.165
REMARK INTER + INTRA:         -10.136
REMARK INTER:                  -8.086
REMARK INTRA:                  -2.049
REMARK UNBOUND:                -1.645
REMARK SMILES CCCCCC=CCC=CCCCCCCCC(=O)[O-]
REMARK SMILES IDX 11 1 12 2 13 3 14 4 15 5 16 6 17 7 18 8 19 9 20 10 10 11
REMARK SMILES IDX 9 12 8 13 7 14 6 15 5 16 4 17 3 18 2 19 1 20
REMARK H PARENT
REMARK Flexibility Score: inf
ROOT
ATOM      1  C   UNL     1      -9.548  -6.901  16.106  1.00  0.00     0.027 C 
ENDROOT
BRANCH   1   2
ATOM      2  C   UNL     1      -9.225  -7.508  14.732  1.00  0.00     0.004 C 
BRANCH   2   3
ATOM      3  C   UNL     1      -9.293  -6.467  13.600  1.00  0.00     0.000 C 
BRANCH   3   4
ATOM      4  C   UNL     1      -7.966  -5.721  13.368  1.00  0.00     0.000 C 
BRANCH   4   5
ATOM      5  C   UNL     1      -8.043  -4.248  13.795  1.00  0.00     0.000 C 
BRANCH   5   6
ATOM      6  C   UNL     1      -9.501  -3.795  13.974  1.00  0.00     0.006 C 
BRANCH   6   7
ATOM      7  C   UNL     1      -9.630  -2.268  14.048  1.00  0.00     0.053 C 
BRANCH   7   8
ATOM      8  C   UNL     1     -10.659  -1.747  13.092  1.00  0.00     0.041 C 
ATOM      9  O   UNL     1     -10.692  -0.522  12.801  1.00  0.00    -0.550 OA
ATOM     10  O   UNL     1     -11.594  -2.612  12.536  1.00  0.00    -0.550 OA
ENDBRANCH   7   8
ENDBRANCH   6   7
ENDBRANCH   5   6
ENDBRANCH   4   5
ENDBRANCH   3   4
ENDBRANCH   2   3
ENDBRANCH   1   2
BRANCH   1  11
ATOM     11  C   UNL     1     -10.719  -7.608  16.739  1.00  0.00    -0.031 C 
ATOM     12  C   UNL     1     -10.708  -8.157  17.969  1.00  0.00    -0.027 C 
BRANCH  12  13
ATOM     13  C   UNL     1      -9.501  -8.211  18.874  1.00  0.00     0.054 C 
BRANCH  13  14
ATOM     14  C   UNL     1      -8.559  -9.316  18.469  1.00  0.00    -0.027 C 
ATOM     15  C   UNL     1      -7.273  -9.139  18.111  1.00  0.00    -0.031 C 
BRANCH  15  16
ATOM     16  C   UNL     1      -6.575  -7.803  18.015  1.00  0.00     0.027 C 
BRANCH  16  17
ATOM     17  C   UNL     1      -5.350  -7.876  17.096  1.00  0.00     0.004 C 
BRANCH  17  18
ATOM     18  C   UNL     1      -5.722  -7.691  15.619  1.00  0.00     0.000 C 
BRANCH  18  19
ATOM     19  C   UNL     1      -5.551  -9.001  14.840  1.00  0.00    -0.003 C 
ATOM     20  C   UNL     1      -5.946  -8.829  13.377  1.00  0.00     0.004 C 
ENDBRANCH  18  19
ENDBRANCH  17  18
ENDBRANCH  16  17
ENDBRANCH  15  16
ENDBRANCH  13  14
ENDBRANCH  12  13
ENDBRANCH   1  11
TORSDOF 14
ENDMDL
MODEL 9
REMARK VINA RESULT:    -4.597      1.433      2.195
REMARK INTER + INTRA:         -10.005
REMARK INTER:                  -7.557
REMARK INTRA:                  -2.447
REMARK UNBOUND:                -1.645
REMARK SMILES CCCCCC=CCC=CCCCCCCCC(=O)[O-]
REMARK SMILES IDX 11 1 12 2 13 3 14 4 15 5 16 6 17 7 18 8 19 9 20 10 10 11
REMARK SMILES IDX 9 12 8 13 7 14 6 15 5 16 4 17 3 18 2 19 1 20
REMARK H PARENT
REMARK Flexibility Score: inf
ROOT
ATOM      1  C   UNL     1      -9.580 -10.198  16.072  1.00  0.00     0.027 C 
ENDROOT
BRANCH   1   2
ATOM      2  C   UNL     1      -9.562  -9.593  14.659  1.00  0.00     0.004 C 
BRANCH   2   3
ATOM      3  C   UNL     1      -8.154  -9.141  14.234  1.00  0.00     0.000 C 
BRANCH   3   4
ATOM      4  C   UNL     1      -8.108  -7.702  13.685  1.00  0.00     0.000 C 
BRANCH   4   5
ATOM      5  C   UNL     1      -9.325  -6.874  14.123  1.00  0.00     0.000 C 
BRANCH   5   6
ATOM      6  C   UNL     1      -8.892  -5.594  14.857  1.00  0.00     0.006 C 
BRANCH   6   7
ATOM      7  C   UNL     1      -8.309  -4.545  13.902  1.00  0.00     0.053 C 
BRANCH   7   8
ATOM      8  C   UNL     1      -9.103  -3.275  13.912  1.00  0.00     0.041 C 
ATOM      9  O   UNL     1      -9.968  -3.075  14.806  1.00  0.00    -0.550 OA
ATOM     10  O   UNL     1      -8.900  -2.320  12.923  1.00  0.00    -0.550 OA
ENDBRANCH   7   8
ENDBRANCH   6   7
ENDBRANCH   5   6
ENDBRANCH   4   5
ENDBRANCH   3   4
ENDBRANCH   2   3
ENDBRANCH   1   2
BRANCH   1  11
ATOM     11  C   UNL     1     -10.960 -10.104  16.673  1.00  0.00    -0.031 C 
ATOM     12  C   UNL     1     -11.419  -9.051  17.376  1.00  0.00    -0.027 C 
BRANCH  12  13
ATOM     13  C   UNL     1     -10.601  -7.833  17.729  1.00  0.00     0.054 C 
BRANCH  13  14
ATOM     14  C   UNL     1      -9.693  -8.101  18.902  1.00  0.00    -0.027 C 
ATOM     15  C   UNL     1      -8.358  -7.920  18.900  1.00  0.00    -0.031 C 
BRANCH  15  16
ATOM     16  C   UNL     1      -7.547  -7.460  17.712  1.00  0.00     0.027 C 
BRANCH  16  17
ATOM     17  C   UNL     1      -6.422  -8.449  17.386  1.00  0.00     0.004 C 
BRANCH  17  18
ATOM     18  C   UNL     1      -5.346  -7.826  16.486  1.00  0.00     0.000 C 
BRANCH  18  19
ATOM     19  C   UNL     1      -3.991  -7.775  17.202  1.00  0.00    -0.003 C 
ATOM     20  C   UNL     1      -3.873  -6.527  18.072  1.00  0.00     0.004 C 
ENDBRANCH  18  19
ENDBRANCH  17  18
ENDBRANCH  16  17
ENDBRANCH  15  16
ENDBRANCH  13  14
ENDBRANCH  12  13
ENDBRANCH   1  11
TORSDOF 14
ENDMDL
