MODEL 1
REMARK VINA RESULT:    -5.989      0.000      0.000
REMARK INTER + INTRA:          -9.934
REMARK INTER:                  -9.140
REMARK INTRA:                  -0.795
REMARK UNBOUND:                -0.795
REMARK SMILES CCCCCCCCCC=CC(=O)[O-]
REMARK SMILES IDX 7 1 8 2 9 3 10 4 11 5 12 6 13 7 14 8 6 9 5 10 4 11 3 12 2 13
REMARK SMILES IDX 1 14
REMARK H PARENT
REMARK Flexibility Score: inf
ROOT
ATOM      1  C   UNL     1     131.585 126.289 125.788  1.00  0.00     0.000 C 
ENDROOT
BRANCH   1   2
ATOM      2  C   UNL     1     130.948 125.532 126.964  1.00  0.00     0.004 C 
BRANCH   2   3
ATOM      3  C   UNL     1     130.199 124.268 126.515  1.00  0.00     0.027 C 
BRANCH   3   4
ATOM      4  C   UNL     1     129.043 123.971 127.428  1.00  0.00    -0.025 C 
ATOM      5  C   UNL     1     128.332 124.951 127.995  1.00  0.00     0.020 C 
BRANCH   5   6
ATOM      6  C   UNL     1     127.190 124.677 128.878  1.00  0.00     0.064 C 
ATOM      7  O   UNL     1     126.381 125.600 129.155  1.00  0.00    -0.545 OA
ATOM      8  O   UNL     1     126.989 123.410 129.417  1.00  0.00    -0.545 OA
ENDBRANCH   5   6
ENDBRANCH   3   4
ENDBRANCH   2   3
ENDBRANCH   1   2
BRANCH   1   9
ATOM      9  C   UNL     1     130.810 126.094 124.473  1.00  0.00     0.000 C 
BRANCH   9  10
ATOM     10  C   UNL     1     129.817 127.235 124.197  1.00  0.00     0.000 C 
BRANCH  10  11
ATOM     11  C   UNL     1     128.371 126.737 124.050  1.00  0.00    -0.000 C 
BRANCH  11  12
ATOM     12  C   UNL     1     127.913 126.811 122.586  1.00  0.00    -0.000 C 
BRANCH  12  13
ATOM     13  C   UNL     1     128.081 128.214 121.985  1.00  0.00    -0.003 C 
ATOM     14  C   UNL     1     126.768 128.994 121.928  1.00  0.00     0.004 C 
ENDBRANCH  12  13
ENDBRANCH  11  12
ENDBRANCH  10  11
ENDBRANCH   9  10
ENDBRANCH   1   9
TORSDOF 9
ENDMDL
MODEL 2
REMARK VINA RESULT:    -5.886      1.703      2.741
REMARK INTER + INTRA:          -9.777
REMARK INTER:                  -8.966
REMARK INTRA:                  -0.811
REMARK UNBOUND:                -0.795
REMARK SMILES CCCCCCCCCC=CC(=O)[O-]
REMARK SMILES IDX 7 1 8 2 9 3 10 4 11 5 12 6 13 7 14 8 6 9 5 10 4 11 3 12 2 13
REMARK SMILES IDX 1 14
REMARK H PARENT
REMARK Flexibility Score: inf
ROOT
ATOM      1  C   UNL     1     129.318 128.811 124.896  1.00  0.00     0.000 C 
ENDROOT
BRANCH   1   2
ATOM      2  C   UNL     1     129.226 128.321 126.350  1.00  0.00     0.004 C 
BRANCH   2   3
ATOM      3  C   UNL     1     130.511 127.623 126.819  1.00  0.00     0.027 C 
BRANCH   3   4
ATOM      4  C   UNL     1     130.208 126.279 127.420  1.00  0.00    -0.025 C 
ATOM      5  C   UNL     1     129.869 125.235 126.658  1.00  0.00     0.020 C 
BRANCH   5   6
ATOM      6  C   UNL     1     129.584 123.911 127.230  1.00  0.00     0.064 C 
ATOM      7  O   UNL     1     130.418 122.980 127.091  1.00  0.00    -0.545 OA
ATOM      8  O   UNL     1     128.402 123.670 127.922  1.00  0.00    -0.545 OA
ENDBRANCH   5   6
ENDBRANCH   3   4
ENDBRANCH   2   3
ENDBRANCH   1   2
BRANCH   1   9
ATOM      9  C   UNL     1     129.511 127.658 123.896  1.00  0.00     0.000 C 
BRANCH   9  10
ATOM     10  C   UNL     1     128.248 126.796 123.737  1.00  0.00     0.000 C 
BRANCH  10  11
ATOM     11  C   UNL     1     127.644 126.887 122.327  1.00  0.00    -0.000 C 
BRANCH  11  12
ATOM     12  C   UNL     1     127.929 128.259 121.697  1.00  0.00    -0.000 C 
BRANCH  12  13
ATOM     13  C   UNL     1     126.750 129.233 121.846  1.00  0.00    -0.003 C 
ATOM     14  C   UNL     1     125.456 128.537 122.265  1.00  0.00     0.004 C 
ENDBRANCH  12  13
ENDBRANCH  11  12
ENDBRANCH  10  11
ENDBRANCH   9  10
ENDBRANCH   1   9
TORSDOF 9
ENDMDL
MODEL 3
REMARK VINA RESULT:    -5.627      2.863      3.639
REMARK INTER + INTRA:          -9.383
REMARK INTER:                  -8.730
REMARK INTRA:                  -0.653
REMARK UNBOUND:                -0.795
REMARK SMILES CCCCCCCCCC=CC(=O)[O-]
REMARK SMILES IDX 7 1 8 2 9 3 10 4 11 5 12 6 13 7 14 8 6 9 5 10 4 11 3 12 2 13
REMARK SMILES IDX 1 14
REMARK H PARENT
REMARK Flexibility Score: inf
ROOT
ATOM      1  C   UNL     1     128.994 125.905 124.861  1.00  0.00     0.000 C 
ENDROOT
BRANCH   1   2
ATOM      2  C   UNL     1     128.888 125.396 126.308  1.00  0.00     0.004 C 
BRANCH   2   3
ATOM      3  C   UNL     1     130.217 124.832 126.832  1.00  0.00     0.027 C 
BRANCH   3   4
ATOM      4  C   UNL     1     131.184 125.936 127.155  1.00  0.00    -0.025 C 
ATOM      5  C   UNL     1     130.848 126.941 127.969  1.00  0.00     0.020 C 
BRANCH   5   6
ATOM      6  C   UNL     1     131.788 128.021 128.305  1.00  0.00     0.064 C 
ATOM      7  O   UNL     1     132.819 128.189 127.605  1.00  0.00    -0.545 OA
ATOM      8  O   UNL     1     131.555 128.861 129.389  1.00  0.00    -0.545 OA
ENDBRANCH   5   6
ENDBRANCH   3   4
ENDBRANCH   2   3
ENDBRANCH   1   2
BRANCH   1   9
ATOM      9  C   UNL     1     128.592 127.384 124.725  1.00  0.00     0.000 C 
BRANCH   9  10
ATOM     10  C   UNL     1     129.378 128.111 123.622  1.00  0.00     0.000 C 
BRANCH  10  11
ATOM     11  C   UNL     1     128.481 128.571 122.462  1.00  0.00    -0.000 C 
BRANCH  11  12
ATOM     12  C   UNL     1     127.563 127.431 121.995  1.00  0.00    -0.000 C 
BRANCH  12  13
ATOM     13  C   UNL     1     126.073 127.780 122.128  1.00  0.00    -0.003 C 
ATOM     14  C   UNL     1     125.800 129.276 121.975  1.00  0.00     0.004 C 
ENDBRANCH  12  13
ENDBRANCH  11  12
ENDBRANCH  10  11
ENDBRANCH   9  10
ENDBRANCH   1   9
TORSDOF 9
ENDMDL
MODEL 4
REMARK VINA RESULT:    -5.604      3.069      5.662
REMARK INTER + INTRA:          -9.348
REMARK INTER:                  -8.490
REMARK INTRA:                  -0.858
REMARK UNBOUND:                -0.795
REMARK SMILES CCCCCCCCCC=CC(=O)[O-]
REMARK SMILES IDX 7 1 8 2 9 3 10 4 11 5 12 6 13 7 14 8 6 9 5 10 4 11 3 12 2 13
REMARK SMILES IDX 1 14
REMARK H PARENT
REMARK Flexibility Score: inf
ROOT
ATOM      1  C   UNL     1     131.605 125.918 124.963  1.00  0.00     0.000 C 
ENDROOT
BRANCH   1   2
ATOM      2  C   UNL     1     130.478 126.374 124.022  1.00  0.00     0.004 C 
BRANCH   2   3
ATOM      3  C   UNL     1     129.604 127.476 124.639  1.00  0.00     0.027 C 
BRANCH   3   4
ATOM      4  C   UNL     1     128.217 127.452 124.064  1.00  0.00    -0.025 C 
ATOM      5  C   UNL     1     127.968 127.887 122.824  1.00  0.00     0.020 C 
BRANCH   5   6
ATOM      6  C   UNL     1     126.619 127.857 122.242  1.00  0.00     0.064 C 
ATOM      7  O   UNL     1     125.945 128.918 122.179  1.00  0.00    -0.545 OA
ATOM      8  O   UNL     1     126.072 126.672 121.760  1.00  0.00    -0.545 OA
ENDBRANCH   5   6
ENDBRANCH   3   4
ENDBRANCH   2   3
ENDBRANCH   1   2
BRANCH   1   9
ATOM      9  C   UNL     1     131.528 126.591 126.344  1.00  0.00     0.000 C 
BRANCH   9  10
ATOM     10  C   UNL     1     130.906 125.678 127.413  1.00  0.00     0.000 C 
BRANCH  10  11
ATOM     11  C   UNL     1     130.503 124.304 126.855  1.00  0.00    -0.000 C 
BRANCH  11  12
ATOM     12  C   UNL     1     129.058 123.958 127.243  1.00  0.00    -0.000 C 
BRANCH  12  13
ATOM     13  C   UNL     1     128.292 125.166 127.805  1.00  0.00    -0.003 C 
ATOM     14  C   UNL     1     127.553 124.845 129.103  1.00  0.00     0.004 C 
ENDBRANCH  12  13
ENDBRANCH  11  12
ENDBRANCH  10  11
ENDBRANCH   9  10
ENDBRANCH   1   9
TORSDOF 9
ENDMDL
MODEL 5
REMARK VINA RESULT:    -5.496      3.337      6.060
REMARK INTER + INTRA:          -9.183
REMARK INTER:                  -8.534
REMARK INTRA:                  -0.649
REMARK UNBOUND:                -0.795
REMARK SMILES CCCCCCCCCC=CC(=O)[O-]
REMARK SMILES IDX 7 1 8 2 9 3 10 4 11 5 12 6 13 7 14 8 6 9 5 10 4 11 3 12 2 13
REMARK SMILES IDX 1 14
REMARK H PARENT
REMARK Flexibility Score: inf
ROOT
ATOM      1  C   UNL     1     129.181 128.377 125.247  1.00  0.00     0.000 C 
ENDROOT
BRANCH   1   2
ATOM      2  C   UNL     1     129.710 127.828 123.912  1.00  0.00     0.004 C 
BRANCH   2   3
ATOM      3  C   UNL     1     128.858 126.669 123.374  1.00  0.00     0.027 C 
BRANCH   3   4
ATOM      4  C   UNL     1     127.535 127.162 122.860  1.00  0.00    -0.025 C 
ATOM      5  C   UNL     1     127.340 128.450 122.559  1.00  0.00     0.020 C 
BRANCH   5   6
ATOM      6  C   UNL     1     126.056 128.946 122.043  1.00  0.00     0.064 C 
ATOM      7  O   UNL     1     125.984 130.107 121.564  1.00  0.00    -0.545 OA
ATOM      8  O   UNL     1     124.916 128.150 122.076  1.00  0.00    -0.545 OA
ENDBRANCH   5   6
ENDBRANCH   3   4
ENDBRANCH   2   3
ENDBRANCH   1   2
BRANCH   1   9
ATOM      9  C   UNL     1     129.146 127.307 126.353  1.00  0.00     0.000 C 
BRANCH   9  10
ATOM     10  C   UNL     1     130.400 127.334 127.241  1.00  0.00     0.000 C 
BRANCH  10  11
ATOM     11  C   UNL     1     131.090 125.965 127.331  1.00  0.00    -0.000 C 
BRANCH  11  12
ATOM     12  C   UNL     1     130.544 125.006 126.263  1.00  0.00    -0.000 C 
BRANCH  12  13
ATOM     13  C   UNL     1     129.955 123.722 126.867  1.00  0.00    -0.003 C 
ATOM     14  C   UNL     1     128.673 123.974 127.658  1.00  0.00     0.004 C 
ENDBRANCH  12  13
ENDBRANCH  11  12
ENDBRANCH  10  11
ENDBRANCH   9  10
ENDBRANCH   1   9
TORSDOF 9
ENDMDL
MODEL 6
REMARK VINA RESULT:    -5.402      2.838      5.599
REMARK INTER + INTRA:          -9.039
REMARK INTER:                  -8.200
REMARK INTRA:                  -0.839
REMARK UNBOUND:                -0.795
REMARK SMILES CCCCCCCCCC=CC(=O)[O-]
REMARK SMILES IDX 7 1 8 2 9 3 10 4 11 5 12 6 13 7 14 8 6 9 5 10 4 11 3 12 2 13
REMARK SMILES IDX 1 14
REMARK H PARENT
REMARK Flexibility Score: inf
ROOT
ATOM      1  C   UNL     1     130.707 125.938 127.465  1.00  0.00     0.000 C 
ENDROOT
BRANCH   1   2
ATOM      2  C   UNL     1     131.386 126.616 126.264  1.00  0.00     0.004 C 
BRANCH   2   3
ATOM      3  C   UNL     1     131.357 125.744 125.000  1.00  0.00     0.027 C 
BRANCH   3   4
ATOM      4  C   UNL     1     130.398 126.295 123.984  1.00  0.00    -0.025 C 
ATOM      5  C   UNL     1     129.263 126.898 124.351  1.00  0.00     0.020 C 
BRANCH   5   6
ATOM      6  C   UNL     1     128.321 127.455 123.370  1.00  0.00     0.064 C 
ATOM      7  O   UNL     1     128.365 128.681 123.090  1.00  0.00    -0.545 OA
ATOM      8  O   UNL     1     127.377 126.646 122.744  1.00  0.00    -0.545 OA
ENDBRANCH   5   6
ENDBRANCH   3   4
ENDBRANCH   2   3
ENDBRANCH   1   2
BRANCH   1   9
ATOM      9  C   UNL     1     130.456 124.438 127.231  1.00  0.00     0.000 C 
BRANCH   9  10
ATOM     10  C   UNL     1     128.969 124.064 127.337  1.00  0.00     0.000 C 
BRANCH  10  11
ATOM     11  C   UNL     1     128.119 125.189 127.946  1.00  0.00    -0.000 C 
BRANCH  11  12
ATOM     12  C   UNL     1     127.626 124.804 129.349  1.00  0.00    -0.000 C 
BRANCH  12  13
ATOM     13  C   UNL     1     126.293 124.041 129.318  1.00  0.00    -0.003 C 
ATOM     14  C   UNL     1     125.081 124.970 129.264  1.00  0.00     0.004 C 
ENDBRANCH  12  13
ENDBRANCH  11  12
ENDBRANCH  10  11
ENDBRANCH   9  10
ENDBRANCH   1   9
TORSDOF 9
ENDMDL
MODEL 7
REMARK VINA RESULT:    -5.247      3.558      6.262
REMARK INTER + INTRA:          -8.803
REMARK INTER:                  -8.190
REMARK INTRA:                  -0.613
REMARK UNBOUND:                -0.795
REMARK SMILES CCCCCCCCCC=CC(=O)[O-]
REMARK SMILES IDX 7 1 8 2 9 3 10 4 11 5 12 6 13 7 14 8 6 9 5 10 4 11 3 12 2 13
REMARK SMILES IDX 1 14
REMARK H PARENT
REMARK Flexibility Score: inf
ROOT
ATOM      1  C   UNL     1     128.946 127.257 125.953  1.00  0.00     0.000 C 
ENDROOT
BRANCH   1   2
ATOM      2  C   UNL     1     129.233 127.630 124.489  1.00  0.00     0.004 C 
BRANCH   2   3
ATOM      3  C   UNL     1     128.672 126.599 123.498  1.00  0.00     0.027 C 
BRANCH   3   4
ATOM      4  C   UNL     1     127.421 127.108 122.839  1.00  0.00    -0.025 C 
ATOM      5  C   UNL     1     127.186 128.416 122.704  1.00  0.00     0.020 C 
BRANCH   5   6
ATOM      6  C   UNL     1     125.974 128.929 122.050  1.00  0.00     0.064 C 
ATOM      7  O   UNL     1     125.945 130.117 121.635  1.00  0.00    -0.545 OA
ATOM      8  O   UNL     1     124.854 128.121 121.882  1.00  0.00    -0.545 OA
ENDBRANCH   5   6
ENDBRANCH   3   4
ENDBRANCH   2   3
ENDBRANCH   1   2
BRANCH   1   9
ATOM      9  C   UNL     1     129.217 125.771 126.247  1.00  0.00     0.000 C 
BRANCH   9  10
ATOM     10  C   UNL     1     130.484 125.557 127.090  1.00  0.00     0.000 C 
BRANCH  10  11
ATOM     11  C   UNL     1     131.754 126.059 126.386  1.00  0.00    -0.000 C 
BRANCH  11  12
ATOM     12  C   UNL     1     132.500 127.076 127.263  1.00  0.00    -0.000 C 
BRANCH  12  13
ATOM     13  C   UNL     1     131.548 128.037 127.992  1.00  0.00    -0.003 C 
ATOM     14  C   UNL     1     132.150 128.604 129.277  1.00  0.00     0.004 C 
ENDBRANCH  12  13
ENDBRANCH  11  12
ENDBRANCH  10  11
ENDBRANCH   9  10
ENDBRANCH   1   9
TORSDOF 9
ENDMDL
MODEL 8
REMARK VINA RESULT:    -5.201      2.296      3.739
REMARK INTER + INTRA:          -8.732
REMARK INTER:                  -7.976
REMARK INTRA:                  -0.756
REMARK UNBOUND:                -0.795
REMARK SMILES CCCCCCCCCC=CC(=O)[O-]
REMARK SMILES IDX 7 1 8 2 9 3 10 4 11 5 12 6 13 7 14 8 6 9 5 10 4 11 3 12 2 13
REMARK SMILES IDX 1 14
REMARK H PARENT
REMARK Flexibility Score: inf
ROOT
ATOM      1  C   UNL     1     128.937 123.785 127.374  1.00  0.00     0.000 C 
ENDROOT
BRANCH   1   2
ATOM      2  C   UNL     1     128.330 124.994 128.103  1.00  0.00     0.004 C 
BRANCH   2   3
ATOM      3  C   UNL     1     127.329 124.583 129.194  1.00  0.00     0.027 C 
BRANCH   3   4
ATOM      4  C   UNL     1     126.146 125.508 129.219  1.00  0.00    -0.025 C 
ATOM      5  C   UNL     1     124.894 125.043 129.163  1.00  0.00     0.020 C 
BRANCH   5   6
ATOM      6  C   UNL     1     123.727 125.935 129.201  1.00  0.00     0.064 C 
ATOM      7  O   UNL     1     123.583 126.731 130.165  1.00  0.00    -0.545 OA
ATOM      8  O   UNL     1     122.774 125.911 128.187  1.00  0.00    -0.545 OA
ENDBRANCH   5   6
ENDBRANCH   3   4
ENDBRANCH   2   3
ENDBRANCH   1   2
BRANCH   1   9
ATOM      9  C   UNL     1     130.320 124.092 126.773  1.00  0.00     0.000 C 
BRANCH   9  10
ATOM     10  C   UNL     1     130.880 125.445 127.239  1.00  0.00     0.000 C 
BRANCH  10  11
ATOM     11  C   UNL     1     131.377 126.312 126.072  1.00  0.00    -0.000 C 
BRANCH  11  12
ATOM     12  C   UNL     1     130.502 126.107 124.827  1.00  0.00    -0.000 C 
BRANCH  12  13
ATOM     13  C   UNL     1     129.190 126.905 124.890  1.00  0.00    -0.003 C 
ATOM     14  C   UNL     1     129.387 128.327 125.413  1.00  0.00     0.004 C 
ENDBRANCH  12  13
ENDBRANCH  11  12
ENDBRANCH  10  11
ENDBRANCH   9  10
ENDBRANCH   1   9
TORSDOF 9
ENDMDL
MODEL 9
REMARK VINA RESULT:    -5.050      3.474      5.038
REMARK INTER + INTRA:          -8.502
REMARK INTER:                  -7.892
REMARK INTRA:                  -0.610
REMARK UNBOUND:                -0.795
REMARK SMILES CCCCCCCCCC=CC(=O)[O-]
REMARK SMILES IDX 7 1 8 2 9 3 10 4 11 5 12 6 13 7 14 8 6 9 5 10 4 11 3 12 2 13
REMARK SMILES IDX 1 14
REMARK H PARENT
REMARK Flexibility Score: inf
ROOT
ATOM      1  C   UNL     1     128.203 124.936 127.999  1.00  0.00     0.000 C 
ENDROOT
BRANCH   1   2
ATOM      2  C   UNL     1     127.408 124.820 129.309  1.00  0.00     0.004 C 
BRANCH   2   3
ATOM      3  C   UNL     1     125.904 124.615 129.069  1.00  0.00     0.027 C 
BRANCH   3   4
ATOM      4  C   UNL     1     125.138 125.883 129.321  1.00  0.00    -0.025 C 
ATOM      5  C   UNL     1     123.809 125.931 129.194  1.00  0.00     0.020 C 
BRANCH   5   6
ATOM      6  C   UNL     1     123.044 127.160 129.450  1.00  0.00     0.064 C 
ATOM      7  O   UNL     1     122.996 127.632 130.616  1.00  0.00    -0.545 OA
ATOM      8  O   UNL     1     122.369 127.811 128.423  1.00  0.00    -0.545 OA
ENDBRANCH   5   6
ENDBRANCH   3   4
ENDBRANCH   2   3
ENDBRANCH   1   2
BRANCH   1   9
ATOM      9  C   UNL     1     128.852 123.604 127.583  1.00  0.00     0.000 C 
BRANCH   9  10
ATOM     10  C   UNL     1     130.220 123.798 126.911  1.00  0.00     0.000 C 
BRANCH  10  11
ATOM     11  C   UNL     1     130.416 125.221 126.367  1.00  0.00    -0.000 C 
BRANCH  11  12
ATOM     12  C   UNL     1     131.608 125.909 127.050  1.00  0.00    -0.000 C 
BRANCH  12  13
ATOM     13  C   UNL     1     131.241 127.280 127.638  1.00  0.00    -0.003 C 
ATOM     14  C   UNL     1     130.051 127.928 126.931  1.00  0.00     0.004 C 
ENDBRANCH  12  13
ENDBRANCH  11  12
ENDBRANCH  10  11
ENDBRANCH   9  10
ENDBRANCH   1   9
TORSDOF 9
ENDMDL
