MODEL 1
REMARK VINA RESULT:    -3.621      0.000      0.000
REMARK INTER + INTRA:          -4.851
REMARK INTER:                  -4.680
REMARK INTRA:                  -0.171
REMARK UNBOUND:                -0.171
REMARK SMILES CCCCCCC(=O)[O-]
REMARK SMILES IDX 5 1 6 2 7 3 8 4 9 5 4 6 3 7 2 8 1 9
REMARK H PARENT
REMARK Flexibility Score: inf
ROOT
ATOM      1  C   UNL     1       5.470   2.050  -4.080  1.00  0.00     0.006 C 
ENDROOT
BRANCH   1   2
ATOM      2  C   UNL     1       5.681   1.015  -2.966  1.00  0.00     0.053 C 
BRANCH   2   3
ATOM      3  C   UNL     1       5.371  -0.374  -3.432  1.00  0.00     0.041 C 
ATOM      4  O   UNL     1       4.318  -0.951  -3.049  1.00  0.00    -0.550 OA
ATOM      5  O   UNL     1       6.227  -1.021  -4.314  1.00  0.00    -0.550 OA
ENDBRANCH   2   3
ENDBRANCH   1   2
BRANCH   1   6
ATOM      6  C   UNL     1       4.001   2.480  -4.203  1.00  0.00     0.000 C 
BRANCH   6   7
ATOM      7  C   UNL     1       3.729   3.748  -3.380  1.00  0.00    -0.000 C 
BRANCH   7   8
ATOM      8  C   UNL     1       4.345   5.005  -4.010  1.00  0.00    -0.003 C 
ATOM      9  C   UNL     1       4.072   6.271  -3.197  1.00  0.00     0.004 C 
ENDBRANCH   7   8
ENDBRANCH   6   7
ENDBRANCH   1   6
TORSDOF 5
ENDMDL
MODEL 2
REMARK VINA RESULT:    -3.614      3.786      4.721
REMARK INTER + INTRA:          -4.842
REMARK INTER:                  -4.427
REMARK INTRA:                  -0.415
REMARK UNBOUND:                -0.171
REMARK SMILES CCCCCCC(=O)[O-]
REMARK SMILES IDX 5 1 6 2 7 3 8 4 9 5 4 6 3 7 2 8 1 9
REMARK H PARENT
REMARK Flexibility Score: inf
ROOT
ATOM      1  C   UNL     1       0.060   0.601  -4.133  1.00  0.00     0.006 C 
ENDROOT
BRANCH   1   2
ATOM      2  C   UNL     1      -0.165  -0.901  -4.359  1.00  0.00     0.053 C 
BRANCH   2   3
ATOM      3  C   UNL     1       1.036  -1.556  -4.970  1.00  0.00     0.041 C 
ATOM      4  O   UNL     1       1.013  -1.923  -6.175  1.00  0.00    -0.550 OA
ATOM      5  O   UNL     1       2.191  -1.732  -4.220  1.00  0.00    -0.550 OA
ENDBRANCH   2   3
ENDBRANCH   1   2
BRANCH   1   6
ATOM      6  C   UNL     1       0.136   1.383  -5.452  1.00  0.00     0.000 C 
BRANCH   6   7
ATOM      7  C   UNL     1       1.465   2.146  -5.562  1.00  0.00    -0.000 C 
BRANCH   7   8
ATOM      8  C   UNL     1       2.316   2.038  -4.287  1.00  0.00    -0.003 C 
ATOM      9  C   UNL     1       3.697   1.437  -4.545  1.00  0.00     0.004 C 
ENDBRANCH   7   8
ENDBRANCH   6   7
ENDBRANCH   1   6
TORSDOF 5
ENDMDL
MODEL 3
REMARK VINA RESULT:    -3.575      3.244      4.454
REMARK INTER + INTRA:          -4.792
REMARK INTER:                  -4.624
REMARK INTRA:                  -0.167
REMARK UNBOUND:                -0.171
REMARK SMILES CCCCCCC(=O)[O-]
REMARK SMILES IDX 5 1 6 2 7 3 8 4 9 5 4 6 3 7 2 8 1 9
REMARK H PARENT
REMARK Flexibility Score: inf
ROOT
ATOM      1  C   UNL     1       2.713   0.234  -4.917  1.00  0.00     0.006 C 
ENDROOT
BRANCH   1   2
ATOM      2  C   UNL     1       4.116   0.288  -4.296  1.00  0.00     0.053 C 
BRANCH   2   3
ATOM      3  C   UNL     1       4.593  -1.070  -3.883  1.00  0.00     0.041 C 
ATOM      4  O   UNL     1       5.408  -1.703  -4.606  1.00  0.00    -0.550 OA
ATOM      5  O   UNL     1       4.165  -1.624  -2.684  1.00  0.00    -0.550 OA
ENDBRANCH   2   3
ENDBRANCH   1   2
BRANCH   1   6
ATOM      6  C   UNL     1       1.823   1.394  -4.446  1.00  0.00     0.000 C 
BRANCH   6   7
ATOM      7  C   UNL     1       0.335   1.043  -4.604  1.00  0.00    -0.000 C 
BRANCH   7   8
ATOM      8  C   UNL     1       0.063  -0.460  -4.447  1.00  0.00    -0.003 C 
ATOM      9  C   UNL     1      -0.947  -0.768  -3.342  1.00  0.00     0.004 C 
ENDBRANCH   7   8
ENDBRANCH   6   7
ENDBRANCH   1   6
TORSDOF 5
ENDMDL
MODEL 4
REMARK VINA RESULT:    -3.553     12.770     15.052
REMARK INTER + INTRA:          -4.763
REMARK INTER:                  -4.503
REMARK INTRA:                  -0.260
REMARK UNBOUND:                -0.171
REMARK SMILES CCCCCCC(=O)[O-]
REMARK SMILES IDX 5 1 6 2 7 3 8 4 9 5 4 6 3 7 2 8 1 9
REMARK H PARENT
REMARK Flexibility Score: inf
ROOT
ATOM      1  C   UNL     1       7.466  -7.278   5.995  1.00  0.00     0.006 C 
ENDROOT
BRANCH   1   2
ATOM      2  C   UNL     1       7.093  -8.215   4.838  1.00  0.00     0.053 C 
BRANCH   2   3
ATOM      3  C   UNL     1       7.924  -7.952   3.620  1.00  0.00     0.041 C 
ATOM      4  O   UNL     1       9.124  -8.336   3.577  1.00  0.00    -0.550 OA
ATOM      5  O   UNL     1       7.368  -7.312   2.521  1.00  0.00    -0.550 OA
ENDBRANCH   2   3
ENDBRANCH   1   2
BRANCH   1   6
ATOM      6  C   UNL     1       8.333  -7.977   7.053  1.00  0.00     0.000 C 
BRANCH   6   7
ATOM      7  C   UNL     1       8.122  -9.498   7.019  1.00  0.00    -0.000 C 
BRANCH   7   8
ATOM      8  C   UNL     1       8.353 -10.158   8.386  1.00  0.00    -0.003 C 
ATOM      9  C   UNL     1       8.118  -9.200   9.554  1.00  0.00     0.004 C 
ENDBRANCH   7   8
ENDBRANCH   6   7
ENDBRANCH   1   6
TORSDOF 5
ENDMDL
MODEL 5
REMARK VINA RESULT:    -3.435      3.336      4.819
REMARK INTER + INTRA:          -4.610
REMARK INTER:                  -4.314
REMARK INTRA:                  -0.297
REMARK UNBOUND:                -0.171
REMARK SMILES CCCCCCC(=O)[O-]
REMARK SMILES IDX 5 1 6 2 7 3 8 4 9 5 4 6 3 7 2 8 1 9
REMARK H PARENT
REMARK Flexibility Score: inf
ROOT
ATOM      1  C   UNL     1       1.869   1.168  -4.447  1.00  0.00     0.006 C 
ENDROOT
BRANCH   1   2
ATOM      2  C   UNL     1       0.703   0.429  -5.120  1.00  0.00     0.053 C 
BRANCH   2   3
ATOM      3  C   UNL     1       0.824  -1.056  -4.964  1.00  0.00     0.041 C 
ATOM      4  O   UNL     1       0.706  -1.585  -3.827  1.00  0.00    -0.550 OA
ATOM      5  O   UNL     1       1.034  -1.858  -6.077  1.00  0.00    -0.550 OA
ENDBRANCH   2   3
ENDBRANCH   1   2
BRANCH   1   6
ATOM      6  C   UNL     1       3.236   0.651  -4.919  1.00  0.00     0.000 C 
BRANCH   6   7
ATOM      7  C   UNL     1       4.358   1.141  -3.991  1.00  0.00    -0.000 C 
BRANCH   7   8
ATOM      8  C   UNL     1       5.068  -0.010  -3.264  1.00  0.00    -0.003 C 
ATOM      9  C   UNL     1       4.459  -1.376  -3.579  1.00  0.00     0.004 C 
ENDBRANCH   7   8
ENDBRANCH   6   7
ENDBRANCH   1   6
TORSDOF 5
ENDMDL
MODEL 6
REMARK VINA RESULT:    -3.430     13.933     15.866
REMARK INTER + INTRA:          -4.603
REMARK INTER:                  -4.474
REMARK INTRA:                  -0.130
REMARK UNBOUND:                -0.171
REMARK SMILES CCCCCCC(=O)[O-]
REMARK SMILES IDX 5 1 6 2 7 3 8 4 9 5 4 6 3 7 2 8 1 9
REMARK H PARENT
REMARK Flexibility Score: inf
ROOT
ATOM      1  C   UNL     1       8.740  -8.108   7.853  1.00  0.00     0.006 C 
ENDROOT
BRANCH   1   2
ATOM      2  C   UNL     1       8.242  -9.449   8.408  1.00  0.00     0.053 C 
BRANCH   2   3
ATOM      3  C   UNL     1       7.848  -9.342   9.849  1.00  0.00     0.041 C 
ATOM      4  O   UNL     1       7.111 -10.220  10.372  1.00  0.00    -0.550 OA
ATOM      5  O   UNL     1       8.321  -8.292  10.625  1.00  0.00    -0.550 OA
ENDBRANCH   2   3
ENDBRANCH   1   2
BRANCH   1   6
ATOM      6  C   UNL     1       8.568  -8.008   6.330  1.00  0.00     0.000 C 
BRANCH   6   7
ATOM      7  C   UNL     1       7.303  -7.214   5.972  1.00  0.00    -0.000 C 
BRANCH   7   8
ATOM      8  C   UNL     1       7.209  -6.899   4.471  1.00  0.00    -0.003 C 
ATOM      9  C   UNL     1       7.958  -7.911   3.605  1.00  0.00     0.004 C 
ENDBRANCH   7   8
ENDBRANCH   6   7
ENDBRANCH   1   6
TORSDOF 5
ENDMDL
MODEL 7
REMARK VINA RESULT:    -3.378      3.212      4.032
REMARK INTER + INTRA:          -4.536
REMARK INTER:                  -4.346
REMARK INTRA:                  -0.190
REMARK UNBOUND:                -0.171
REMARK SMILES CCCCCCC(=O)[O-]
REMARK SMILES IDX 5 1 6 2 7 3 8 4 9 5 4 6 3 7 2 8 1 9
REMARK H PARENT
REMARK Flexibility Score: inf
ROOT
ATOM      1  C   UNL     1       0.901   1.126  -5.166  1.00  0.00     0.006 C 
ENDROOT
BRANCH   1   2
ATOM      2  C   UNL     1       0.198  -0.110  -4.588  1.00  0.00     0.053 C 
BRANCH   2   3
ATOM      3  C   UNL     1       0.954  -1.368  -4.886  1.00  0.00     0.041 C 
ATOM      4  O   UNL     1       1.125  -1.737  -6.079  1.00  0.00    -0.550 OA
ATOM      5  O   UNL     1       1.496  -2.118  -3.851  1.00  0.00    -0.550 OA
ENDBRANCH   2   3
ENDBRANCH   1   2
BRANCH   1   6
ATOM      6  C   UNL     1       1.896   1.747  -4.175  1.00  0.00     0.000 C 
BRANCH   6   7
ATOM      7  C   UNL     1       3.334   1.652  -4.708  1.00  0.00    -0.000 C 
BRANCH   7   8
ATOM      8  C   UNL     1       4.300   2.593  -3.973  1.00  0.00    -0.003 C 
ATOM      9  C   UNL     1       3.639   3.901  -3.539  1.00  0.00     0.004 C 
ENDBRANCH   7   8
ENDBRANCH   6   7
ENDBRANCH   1   6
TORSDOF 5
ENDMDL
MODEL 8
REMARK VINA RESULT:    -3.331      3.104      3.880
REMARK INTER + INTRA:          -4.476
REMARK INTER:                  -4.319
REMARK INTRA:                  -0.157
REMARK UNBOUND:                -0.171
REMARK SMILES CCCCCCC(=O)[O-]
REMARK SMILES IDX 5 1 6 2 7 3 8 4 9 5 4 6 3 7 2 8 1 9
REMARK H PARENT
REMARK Flexibility Score: inf
ROOT
ATOM      1  C   UNL     1       2.471   2.063  -4.093  1.00  0.00     0.006 C 
ENDROOT
BRANCH   1   2
ATOM      2  C   UNL     1       1.776   0.942  -4.878  1.00  0.00     0.053 C 
BRANCH   2   3
ATOM      3  C   UNL     1       0.304   0.902  -4.605  1.00  0.00     0.041 C 
ATOM      4  O   UNL     1      -0.139   0.275  -3.606  1.00  0.00    -0.550 OA
ATOM      5  O   UNL     1      -0.578   1.584  -5.434  1.00  0.00    -0.550 OA
ENDBRANCH   2   3
ENDBRANCH   1   2
BRANCH   1   6
ATOM      6  C   UNL     1       3.998   2.025  -4.252  1.00  0.00     0.000 C 
BRANCH   6   7
ATOM      7  C   UNL     1       4.606   3.422  -4.053  1.00  0.00    -0.000 C 
BRANCH   7   8
ATOM      8  C   UNL     1       3.566   4.460  -3.606  1.00  0.00    -0.003 C 
ATOM      9  C   UNL     1       4.145   5.870  -3.498  1.00  0.00     0.004 C 
ENDBRANCH   7   8
ENDBRANCH   6   7
ENDBRANCH   1   6
TORSDOF 5
ENDMDL
MODEL 9
REMARK VINA RESULT:    -3.264      3.666      5.353
REMARK INTER + INTRA:          -4.389
REMARK INTER:                  -4.206
REMARK INTRA:                  -0.183
REMARK UNBOUND:                -0.171
REMARK SMILES CCCCCCC(=O)[O-]
REMARK SMILES IDX 5 1 6 2 7 3 8 4 9 5 4 6 3 7 2 8 1 9
REMARK H PARENT
REMARK Flexibility Score: inf
ROOT
ATOM      1  C   UNL     1       3.242   3.474  -4.308  1.00  0.00     0.006 C 
ENDROOT
BRANCH   1   2
ATOM      2  C   UNL     1       4.315   4.541  -4.052  1.00  0.00     0.053 C 
BRANCH   2   3
ATOM      3  C   UNL     1       3.720   5.813  -3.531  1.00  0.00     0.041 C 
ATOM      4  O   UNL     1       4.380   6.548  -2.749  1.00  0.00    -0.550 OA
ATOM      5  O   UNL     1       2.450   6.204  -3.934  1.00  0.00    -0.550 OA
ENDBRANCH   2   3
ENDBRANCH   1   2
BRANCH   1   6
ATOM      6  C   UNL     1       3.799   2.048  -4.188  1.00  0.00     0.000 C 
BRANCH   6   7
ATOM      7  C   UNL     1       5.288   2.070  -3.809  1.00  0.00    -0.000 C 
BRANCH   7   8
ATOM      8  C   UNL     1       5.693   0.877  -2.931  1.00  0.00    -0.003 C 
ATOM      9  C   UNL     1       5.001  -0.423  -3.341  1.00  0.00     0.004 C 
ENDBRANCH   7   8
ENDBRANCH   6   7
ENDBRANCH   1   6
TORSDOF 5
ENDMDL
