MODEL 1
REMARK VINA RESULT:    -3.148      0.000      0.000
REMARK INTER + INTRA:          -3.524
REMARK INTER:                  -3.516
REMARK INTRA:                  -0.008
REMARK UNBOUND:                -0.008
REMARK SMILES CCCC(=O)[O-]
REMARK SMILES IDX 3 1 4 2 5 3 6 4 2 5 1 6
REMARK H PARENT
REMARK Flexibility Score: inf
ROOT
ATOM      1  C   UNL     1      10.836  35.896  35.942  1.00  0.00     0.052 C 
ENDROOT
BRANCH   1   2
ATOM      2  C   UNL     1      10.672  36.873  37.067  1.00  0.00     0.041 C 
ATOM      3  O   UNL     1       9.875  36.624  38.010  1.00  0.00    -0.550 OA
ATOM      4  O   UNL     1      11.373  38.071  37.056  1.00  0.00    -0.550 OA
ENDBRANCH   1   2
BRANCH   1   5
ATOM      5  C   UNL     1      10.968  36.605  34.588  1.00  0.00     0.003 C 
ATOM      6  C   UNL     1      10.124  35.940  33.500  1.00  0.00     0.004 C 
ENDBRANCH   1   5
TORSDOF 2
ENDMDL
MODEL 2
REMARK VINA RESULT:    -2.923      1.143      1.885
REMARK INTER + INTRA:          -3.273
REMARK INTER:                  -3.238
REMARK INTRA:                  -0.035
REMARK UNBOUND:                -0.008
REMARK SMILES CCCC(=O)[O-]
REMARK SMILES IDX 3 1 4 2 5 3 6 4 2 5 1 6
REMARK H PARENT
REMARK Flexibility Score: inf
ROOT
ATOM      1  C   UNL     1      10.148  36.311  37.155  1.00  0.00     0.052 C 
ENDROOT
BRANCH   1   2
ATOM      2  C   UNL     1      10.800  37.196  38.173  1.00  0.00     0.041 C 
ATOM      3  O   UNL     1      12.002  37.545  38.032  1.00  0.00    -0.550 OA
ATOM      4  O   UNL     1      10.091  37.607  39.294  1.00  0.00    -0.550 OA
ENDBRANCH   1   2
BRANCH   1   5
ATOM      5  C   UNL     1      11.141  35.856  36.078  1.00  0.00     0.003 C 
ATOM      6  C   UNL     1      10.976  36.630  34.770  1.00  0.00     0.004 C 
ENDBRANCH   1   5
TORSDOF 2
ENDMDL
MODEL 3
REMARK VINA RESULT:    -2.703      1.904      3.703
REMARK INTER + INTRA:          -3.027
REMARK INTER:                  -3.001
REMARK INTRA:                  -0.026
REMARK UNBOUND:                -0.008
REMARK SMILES CCCC(=O)[O-]
REMARK SMILES IDX 3 1 4 2 5 3 6 4 2 5 1 6
REMARK H PARENT
REMARK Flexibility Score: inf
ROOT
ATOM      1  C   UNL     1      11.096  37.788  37.121  1.00  0.00     0.052 C 
ENDROOT
BRANCH   1   2
ATOM      2  C   UNL     1      10.841  36.749  36.072  1.00  0.00     0.041 C 
ATOM      3  O   UNL     1      11.089  36.998  34.862  1.00  0.00    -0.550 OA
ATOM      4  O   UNL     1      10.299  35.521  36.426  1.00  0.00    -0.550 OA
ENDBRANCH   1   2
BRANCH   1   5
ATOM      5  C   UNL     1      10.036  37.749  38.230  1.00  0.00     0.003 C 
ATOM      6  C   UNL     1      10.656  37.777  39.628  1.00  0.00     0.004 C 
ENDBRANCH   1   5
TORSDOF 2
ENDMDL
MODEL 4
REMARK VINA RESULT:    -1.955     10.617     10.998
REMARK INTER + INTRA:          -2.192
REMARK INTER:                  -2.156
REMARK INTRA:                  -0.036
REMARK UNBOUND:                -0.008
REMARK SMILES CCCC(=O)[O-]
REMARK SMILES IDX 3 1 4 2 5 3 6 4 2 5 1 6
REMARK H PARENT
REMARK Flexibility Score: inf
ROOT
ATOM      1  C   UNL     1      18.675  30.193  31.034  1.00  0.00     0.052 C 
ENDROOT
BRANCH   1   2
ATOM      2  C   UNL     1      17.437  29.514  31.535  1.00  0.00     0.041 C 
ATOM      3  O   UNL     1      16.847  29.949  32.560  1.00  0.00    -0.550 OA
ATOM      4  O   UNL     1      16.956  28.382  30.892  1.00  0.00    -0.550 OA
ENDBRANCH   1   2
BRANCH   1   5
ATOM      5  C   UNL     1      18.470  31.705  30.876  1.00  0.00     0.003 C 
ATOM      6  C   UNL     1      19.230  32.508  31.932  1.00  0.00     0.004 C 
ENDBRANCH   1   5
TORSDOF 2
ENDMDL
MODEL 5
REMARK VINA RESULT:    -1.950     18.902     19.799
REMARK INTER + INTRA:          -2.187
REMARK INTER:                  -2.150
REMARK INTRA:                  -0.037
REMARK UNBOUND:                -0.008
REMARK SMILES CCCC(=O)[O-]
REMARK SMILES IDX 3 1 4 2 5 3 6 4 2 5 1 6
REMARK H PARENT
REMARK Flexibility Score: inf
ROOT
ATOM      1  C   UNL     1      21.475  29.782  51.125  1.00  0.00     0.052 C 
ENDROOT
BRANCH   1   2
ATOM      2  C   UNL     1      22.560  29.136  50.319  1.00  0.00     0.041 C 
ATOM      3  O   UNL     1      22.952  29.665  49.245  1.00  0.00    -0.550 OA
ATOM      4  O   UNL     1      23.115  27.933  50.736  1.00  0.00    -0.550 OA
ENDBRANCH   1   2
BRANCH   1   5
ATOM      5  C   UNL     1      21.600  31.311  51.125  1.00  0.00     0.003 C 
ATOM      6  C   UNL     1      20.480  31.986  50.332  1.00  0.00     0.004 C 
ENDBRANCH   1   5
TORSDOF 2
ENDMDL
MODEL 6
REMARK VINA RESULT:    -0.399     11.135     11.543
REMARK INTER + INTRA:          -0.454
REMARK INTER:                  -0.449
REMARK INTRA:                  -0.005
REMARK UNBOUND:                -0.008
REMARK SMILES CCCC(=O)[O-]
REMARK SMILES IDX 3 1 4 2 5 3 6 4 2 5 1 6
REMARK H PARENT
REMARK Flexibility Score: inf
ROOT
ATOM      1  C   UNL     1      12.436  25.801  38.995  1.00  0.00     0.052 C 
ENDROOT
BRANCH   1   2
ATOM      2  C   UNL     1      13.379  26.220  40.082  1.00  0.00     0.041 C 
ATOM      3  O   UNL     1      14.132  25.370  40.628  1.00  0.00    -0.550 OA
ATOM      4  O   UNL     1      13.401  27.538  40.515  1.00  0.00    -0.550 OA
ENDBRANCH   1   2
BRANCH   1   5
ATOM      5  C   UNL     1      10.991  25.709  39.499  1.00  0.00     0.003 C 
ATOM      6  C   UNL     1       9.998  25.430  38.370  1.00  0.00     0.004 C 
ENDBRANCH   1   5
TORSDOF 2
ENDMDL
