MODEL 1
REMARK VINA RESULT:    -3.802      0.000      0.000
REMARK INTER + INTRA:         -13.233
REMARK INTER:                  -8.692
REMARK INTRA:                  -4.541
REMARK UNBOUND:                -4.541
REMARK SMILES CCCCCCCCCCCCCCCCCCCCCCCC(=O)[O-]
REMARK SMILES IDX 13 1 14 2 15 3 16 4 17 5 18 6 19 7 20 8 21 9 22 10 23 11
REMARK SMILES IDX 24 12 25 13 26 14 12 15 11 16 10 17 9 18 8 19 7 20 6 21 5 22
REMARK SMILES IDX 4 23 3 24 2 25 1 26
REMARK H PARENT
REMARK Flexibility Score: inf
ROOT
ATOM      1  C   UNL     1      25.490  28.417 -11.131  1.00  0.00     0.000 C 
ENDROOT
BRANCH   1   2
ATOM      2  C   UNL     1      26.426  28.071  -9.951  1.00  0.00     0.000 C 
BRANCH   2   3
ATOM      3  C   UNL     1      27.430  29.180  -9.570  1.00  0.00     0.000 C 
BRANCH   3   4
ATOM      4  C   UNL     1      27.705  30.238 -10.656  1.00  0.00     0.000 C 
BRANCH   4   5
ATOM      5  C   UNL     1      29.008  30.048 -11.454  1.00  0.00     0.000 C 
BRANCH   5   6
ATOM      6  C   UNL     1      28.844  30.221 -12.981  1.00  0.00     0.000 C 
BRANCH   6   7
ATOM      7  C   UNL     1      27.411  30.618 -13.382  1.00  0.00     0.000 C 
BRANCH   7   8
ATOM      8  C   UNL     1      27.032  30.113 -14.789  1.00  0.00     0.000 C 
BRANCH   8   9
ATOM      9  C   UNL     1      25.520  29.878 -14.983  1.00  0.00     0.000 C 
BRANCH   9  10
ATOM     10  C   UNL     1      24.680  31.106 -14.588  1.00  0.00     0.006 C 
BRANCH  10  11
ATOM     11  C   UNL     1      23.755  30.820 -13.397  1.00  0.00     0.053 C 
BRANCH  11  12
ATOM     12  C   UNL     1      24.005  31.763 -12.258  1.00  0.00     0.041 C 
ATOM     13  O   UNL     1      24.627  32.838 -12.452  1.00  0.00    -0.550 OA
ATOM     14  O   UNL     1      23.558  31.447 -10.980  1.00  0.00    -0.550 OA
ENDBRANCH  11  12
ENDBRANCH  10  11
ENDBRANCH   9  10
ENDBRANCH   8   9
ENDBRANCH   7   8
ENDBRANCH   6   7
ENDBRANCH   5   6
ENDBRANCH   4   5
ENDBRANCH   3   4
ENDBRANCH   2   3
ENDBRANCH   1   2
BRANCH   1  15
ATOM     15  C   UNL     1      25.592  27.443 -12.317  1.00  0.00     0.000 C 
BRANCH  15  16
ATOM     16  C   UNL     1      27.007  26.876 -12.504  1.00  0.00     0.000 C 
BRANCH  16  17
ATOM     17  C   UNL     1      27.137  26.037 -13.786  1.00  0.00     0.000 C 
BRANCH  17  18
ATOM     18  C   UNL     1      25.793  25.867 -14.514  1.00  0.00    -0.000 C 
BRANCH  18  19
ATOM     19  C   UNL     1      25.489  24.383 -14.762  1.00  0.00    -0.000 C 
BRANCH  19  20
ATOM     20  C   UNL     1      26.644  23.456 -14.342  1.00  0.00    -0.000 C 
BRANCH  20  21
ATOM     21  C   UNL     1      26.247  22.295 -13.407  1.00  0.00    -0.000 C 
BRANCH  21  22
ATOM     22  C   UNL     1      26.997  22.257 -12.062  1.00  0.00    -0.000 C 
BRANCH  22  23
ATOM     23  C   UNL     1      26.654  23.452 -11.158  1.00  0.00    -0.000 C 
BRANCH  23  24
ATOM     24  C   UNL     1      25.137  23.664 -11.000  1.00  0.00    -0.000 C 
BRANCH  24  25
ATOM     25  C   UNL     1      24.740  24.711  -9.944  1.00  0.00    -0.003 C 
ATOM     26  C   UNL     1      23.366  25.332 -10.202  1.00  0.00     0.004 C 
ENDBRANCH  24  25
ENDBRANCH  23  24
ENDBRANCH  22  23
ENDBRANCH  21  22
ENDBRANCH  20  21
ENDBRANCH  19  20
ENDBRANCH  18  19
ENDBRANCH  17  18
ENDBRANCH  16  17
ENDBRANCH  15  16
ENDBRANCH   1  15
TORSDOF 22
ENDMDL
MODEL 2
REMARK VINA RESULT:    -3.737      2.993      7.253
REMARK INTER + INTRA:         -13.084
REMARK INTER:                  -8.910
REMARK INTRA:                  -4.174
REMARK UNBOUND:                -4.541
REMARK SMILES CCCCCCCCCCCCCCCCCCCCCCCC(=O)[O-]
REMARK SMILES IDX 13 1 14 2 15 3 16 4 17 5 18 6 19 7 20 8 21 9 22 10 23 11
REMARK SMILES IDX 24 12 25 13 26 14 12 15 11 16 10 17 9 18 8 19 7 20 6 21 5 22
REMARK SMILES IDX 4 23 3 24 2 25 1 26
REMARK H PARENT
REMARK Flexibility Score: inf
ROOT
ATOM      1  C   UNL     1      25.350  28.045 -11.070  1.00  0.00     0.000 C 
ENDROOT
BRANCH   1   2
ATOM      2  C   UNL     1      25.274  27.314 -12.429  1.00  0.00     0.000 C 
BRANCH   2   3
ATOM      3  C   UNL     1      26.620  26.771 -12.953  1.00  0.00     0.000 C 
BRANCH   3   4
ATOM      4  C   UNL     1      26.581  26.112 -14.346  1.00  0.00     0.000 C 
BRANCH   4   5
ATOM      5  C   UNL     1      25.268  26.293 -15.130  1.00  0.00     0.000 C 
BRANCH   5   6
ATOM      6  C   UNL     1      24.523  24.973 -15.426  1.00  0.00     0.000 C 
BRANCH   6   7
ATOM      7  C   UNL     1      25.253  23.740 -14.863  1.00  0.00     0.000 C 
BRANCH   7   8
ATOM      8  C   UNL     1      24.290  22.737 -14.195  1.00  0.00     0.000 C 
BRANCH   8   9
ATOM      9  C   UNL     1      24.775  22.220 -12.826  1.00  0.00     0.000 C 
BRANCH   9  10
ATOM     10  C   UNL     1      25.462  23.319 -11.993  1.00  0.00     0.006 C 
BRANCH  10  11
ATOM     11  C   UNL     1      26.516  22.749 -11.034  1.00  0.00     0.053 C 
BRANCH  11  12
ATOM     12  C   UNL     1      27.800  22.433 -11.741  1.00  0.00     0.041 C 
ATOM     13  O   UNL     1      28.527  21.489 -11.339  1.00  0.00    -0.550 OA
ATOM     14  O   UNL     1      28.197  23.189 -12.838  1.00  0.00    -0.550 OA
ENDBRANCH  11  12
ENDBRANCH  10  11
ENDBRANCH   9  10
ENDBRANCH   8   9
ENDBRANCH   7   8
ENDBRANCH   6   7
ENDBRANCH   5   6
ENDBRANCH   4   5
ENDBRANCH   3   4
ENDBRANCH   2   3
ENDBRANCH   1   2
BRANCH   1  15
ATOM     15  C   UNL     1      26.718  27.931 -10.375  1.00  0.00     0.000 C 
BRANCH  15  16
ATOM     16  C   UNL     1      27.149  29.235  -9.689  1.00  0.00     0.000 C 
BRANCH  16  17
ATOM     17  C   UNL     1      27.566  30.318 -10.698  1.00  0.00     0.000 C 
BRANCH  17  18
ATOM     18  C   UNL     1      28.908  29.999 -11.378  1.00  0.00    -0.000 C 
BRANCH  18  19
ATOM     19  C   UNL     1      28.781  30.086 -12.906  1.00  0.00    -0.000 C 
BRANCH  19  20
ATOM     20  C   UNL     1      27.370  30.492 -13.368  1.00  0.00    -0.000 C 
BRANCH  20  21
ATOM     21  C   UNL     1      27.041  30.164 -14.840  1.00  0.00    -0.000 C 
BRANCH  21  22
ATOM     22  C   UNL     1      25.557  29.873 -15.125  1.00  0.00    -0.000 C 
BRANCH  22  23
ATOM     23  C   UNL     1      24.621  30.963 -14.577  1.00  0.00    -0.000 C 
BRANCH  23  24
ATOM     24  C   UNL     1      23.700  30.448 -13.456  1.00  0.00    -0.000 C 
BRANCH  24  25
ATOM     25  C   UNL     1      23.755  31.265 -12.152  1.00  0.00    -0.003 C 
ATOM     26  C   UNL     1      24.441  32.622 -12.324  1.00  0.00     0.004 C 
ENDBRANCH  24  25
ENDBRANCH  23  24
ENDBRANCH  22  23
ENDBRANCH  21  22
ENDBRANCH  20  21
ENDBRANCH  19  20
ENDBRANCH  18  19
ENDBRANCH  17  18
ENDBRANCH  16  17
ENDBRANCH  15  16
ENDBRANCH   1  15
TORSDOF 22
ENDMDL
MODEL 3
REMARK VINA RESULT:    -3.706      3.479      7.427
REMARK INTER + INTRA:         -13.014
REMARK INTER:                  -9.390
REMARK INTRA:                  -3.624
REMARK UNBOUND:                -4.541
REMARK SMILES CCCCCCCCCCCCCCCCCCCCCCCC(=O)[O-]
REMARK SMILES IDX 13 1 14 2 15 3 16 4 17 5 18 6 19 7 20 8 21 9 22 10 23 11
REMARK SMILES IDX 24 12 25 13 26 14 12 15 11 16 10 17 9 18 8 19 7 20 6 21 5 22
REMARK SMILES IDX 4 23 3 24 2 25 1 26
REMARK H PARENT
REMARK Flexibility Score: inf
ROOT
ATOM      1  C   UNL     1      24.769  27.478 -10.630  1.00  0.00     0.000 C 
ENDROOT
BRANCH   1   2
ATOM      2  C   UNL     1      23.821  27.265 -11.831  1.00  0.00     0.000 C 
BRANCH   2   3
ATOM      3  C   UNL     1      24.392  27.702 -13.197  1.00  0.00     0.000 C 
BRANCH   3   4
ATOM      4  C   UNL     1      24.813  26.561 -14.144  1.00  0.00     0.000 C 
BRANCH   4   5
ATOM      5  C   UNL     1      26.311  26.506 -14.495  1.00  0.00     0.000 C 
BRANCH   5   6
ATOM      6  C   UNL     1      27.235  26.259 -13.282  1.00  0.00     0.000 C 
BRANCH   6   7
ATOM      7  C   UNL     1      26.974  24.901 -12.604  1.00  0.00     0.000 C 
BRANCH   7   8
ATOM      8  C   UNL     1      27.537  23.718 -13.418  1.00  0.00     0.000 C 
BRANCH   8   9
ATOM      9  C   UNL     1      26.453  22.820 -14.049  1.00  0.00     0.000 C 
BRANCH   9  10
ATOM     10  C   UNL     1      25.647  22.043 -12.992  1.00  0.00     0.006 C 
BRANCH  10  11
ATOM     11  C   UNL     1      26.415  20.829 -12.452  1.00  0.00     0.053 C 
BRANCH  11  12
ATOM     12  C   UNL     1      26.917  21.061 -11.058  1.00  0.00     0.041 C 
ATOM     13  O   UNL     1      26.127  20.990 -10.082  1.00  0.00    -0.550 OA
ATOM     14  O   UNL     1      28.256  21.366 -10.840  1.00  0.00    -0.550 OA
ENDBRANCH  11  12
ENDBRANCH  10  11
ENDBRANCH   9  10
ENDBRANCH   8   9
ENDBRANCH   7   8
ENDBRANCH   6   7
ENDBRANCH   5   6
ENDBRANCH   4   5
ENDBRANCH   3   4
ENDBRANCH   2   3
ENDBRANCH   1   2
BRANCH   1  15
ATOM     15  C   UNL     1      25.461  28.852 -10.614  1.00  0.00     0.000 C 
BRANCH  15  16
ATOM     16  C   UNL     1      26.992  28.751 -10.653  1.00  0.00     0.000 C 
BRANCH  16  17
ATOM     17  C   UNL     1      27.677  30.018 -10.112  1.00  0.00     0.000 C 
BRANCH  17  18
ATOM     18  C   UNL     1      28.866  30.457 -10.981  1.00  0.00    -0.000 C 
BRANCH  18  19
ATOM     19  C   UNL     1      28.892  29.682 -12.307  1.00  0.00    -0.000 C 
BRANCH  19  20
ATOM     20  C   UNL     1      28.448  30.536 -13.509  1.00  0.00    -0.000 C 
BRANCH  20  21
ATOM     21  C   UNL     1      27.183  30.038 -14.236  1.00  0.00    -0.000 C 
BRANCH  21  22
ATOM     22  C   UNL     1      26.043  31.068 -14.339  1.00  0.00    -0.000 C 
BRANCH  22  23
ATOM     23  C   UNL     1      25.472  31.461 -12.967  1.00  0.00    -0.000 C 
BRANCH  23  24
ATOM     24  C   UNL     1      24.283  32.433 -13.074  1.00  0.00    -0.000 C 
BRANCH  24  25
ATOM     25  C   UNL     1      23.212  32.028 -14.104  1.00  0.00    -0.003 C 
ATOM     26  C   UNL     1      22.267  30.941 -13.589  1.00  0.00     0.004 C 
ENDBRANCH  24  25
ENDBRANCH  23  24
ENDBRANCH  22  23
ENDBRANCH  21  22
ENDBRANCH  20  21
ENDBRANCH  19  20
ENDBRANCH  18  19
ENDBRANCH  17  18
ENDBRANCH  16  17
ENDBRANCH  15  16
ENDBRANCH   1  15
TORSDOF 22
ENDMDL
MODEL 4
REMARK VINA RESULT:    -3.687      2.899      6.728
REMARK INTER + INTRA:         -12.969
REMARK INTER:                  -8.951
REMARK INTRA:                  -4.018
REMARK UNBOUND:                -4.541
REMARK SMILES CCCCCCCCCCCCCCCCCCCCCCCC(=O)[O-]
REMARK SMILES IDX 13 1 14 2 15 3 16 4 17 5 18 6 19 7 20 8 21 9 22 10 23 11
REMARK SMILES IDX 24 12 25 13 26 14 12 15 11 16 10 17 9 18 8 19 7 20 6 21 5 22
REMARK SMILES IDX 4 23 3 24 2 25 1 26
REMARK H PARENT
REMARK Flexibility Score: inf
ROOT
ATOM      1  C   UNL     1      27.656  29.312  -9.841  1.00  0.00     0.000 C 
ENDROOT
BRANCH   1   2
ATOM      2  C   UNL     1      26.414  28.610 -10.435  1.00  0.00     0.000 C 
BRANCH   2   3
ATOM      3  C   UNL     1      26.723  27.496 -11.457  1.00  0.00     0.000 C 
BRANCH   3   4
ATOM      4  C   UNL     1      25.791  26.269 -11.413  1.00  0.00     0.000 C 
BRANCH   4   5
ATOM      5  C   UNL     1      24.283  26.578 -11.449  1.00  0.00     0.000 C 
BRANCH   5   6
ATOM      6  C   UNL     1      23.517  25.853 -12.578  1.00  0.00     0.000 C 
BRANCH   6   7
ATOM      7  C   UNL     1      23.409  26.700 -13.860  1.00  0.00     0.000 C 
BRANCH   7   8
ATOM      8  C   UNL     1      23.940  25.958 -15.103  1.00  0.00     0.000 C 
BRANCH   8   9
ATOM      9  C   UNL     1      25.322  25.304 -14.899  1.00  0.00     0.000 C 
BRANCH   9  10
ATOM     10  C   UNL     1      25.253  23.766 -14.926  1.00  0.00     0.006 C 
BRANCH  10  11
ATOM     11  C   UNL     1      26.536  23.117 -14.388  1.00  0.00     0.053 C 
BRANCH  11  12
ATOM     12  C   UNL     1      26.492  22.945 -12.900  1.00  0.00     0.041 C 
ATOM     13  O   UNL     1      25.389  22.796 -12.313  1.00  0.00    -0.550 OA
ATOM     14  O   UNL     1      27.668  22.958 -12.160  1.00  0.00    -0.550 OA
ENDBRANCH  11  12
ENDBRANCH  10  11
ENDBRANCH   9  10
ENDBRANCH   8   9
ENDBRANCH   7   8
ENDBRANCH   6   7
ENDBRANCH   5   6
ENDBRANCH   4   5
ENDBRANCH   3   4
ENDBRANCH   2   3
ENDBRANCH   1   2
BRANCH   1  15
ATOM     15  C   UNL     1      28.172  30.491 -10.684  1.00  0.00     0.000 C 
BRANCH  15  16
ATOM     16  C   UNL     1      29.311  30.092 -11.633  1.00  0.00     0.000 C 
BRANCH  16  17
ATOM     17  C   UNL     1      28.940  30.297 -13.112  1.00  0.00     0.000 C 
BRANCH  17  18
ATOM     18  C   UNL     1      27.459  30.660 -13.299  1.00  0.00    -0.000 C 
BRANCH  18  19
ATOM     19  C   UNL     1      26.969  30.259 -14.698  1.00  0.00    -0.000 C 
BRANCH  19  20
ATOM     20  C   UNL     1      25.647  29.469 -14.666  1.00  0.00    -0.000 C 
BRANCH  20  21
ATOM     21  C   UNL     1      24.452  30.162 -15.353  1.00  0.00    -0.000 C 
BRANCH  21  22
ATOM     22  C   UNL     1      24.363  31.682 -15.126  1.00  0.00    -0.000 C 
BRANCH  22  23
ATOM     23  C   UNL     1      23.490  32.052 -13.916  1.00  0.00    -0.000 C 
BRANCH  23  24
ATOM     24  C   UNL     1      24.318  32.527 -12.708  1.00  0.00    -0.000 C 
BRANCH  24  25
ATOM     25  C   UNL     1      24.348  31.544 -11.523  1.00  0.00    -0.003 C 
ATOM     26  C   UNL     1      23.454  30.321 -11.736  1.00  0.00     0.004 C 
ENDBRANCH  24  25
ENDBRANCH  23  24
ENDBRANCH  22  23
ENDBRANCH  21  22
ENDBRANCH  20  21
ENDBRANCH  19  20
ENDBRANCH  18  19
ENDBRANCH  17  18
ENDBRANCH  16  17
ENDBRANCH  15  16
ENDBRANCH   1  15
TORSDOF 22
ENDMDL
MODEL 5
REMARK VINA RESULT:    -3.676      1.626      3.609
REMARK INTER + INTRA:         -12.946
REMARK INTER:                  -9.723
REMARK INTRA:                  -3.224
REMARK UNBOUND:                -4.541
REMARK SMILES CCCCCCCCCCCCCCCCCCCCCCCC(=O)[O-]
REMARK SMILES IDX 13 1 14 2 15 3 16 4 17 5 18 6 19 7 20 8 21 9 22 10 23 11
REMARK SMILES IDX 24 12 25 13 26 14 12 15 11 16 10 17 9 18 8 19 7 20 6 21 5 22
REMARK SMILES IDX 4 23 3 24 2 25 1 26
REMARK H PARENT
REMARK Flexibility Score: inf
ROOT
ATOM      1  C   UNL     1      29.022  30.221 -11.301  1.00  0.00     0.000 C 
ENDROOT
BRANCH   1   2
ATOM      2  C   UNL     1      28.872  30.204 -12.838  1.00  0.00     0.000 C 
BRANCH   2   3
ATOM      3  C   UNL     1      27.466  30.572 -13.360  1.00  0.00     0.000 C 
BRANCH   3   4
ATOM      4  C   UNL     1      27.236  30.364 -14.869  1.00  0.00     0.000 C 
BRANCH   4   5
ATOM      5  C   UNL     1      26.221  29.267 -15.241  1.00  0.00     0.000 C 
BRANCH   5   6
ATOM      6  C   UNL     1      24.836  29.806 -15.665  1.00  0.00     0.000 C 
BRANCH   6   7
ATOM      7  C   UNL     1      23.845  29.884 -14.489  1.00  0.00     0.000 C 
BRANCH   7   8
ATOM      8  C   UNL     1      23.216  31.284 -14.340  1.00  0.00     0.000 C 
BRANCH   8   9
ATOM      9  C   UNL     1      24.225  32.387 -13.962  1.00  0.00     0.000 C 
BRANCH   9  10
ATOM     10  C   UNL     1      24.178  32.736 -12.462  1.00  0.00     0.006 C 
BRANCH  10  11
ATOM     11  C   UNL     1      24.371  31.502 -11.571  1.00  0.00     0.053 C 
BRANCH  11  12
ATOM     12  C   UNL     1      23.118  31.153 -10.824  1.00  0.00     0.041 C 
ATOM     13  O   UNL     1      22.641  31.955  -9.980  1.00  0.00    -0.550 OA
ATOM     14  O   UNL     1      22.484  29.937 -11.053  1.00  0.00    -0.550 OA
ENDBRANCH  11  12
ENDBRANCH  10  11
ENDBRANCH   9  10
ENDBRANCH   8   9
ENDBRANCH   7   8
ENDBRANCH   6   7
ENDBRANCH   5   6
ENDBRANCH   4   5
ENDBRANCH   3   4
ENDBRANCH   2   3
ENDBRANCH   1   2
BRANCH   1  15
ATOM     15  C   UNL     1      27.695  30.046 -10.541  1.00  0.00     0.000 C 
BRANCH  15  16
ATOM     16  C   UNL     1      27.302  28.573 -10.359  1.00  0.00     0.000 C 
BRANCH  16  17
ATOM     17  C   UNL     1      25.823  28.316 -10.693  1.00  0.00     0.000 C 
BRANCH  17  18
ATOM     18  C   UNL     1      25.643  27.601 -12.042  1.00  0.00    -0.000 C 
BRANCH  18  19
ATOM     19  C   UNL     1      26.901  26.802 -12.412  1.00  0.00    -0.000 C 
BRANCH  19  20
ATOM     20  C   UNL     1      26.720  25.283 -12.233  1.00  0.00    -0.000 C 
BRANCH  20  21
ATOM     21  C   UNL     1      27.520  24.407 -13.219  1.00  0.00    -0.000 C 
BRANCH  21  22
ATOM     22  C   UNL     1      26.669  23.464 -14.089  1.00  0.00    -0.000 C 
BRANCH  22  23
ATOM     23  C   UNL     1      25.693  22.610 -13.261  1.00  0.00    -0.000 C 
BRANCH  23  24
ATOM     24  C   UNL     1      26.325  21.295 -12.769  1.00  0.00    -0.000 C 
BRANCH  24  25
ATOM     25  C   UNL     1      26.771  21.308 -11.295  1.00  0.00    -0.003 C 
ATOM     26  C   UNL     1      28.288  21.402 -11.129  1.00  0.00     0.004 C 
ENDBRANCH  24  25
ENDBRANCH  23  24
ENDBRANCH  22  23
ENDBRANCH  21  22
ENDBRANCH  20  21
ENDBRANCH  19  20
ENDBRANCH  18  19
ENDBRANCH  17  18
ENDBRANCH  16  17
ENDBRANCH  15  16
ENDBRANCH   1  15
TORSDOF 22
ENDMDL
MODEL 6
REMARK VINA RESULT:    -3.638      2.185      4.326
REMARK INTER + INTRA:         -12.858
REMARK INTER:                  -9.306
REMARK INTRA:                  -3.552
REMARK UNBOUND:                -4.541
REMARK SMILES CCCCCCCCCCCCCCCCCCCCCCCC(=O)[O-]
REMARK SMILES IDX 13 1 14 2 15 3 16 4 17 5 18 6 19 7 20 8 21 9 22 10 23 11
REMARK SMILES IDX 24 12 25 13 26 14 12 15 11 16 10 17 9 18 8 19 7 20 6 21 5 22
REMARK SMILES IDX 4 23 3 24 2 25 1 26
REMARK H PARENT
REMARK Flexibility Score: inf
ROOT
ATOM      1  C   UNL     1      23.037  30.256 -14.607  1.00  0.00     0.000 C 
ENDROOT
BRANCH   1   2
ATOM      2  C   UNL     1      23.217  31.787 -14.705  1.00  0.00     0.000 C 
BRANCH   2   3
ATOM      3  C   UNL     1      24.423  32.352 -13.924  1.00  0.00     0.000 C 
BRANCH   3   4
ATOM      4  C   UNL     1      25.385  31.305 -13.328  1.00  0.00     0.000 C 
BRANCH   4   5
ATOM      5  C   UNL     1      26.589  30.930 -14.211  1.00  0.00     0.000 C 
BRANCH   5   6
ATOM      6  C   UNL     1      27.513  29.856 -13.595  1.00  0.00     0.000 C 
BRANCH   6   7
ATOM      7  C   UNL     1      28.835  30.444 -13.068  1.00  0.00     0.000 C 
BRANCH   7   8
ATOM      8  C   UNL     1      29.166  29.965 -11.640  1.00  0.00     0.000 C 
BRANCH   8   9
ATOM      9  C   UNL     1      28.298  30.616 -10.544  1.00  0.00     0.000 C 
BRANCH   9  10
ATOM     10  C   UNL     1      27.582  29.574  -9.665  1.00  0.00     0.006 C 
BRANCH  10  11
ATOM     11  C   UNL     1      26.992  28.423 -10.492  1.00  0.00     0.053 C 
BRANCH  11  12
ATOM     12  C   UNL     1      25.960  27.655  -9.722  1.00  0.00     0.041 C 
ATOM     13  O   UNL     1      25.092  26.978 -10.331  1.00  0.00    -0.550 OA
ATOM     14  O   UNL     1      25.951  27.696  -8.333  1.00  0.00    -0.550 OA
ENDBRANCH  11  12
ENDBRANCH  10  11
ENDBRANCH   9  10
ENDBRANCH   8   9
ENDBRANCH   7   8
ENDBRANCH   6   7
ENDBRANCH   5   6
ENDBRANCH   4   5
ENDBRANCH   3   4
ENDBRANCH   2   3
ENDBRANCH   1   2
BRANCH   1  15
ATOM     15  C   UNL     1      23.477  29.492 -15.868  1.00  0.00     0.000 C 
BRANCH  15  16
ATOM     16  C   UNL     1      24.086  28.119 -15.552  1.00  0.00     0.000 C 
BRANCH  16  17
ATOM     17  C   UNL     1      24.030  27.784 -14.052  1.00  0.00     0.000 C 
BRANCH  17  18
ATOM     18  C   UNL     1      24.802  26.500 -13.709  1.00  0.00    -0.000 C 
BRANCH  18  19
ATOM     19  C   UNL     1      26.222  26.542 -14.292  1.00  0.00    -0.000 C 
BRANCH  19  20
ATOM     20  C   UNL     1      27.294  26.071 -13.291  1.00  0.00    -0.000 C 
BRANCH  20  21
ATOM     21  C   UNL     1      26.975  24.749 -12.563  1.00  0.00    -0.000 C 
BRANCH  21  22
ATOM     22  C   UNL     1      27.559  23.486 -13.222  1.00  0.00    -0.000 C 
BRANCH  22  23
ATOM     23  C   UNL     1      26.512  22.697 -14.026  1.00  0.00    -0.000 C 
BRANCH  23  24
ATOM     24  C   UNL     1      25.112  22.748 -13.389  1.00  0.00    -0.000 C 
BRANCH  24  25
ATOM     25  C   UNL     1      23.947  22.741 -14.397  1.00  0.00    -0.003 C 
ATOM     26  C   UNL     1      24.229  23.581 -15.644  1.00  0.00     0.004 C 
ENDBRANCH  24  25
ENDBRANCH  23  24
ENDBRANCH  22  23
ENDBRANCH  21  22
ENDBRANCH  20  21
ENDBRANCH  19  20
ENDBRANCH  18  19
ENDBRANCH  17  18
ENDBRANCH  16  17
ENDBRANCH  15  16
ENDBRANCH   1  15
TORSDOF 22
ENDMDL
MODEL 7
REMARK VINA RESULT:    -3.626      1.076      2.171
REMARK INTER + INTRA:         -12.831
REMARK INTER:                  -8.278
REMARK INTRA:                  -4.554
REMARK UNBOUND:                -4.541
REMARK SMILES CCCCCCCCCCCCCCCCCCCCCCCC(=O)[O-]
REMARK SMILES IDX 13 1 14 2 15 3 16 4 17 5 18 6 19 7 20 8 21 9 22 10 23 11
REMARK SMILES IDX 24 12 25 13 26 14 12 15 11 16 10 17 9 18 8 19 7 20 6 21 5 22
REMARK SMILES IDX 4 23 3 24 2 25 1 26
REMARK H PARENT
REMARK Flexibility Score: inf
ROOT
ATOM      1  C   UNL     1      25.745  27.201 -11.840  1.00  0.00     0.000 C 
ENDROOT
BRANCH   1   2
ATOM      2  C   UNL     1      25.790  27.457 -10.318  1.00  0.00     0.000 C 
BRANCH   2   3
ATOM      3  C   UNL     1      26.071  28.920  -9.911  1.00  0.00     0.000 C 
BRANCH   3   4
ATOM      4  C   UNL     1      27.545  29.261  -9.615  1.00  0.00     0.000 C 
BRANCH   4   5
ATOM      5  C   UNL     1      28.132  30.431 -10.426  1.00  0.00     0.000 C 
BRANCH   5   6
ATOM      6  C   UNL     1      29.323  30.039 -11.327  1.00  0.00     0.000 C 
BRANCH   6   7
ATOM      7  C   UNL     1      28.982  30.115 -12.827  1.00  0.00     0.000 C 
BRANCH   7   8
ATOM      8  C   UNL     1      27.472  30.295 -13.081  1.00  0.00     0.000 C 
BRANCH   8   9
ATOM      9  C   UNL     1      27.104  30.476 -14.568  1.00  0.00     0.000 C 
BRANCH   9  10
ATOM     10  C   UNL     1      25.583  30.436 -14.805  1.00  0.00     0.006 C 
BRANCH  10  11
ATOM     11  C   UNL     1      24.791  30.354 -13.492  1.00  0.00     0.053 C 
BRANCH  11  12
ATOM     12  C   UNL     1      24.054  31.627 -13.205  1.00  0.00     0.041 C 
ATOM     13  O   UNL     1      22.958  31.597 -12.588  1.00  0.00    -0.550 OA
ATOM     14  O   UNL     1      24.573  32.845 -13.628  1.00  0.00    -0.550 OA
ENDBRANCH  11  12
ENDBRANCH  10  11
ENDBRANCH   9  10
ENDBRANCH   8   9
ENDBRANCH   7   8
ENDBRANCH   6   7
ENDBRANCH   5   6
ENDBRANCH   4   5
ENDBRANCH   3   4
ENDBRANCH   2   3
ENDBRANCH   1   2
BRANCH   1  15
ATOM     15  C   UNL     1      27.076  26.707 -12.432  1.00  0.00     0.000 C 
BRANCH  15  16
ATOM     16  C   UNL     1      26.907  26.024 -13.796  1.00  0.00     0.000 C 
BRANCH  16  17
ATOM     17  C   UNL     1      25.948  26.792 -14.721  1.00  0.00     0.000 C 
BRANCH  17  18
ATOM     18  C   UNL     1      24.914  25.871 -15.388  1.00  0.00    -0.000 C 
BRANCH  18  19
ATOM     19  C   UNL     1      25.206  24.398 -15.071  1.00  0.00    -0.000 C 
BRANCH  19  20
ATOM     20  C   UNL     1      23.989  23.659 -14.484  1.00  0.00    -0.000 C 
BRANCH  20  21
ATOM     21  C   UNL     1      23.003  24.544 -13.695  1.00  0.00    -0.000 C 
BRANCH  21  22
ATOM     22  C   UNL     1      23.242  24.589 -12.175  1.00  0.00    -0.000 C 
BRANCH  22  23
ATOM     23  C   UNL     1      24.215  23.499 -11.694  1.00  0.00    -0.000 C 
BRANCH  23  24
ATOM     24  C   UNL     1      24.933  23.878 -10.386  1.00  0.00    -0.000 C 
BRANCH  24  25
ATOM     25  C   UNL     1      26.464  23.718 -10.423  1.00  0.00    -0.003 C 
ATOM     26  C   UNL     1      26.962  23.017 -11.689  1.00  0.00     0.004 C 
ENDBRANCH  24  25
ENDBRANCH  23  24
ENDBRANCH  22  23
ENDBRANCH  21  22
ENDBRANCH  20  21
ENDBRANCH  19  20
ENDBRANCH  18  19
ENDBRANCH  17  18
ENDBRANCH  16  17
ENDBRANCH  15  16
ENDBRANCH   1  15
TORSDOF 22
ENDMDL
MODEL 8
REMARK VINA RESULT:    -3.591      2.580      5.805
REMARK INTER + INTRA:         -12.751
REMARK INTER:                  -7.915
REMARK INTRA:                  -4.836
REMARK UNBOUND:                -4.541
REMARK SMILES CCCCCCCCCCCCCCCCCCCCCCCC(=O)[O-]
REMARK SMILES IDX 13 1 14 2 15 3 16 4 17 5 18 6 19 7 20 8 21 9 22 10 23 11
REMARK SMILES IDX 24 12 25 13 26 14 12 15 11 16 10 17 9 18 8 19 7 20 6 21 5 22
REMARK SMILES IDX 4 23 3 24 2 25 1 26
REMARK H PARENT
REMARK Flexibility Score: inf
ROOT
ATOM      1  C   UNL     1      23.961  30.849 -10.900  1.00  0.00     0.000 C 
ENDROOT
BRANCH   1   2
ATOM      2  C   UNL     1      23.383  29.696 -11.751  1.00  0.00     0.000 C 
BRANCH   2   3
ATOM      3  C   UNL     1      24.312  28.473 -11.906  1.00  0.00     0.000 C 
BRANCH   3   4
ATOM      4  C   UNL     1      23.746  27.133 -11.397  1.00  0.00     0.000 C 
BRANCH   4   5
ATOM      5  C   UNL     1      24.764  25.983 -11.278  1.00  0.00     0.000 C 
BRANCH   5   6
ATOM      6  C   UNL     1      26.197  26.362 -11.711  1.00  0.00     0.000 C 
BRANCH   6   7
ATOM      7  C   UNL     1      26.954  25.185 -12.353  1.00  0.00     0.000 C 
BRANCH   7   8
ATOM      8  C   UNL     1      27.187  25.387 -13.864  1.00  0.00     0.000 C 
BRANCH   8   9
ATOM      9  C   UNL     1      26.317  26.497 -14.489  1.00  0.00     0.000 C 
BRANCH   9  10
ATOM     10  C   UNL     1      25.119  25.931 -15.274  1.00  0.00     0.006 C 
BRANCH  10  11
ATOM     11  C   UNL     1      23.872  26.817 -15.148  1.00  0.00     0.053 C 
BRANCH  11  12
ATOM     12  C   UNL     1      22.619  26.003 -15.028  1.00  0.00     0.041 C 
ATOM     13  O   UNL     1      22.460  25.229 -14.049  1.00  0.00    -0.550 OA
ATOM     14  O   UNL     1      21.632  26.091 -16.002  1.00  0.00    -0.550 OA
ENDBRANCH  11  12
ENDBRANCH  10  11
ENDBRANCH   9  10
ENDBRANCH   8   9
ENDBRANCH   7   8
ENDBRANCH   6   7
ENDBRANCH   5   6
ENDBRANCH   4   5
ENDBRANCH   3   4
ENDBRANCH   2   3
ENDBRANCH   1   2
BRANCH   1  15
ATOM     15  C   UNL     1      24.866  31.814 -11.686  1.00  0.00     0.000 C 
BRANCH  15  16
ATOM     16  C   UNL     1      24.173  32.412 -12.918  1.00  0.00     0.000 C 
BRANCH  16  17
ATOM     17  C   UNL     1      25.022  32.275 -14.192  1.00  0.00     0.000 C 
BRANCH  17  18
ATOM     18  C   UNL     1      24.637  31.040 -15.023  1.00  0.00    -0.000 C 
BRANCH  18  19
ATOM     19  C   UNL     1      25.756  29.988 -14.992  1.00  0.00    -0.000 C 
BRANCH  19  20
ATOM     20  C   UNL     1      27.064  30.523 -14.380  1.00  0.00    -0.000 C 
BRANCH  20  21
ATOM     21  C   UNL     1      27.627  29.692 -13.208  1.00  0.00    -0.000 C 
BRANCH  21  22
ATOM     22  C   UNL     1      28.810  30.336 -12.463  1.00  0.00    -0.000 C 
BRANCH  22  23
ATOM     23  C   UNL     1      28.649  30.286 -10.935  1.00  0.00    -0.000 C 
BRANCH  23  24
ATOM     24  C   UNL     1      27.428  29.459 -10.493  1.00  0.00    -0.000 C 
BRANCH  24  25
ATOM     25  C   UNL     1      27.394  29.113  -8.993  1.00  0.00    -0.003 C 
ATOM     26  C   UNL     1      26.090  28.441  -8.562  1.00  0.00     0.004 C 
ENDBRANCH  24  25
ENDBRANCH  23  24
ENDBRANCH  22  23
ENDBRANCH  21  22
ENDBRANCH  20  21
ENDBRANCH  19  20
ENDBRANCH  18  19
ENDBRANCH  17  18
ENDBRANCH  16  17
ENDBRANCH  15  16
ENDBRANCH   1  15
TORSDOF 22
ENDMDL
MODEL 9
REMARK VINA RESULT:    -3.530      3.304      6.781
REMARK INTER + INTRA:         -12.611
REMARK INTER:                  -8.827
REMARK INTRA:                  -3.784
REMARK UNBOUND:                -4.541
REMARK SMILES CCCCCCCCCCCCCCCCCCCCCCCC(=O)[O-]
REMARK SMILES IDX 13 1 14 2 15 3 16 4 17 5 18 6 19 7 20 8 21 9 22 10 23 11
REMARK SMILES IDX 24 12 25 13 26 14 12 15 11 16 10 17 9 18 8 19 7 20 6 21 5 22
REMARK SMILES IDX 4 23 3 24 2 25 1 26
REMARK H PARENT
REMARK Flexibility Score: inf
ROOT
ATOM      1  C   UNL     1      27.950  30.420 -10.570  1.00  0.00     0.000 C 
ENDROOT
BRANCH   1   2
ATOM      2  C   UNL     1      27.514  29.200  -9.729  1.00  0.00     0.000 C 
BRANCH   2   3
ATOM      3  C   UNL     1      26.303  28.423 -10.287  1.00  0.00     0.000 C 
BRANCH   3   4
ATOM      4  C   UNL     1      26.638  27.173 -11.126  1.00  0.00     0.000 C 
BRANCH   4   5
ATOM      5  C   UNL     1      26.003  27.125 -12.528  1.00  0.00     0.000 C 
BRANCH   5   6
ATOM      6  C   UNL     1      26.885  26.439 -13.596  1.00  0.00     0.000 C 
BRANCH   6   7
ATOM      7  C   UNL     1      26.067  25.577 -14.575  1.00  0.00     0.000 C 
BRANCH   7   8
ATOM      8  C   UNL     1      26.327  24.068 -14.391  1.00  0.00     0.000 C 
BRANCH   8   9
ATOM      9  C   UNL     1      25.903  23.524 -13.011  1.00  0.00     0.000 C 
BRANCH   9  10
ATOM     10  C   UNL     1      27.107  23.268 -12.086  1.00  0.00     0.006 C 
BRANCH  10  11
ATOM     11  C   UNL     1      26.723  23.330 -10.601  1.00  0.00     0.053 C 
BRANCH  11  12
ATOM     12  C   UNL     1      26.780  21.980  -9.953  1.00  0.00     0.041 C 
ATOM     13  O   UNL     1      25.810  21.567  -9.266  1.00  0.00    -0.550 OA
ATOM     14  O   UNL     1      27.909  21.181 -10.100  1.00  0.00    -0.550 OA
ENDBRANCH  11  12
ENDBRANCH  10  11
ENDBRANCH   9  10
ENDBRANCH   8   9
ENDBRANCH   7   8
ENDBRANCH   6   7
ENDBRANCH   5   6
ENDBRANCH   4   5
ENDBRANCH   3   4
ENDBRANCH   2   3
ENDBRANCH   1   2
BRANCH   1  15
ATOM     15  C   UNL     1      29.067  30.114 -11.584  1.00  0.00     0.000 C 
BRANCH  15  16
ATOM     16  C   UNL     1      28.575  30.137 -13.038  1.00  0.00     0.000 C 
BRANCH  16  17
ATOM     17  C   UNL     1      27.098  30.548 -13.151  1.00  0.00     0.000 C 
BRANCH  17  18
ATOM     18  C   UNL     1      26.675  30.823 -14.603  1.00  0.00    -0.000 C 
BRANCH  18  19
ATOM     19  C   UNL     1      26.617  29.519 -15.413  1.00  0.00    -0.000 C 
BRANCH  19  20
ATOM     20  C   UNL     1      25.186  29.143 -15.840  1.00  0.00    -0.000 C 
BRANCH  20  21
ATOM     21  C   UNL     1      24.062  29.915 -15.119  1.00  0.00    -0.000 C 
BRANCH  21  22
ATOM     22  C   UNL     1      23.270  29.096 -14.084  1.00  0.00    -0.000 C 
BRANCH  22  23
ATOM     23  C   UNL     1      23.469  29.604 -12.646  1.00  0.00    -0.000 C 
BRANCH  23  24
ATOM     24  C   UNL     1      22.592  30.827 -12.322  1.00  0.00    -0.000 C 
BRANCH  24  25
ATOM     25  C   UNL     1      23.334  31.984 -11.627  1.00  0.00    -0.003 C 
ATOM     26  C   UNL     1      24.261  32.753 -12.570  1.00  0.00     0.004 C 
ENDBRANCH  24  25
ENDBRANCH  23  24
ENDBRANCH  22  23
ENDBRANCH  21  22
ENDBRANCH  20  21
ENDBRANCH  19  20
ENDBRANCH  18  19
ENDBRANCH  17  18
ENDBRANCH  16  17
ENDBRANCH  15  16
ENDBRANCH   1  15
TORSDOF 22
ENDMDL
