MODEL 1
REMARK VINA RESULT:    -4.748      0.000      0.000
REMARK INTER + INTRA:          -4.886
REMARK INTER:                  -4.886
REMARK INTRA:                   0.000
REMARK UNBOUND:                 0.000
REMARK SMILES Cc1cccc(O)c1C
REMARK SMILES IDX 1 1 2 2 8 3 6 4 5 5 4 6 3 7 9 8 7 9
REMARK H PARENT 7 10
REMARK Flexibility Score: inf
ROOT
ATOM      1  C   UNL     1       7.945  11.971   4.203  1.00  0.00     0.045 C 
ATOM      2  C   UNL     1       6.895  11.433   5.141  1.00  0.00    -0.045 A 
ATOM      3  C   UNL     1       7.211  10.994   6.457  1.00  0.00    -0.006 A 
ATOM      4  C   UNL     1       6.172  10.500   7.286  1.00  0.00     0.118 A 
ATOM      5  C   UNL     1       4.860  10.447   6.807  1.00  0.00     0.046 A 
ATOM      6  C   UNL     1       4.557  10.877   5.519  1.00  0.00     0.004 A 
ATOM      7  C   UNL     1       5.565  11.366   4.692  1.00  0.00     0.004 A 
ATOM      8  C   UNL     1       8.623  11.043   6.995  1.00  0.00     0.048 C 
ENDROOT
BRANCH   4   9
ATOM      9  O   UNL     1       6.408  10.053   8.589  1.00  0.00    -0.508 OA
ATOM     10  H   UNL     1       7.249  10.269   9.109  1.00  0.00     0.293 HD
ENDBRANCH   4   9
TORSDOF 1
ENDMDL
MODEL 2
REMARK VINA RESULT:    -4.587      0.859      2.611
REMARK INTER + INTRA:          -4.721
REMARK INTER:                  -4.721
REMARK INTRA:                   0.000
REMARK UNBOUND:                 0.000
REMARK SMILES Cc1cccc(O)c1C
REMARK SMILES IDX 1 1 2 2 8 3 6 4 5 5 4 6 3 7 9 8 7 9
REMARK H PARENT 7 10
REMARK Flexibility Score: inf
ROOT
ATOM      1  C   UNL     1       5.637  11.219   4.021  1.00  0.00     0.045 C 
ATOM      2  C   UNL     1       6.496  11.069   5.250  1.00  0.00    -0.045 A 
ATOM      3  C   UNL     1       5.954  10.687   6.509  1.00  0.00    -0.006 A 
ATOM      4  C   UNL     1       6.822  10.565   7.624  1.00  0.00     0.118 A 
ATOM      5  C   UNL     1       8.188  10.819   7.478  1.00  0.00     0.046 A 
ATOM      6  C   UNL     1       8.713  11.192   6.244  1.00  0.00     0.004 A 
ATOM      7  C   UNL     1       7.876  11.316   5.139  1.00  0.00     0.004 A 
ATOM      8  C   UNL     1       4.478  10.408   6.688  1.00  0.00     0.048 C 
ENDROOT
BRANCH   4   9
ATOM      9  O   UNL     1       6.360  10.194   8.889  1.00  0.00    -0.508 OA
ATOM     10  H   UNL     1       5.563   9.588   9.037  1.00  0.00     0.293 HD
ENDBRANCH   4   9
TORSDOF 1
ENDMDL
MODEL 3
REMARK VINA RESULT:    -4.564     16.516     17.939
REMARK INTER + INTRA:          -4.698
REMARK INTER:                  -4.698
REMARK INTRA:                   0.000
REMARK UNBOUND:                 0.000
REMARK SMILES Cc1cccc(O)c1C
REMARK SMILES IDX 1 1 2 2 8 3 6 4 5 5 4 6 3 7 9 8 7 9
REMARK H PARENT 7 10
REMARK Flexibility Score: inf
ROOT
ATOM      1  C   UNL     1      -7.386  10.773  -6.514  1.00  0.00     0.045 C 
ATOM      2  C   UNL     1      -6.055  10.815  -7.220  1.00  0.00    -0.045 A 
ATOM      3  C   UNL     1      -4.953  11.557  -6.711  1.00  0.00    -0.006 A 
ATOM      4  C   UNL     1      -3.729  11.552  -7.427  1.00  0.00     0.118 A 
ATOM      5  C   UNL     1      -3.618  10.825  -8.616  1.00  0.00     0.046 A 
ATOM      6  C   UNL     1      -4.699  10.102  -9.109  1.00  0.00     0.004 A 
ATOM      7  C   UNL     1      -5.908  10.095  -8.418  1.00  0.00     0.004 A 
ATOM      8  C   UNL     1      -5.052  12.350  -5.426  1.00  0.00     0.048 C 
ENDROOT
BRANCH   4   9
ATOM      9  O   UNL     1      -2.606  12.256  -6.987  1.00  0.00    -0.508 OA
ATOM     10  H   UNL     1      -2.646  12.996  -6.297  1.00  0.00     0.293 HD
ENDBRANCH   4   9
TORSDOF 1
ENDMDL
MODEL 4
REMARK VINA RESULT:    -4.552      1.316      2.756
REMARK INTER + INTRA:          -4.685
REMARK INTER:                  -4.685
REMARK INTRA:                   0.000
REMARK UNBOUND:                 0.000
REMARK SMILES Cc1cccc(O)c1C
REMARK SMILES IDX 1 1 2 2 8 3 6 4 5 5 4 6 3 7 9 8 7 9
REMARK H PARENT 7 10
REMARK Flexibility Score: inf
ROOT
ATOM      1  C   UNL     1       8.587  12.393   3.671  1.00  0.00     0.045 C 
ATOM      2  C   UNL     1       8.151  11.798   4.985  1.00  0.00    -0.045 A 
ATOM      3  C   UNL     1       6.901  11.135   5.138  1.00  0.00    -0.006 A 
ATOM      4  C   UNL     1       6.557  10.598   6.404  1.00  0.00     0.118 A 
ATOM      5  C   UNL     1       7.439  10.723   7.481  1.00  0.00     0.046 A 
ATOM      6  C   UNL     1       8.660  11.372   7.326  1.00  0.00     0.004 A 
ATOM      7  C   UNL     1       9.015  11.905   6.089  1.00  0.00     0.004 A 
ATOM      8  C   UNL     1       5.932  10.989   3.986  1.00  0.00     0.048 C 
ENDROOT
BRANCH   4   9
ATOM      9  O   UNL     1       5.347   9.935   6.628  1.00  0.00    -0.508 OA
ATOM     10  H   UNL     1       4.552  10.364   7.083  1.00  0.00     0.293 HD
ENDBRANCH   4   9
TORSDOF 1
ENDMDL
MODEL 5
REMARK VINA RESULT:    -4.544      2.051      2.685
REMARK INTER + INTRA:          -4.677
REMARK INTER:                  -4.677
REMARK INTRA:                   0.000
REMARK UNBOUND:                 0.000
REMARK SMILES Cc1cccc(O)c1C
REMARK SMILES IDX 1 1 2 2 8 3 6 4 5 5 4 6 3 7 9 8 7 9
REMARK H PARENT 7 10
REMARK Flexibility Score: inf
ROOT
ATOM      1  C   UNL     1       6.335  12.402   6.366  1.00  0.00     0.045 C 
ATOM      2  C   UNL     1       5.440  11.494   7.171  1.00  0.00    -0.045 A 
ATOM      3  C   UNL     1       5.400  11.539   8.593  1.00  0.00    -0.006 A 
ATOM      4  C   UNL     1       4.534  10.656   9.286  1.00  0.00     0.118 A 
ATOM      5  C   UNL     1       3.735   9.757   8.573  1.00  0.00     0.046 A 
ATOM      6  C   UNL     1       3.779   9.717   7.183  1.00  0.00     0.004 A 
ATOM      7  C   UNL     1       4.623  10.578   6.486  1.00  0.00     0.004 A 
ATOM      8  C   UNL     1       6.256  12.504   9.383  1.00  0.00     0.048 C 
ENDROOT
BRANCH   4   9
ATOM      9  O   UNL     1       4.442  10.645  10.680  1.00  0.00    -0.508 OA
ATOM     10  H   UNL     1       4.316   9.800  11.224  1.00  0.00     0.293 HD
ENDBRANCH   4   9
TORSDOF 1
ENDMDL
MODEL 6
REMARK VINA RESULT:    -4.407      2.067      3.337
REMARK INTER + INTRA:          -4.535
REMARK INTER:                  -4.535
REMARK INTRA:                   0.000
REMARK UNBOUND:                 0.000
REMARK SMILES Cc1cccc(O)c1C
REMARK SMILES IDX 1 1 2 2 8 3 6 4 5 5 4 6 3 7 9 8 7 9
REMARK H PARENT 7 10
REMARK Flexibility Score: inf
ROOT
ATOM      1  C   UNL     1       4.963  10.919   5.431  1.00  0.00     0.045 C 
ATOM      2  C   UNL     1       5.270  11.387   6.830  1.00  0.00    -0.045 A 
ATOM      3  C   UNL     1       4.669  10.794   7.975  1.00  0.00    -0.006 A 
ATOM      4  C   UNL     1       5.005  11.285   9.262  1.00  0.00     0.118 A 
ATOM      5  C   UNL     1       5.914  12.338   9.394  1.00  0.00     0.046 A 
ATOM      6  C   UNL     1       6.498  12.915   8.271  1.00  0.00     0.004 A 
ATOM      7  C   UNL     1       6.181  12.445   6.999  1.00  0.00     0.004 A 
ATOM      8  C   UNL     1       3.682   9.653   7.855  1.00  0.00     0.048 C 
ENDROOT
BRANCH   4   9
ATOM      9  O   UNL     1       4.454  10.751  10.430  1.00  0.00    -0.508 OA
ATOM     10  H   UNL     1       4.865   9.977  10.938  1.00  0.00     0.293 HD
ENDBRANCH   4   9
TORSDOF 1
ENDMDL
MODEL 7
REMARK VINA RESULT:    -4.373      1.288      2.788
REMARK INTER + INTRA:          -4.501
REMARK INTER:                  -4.501
REMARK INTRA:                   0.000
REMARK UNBOUND:                 0.000
REMARK SMILES Cc1cccc(O)c1C
REMARK SMILES IDX 1 1 2 2 8 3 6 4 5 5 4 6 3 7 9 8 7 9
REMARK H PARENT 7 10
REMARK Flexibility Score: inf
ROOT
ATOM      1  C   UNL     1       3.767  10.487   7.010  1.00  0.00     0.045 C 
ATOM      2  C   UNL     1       5.060  10.757   6.286  1.00  0.00    -0.045 A 
ATOM      3  C   UNL     1       6.317  10.745   6.953  1.00  0.00    -0.006 A 
ATOM      4  C   UNL     1       7.495  11.007   6.208  1.00  0.00     0.118 A 
ATOM      5  C   UNL     1       7.412  11.274   4.839  1.00  0.00     0.046 A 
ATOM      6  C   UNL     1       6.180  11.285   4.192  1.00  0.00     0.004 A 
ATOM      7  C   UNL     1       5.013  11.029   4.907  1.00  0.00     0.004 A 
ATOM      8  C   UNL     1       6.430  10.459   8.434  1.00  0.00     0.048 C 
ENDROOT
BRANCH   4   9
ATOM      9  O   UNL     1       8.762  11.011   6.796  1.00  0.00    -0.508 OA
ATOM     10  H   UNL     1       9.124  10.243   7.347  1.00  0.00     0.293 HD
ENDBRANCH   4   9
TORSDOF 1
ENDMDL
MODEL 8
REMARK VINA RESULT:    -4.335      1.421      2.595
REMARK INTER + INTRA:          -4.462
REMARK INTER:                  -4.462
REMARK INTRA:                   0.000
REMARK UNBOUND:                 0.000
REMARK SMILES Cc1cccc(O)c1C
REMARK SMILES IDX 1 1 2 2 8 3 6 4 5 5 4 6 3 7 9 8 7 9
REMARK H PARENT 7 10
REMARK Flexibility Score: inf
ROOT
ATOM      1  C   UNL     1       9.376  12.030   7.335  1.00  0.00     0.045 C 
ATOM      2  C   UNL     1       8.292  11.694   6.344  1.00  0.00    -0.045 A 
ATOM      3  C   UNL     1       7.078  11.063   6.735  1.00  0.00    -0.006 A 
ATOM      4  C   UNL     1       6.101  10.777   5.748  1.00  0.00     0.118 A 
ATOM      5  C   UNL     1       6.336  11.113   4.412  1.00  0.00     0.046 A 
ATOM      6  C   UNL     1       7.525  11.730   4.035  1.00  0.00     0.004 A 
ATOM      7  C   UNL     1       8.495  12.020   4.991  1.00  0.00     0.004 A 
ATOM      8  C   UNL     1       6.804  10.690   8.175  1.00  0.00     0.048 C 
ENDROOT
BRANCH   4   9
ATOM      9  O   UNL     1       4.887  10.159   6.060  1.00  0.00    -0.508 OA
ATOM     10  H   UNL     1       4.276  10.472   6.804  1.00  0.00     0.293 HD
ENDBRANCH   4   9
TORSDOF 1
ENDMDL
MODEL 9
REMARK VINA RESULT:    -4.262      2.026      3.848
REMARK INTER + INTRA:          -4.387
REMARK INTER:                  -4.387
REMARK INTRA:                   0.000
REMARK UNBOUND:                 0.000
REMARK SMILES Cc1cccc(O)c1C
REMARK SMILES IDX 1 1 2 2 8 3 6 4 5 5 4 6 3 7 9 8 7 9
REMARK H PARENT 7 10
REMARK Flexibility Score: inf
ROOT
ATOM      1  C   UNL     1       4.945  10.387   7.072  1.00  0.00     0.045 C 
ATOM      2  C   UNL     1       6.326  10.790   6.624  1.00  0.00    -0.045 A 
ATOM      3  C   UNL     1       6.603  11.179   5.284  1.00  0.00    -0.006 A 
ATOM      4  C   UNL     1       7.927  11.546   4.932  1.00  0.00     0.118 A 
ATOM      5  C   UNL     1       8.939  11.522   5.896  1.00  0.00     0.046 A 
ATOM      6  C   UNL     1       8.662  11.140   7.205  1.00  0.00     0.004 A 
ATOM      7  C   UNL     1       7.368  10.778   7.568  1.00  0.00     0.004 A 
ATOM      8  C   UNL     1       5.523  11.211   4.225  1.00  0.00     0.048 C 
ENDROOT
BRANCH   4   9
ATOM      9  O   UNL     1       8.271  11.938   3.636  1.00  0.00    -0.508 OA
ATOM     10  H   UNL     1       9.071  11.570   3.136  1.00  0.00     0.293 HD
ENDBRANCH   4   9
TORSDOF 1
ENDMDL
