MODEL 1
REMARK VINA RESULT:    -6.891      0.000      0.000
REMARK INTER + INTRA:          -7.907
REMARK INTER:                  -7.696
REMARK INTRA:                  -0.211
REMARK UNBOUND:                -0.211
REMARK SMILES CC(C)c1ccc(C(=O)[O-])cc1
REMARK SMILES IDX 7 1 6 2 11 3 5 4 12 5 4 6 8 7 9 8 10 9 2 10 1 11 3 12
REMARK H PARENT
REMARK Flexibility Score: inf
ROOT
ATOM      1  C   UNL     1     130.561 125.529 126.530  1.00  0.00    -0.003 A 
ATOM      2  C   UNL     1     130.178 124.230 126.158  1.00  0.00     0.010 A 
ATOM      3  C   UNL     1     130.133 126.038 127.768  1.00  0.00     0.010 A 
ATOM      4  C   UNL     1     129.384 123.455 127.007  1.00  0.00     0.004 A 
ATOM      5  C   UNL     1     129.338 125.262 128.617  1.00  0.00     0.004 A 
ATOM      6  C   UNL     1     128.954 123.962 128.247  1.00  0.00    -0.045 A 
ENDROOT
BRANCH   1   7
ATOM      7  C   UNL     1     131.403 126.347 125.629  1.00  0.00     0.071 C 
ATOM      8  O   UNL     1     131.985 127.379 126.057  1.00  0.00    -0.545 OA
ATOM      9  O   UNL     1     131.562 125.989 124.296  1.00  0.00    -0.545 OA
ENDBRANCH   1   7
BRANCH   6  10
ATOM     10  C   UNL     1     128.091 123.130 129.178  1.00  0.00     0.013 C 
ATOM     11  C   UNL     1     128.452 123.389 130.645  1.00  0.00     0.012 C 
ATOM     12  C   UNL     1     126.601 123.384 128.922  1.00  0.00     0.012 C 
ENDBRANCH   6  10
TORSDOF 2
ENDMDL
MODEL 2
REMARK VINA RESULT:    -6.861      3.090      5.237
REMARK INTER + INTRA:          -7.875
REMARK INTER:                  -7.663
REMARK INTRA:                  -0.212
REMARK UNBOUND:                -0.211
REMARK SMILES CC(C)c1ccc(C(=O)[O-])cc1
REMARK SMILES IDX 7 1 6 2 11 3 5 4 12 5 4 6 8 7 9 8 10 9 2 10 1 11 3 12
REMARK H PARENT
REMARK Flexibility Score: inf
ROOT
ATOM      1  C   UNL     1     128.780 123.861 128.206  1.00  0.00    -0.003 A 
ATOM      2  C   UNL     1     129.186 125.130 128.651  1.00  0.00     0.010 A 
ATOM      3  C   UNL     1     129.296 123.365 126.997  1.00  0.00     0.010 A 
ATOM      4  C   UNL     1     130.091 125.887 127.902  1.00  0.00     0.004 A 
ATOM      5  C   UNL     1     130.202 124.123 126.248  1.00  0.00     0.004 A 
ATOM      6  C   UNL     1     130.609 125.393 126.692  1.00  0.00    -0.045 A 
ENDROOT
BRANCH   1   7
ATOM      7  C   UNL     1     127.822 123.061 129.001  1.00  0.00     0.071 C 
ATOM      8  O   UNL     1     128.233 122.221 129.845  1.00  0.00    -0.545 OA
ATOM      9  O   UNL     1     126.453 123.225 128.827  1.00  0.00    -0.545 OA
ENDBRANCH   1   7
BRANCH   6  10
ATOM     10  C   UNL     1     131.593 126.205 125.869  1.00  0.00     0.013 C 
ATOM     11  C   UNL     1     131.302 126.071 124.370  1.00  0.00     0.012 C 
ATOM     12  C   UNL     1     131.592 127.676 126.303  1.00  0.00     0.012 C 
ENDBRANCH   6  10
TORSDOF 2
ENDMDL
MODEL 3
REMARK VINA RESULT:    -6.355      3.126      5.231
REMARK INTER + INTRA:          -7.309
REMARK INTER:                  -7.092
REMARK INTRA:                  -0.217
REMARK UNBOUND:                -0.211
REMARK SMILES CC(C)c1ccc(C(=O)[O-])cc1
REMARK SMILES IDX 7 1 6 2 11 3 5 4 12 5 4 6 8 7 9 8 10 9 2 10 1 11 3 12
REMARK H PARENT
REMARK Flexibility Score: inf
ROOT
ATOM      1  C   UNL     1     128.807 123.868 128.528  1.00  0.00    -0.003 A 
ATOM      2  C   UNL     1     129.175 125.178 128.876  1.00  0.00     0.010 A 
ATOM      3  C   UNL     1     129.045 123.419 127.218  1.00  0.00     0.010 A 
ATOM      4  C   UNL     1     129.772 126.021 127.934  1.00  0.00     0.004 A 
ATOM      5  C   UNL     1     129.641 124.262 126.276  1.00  0.00     0.004 A 
ATOM      6  C   UNL     1     130.011 125.573 126.622  1.00  0.00    -0.045 A 
ENDROOT
BRANCH   1   7
ATOM      7  C   UNL     1     128.176 122.978 129.528  1.00  0.00     0.071 C 
ATOM      8  O   UNL     1     127.194 122.255 129.213  1.00  0.00    -0.545 OA
ATOM      9  O   UNL     1     128.659 122.929 130.830  1.00  0.00    -0.545 OA
ENDBRANCH   1   7
BRANCH   6  10
ATOM     10  C   UNL     1     130.657 126.478 125.590  1.00  0.00     0.013 C 
ATOM     11  C   UNL     1     131.706 127.392 126.235  1.00  0.00     0.012 C 
ATOM     12  C   UNL     1     131.266 125.662 124.444  1.00  0.00     0.012 C 
ENDBRANCH   6  10
TORSDOF 2
ENDMDL
MODEL 4
REMARK VINA RESULT:    -4.917     14.193     16.005
REMARK INTER + INTRA:          -5.703
REMARK INTER:                  -5.482
REMARK INTRA:                  -0.221
REMARK UNBOUND:                -0.211
REMARK SMILES CC(C)c1ccc(C(=O)[O-])cc1
REMARK SMILES IDX 7 1 6 2 11 3 5 4 12 5 4 6 8 7 9 8 10 9 2 10 1 11 3 12
REMARK H PARENT
REMARK Flexibility Score: inf
ROOT
ATOM      1  C   UNL     1     115.669 129.127 129.272  1.00  0.00    -0.003 A 
ATOM      2  C   UNL     1     116.614 129.601 128.347  1.00  0.00     0.010 A 
ATOM      3  C   UNL     1     114.306 129.381 129.043  1.00  0.00     0.010 A 
ATOM      4  C   UNL     1     116.205 130.312 127.216  1.00  0.00     0.004 A 
ATOM      5  C   UNL     1     113.897 130.093 127.912  1.00  0.00     0.004 A 
ATOM      6  C   UNL     1     114.842 130.567 126.985  1.00  0.00    -0.045 A 
ENDROOT
BRANCH   1   7
ATOM      7  C   UNL     1     116.105 128.374 130.468  1.00  0.00     0.071 C 
ATOM      8  O   UNL     1     115.278 128.056 131.363  1.00  0.00    -0.545 OA
ATOM      9  O   UNL     1     117.437 128.007 130.622  1.00  0.00    -0.545 OA
ENDBRANCH   1   7
BRANCH   6  10
ATOM     10  C   UNL     1     114.384 131.339 125.761  1.00  0.00     0.013 C 
ATOM     11  C   UNL     1     113.238 132.297 126.108  1.00  0.00     0.012 C 
ATOM     12  C   UNL     1     115.554 132.088 125.113  1.00  0.00     0.012 C 
ENDBRANCH   6  10
TORSDOF 2
ENDMDL
MODEL 5
REMARK VINA RESULT:    -4.903     14.153     15.982
REMARK INTER + INTRA:          -5.687
REMARK INTER:                  -5.466
REMARK INTRA:                  -0.221
REMARK UNBOUND:                -0.211
REMARK SMILES CC(C)c1ccc(C(=O)[O-])cc1
REMARK SMILES IDX 7 1 6 2 11 3 5 4 12 5 4 6 8 7 9 8 10 9 2 10 1 11 3 12
REMARK H PARENT
REMARK Flexibility Score: inf
ROOT
ATOM      1  C   UNL     1     115.699 129.067 129.250  1.00  0.00    -0.003 A 
ATOM      2  C   UNL     1     114.335 129.342 129.059  1.00  0.00     0.010 A 
ATOM      3  C   UNL     1     116.624 129.513 128.292  1.00  0.00     0.010 A 
ATOM      4  C   UNL     1     113.905 130.051 127.933  1.00  0.00     0.004 A 
ATOM      5  C   UNL     1     116.195 130.221 127.166  1.00  0.00     0.004 A 
ATOM      6  C   UNL     1     114.831 130.498 126.973  1.00  0.00    -0.045 A 
ENDROOT
BRANCH   1   7
ATOM      7  C   UNL     1     116.150 128.318 130.444  1.00  0.00     0.071 C 
ATOM      8  O   UNL     1     115.312 127.791 131.224  1.00  0.00    -0.545 OA
ATOM      9  O   UNL     1     117.505 128.185 130.722  1.00  0.00    -0.545 OA
ENDBRANCH   1   7
BRANCH   6  10
ATOM     10  C   UNL     1     114.377 131.268 125.746  1.00  0.00     0.013 C 
ATOM     11  C   UNL     1     113.211 132.205 126.081  1.00  0.00     0.012 C 
ATOM     12  C   UNL     1     115.543 132.039 125.117  1.00  0.00     0.012 C 
ENDBRANCH   6  10
TORSDOF 2
ENDMDL
MODEL 6
REMARK VINA RESULT:    -4.823      8.970      9.450
REMARK INTER + INTRA:          -5.598
REMARK INTER:                  -5.388
REMARK INTRA:                  -0.210
REMARK UNBOUND:                -0.211
REMARK SMILES CC(C)c1ccc(C(=O)[O-])cc1
REMARK SMILES IDX 7 1 6 2 11 3 5 4 12 5 4 6 8 7 9 8 10 9 2 10 1 11 3 12
REMARK H PARENT
REMARK Flexibility Score: inf
ROOT
ATOM      1  C   UNL     1     122.994 129.957 130.772  1.00  0.00    -0.003 A 
ATOM      2  C   UNL     1     122.481 129.167 129.730  1.00  0.00     0.010 A 
ATOM      3  C   UNL     1     122.723 129.591 132.101  1.00  0.00     0.010 A 
ATOM      4  C   UNL     1     121.715 128.032 130.012  1.00  0.00     0.004 A 
ATOM      5  C   UNL     1     121.956 128.456 132.383  1.00  0.00     0.004 A 
ATOM      6  C   UNL     1     121.444 127.664 131.341  1.00  0.00    -0.045 A 
ENDROOT
BRANCH   1   7
ATOM      7  C   UNL     1     123.805 131.157 130.470  1.00  0.00     0.071 C 
ATOM      8  O   UNL     1     124.983 131.260 130.903  1.00  0.00    -0.545 OA
ATOM      9  O   UNL     1     123.276 132.191 129.706  1.00  0.00    -0.545 OA
ENDBRANCH   1   7
BRANCH   6  10
ATOM     10  C   UNL     1     120.613 126.434 131.661  1.00  0.00     0.013 C 
ATOM     11  C   UNL     1     120.607 126.147 133.167  1.00  0.00     0.012 C 
ATOM     12  C   UNL     1     119.185 126.578 131.120  1.00  0.00     0.012 C 
ENDBRANCH   6  10
TORSDOF 2
ENDMDL
MODEL 7
REMARK VINA RESULT:    -4.499     14.126     15.688
REMARK INTER + INTRA:          -5.237
REMARK INTER:                  -5.023
REMARK INTRA:                  -0.214
REMARK UNBOUND:                -0.211
REMARK SMILES CC(C)c1ccc(C(=O)[O-])cc1
REMARK SMILES IDX 7 1 6 2 11 3 5 4 12 5 4 6 8 7 9 8 10 9 2 10 1 11 3 12
REMARK H PARENT
REMARK Flexibility Score: inf
ROOT
ATOM      1  C   UNL     1     114.856 130.990 126.950  1.00  0.00    -0.003 A 
ATOM      2  C   UNL     1     113.798 130.463 127.709  1.00  0.00     0.010 A 
ATOM      3  C   UNL     1     116.176 130.663 127.302  1.00  0.00     0.010 A 
ATOM      4  C   UNL     1     114.055 129.624 128.797  1.00  0.00     0.004 A 
ATOM      5  C   UNL     1     116.433 129.824 128.391  1.00  0.00     0.004 A 
ATOM      6  C   UNL     1     115.376 129.295 129.151  1.00  0.00    -0.045 A 
ENDROOT
BRANCH   1   7
ATOM      7  C   UNL     1     114.580 131.877 125.799  1.00  0.00     0.071 C 
ATOM      8  O   UNL     1     113.462 132.447 125.682  1.00  0.00    -0.545 OA
ATOM      9  O   UNL     1     115.550 132.093 124.827  1.00  0.00    -0.545 OA
ENDBRANCH   1   7
BRANCH   6  10
ATOM     10  C   UNL     1     115.669 128.386 130.330  1.00  0.00     0.013 C 
ATOM     11  C   UNL     1     117.092 127.821 130.253  1.00  0.00     0.012 C 
ATOM     12  C   UNL     1     115.435 129.113 131.659  1.00  0.00     0.012 C 
ENDBRANCH   6  10
TORSDOF 2
ENDMDL
MODEL 8
REMARK VINA RESULT:    -4.441      9.317     10.144
REMARK INTER + INTRA:          -5.171
REMARK INTER:                  -4.962
REMARK INTRA:                  -0.210
REMARK UNBOUND:                -0.211
REMARK SMILES CC(C)c1ccc(C(=O)[O-])cc1
REMARK SMILES IDX 7 1 6 2 11 3 5 4 12 5 4 6 8 7 9 8 10 9 2 10 1 11 3 12
REMARK H PARENT
REMARK Flexibility Score: inf
ROOT
ATOM      1  C   UNL     1     121.733 128.010 131.314  1.00  0.00    -0.003 A 
ATOM      2  C   UNL     1     121.840 127.429 132.588  1.00  0.00     0.010 A 
ATOM      3  C   UNL     1     120.828 127.462 130.390  1.00  0.00     0.010 A 
ATOM      4  C   UNL     1     121.057 126.323 132.932  1.00  0.00     0.004 A 
ATOM      5  C   UNL     1     120.044 126.357 130.733  1.00  0.00     0.004 A 
ATOM      6  C   UNL     1     120.149 125.774 132.008  1.00  0.00    -0.045 A 
ENDROOT
BRANCH   1   7
ATOM      7  C   UNL     1     122.564 129.180 130.954  1.00  0.00     0.071 C 
ATOM      8  O   UNL     1     122.661 129.552 129.754  1.00  0.00    -0.545 OA
ATOM      9  O   UNL     1     123.250 129.885 131.935  1.00  0.00    -0.545 OA
ENDBRANCH   1   7
BRANCH   6  10
ATOM     10  C   UNL     1     119.293 124.574 132.368  1.00  0.00     0.013 C 
ATOM     11  C   UNL     1     120.053 123.263 132.135  1.00  0.00     0.012 C 
ATOM     12  C   UNL     1     118.788 124.670 133.812  1.00  0.00     0.012 C 
ENDBRANCH   6  10
TORSDOF 2
ENDMDL
MODEL 9
REMARK VINA RESULT:    -4.323      8.945     10.080
REMARK INTER + INTRA:          -5.040
REMARK INTER:                  -4.835
REMARK INTRA:                  -0.205
REMARK UNBOUND:                -0.211
REMARK SMILES CC(C)c1ccc(C(=O)[O-])cc1
REMARK SMILES IDX 7 1 6 2 11 3 5 4 12 5 4 6 8 7 9 8 10 9 2 10 1 11 3 12
REMARK H PARENT
REMARK Flexibility Score: inf
ROOT
ATOM      1  C   UNL     1     121.551 127.722 130.712  1.00  0.00    -0.003 A 
ATOM      2  C   UNL     1     120.369 127.039 130.384  1.00  0.00     0.010 A 
ATOM      3  C   UNL     1     122.095 127.564 131.998  1.00  0.00     0.010 A 
ATOM      4  C   UNL     1     119.744 126.212 131.322  1.00  0.00     0.004 A 
ATOM      5  C   UNL     1     121.470 126.737 132.936  1.00  0.00     0.004 A 
ATOM      6  C   UNL     1     120.287 126.052 132.609  1.00  0.00    -0.045 A 
ENDROOT
BRANCH   1   7
ATOM      7  C   UNL     1     122.210 128.596 129.717  1.00  0.00     0.071 C 
ATOM      8  O   UNL     1     122.727 129.691 130.067  1.00  0.00    -0.545 OA
ATOM      9  O   UNL     1     122.268 128.223 128.379  1.00  0.00    -0.545 OA
ENDBRANCH   1   7
BRANCH   6  10
ATOM     10  C   UNL     1     119.618 125.157 133.636  1.00  0.00     0.013 C 
ATOM     11  C   UNL     1     118.394 125.845 134.254  1.00  0.00     0.012 C 
ATOM     12  C   UNL     1     119.241 123.802 133.027  1.00  0.00     0.012 C 
ENDBRANCH   6  10
TORSDOF 2
ENDMDL
