MODEL 1
REMARK VINA RESULT:     2.403      0.000      0.000
REMARK INTER + INTRA:           2.332
REMARK INTER:                   2.613
REMARK INTRA:                  -0.281
REMARK UNBOUND:                -0.281
REMARK SMILES C[C@@H]1[C@@H](C)CC[C@@]2(C(=O)[O-])CC[C@]3(C)C(=CC[C@H]4[C@]5(C)CC[C@@H](O)C(C)(C)[C@H]5CC[C@]43C)[C@@H]12
REMARK SMILES IDX 7 1 6 2 11 3 33 4 5 5 12 6 15 7 2 8 3 9 13 10 16 11 1 12
REMARK SMILES IDX 4 13 14 14 31 15 17 16 18 17 30 18 32 19 19 20 29 21 28 22
REMARK SMILES IDX 21 23 20 24 25 25 22 26 23 27 26 28 27 29 8 30 9 31 10 32
REMARK SMILES IDX 24 33
REMARK H PARENT 24 34
REMARK Flexibility Score: inf
ROOT
ATOM      1  C   UNL     1      99.337 116.704 123.317  1.00  0.00     0.017 C 
ATOM      2  C   UNL     1      98.994 118.214 123.194  1.00  0.00     0.014 C 
ATOM      3  C   UNL     1      98.293 115.910 122.484  1.00  0.00     0.014 C 
ATOM      4  C   UNL     1     100.816 116.468 122.795  1.00  0.00     0.030 C 
ATOM      5  C   UNL     1      99.893 119.112 124.063  1.00  0.00     0.004 C 
ATOM      6  C   UNL     1      98.811 114.527 122.061  1.00  0.00     0.013 C 
ATOM      7  C   UNL     1     100.855 115.862 121.364  1.00  0.00    -0.063 C 
ATOM      8  C   UNL     1     101.765 117.707 123.037  1.00  0.00    -0.003 C 
ATOM      9  C   UNL     1     101.316 118.544 124.270  1.00  0.00    -0.011 C 
ATOM     10  C   UNL     1     100.051 114.575 121.089  1.00  0.00    -0.006 C 
ATOM     11  C   UNL     1     101.729 116.288 120.423  1.00  0.00    -0.027 C 
ATOM     12  C   UNL     1     103.231 117.238 123.193  1.00  0.00     0.008 C 
ATOM     13  C   UNL     1     102.280 119.700 124.595  1.00  0.00     0.008 C 
ATOM     14  C   UNL     1     100.954 113.377 121.510  1.00  0.00     0.017 C 
ATOM     15  C   UNL     1      99.623 114.489 119.522  1.00  0.00    -0.020 C 
ATOM     16  C   UNL     1     102.070 115.458 119.226  1.00  0.00     0.032 C 
ATOM     17  C   UNL     1     100.808 114.904 118.526  1.00  0.00     0.006 C 
ATOM     18  C   UNL     1      99.101 113.060 119.165  1.00  0.00     0.008 C 
ATOM     19  C   UNL     1      98.440 115.474 119.253  1.00  0.00     0.012 C 
ATOM     20  C   UNL     1     101.112 113.906 117.315  1.00  0.00    -0.025 C 
ATOM     21  C   UNL     1      98.749 112.852 117.679  1.00  0.00     0.005 C 
ATOM     22  C   UNL     1      99.726 113.532 116.671  1.00  0.00     0.003 C 
ATOM     23  C   UNL     1     101.972 114.678 116.256  1.00  0.00     0.010 C 
ATOM     24  C   UNL     1     101.896 112.630 117.769  1.00  0.00     0.012 C 
ATOM     25  C   UNL     1      99.775 112.846 115.243  1.00  0.00    -0.006 C 
ATOM     26  C   UNL     1     102.054 114.000 114.883  1.00  0.00     0.033 C 
ATOM     27  C   UNL     1     100.655 113.732 114.304  1.00  0.00     0.120 C 
ATOM     28  C   UNL     1     100.298 111.380 115.258  1.00  0.00     0.014 C 
ATOM     29  C   UNL     1      98.341 112.814 114.652  1.00  0.00     0.014 C 
ENDROOT
BRANCH   1  30
ATOM     30  C   UNL     1      99.176 116.251 124.772  1.00  0.00     0.048 C 
ATOM     31  O   UNL     1      98.087 116.437 125.381  1.00  0.00    -0.550 OA
ATOM     32  O   UNL     1     100.176 115.527 125.412  1.00  0.00    -0.550 OA
ENDBRANCH   1  30
BRANCH  27  33
ATOM     33  O   UNL     1     100.740 113.199 113.002  1.00  0.00    -0.393 OA
ATOM     34  H   UNL     1     100.532 113.918 112.353  1.00  0.00     0.210 HD
ENDBRANCH  27  33
TORSDOF 2
ENDMDL
MODEL 2
REMARK VINA RESULT:     3.397      1.180      8.686
REMARK INTER + INTRA:           3.414
REMARK INTER:                   3.226
REMARK INTRA:                   0.188
REMARK UNBOUND:                -0.281
REMARK SMILES C[C@@H]1[C@@H](C)CC[C@@]2(C(=O)[O-])CC[C@]3(C)C(=CC[C@H]4[C@]5(C)CC[C@@H](O)C(C)(C)[C@H]5CC[C@]43C)[C@@H]12
REMARK SMILES IDX 7 1 6 2 11 3 33 4 5 5 12 6 15 7 2 8 3 9 13 10 16 11 1 12
REMARK SMILES IDX 4 13 14 14 31 15 17 16 18 17 30 18 32 19 19 20 29 21 28 22
REMARK SMILES IDX 21 23 20 24 25 25 22 26 23 27 26 28 27 29 8 30 9 31 10 32
REMARK SMILES IDX 24 33
REMARK H PARENT 24 34
REMARK Flexibility Score: inf
ROOT
ATOM      1  C   UNL     1      99.962 114.085 114.659  1.00  0.00     0.017 C 
ATOM      2  C   UNL     1      98.542 114.336 114.084  1.00  0.00     0.014 C 
ATOM      3  C   UNL     1     100.437 115.395 115.344  1.00  0.00     0.014 C 
ATOM      4  C   UNL     1      99.898 112.871 115.679  1.00  0.00     0.030 C 
ATOM      5  C   UNL     1      97.993 113.143 113.281  1.00  0.00     0.004 C 
ATOM      6  C   UNL     1     101.522 115.143 116.402  1.00  0.00     0.013 C 
ATOM      7  C   UNL     1      99.909 113.336 117.161  1.00  0.00    -0.063 C 
ATOM      8  C   UNL     1      98.792 111.806 115.307  1.00  0.00    -0.003 C 
ATOM      9  C   UNL     1      98.515 111.774 113.776  1.00  0.00    -0.011 C 
ATOM     10  C   UNL     1     101.038 114.279 117.627  1.00  0.00    -0.006 C 
ATOM     11  C   UNL     1      99.108 112.780 118.099  1.00  0.00    -0.027 C 
ATOM     12  C   UNL     1      99.201 110.405 115.822  1.00  0.00     0.008 C 
ATOM     13  C   UNL     1      97.518 110.674 113.368  1.00  0.00     0.008 C 
ATOM     14  C   UNL     1     102.253 113.380 118.007  1.00  0.00     0.017 C 
ATOM     15  C   UNL     1     100.545 115.190 118.881  1.00  0.00    -0.020 C 
ATOM     16  C   UNL     1      99.400 112.901 119.562  1.00  0.00     0.032 C 
ATOM     17  C   UNL     1      99.715 114.358 119.971  1.00  0.00     0.006 C 
ATOM     18  C   UNL     1     101.758 115.903 119.562  1.00  0.00     0.008 C 
ATOM     19  C   UNL     1      99.600 116.321 118.360  1.00  0.00     0.012 C 
ATOM     20  C   UNL     1     100.158 114.531 121.497  1.00  0.00    -0.025 C 
ATOM     21  C   UNL     1     101.404 116.725 120.816  1.00  0.00     0.005 C 
ATOM     22  C   UNL     1     100.337 116.074 121.750  1.00  0.00     0.003 C 
ATOM     23  C   UNL     1      98.993 114.000 122.402  1.00  0.00     0.010 C 
ATOM     24  C   UNL     1     101.464 113.740 121.839  1.00  0.00     0.012 C 
ATOM     25  C   UNL     1     100.423 116.535 123.264  1.00  0.00    -0.006 C 
ATOM     26  C   UNL     1      99.092 114.412 123.877  1.00  0.00     0.033 C 
ATOM     27  C   UNL     1      99.198 115.938 124.028  1.00  0.00     0.120 C 
ATOM     28  C   UNL     1     101.752 116.145 123.974  1.00  0.00     0.014 C 
ATOM     29  C   UNL     1     100.309 118.080 123.326  1.00  0.00     0.014 C 
ENDROOT
BRANCH   1  30
ATOM     30  C   UNL     1     100.943 113.805 113.515  1.00  0.00     0.048 C 
ATOM     31  O   UNL     1     102.057 113.261 113.749  1.00  0.00    -0.550 OA
ATOM     32  O   UNL     1     100.585 114.034 112.191  1.00  0.00    -0.550 OA
ENDBRANCH   1  30
BRANCH  27  33
ATOM     33  O   UNL     1      99.190 116.313 125.386  1.00  0.00    -0.393 OA
ATOM     34  H   UNL     1      99.788 115.700 125.886  1.00  0.00     0.210 HD
ENDBRANCH  27  33
TORSDOF 2
ENDMDL
