MODEL 1
REMARK VINA RESULT:    -5.466      0.000      0.000
REMARK INTER + INTRA:          -5.878
REMARK INTER:                  -5.785
REMARK INTRA:                  -0.092
REMARK UNBOUND:                -0.092
REMARK SMILES C=C(C)[C@H]1CC=C(C)C(=O)C1
REMARK SMILES IDX 8 1 7 2 6 3 5 4 4 5 11 6 9 7 10 8 2 9 1 10 3 11
REMARK H PARENT
REMARK Flexibility Score: inf
ROOT
ATOM      1  C   UNL     1      15.290 -33.907  21.560  1.00  0.00     0.048 C 
ATOM      2  C   UNL     1      14.433 -32.767  22.035  1.00  0.00    -0.012 C 
ATOM      3  C   UNL     1      14.504 -32.355  23.313  1.00  0.00    -0.019 C 
ATOM      4  C   UNL     1      13.608 -31.273  23.855  1.00  0.00     0.036 C 
ATOM      5  C   UNL     1      13.231 -30.259  22.756  1.00  0.00     0.025 C 
ATOM      6  C   UNL     1      12.606 -30.986  21.550  1.00  0.00     0.089 C 
ATOM      7  C   UNL     1      13.490 -32.114  21.093  1.00  0.00     0.158 C 
ATOM      8  O   UNL     1      13.388 -32.532  19.908  1.00  0.00    -0.295 OA
ENDROOT
BRANCH   5   9
ATOM      9  C   UNL     1      12.316 -29.165  23.290  1.00  0.00    -0.077 C 
ATOM     10  C   UNL     1      12.724 -28.317  24.248  1.00  0.00     0.008 C 
ATOM     11  C   UNL     1      10.920 -29.016  22.742  1.00  0.00     0.039 C 
ENDBRANCH   5   9
TORSDOF 1
ENDMDL
MODEL 2
REMARK VINA RESULT:    -5.229      1.665      2.083
REMARK INTER + INTRA:          -5.627
REMARK INTER:                  -5.530
REMARK INTRA:                  -0.097
REMARK UNBOUND:                -0.092
REMARK SMILES C=C(C)[C@H]1CC=C(C)C(=O)C1
REMARK SMILES IDX 8 1 7 2 6 3 5 4 4 5 11 6 9 7 10 8 2 9 1 10 3 11
REMARK H PARENT
REMARK Flexibility Score: inf
ROOT
ATOM      1  C   UNL     1      14.239 -32.952  20.758  1.00  0.00     0.048 C 
ATOM      2  C   UNL     1      13.784 -31.650  21.357  1.00  0.00    -0.012 C 
ATOM      3  C   UNL     1      12.484 -31.451  21.634  1.00  0.00    -0.019 C 
ATOM      4  C   UNL     1      11.970 -30.136  22.158  1.00  0.00     0.036 C 
ATOM      5  C   UNL     1      13.039 -29.417  23.004  1.00  0.00     0.025 C 
ATOM      6  C   UNL     1      14.341 -29.256  22.196  1.00  0.00     0.089 C 
ATOM      7  C   UNL     1      14.774 -30.575  21.617  1.00  0.00     0.158 C 
ATOM      8  O   UNL     1      15.986 -30.744  21.313  1.00  0.00    -0.295 OA
ENDROOT
BRANCH   5   9
ATOM      9  C   UNL     1      12.535 -28.080  23.531  1.00  0.00    -0.077 C 
ATOM     10  C   UNL     1      13.323 -27.274  24.262  1.00  0.00     0.008 C 
ATOM     11  C   UNL     1      11.126 -27.635  23.234  1.00  0.00     0.039 C 
ENDBRANCH   5   9
TORSDOF 1
ENDMDL
MODEL 3
REMARK VINA RESULT:    -5.213      1.393      2.043
REMARK INTER + INTRA:          -5.610
REMARK INTER:                  -5.513
REMARK INTRA:                  -0.097
REMARK UNBOUND:                -0.092
REMARK SMILES C=C(C)[C@H]1CC=C(C)C(=O)C1
REMARK SMILES IDX 8 1 7 2 6 3 5 4 4 5 11 6 9 7 10 8 2 9 1 10 3 11
REMARK H PARENT
REMARK Flexibility Score: inf
ROOT
ATOM      1  C   UNL     1      15.007 -33.999  21.207  1.00  0.00     0.048 C 
ATOM      2  C   UNL     1      14.372 -32.725  21.691  1.00  0.00    -0.012 C 
ATOM      3  C   UNL     1      13.469 -32.086  20.926  1.00  0.00    -0.019 C 
ATOM      4  C   UNL     1      12.868 -30.767  21.332  1.00  0.00     0.036 C 
ATOM      5  C   UNL     1      12.776 -30.644  22.865  1.00  0.00     0.025 C 
ATOM      6  C   UNL     1      14.159 -30.877  23.504  1.00  0.00     0.089 C 
ATOM      7  C   UNL     1      14.764 -32.161  23.007  1.00  0.00     0.158 C 
ATOM      8  O   UNL     1      15.646 -32.734  23.703  1.00  0.00    -0.295 OA
ENDROOT
BRANCH   5   9
ATOM      9  C   UNL     1      12.180 -29.308  23.289  1.00  0.00    -0.077 C 
ATOM     10  C   UNL     1      12.793 -28.522  24.190  1.00  0.00     0.008 C 
ATOM     11  C   UNL     1      10.875 -28.843  22.695  1.00  0.00     0.039 C 
ENDBRANCH   5   9
TORSDOF 1
ENDMDL
MODEL 4
REMARK VINA RESULT:    -5.137      1.235      1.954
REMARK INTER + INTRA:          -5.529
REMARK INTER:                  -5.433
REMARK INTRA:                  -0.096
REMARK UNBOUND:                -0.092
REMARK SMILES C=C(C)[C@H]1CC=C(C)C(=O)C1
REMARK SMILES IDX 8 1 7 2 6 3 5 4 4 5 11 6 9 7 10 8 2 9 1 10 3 11
REMARK H PARENT
REMARK Flexibility Score: inf
ROOT
ATOM      1  C   UNL     1      16.594 -34.848  22.574  1.00  0.00     0.048 C 
ATOM      2  C   UNL     1      15.497 -33.821  22.597  1.00  0.00    -0.012 C 
ATOM      3  C   UNL     1      15.000 -33.388  23.769  1.00  0.00    -0.019 C 
ATOM      4  C   UNL     1      13.847 -32.423  23.841  1.00  0.00     0.036 C 
ATOM      5  C   UNL     1      13.834 -31.478  22.623  1.00  0.00     0.025 C 
ATOM      6  C   UNL     1      13.833 -32.292  21.316  1.00  0.00     0.089 C 
ATOM      7  C   UNL     1      14.946 -33.304  21.319  1.00  0.00     0.158 C 
ATOM      8  O   UNL     1      15.378 -33.745  20.220  1.00  0.00    -0.295 OA
ENDROOT
BRANCH   5   9
ATOM      9  C   UNL     1      12.665 -30.504  22.679  1.00  0.00    -0.077 C 
ATOM     10  C   UNL     1      11.616 -30.621  21.848  1.00  0.00     0.008 C 
ATOM     11  C   UNL     1      12.667 -29.379  23.682  1.00  0.00     0.039 C 
ENDBRANCH   5   9
TORSDOF 1
ENDMDL
MODEL 5
REMARK VINA RESULT:    -5.025      1.571      4.288
REMARK INTER + INTRA:          -5.411
REMARK INTER:                  -5.314
REMARK INTRA:                  -0.096
REMARK UNBOUND:                -0.092
REMARK SMILES C=C(C)[C@H]1CC=C(C)C(=O)C1
REMARK SMILES IDX 8 1 7 2 6 3 5 4 4 5 11 6 9 7 10 8 2 9 1 10 3 11
REMARK H PARENT
REMARK Flexibility Score: inf
ROOT
ATOM      1  C   UNL     1      11.588 -28.564  23.545  1.00  0.00     0.048 C 
ATOM      2  C   UNL     1      12.570 -29.521  22.928  1.00  0.00    -0.012 C 
ATOM      3  C   UNL     1      13.876 -29.441  23.237  1.00  0.00    -0.019 C 
ATOM      4  C   UNL     1      14.907 -30.323  22.583  1.00  0.00     0.036 C 
ATOM      5  C   UNL     1      14.306 -31.688  22.194  1.00  0.00     0.025 C 
ATOM      6  C   UNL     1      13.061 -31.491  21.310  1.00  0.00     0.089 C 
ATOM      7  C   UNL     1      12.094 -30.537  21.957  1.00  0.00     0.158 C 
ATOM      8  O   UNL     1      10.877 -30.580  21.631  1.00  0.00    -0.295 OA
ENDROOT
BRANCH   5   9
ATOM      9  C   UNL     1      15.337 -32.585  21.521  1.00  0.00    -0.077 C 
ATOM     10  C   UNL     1      16.610 -32.189  21.359  1.00  0.00     0.008 C 
ATOM     11  C   UNL     1      14.938 -33.950  21.022  1.00  0.00     0.039 C 
ENDBRANCH   5   9
TORSDOF 1
ENDMDL
MODEL 6
REMARK VINA RESULT:    -5.025      1.671      4.594
REMARK INTER + INTRA:          -5.411
REMARK INTER:                  -5.317
REMARK INTRA:                  -0.094
REMARK UNBOUND:                -0.092
REMARK SMILES C=C(C)[C@H]1CC=C(C)C(=O)C1
REMARK SMILES IDX 8 1 7 2 6 3 5 4 4 5 11 6 9 7 10 8 2 9 1 10 3 11
REMARK H PARENT
REMARK Flexibility Score: inf
ROOT
ATOM      1  C   UNL     1      12.902 -29.336  23.846  1.00  0.00     0.048 C 
ATOM      2  C   UNL     1      13.647 -30.526  23.309  1.00  0.00    -0.012 C 
ATOM      3  C   UNL     1      13.528 -31.724  23.908  1.00  0.00    -0.019 C 
ATOM      4  C   UNL     1      14.317 -32.925  23.456  1.00  0.00     0.036 C 
ATOM      5  C   UNL     1      14.607 -32.865  21.944  1.00  0.00     0.025 C 
ATOM      6  C   UNL     1      15.305 -31.539  21.586  1.00  0.00     0.089 C 
ATOM      7  C   UNL     1      14.533 -30.368  22.129  1.00  0.00     0.158 C 
ATOM      8  O   UNL     1      14.682 -29.235  21.596  1.00  0.00    -0.295 OA
ENDROOT
BRANCH   5   9
ATOM      9  C   UNL     1      15.414 -34.069  21.477  1.00  0.00    -0.077 C 
ATOM     10  C   UNL     1      16.454 -34.533  22.190  1.00  0.00     0.008 C 
ATOM     11  C   UNL     1      15.052 -34.768  20.192  1.00  0.00     0.039 C 
ENDBRANCH   5   9
TORSDOF 1
ENDMDL
MODEL 7
REMARK VINA RESULT:    -4.981      1.342      4.524
REMARK INTER + INTRA:          -5.364
REMARK INTER:                  -5.267
REMARK INTRA:                  -0.097
REMARK UNBOUND:                -0.092
REMARK SMILES C=C(C)[C@H]1CC=C(C)C(=O)C1
REMARK SMILES IDX 8 1 7 2 6 3 5 4 4 5 11 6 9 7 10 8 2 9 1 10 3 11
REMARK H PARENT
REMARK Flexibility Score: inf
ROOT
ATOM      1  C   UNL     1      12.694 -29.274  23.846  1.00  0.00     0.048 C 
ATOM      2  C   UNL     1      13.380 -30.354  23.056  1.00  0.00    -0.012 C 
ATOM      3  C   UNL     1      14.633 -30.728  23.371  1.00  0.00    -0.019 C 
ATOM      4  C   UNL     1      15.391 -31.745  22.559  1.00  0.00     0.036 C 
ATOM      5  C   UNL     1      14.435 -32.773  21.922  1.00  0.00     0.025 C 
ATOM      6  C   UNL     1      13.353 -32.055  21.094  1.00  0.00     0.089 C 
ATOM      7  C   UNL     1      12.679 -30.988  21.912  1.00  0.00     0.158 C 
ATOM      8  O   UNL     1      11.523 -30.603  21.588  1.00  0.00    -0.295 OA
ENDROOT
BRANCH   5   9
ATOM      9  C   UNL     1      15.189 -33.801  21.089  1.00  0.00    -0.077 C 
ATOM     10  C   UNL     1      14.833 -34.073  19.822  1.00  0.00     0.008 C 
ATOM     11  C   UNL     1      16.363 -34.539  21.681  1.00  0.00     0.039 C 
ENDBRANCH   5   9
TORSDOF 1
ENDMDL
MODEL 8
REMARK VINA RESULT:    -4.890      2.286      2.503
REMARK INTER + INTRA:          -5.268
REMARK INTER:                  -5.179
REMARK INTRA:                  -0.089
REMARK UNBOUND:                -0.092
REMARK SMILES C=C(C)[C@H]1CC=C(C)C(=O)C1
REMARK SMILES IDX 8 1 7 2 6 3 5 4 4 5 11 6 9 7 10 8 2 9 1 10 3 11
REMARK H PARENT
REMARK Flexibility Score: inf
ROOT
ATOM      1  C   UNL     1      17.733 -31.850  23.111  1.00  0.00     0.048 C 
ATOM      2  C   UNL     1      16.333 -31.315  22.993  1.00  0.00    -0.012 C 
ATOM      3  C   UNL     1      15.308 -31.972  23.565  1.00  0.00    -0.019 C 
ATOM      4  C   UNL     1      13.880 -31.519  23.405  1.00  0.00     0.036 C 
ATOM      5  C   UNL     1      13.796 -29.990  23.239  1.00  0.00     0.025 C 
ATOM      6  C   UNL     1      14.689 -29.529  22.071  1.00  0.00     0.089 C 
ATOM      7  C   UNL     1      16.083 -30.072  22.222  1.00  0.00     0.158 C 
ATOM      8  O   UNL     1      17.037 -29.483  21.645  1.00  0.00    -0.295 OA
ENDROOT
BRANCH   5   9
ATOM      9  C   UNL     1      12.357 -29.521  23.065  1.00  0.00    -0.077 C 
ATOM     10  C   UNL     1      11.863 -28.498  23.783  1.00  0.00     0.008 C 
ATOM     11  C   UNL     1      11.455 -30.206  22.072  1.00  0.00     0.039 C 
ENDBRANCH   5   9
TORSDOF 1
ENDMDL
MODEL 9
REMARK VINA RESULT:    -4.879      2.888      4.869
REMARK INTER + INTRA:          -5.257
REMARK INTER:                  -5.161
REMARK INTRA:                  -0.096
REMARK UNBOUND:                -0.092
REMARK SMILES C=C(C)[C@H]1CC=C(C)C(=O)C1
REMARK SMILES IDX 8 1 7 2 6 3 5 4 4 5 11 6 9 7 10 8 2 9 1 10 3 11
REMARK H PARENT
REMARK Flexibility Score: inf
ROOT
ATOM      1  C   UNL     1      12.391 -29.127  24.031  1.00  0.00     0.048 C 
ATOM      2  C   UNL     1      13.610 -29.570  23.271  1.00  0.00    -0.012 C 
ATOM      3  C   UNL     1      14.223 -28.725  22.424  1.00  0.00    -0.019 C 
ATOM      4  C   UNL     1      15.397 -29.150  21.581  1.00  0.00     0.036 C 
ATOM      5  C   UNL     1      16.225 -30.240  22.288  1.00  0.00     0.025 C 
ATOM      6  C   UNL     1      15.325 -31.428  22.676  1.00  0.00     0.089 C 
ATOM      7  C   UNL     1      14.120 -30.954  23.442  1.00  0.00     0.158 C 
ATOM      8  O   UNL     1      13.517 -31.761  24.199  1.00  0.00    -0.295 OA
ENDROOT
BRANCH   5   9
ATOM      9  C   UNL     1      17.409 -30.686  21.440  1.00  0.00    -0.077 C 
ATOM     10  C   UNL     1      17.435 -31.895  20.854  1.00  0.00     0.008 C 
ATOM     11  C   UNL     1      18.585 -29.764  21.241  1.00  0.00     0.039 C 
ENDBRANCH   5   9
TORSDOF 1
ENDMDL
