MODEL 1
REMARK VINA RESULT:    -0.750      0.000      0.000
REMARK INTER + INTRA:          -2.851
REMARK INTER:                  -1.451
REMARK INTRA:                  -1.399
REMARK UNBOUND:                -1.399
REMARK SMILES CCCCCCCCCCCCCCCCCC(=O)[O-]
REMARK SMILES IDX 10 1 11 2 12 3 13 4 14 5 15 6 16 7 17 8 18 9 19 10 20 11
REMARK SMILES IDX 9 12 8 13 7 14 6 15 5 16 4 17 3 18 2 19 1 20
REMARK H PARENT
REMARK Flexibility Score: inf
ROOT
ATOM      1  C   UNL     1       9.579  -8.707   8.001  1.00  0.00     0.000 C 
ENDROOT
BRANCH   1   2
ATOM      2  C   UNL     1      10.125  -9.366   6.721  1.00  0.00     0.000 C 
BRANCH   2   3
ATOM      3  C   UNL     1       9.035 -10.075   5.905  1.00  0.00     0.000 C 
BRANCH   3   4
ATOM      4  C   UNL     1       7.748  -9.235   5.863  1.00  0.00     0.000 C 
BRANCH   4   5
ATOM      5  C   UNL     1       6.511 -10.007   6.357  1.00  0.00     0.000 C 
BRANCH   5   6
ATOM      6  C   UNL     1       5.160  -9.458   5.861  1.00  0.00     0.000 C 
BRANCH   6   7
ATOM      7  C   UNL     1       3.957 -10.080   6.591  1.00  0.00     0.006 C 
BRANCH   7   8
ATOM      8  C   UNL     1       3.273  -9.081   7.534  1.00  0.00     0.053 C 
BRANCH   8   9
ATOM      9  C   UNL     1       3.054  -9.659   8.898  1.00  0.00     0.041 C 
ATOM     10  O   UNL     1       1.887  -9.892   9.308  1.00  0.00    -0.550 OA
ATOM     11  O   UNL     1       4.138  -9.915   9.728  1.00  0.00    -0.550 OA
ENDBRANCH   8   9
ENDBRANCH   7   8
ENDBRANCH   6   7
ENDBRANCH   5   6
ENDBRANCH   4   5
ENDBRANCH   3   4
ENDBRANCH   2   3
ENDBRANCH   1   2
BRANCH   1  12
ATOM     12  C   UNL     1       8.861  -9.664   8.974  1.00  0.00     0.000 C 
BRANCH  12  13
ATOM     13  C   UNL     1       8.036  -8.982  10.081  1.00  0.00    -0.000 C 
BRANCH  13  14
ATOM     14  C   UNL     1       6.786  -8.268   9.541  1.00  0.00    -0.000 C 
BRANCH  14  15
ATOM     15  C   UNL     1       7.126  -7.062   8.647  1.00  0.00    -0.000 C 
BRANCH  15  16
ATOM     16  C   UNL     1       5.969  -6.549   7.764  1.00  0.00    -0.000 C 
BRANCH  16  17
ATOM     17  C   UNL     1       6.391  -5.945   6.413  1.00  0.00    -0.000 C 
BRANCH  17  18
ATOM     18  C   UNL     1       5.199  -5.401   5.606  1.00  0.00    -0.000 C 
BRANCH  18  19
ATOM     19  C   UNL     1       5.553  -4.129   4.821  1.00  0.00    -0.003 C 
ATOM     20  C   UNL     1       4.491  -3.753   3.789  1.00  0.00     0.004 C 
ENDBRANCH  18  19
ENDBRANCH  17  18
ENDBRANCH  16  17
ENDBRANCH  15  16
ENDBRANCH  14  15
ENDBRANCH  13  14
ENDBRANCH  12  13
ENDBRANCH   1  12
TORSDOF 16
ENDMDL
MODEL 2
REMARK VINA RESULT:    -0.718      3.043      5.347
REMARK INTER + INTRA:          -2.789
REMARK INTER:                  -2.209
REMARK INTRA:                  -0.580
REMARK UNBOUND:                -1.399
REMARK SMILES CCCCCCCCCCCCCCCCCC(=O)[O-]
REMARK SMILES IDX 10 1 11 2 12 3 13 4 14 5 15 6 16 7 17 8 18 9 19 10 20 11
REMARK SMILES IDX 9 12 8 13 7 14 6 15 5 16 4 17 3 18 2 19 1 20
REMARK H PARENT
REMARK Flexibility Score: inf
ROOT
ATOM      1  C   UNL     1       7.548  -9.945   5.468  1.00  0.00     0.000 C 
ENDROOT
BRANCH   1   2
ATOM      2  C   UNL     1       6.365 -10.059   6.448  1.00  0.00     0.000 C 
BRANCH   2   3
ATOM      3  C   UNL     1       5.006 -10.125   5.736  1.00  0.00     0.000 C 
BRANCH   3   4
ATOM      4  C   UNL     1       4.330  -8.745   5.718  1.00  0.00     0.000 C 
BRANCH   4   5
ATOM      5  C   UNL     1       4.952  -7.758   6.722  1.00  0.00     0.000 C 
BRANCH   5   6
ATOM      6  C   UNL     1       6.069  -6.865   6.151  1.00  0.00     0.000 C 
BRANCH   6   7
ATOM      7  C   UNL     1       5.624  -5.408   5.944  1.00  0.00     0.006 C 
BRANCH   7   8
ATOM      8  C   UNL     1       4.798  -5.232   4.662  1.00  0.00     0.053 C 
BRANCH   8   9
ATOM      9  C   UNL     1       4.984  -3.874   4.059  1.00  0.00     0.041 C 
ATOM     10  O   UNL     1       6.137  -3.379   3.954  1.00  0.00    -0.550 OA
ATOM     11  O   UNL     1       3.881  -3.143   3.638  1.00  0.00    -0.550 OA
ENDBRANCH   8   9
ENDBRANCH   7   8
ENDBRANCH   6   7
ENDBRANCH   5   6
ENDBRANCH   4   5
ENDBRANCH   3   4
ENDBRANCH   2   3
ENDBRANCH   1   2
BRANCH   1  12
ATOM     12  C   UNL     1       8.940  -9.872   6.128  1.00  0.00     0.000 C 
BRANCH  12  13
ATOM     13  C   UNL     1       8.962 -10.119   7.648  1.00  0.00    -0.000 C 
BRANCH  13  14
ATOM     14  C   UNL     1       9.002  -8.816   8.463  1.00  0.00    -0.000 C 
BRANCH  14  15
ATOM     15  C   UNL     1       7.633  -8.118   8.542  1.00  0.00    -0.000 C 
BRANCH  15  16
ATOM     16  C   UNL     1       6.778  -8.478   9.775  1.00  0.00    -0.000 C 
BRANCH  16  17
ATOM     17  C   UNL     1       6.353  -9.954   9.873  1.00  0.00    -0.000 C 
BRANCH  17  18
ATOM     18  C   UNL     1       4.844 -10.124  10.115  1.00  0.00    -0.000 C 
BRANCH  18  19
ATOM     19  C   UNL     1       4.015  -9.003   9.467  1.00  0.00    -0.003 C 
ATOM     20  C   UNL     1       2.509  -9.240   9.575  1.00  0.00     0.004 C 
ENDBRANCH  18  19
ENDBRANCH  17  18
ENDBRANCH  16  17
ENDBRANCH  15  16
ENDBRANCH  14  15
ENDBRANCH  13  14
ENDBRANCH  12  13
ENDBRANCH   1  12
TORSDOF 16
ENDMDL
MODEL 3
REMARK VINA RESULT:    -0.622      3.584      6.345
REMARK INTER + INTRA:          -2.603
REMARK INTER:                  -0.974
REMARK INTRA:                  -1.629
REMARK UNBOUND:                -1.399
REMARK SMILES CCCCCCCCCCCCCCCCCC(=O)[O-]
REMARK SMILES IDX 10 1 11 2 12 3 13 4 14 5 15 6 16 7 17 8 18 9 19 10 20 11
REMARK SMILES IDX 9 12 8 13 7 14 6 15 5 16 4 17 3 18 2 19 1 20
REMARK H PARENT
REMARK Flexibility Score: inf
ROOT
ATOM      1  C   UNL     1       5.242  -9.619   6.071  1.00  0.00     0.000 C 
ENDROOT
BRANCH   1   2
ATOM      2  C   UNL     1       5.811  -8.264   5.613  1.00  0.00     0.000 C 
BRANCH   2   3
ATOM      3  C   UNL     1       5.604  -7.151   6.650  1.00  0.00     0.000 C 
BRANCH   3   4
ATOM      4  C   UNL     1       6.067  -5.794   6.097  1.00  0.00     0.000 C 
BRANCH   4   5
ATOM      5  C   UNL     1       5.264  -5.342   4.864  1.00  0.00     0.000 C 
BRANCH   5   6
ATOM      6  C   UNL     1       5.282  -3.826   4.594  1.00  0.00     0.000 C 
BRANCH   6   7
ATOM      7  C   UNL     1       4.672  -3.452   3.233  1.00  0.00     0.006 C 
BRANCH   7   8
ATOM      8  C   UNL     1       3.145  -3.315   3.302  1.00  0.00     0.053 C 
BRANCH   8   9
ATOM      9  C   UNL     1       2.554  -2.970   1.969  1.00  0.00     0.041 C 
ATOM     10  O   UNL     1       3.302  -2.664   1.004  1.00  0.00    -0.550 OA
ATOM     11  O   UNL     1       1.175  -2.961   1.801  1.00  0.00    -0.550 OA
ENDBRANCH   8   9
ENDBRANCH   7   8
ENDBRANCH   6   7
ENDBRANCH   5   6
ENDBRANCH   4   5
ENDBRANCH   3   4
ENDBRANCH   2   3
ENDBRANCH   1   2
BRANCH   1  12
ATOM     12  C   UNL     1       5.505  -9.973   7.549  1.00  0.00     0.000 C 
BRANCH  12  13
ATOM     13  C   UNL     1       4.357  -9.640   8.520  1.00  0.00    -0.000 C 
BRANCH  13  14
ATOM     14  C   UNL     1       4.854  -9.064   9.856  1.00  0.00    -0.000 C 
BRANCH  14  15
ATOM     15  C   UNL     1       6.383  -9.146  10.010  1.00  0.00    -0.000 C 
BRANCH  15  16
ATOM     16  C   UNL     1       7.134  -7.805   9.870  1.00  0.00    -0.000 C 
BRANCH  16  17
ATOM     17  C   UNL     1       8.534  -7.897   9.238  1.00  0.00    -0.000 C 
BRANCH  17  18
ATOM     18  C   UNL     1       8.962  -9.345   8.946  1.00  0.00    -0.000 C 
BRANCH  18  19
ATOM     19  C   UNL     1       9.876  -9.451   7.715  1.00  0.00    -0.003 C 
ATOM     20  C   UNL     1       9.098  -9.598   6.408  1.00  0.00     0.004 C 
ENDBRANCH  18  19
ENDBRANCH  17  18
ENDBRANCH  16  17
ENDBRANCH  15  16
ENDBRANCH  14  15
ENDBRANCH  13  14
ENDBRANCH  12  13
ENDBRANCH   1  12
TORSDOF 16
ENDMDL
MODEL 4
REMARK VINA RESULT:    -0.429      3.550      6.291
REMARK INTER + INTRA:          -2.229
REMARK INTER:                  -0.355
REMARK INTRA:                  -1.874
REMARK UNBOUND:                -1.399
REMARK SMILES CCCCCCCCCCCCCCCCCC(=O)[O-]
REMARK SMILES IDX 10 1 11 2 12 3 13 4 14 5 15 6 16 7 17 8 18 9 19 10 20 11
REMARK SMILES IDX 9 12 8 13 7 14 6 15 5 16 4 17 3 18 2 19 1 20
REMARK H PARENT
REMARK Flexibility Score: inf
ROOT
ATOM      1  C   UNL     1       5.809  -9.624   5.732  1.00  0.00     0.000 C 
ENDROOT
BRANCH   1   2
ATOM      2  C   UNL     1       5.125  -8.338   6.232  1.00  0.00     0.000 C 
BRANCH   2   3
ATOM      3  C   UNL     1       5.473  -7.109   5.380  1.00  0.00     0.000 C 
BRANCH   3   4
ATOM      4  C   UNL     1       5.860  -5.918   6.269  1.00  0.00     0.000 C 
BRANCH   4   5
ATOM      5  C   UNL     1       5.574  -4.557   5.608  1.00  0.00     0.000 C 
BRANCH   5   6
ATOM      6  C   UNL     1       5.183  -4.625   4.120  1.00  0.00     0.000 C 
BRANCH   6   7
ATOM      7  C   UNL     1       4.515  -3.334   3.616  1.00  0.00     0.006 C 
BRANCH   7   8
ATOM      8  C   UNL     1       2.997  -3.492   3.458  1.00  0.00     0.053 C 
BRANCH   8   9
ATOM      9  C   UNL     1       2.523  -3.031   2.114  1.00  0.00     0.041 C 
ATOM     10  O   UNL     1       1.291  -2.987   1.857  1.00  0.00    -0.550 OA
ATOM     11  O   UNL     1       3.443  -2.675   1.137  1.00  0.00    -0.550 OA
ENDBRANCH   8   9
ENDBRANCH   7   8
ENDBRANCH   6   7
ENDBRANCH   5   6
ENDBRANCH   4   5
ENDBRANCH   3   4
ENDBRANCH   2   3
ENDBRANCH   1   2
BRANCH   1  12
ATOM     12  C   UNL     1       7.020 -10.088   6.567  1.00  0.00     0.000 C 
BRANCH  12  13
ATOM     13  C   UNL     1       8.350  -9.380   6.249  1.00  0.00    -0.000 C 
BRANCH  13  14
ATOM     14  C   UNL     1       9.142  -9.001   7.511  1.00  0.00    -0.000 C 
BRANCH  14  15
ATOM     15  C   UNL     1       8.322  -9.167   8.803  1.00  0.00    -0.000 C 
BRANCH  15  16
ATOM     16  C   UNL     1       7.413  -7.974   9.165  1.00  0.00    -0.000 C 
BRANCH  16  17
ATOM     17  C   UNL     1       6.194  -8.317  10.041  1.00  0.00    -0.000 C 
BRANCH  17  18
ATOM     18  C   UNL     1       5.814  -9.806   9.974  1.00  0.00    -0.000 C 
BRANCH  18  19
ATOM     19  C   UNL     1       4.392 -10.025   9.433  1.00  0.00    -0.003 C 
ATOM     20  C   UNL     1       3.397  -8.979   9.935  1.00  0.00     0.004 C 
ENDBRANCH  18  19
ENDBRANCH  17  18
ENDBRANCH  16  17
ENDBRANCH  15  16
ENDBRANCH  14  15
ENDBRANCH  13  14
ENDBRANCH  12  13
ENDBRANCH   1  12
TORSDOF 16
ENDMDL
MODEL 5
REMARK VINA RESULT:    -0.227      2.534      4.989
REMARK INTER + INTRA:          -1.839
REMARK INTER:                  -0.661
REMARK INTRA:                  -1.178
REMARK UNBOUND:                -1.399
REMARK SMILES CCCCCCCCCCCCCCCCCC(=O)[O-]
REMARK SMILES IDX 10 1 11 2 12 3 13 4 14 5 15 6 16 7 17 8 18 9 19 10 20 11
REMARK SMILES IDX 9 12 8 13 7 14 6 15 5 16 4 17 3 18 2 19 1 20
REMARK H PARENT
REMARK Flexibility Score: inf
ROOT
ATOM      1  C   UNL     1       3.994  -8.988   6.743  1.00  0.00     0.000 C 
ENDROOT
BRANCH   1   2
ATOM      2  C   UNL     1       3.047 -10.125   7.170  1.00  0.00     0.000 C 
BRANCH   2   3
ATOM      3  C   UNL     1       2.619 -10.022   8.641  1.00  0.00     0.000 C 
BRANCH   3   4
ATOM      4  C   UNL     1       3.568  -9.103   9.425  1.00  0.00     0.000 C 
BRANCH   4   5
ATOM      5  C   UNL     1       4.951  -9.735   9.669  1.00  0.00     0.000 C 
BRANCH   5   6
ATOM      6  C   UNL     1       6.046  -8.753  10.123  1.00  0.00     0.000 C 
BRANCH   6   7
ATOM      7  C   UNL     1       7.468  -9.288   9.884  1.00  0.00     0.006 C 
BRANCH   7   8
ATOM      8  C   UNL     1       8.248  -8.430   8.879  1.00  0.00     0.053 C 
BRANCH   8   9
ATOM      9  C   UNL     1       9.384  -9.186   8.262  1.00  0.00     0.041 C 
ATOM     10  O   UNL     1      10.121  -9.918   8.975  1.00  0.00    -0.550 OA
ATOM     11  O   UNL     1       9.648  -9.061   6.904  1.00  0.00    -0.550 OA
ENDBRANCH   8   9
ENDBRANCH   7   8
ENDBRANCH   6   7
ENDBRANCH   5   6
ENDBRANCH   4   5
ENDBRANCH   3   4
ENDBRANCH   2   3
ENDBRANCH   1   2
BRANCH   1  12
ATOM     12  C   UNL     1       5.298  -9.446   6.057  1.00  0.00     0.000 C 
BRANCH  12  13
ATOM     13  C   UNL     1       6.308  -8.326   5.749  1.00  0.00    -0.000 C 
BRANCH  13  14
ATOM     14  C   UNL     1       6.204  -7.142   6.724  1.00  0.00    -0.000 C 
BRANCH  14  15
ATOM     15  C   UNL     1       6.424  -5.782   6.038  1.00  0.00    -0.000 C 
BRANCH  15  16
ATOM     16  C   UNL     1       5.292  -5.328   5.094  1.00  0.00    -0.000 C 
BRANCH  16  17
ATOM     17  C   UNL     1       5.338  -3.848   4.674  1.00  0.00    -0.000 C 
BRANCH  17  18
ATOM     18  C   UNL     1       4.582  -3.577   3.363  1.00  0.00    -0.000 C 
BRANCH  18  19
ATOM     19  C   UNL     1       3.090  -3.289   3.594  1.00  0.00    -0.003 C 
ATOM     20  C   UNL     1       2.285  -3.247   2.296  1.00  0.00     0.004 C 
ENDBRANCH  18  19
ENDBRANCH  17  18
ENDBRANCH  16  17
ENDBRANCH  15  16
ENDBRANCH  14  15
ENDBRANCH  13  14
ENDBRANCH  12  13
ENDBRANCH   1  12
TORSDOF 16
ENDMDL
MODEL 6
REMARK VINA RESULT:     0.034      2.981      5.410
REMARK INTER + INTRA:          -1.333
REMARK INTER:                   0.154
REMARK INTRA:                  -1.487
REMARK UNBOUND:                -1.399
REMARK SMILES CCCCCCCCCCCCCCCCCC(=O)[O-]
REMARK SMILES IDX 10 1 11 2 12 3 13 4 14 5 15 6 16 7 17 8 18 9 19 10 20 11
REMARK SMILES IDX 9 12 8 13 7 14 6 15 5 16 4 17 3 18 2 19 1 20
REMARK H PARENT
REMARK Flexibility Score: inf
ROOT
ATOM      1  C   UNL     1       9.236  -8.815   8.383  1.00  0.00     0.000 C 
ENDROOT
BRANCH   1   2
ATOM      2  C   UNL     1       8.328  -9.047   9.605  1.00  0.00     0.000 C 
BRANCH   2   3
ATOM      3  C   UNL     1       7.109  -8.114   9.627  1.00  0.00     0.000 C 
BRANCH   3   4
ATOM      4  C   UNL     1       7.309  -6.929   8.670  1.00  0.00     0.000 C 
BRANCH   4   5
ATOM      5  C   UNL     1       5.992  -6.433   8.045  1.00  0.00     0.000 C 
BRANCH   5   6
ATOM      6  C   UNL     1       5.978  -6.388   6.506  1.00  0.00     0.000 C 
BRANCH   6   7
ATOM      7  C   UNL     1       5.552  -5.018   5.951  1.00  0.00     0.006 C 
BRANCH   7   8
ATOM      8  C   UNL     1       5.164  -5.090   4.468  1.00  0.00     0.053 C 
BRANCH   8   9
ATOM      9  C   UNL     1       4.823  -3.741   3.913  1.00  0.00     0.041 C 
ATOM     10  O   UNL     1       3.639  -3.476   3.575  1.00  0.00    -0.550 OA
ATOM     11  O   UNL     1       5.817  -2.787   3.743  1.00  0.00    -0.550 OA
ENDBRANCH   8   9
ENDBRANCH   7   8
ENDBRANCH   6   7
ENDBRANCH   5   6
ENDBRANCH   4   5
ENDBRANCH   3   4
ENDBRANCH   2   3
ENDBRANCH   1   2
BRANCH   1  12
ATOM     12  C   UNL     1       9.811 -10.094   7.743  1.00  0.00     0.000 C 
BRANCH  12  13
ATOM     13  C   UNL     1       9.928 -10.069   6.208  1.00  0.00    -0.000 C 
BRANCH  13  14
ATOM     14  C   UNL     1       8.635  -9.601   5.519  1.00  0.00    -0.000 C 
BRANCH  14  15
ATOM     15  C   UNL     1       7.365 -10.083   6.243  1.00  0.00    -0.000 C 
BRANCH  15  16
ATOM     16  C   UNL     1       6.078  -9.301   5.908  1.00  0.00    -0.000 C 
BRANCH  16  17
ATOM     17  C   UNL     1       4.768 -10.097   6.047  1.00  0.00    -0.000 C 
BRANCH  17  18
ATOM     18  C   UNL     1       3.825  -9.512   7.112  1.00  0.00    -0.000 C 
BRANCH  18  19
ATOM     19  C   UNL     1       4.176  -9.986   8.531  1.00  0.00    -0.003 C 
ATOM     20  C   UNL     1       3.472  -9.175   9.619  1.00  0.00     0.004 C 
ENDBRANCH  18  19
ENDBRANCH  17  18
ENDBRANCH  16  17
ENDBRANCH  15  16
ENDBRANCH  14  15
ENDBRANCH  13  14
ENDBRANCH  12  13
ENDBRANCH   1  12
TORSDOF 16
ENDMDL
MODEL 7
REMARK VINA RESULT:     0.546      2.520      4.160
REMARK INTER + INTRA:          -0.343
REMARK INTER:                  -0.397
REMARK INTRA:                   0.054
REMARK UNBOUND:                -1.399
REMARK SMILES CCCCCCCCCCCCCCCCCC(=O)[O-]
REMARK SMILES IDX 10 1 11 2 12 3 13 4 14 5 15 6 16 7 17 8 18 9 19 10 20 11
REMARK SMILES IDX 9 12 8 13 7 14 6 15 5 16 4 17 3 18 2 19 1 20
REMARK H PARENT
REMARK Flexibility Score: inf
ROOT
ATOM      1  C   UNL     1       5.177  -8.750   8.793  1.00  0.00     0.000 C 
ENDROOT
BRANCH   1   2
ATOM      2  C   UNL     1       3.734  -9.281   8.720  1.00  0.00     0.000 C 
BRANCH   2   3
ATOM      3  C   UNL     1       3.176  -9.295   7.290  1.00  0.00     0.000 C 
BRANCH   3   4
ATOM      4  C   UNL     1       4.212  -8.754   6.292  1.00  0.00     0.000 C 
BRANCH   4   5
ATOM      5  C   UNL     1       5.185  -9.836   5.790  1.00  0.00     0.000 C 
BRANCH   5   6
ATOM      6  C   UNL     1       6.328  -9.321   4.896  1.00  0.00     0.000 C 
BRANCH   6   7
ATOM      7  C   UNL     1       7.646 -10.085   5.108  1.00  0.00     0.006 C 
BRANCH   7   8
ATOM      8  C   UNL     1       8.060 -10.125   6.585  1.00  0.00     0.053 C 
BRANCH   8   9
ATOM      9  C   UNL     1       9.474  -9.670   6.781  1.00  0.00     0.041 C 
ATOM     10  O   UNL     1      10.069  -9.901   7.867  1.00  0.00    -0.550 OA
ATOM     11  O   UNL     1      10.125  -8.967   5.776  1.00  0.00    -0.550 OA
ENDBRANCH   8   9
ENDBRANCH   7   8
ENDBRANCH   6   7
ENDBRANCH   5   6
ENDBRANCH   4   5
ENDBRANCH   3   4
ENDBRANCH   2   3
ENDBRANCH   1   2
BRANCH   1  12
ATOM     12  C   UNL     1       5.964  -9.163  10.054  1.00  0.00     0.000 C 
BRANCH  12  13
ATOM     13  C   UNL     1       7.494  -9.210   9.890  1.00  0.00    -0.000 C 
BRANCH  13  14
ATOM     14  C   UNL     1       8.162  -7.845  10.124  1.00  0.00    -0.000 C 
BRANCH  14  15
ATOM     15  C   UNL     1       7.502  -6.711   9.320  1.00  0.00    -0.000 C 
BRANCH  15  16
ATOM     16  C   UNL     1       6.948  -7.118   7.938  1.00  0.00    -0.000 C 
BRANCH  16  17
ATOM     17  C   UNL     1       6.891  -5.990   6.893  1.00  0.00    -0.000 C 
BRANCH  17  18
ATOM     18  C   UNL     1       5.465  -5.721   6.384  1.00  0.00    -0.000 C 
BRANCH  18  19
ATOM     19  C   UNL     1       5.395  -5.634   4.851  1.00  0.00    -0.003 C 
ATOM     20  C   UNL     1       5.269  -4.198   4.343  1.00  0.00     0.004 C 
ENDBRANCH  18  19
ENDBRANCH  17  18
ENDBRANCH  16  17
ENDBRANCH  15  16
ENDBRANCH  14  15
ENDBRANCH  13  14
ENDBRANCH  12  13
ENDBRANCH   1  12
TORSDOF 16
ENDMDL
