MODEL 1
REMARK VINA RESULT:    -2.934      0.000      0.000
REMARK INTER + INTRA:          -4.222
REMARK INTER:                  -3.792
REMARK INTRA:                  -0.431
REMARK UNBOUND:                -0.431
REMARK SMILES CCCCCCC(C)=O
REMARK SMILES IDX 4 1 3 2 2 3 1 4 5 5 6 6 7 7 9 8 8 9
REMARK H PARENT
REMARK Flexibility Score: inf
ROOT
ATOM      1  C   UNL     1      10.160  -5.281  -2.186  1.00  0.00     0.000 C 
ENDROOT
BRANCH   1   2
ATOM      2  C   UNL     1       8.853  -4.621  -1.734  1.00  0.00    -0.000 C 
BRANCH   2   3
ATOM      3  C   UNL     1       8.555  -3.366  -2.563  1.00  0.00    -0.003 C 
ATOM      4  C   UNL     1       9.245  -3.426  -3.922  1.00  0.00     0.004 C 
ENDBRANCH   2   3
ENDBRANCH   1   2
BRANCH   1   5
ATOM      5  C   UNL     1      11.271  -5.069  -1.150  1.00  0.00     0.008 C 
BRANCH   5   6
ATOM      6  C   UNL     1      12.109  -3.825  -1.487  1.00  0.00     0.075 C 
BRANCH   6   7
ATOM      7  C   UNL     1      12.970  -4.006  -2.715  1.00  0.00     0.129 C 
ATOM      8  O   UNL     1      12.895  -3.228  -3.655  1.00  0.00    -0.300 OA
ATOM      9  C   UNL     1      13.933  -5.150  -2.792  1.00  0.00     0.087 C 
ENDBRANCH   6   7
ENDBRANCH   5   6
ENDBRANCH   1   5
TORSDOF 5
ENDMDL
MODEL 2
REMARK VINA RESULT:    -2.842      9.698     11.497
REMARK INTER + INTRA:          -4.103
REMARK INTER:                  -3.611
REMARK INTRA:                  -0.492
REMARK UNBOUND:                -0.431
REMARK SMILES CCCCCCC(C)=O
REMARK SMILES IDX 4 1 3 2 2 3 1 4 5 5 6 6 7 7 9 8 8 9
REMARK H PARENT
REMARK Flexibility Score: inf
ROOT
ATOM      1  C   UNL     1       9.001   5.588 -10.135  1.00  0.00     0.000 C 
ENDROOT
BRANCH   1   2
ATOM      2  C   UNL     1      10.397   6.075  -9.732  1.00  0.00    -0.000 C 
BRANCH   2   3
ATOM      3  C   UNL     1      10.309   7.310  -8.827  1.00  0.00    -0.003 C 
ATOM      4  C   UNL     1       9.377   7.061  -7.645  1.00  0.00     0.004 C 
ENDBRANCH   2   3
ENDBRANCH   1   2
BRANCH   1   5
ATOM      5  C   UNL     1       8.951   4.057 -10.208  1.00  0.00     0.008 C 
BRANCH   5   6
ATOM      6  C   UNL     1       8.238   3.469  -8.980  1.00  0.00     0.075 C 
BRANCH   6   7
ATOM      7  C   UNL     1       9.167   2.705  -8.066  1.00  0.00     0.129 C 
ATOM      8  O   UNL     1       9.327   1.500  -8.196  1.00  0.00    -0.300 OA
ATOM      9  C   UNL     1       9.908   3.424  -6.981  1.00  0.00     0.087 C 
ENDBRANCH   6   7
ENDBRANCH   5   6
ENDBRANCH   1   5
TORSDOF 5
ENDMDL
MODEL 3
REMARK VINA RESULT:    -2.838      2.079      4.074
REMARK INTER + INTRA:          -4.098
REMARK INTER:                  -3.543
REMARK INTRA:                  -0.554
REMARK UNBOUND:                -0.431
REMARK SMILES CCCCCCC(C)=O
REMARK SMILES IDX 4 1 3 2 2 3 1 4 5 5 6 6 7 7 9 8 8 9
REMARK H PARENT
REMARK Flexibility Score: inf
ROOT
ATOM      1  C   UNL     1      13.096  -4.511   0.106  1.00  0.00     0.000 C 
ENDROOT
BRANCH   1   2
ATOM      2  C   UNL     1      14.497  -4.702  -0.487  1.00  0.00    -0.000 C 
BRANCH   2   3
ATOM      3  C   UNL     1      14.672  -6.122  -1.038  1.00  0.00    -0.003 C 
ATOM      4  C   UNL     1      15.339  -6.101  -2.410  1.00  0.00     0.004 C 
ENDBRANCH   2   3
ENDBRANCH   1   2
BRANCH   1   5
ATOM      5  C   UNL     1      12.013  -4.949  -0.888  1.00  0.00     0.008 C 
BRANCH   5   6
ATOM      6  C   UNL     1      11.714  -3.835  -1.903  1.00  0.00     0.075 C 
BRANCH   6   7
ATOM      7  C   UNL     1      12.248  -4.133  -3.284  1.00  0.00     0.129 C 
ATOM      8  O   UNL     1      12.984  -3.343  -3.859  1.00  0.00    -0.300 OA
ATOM      9  C   UNL     1      11.879  -5.412  -3.970  1.00  0.00     0.087 C 
ENDBRANCH   6   7
ENDBRANCH   5   6
ENDBRANCH   1   5
TORSDOF 5
ENDMDL
MODEL 4
REMARK VINA RESULT:    -2.613      1.804      4.300
REMARK INTER + INTRA:          -3.807
REMARK INTER:                  -3.246
REMARK INTRA:                  -0.561
REMARK UNBOUND:                -0.431
REMARK SMILES CCCCCCC(C)=O
REMARK SMILES IDX 4 1 3 2 2 3 1 4 5 5 6 6 7 7 9 8 8 9
REMARK H PARENT
REMARK Flexibility Score: inf
ROOT
ATOM      1  C   UNL     1      13.241  -3.896  -2.477  1.00  0.00     0.000 C 
ENDROOT
BRANCH   1   2
ATOM      2  C   UNL     1      14.001  -5.215  -2.295  1.00  0.00    -0.000 C 
BRANCH   2   3
ATOM      3  C   UNL     1      13.873  -5.730  -0.857  1.00  0.00    -0.003 C 
ATOM      4  C   UNL     1      13.629  -4.583   0.119  1.00  0.00     0.004 C 
ENDBRANCH   2   3
ENDBRANCH   1   2
BRANCH   1   5
ATOM      5  C   UNL     1      12.237  -3.993  -3.632  1.00  0.00     0.008 C 
BRANCH   5   6
ATOM      6  C   UNL     1      11.142  -5.027  -3.326  1.00  0.00     0.075 C 
BRANCH   6   7
ATOM      7  C   UNL     1      10.165  -4.561  -2.273  1.00  0.00     0.129 C 
ATOM      8  O   UNL     1       9.401  -3.630  -2.491  1.00  0.00    -0.300 OA
ATOM      9  C   UNL     1      10.120  -5.240  -0.939  1.00  0.00     0.087 C 
ENDBRANCH   6   7
ENDBRANCH   5   6
ENDBRANCH   1   5
TORSDOF 5
ENDMDL
MODEL 5
REMARK VINA RESULT:    -2.567      1.355      3.933
REMARK INTER + INTRA:          -3.748
REMARK INTER:                  -3.355
REMARK INTRA:                  -0.392
REMARK UNBOUND:                -0.431
REMARK SMILES CCCCCCC(C)=O
REMARK SMILES IDX 4 1 3 2 2 3 1 4 5 5 6 6 7 7 9 8 8 9
REMARK H PARENT
REMARK Flexibility Score: inf
ROOT
ATOM      1  C   UNL     1      11.424  -4.244  -1.093  1.00  0.00     0.000 C 
ENDROOT
BRANCH   1   2
ATOM      2  C   UNL     1      12.560  -5.271  -1.014  1.00  0.00    -0.000 C 
BRANCH   2   3
ATOM      3  C   UNL     1      13.583  -5.047  -2.134  1.00  0.00    -0.003 C 
ATOM      4  C   UNL     1      13.060  -4.054  -3.167  1.00  0.00     0.004 C 
ENDBRANCH   2   3
ENDBRANCH   1   2
BRANCH   1   5
ATOM      5  C   UNL     1      10.057  -4.936  -1.135  1.00  0.00     0.008 C 
BRANCH   5   6
ATOM      6  C   UNL     1       9.519  -5.007  -2.572  1.00  0.00     0.075 C 
BRANCH   6   7
ATOM      7  C   UNL     1       9.118  -3.658  -3.122  1.00  0.00     0.129 C 
ATOM      8  O   UNL     1       9.731  -3.149  -4.049  1.00  0.00    -0.300 OA
ATOM      9  C   UNL     1       7.953  -2.926  -2.531  1.00  0.00     0.087 C 
ENDBRANCH   6   7
ENDBRANCH   5   6
ENDBRANCH   1   5
TORSDOF 5
ENDMDL
MODEL 6
REMARK VINA RESULT:    -2.551      1.568      2.339
REMARK INTER + INTRA:          -3.727
REMARK INTER:                  -3.470
REMARK INTRA:                  -0.256
REMARK UNBOUND:                -0.431
REMARK SMILES CCCCCCC(C)=O
REMARK SMILES IDX 4 1 3 2 2 3 1 4 5 5 6 6 7 7 9 8 8 9
REMARK H PARENT
REMARK Flexibility Score: inf
ROOT
ATOM      1  C   UNL     1       9.180  -5.183  -1.983  1.00  0.00     0.000 C 
ENDROOT
BRANCH   1   2
ATOM      2  C   UNL     1       9.298  -6.074  -0.742  1.00  0.00    -0.000 C 
BRANCH   2   3
ATOM      3  C   UNL     1       8.035  -5.983   0.123  1.00  0.00    -0.003 C 
ATOM      4  C   UNL     1       6.886  -5.338  -0.647  1.00  0.00     0.004 C 
ENDBRANCH   2   3
ENDBRANCH   1   2
BRANCH   1   5
ATOM      5  C   UNL     1      10.244  -4.080  -1.972  1.00  0.00     0.008 C 
BRANCH   5   6
ATOM      6  C   UNL     1      10.775  -3.811  -3.390  1.00  0.00     0.075 C 
BRANCH   6   7
ATOM      7  C   UNL     1      12.262  -4.044  -3.519  1.00  0.00     0.129 C 
ATOM      8  O   UNL     1      12.997  -3.177  -3.970  1.00  0.00    -0.300 OA
ATOM      9  C   UNL     1      12.855  -5.350  -3.091  1.00  0.00     0.087 C 
ENDBRANCH   6   7
ENDBRANCH   5   6
ENDBRANCH   1   5
TORSDOF 5
ENDMDL
MODEL 7
REMARK VINA RESULT:    -2.547      1.484      3.573
REMARK INTER + INTRA:          -3.722
REMARK INTER:                  -3.143
REMARK INTRA:                  -0.579
REMARK UNBOUND:                -0.431
REMARK SMILES CCCCCCC(C)=O
REMARK SMILES IDX 4 1 3 2 2 3 1 4 5 5 6 6 7 7 9 8 8 9
REMARK H PARENT
REMARK Flexibility Score: inf
ROOT
ATOM      1  C   UNL     1      11.515  -4.520  -0.990  1.00  0.00     0.000 C 
ENDROOT
BRANCH   1   2
ATOM      2  C   UNL     1      12.553  -5.643  -1.088  1.00  0.00    -0.000 C 
BRANCH   2   3
ATOM      3  C   UNL     1      13.295  -5.591  -2.429  1.00  0.00    -0.003 C 
ATOM      4  C   UNL     1      13.261  -4.186  -3.024  1.00  0.00     0.004 C 
ENDBRANCH   2   3
ENDBRANCH   1   2
BRANCH   1   5
ATOM      5  C   UNL     1      10.090  -5.079  -1.072  1.00  0.00     0.008 C 
BRANCH   5   6
ATOM      6  C   UNL     1       9.196  -4.186  -1.948  1.00  0.00     0.075 C 
BRANCH   6   7
ATOM      7  C   UNL     1       9.599  -4.192  -3.403  1.00  0.00     0.129 C 
ATOM      8  O   UNL     1       9.753  -3.146  -4.018  1.00  0.00    -0.300 OA
ATOM      9  C   UNL     1       9.817  -5.491  -4.115  1.00  0.00     0.087 C 
ENDBRANCH   6   7
ENDBRANCH   5   6
ENDBRANCH   1   5
TORSDOF 5
ENDMDL
MODEL 8
REMARK VINA RESULT:    -2.484     11.023     12.524
REMARK INTER + INTRA:          -3.640
REMARK INTER:                  -3.470
REMARK INTRA:                  -0.171
REMARK UNBOUND:                -0.431
REMARK SMILES CCCCCCC(C)=O
REMARK SMILES IDX 4 1 3 2 2 3 1 4 5 5 6 6 7 7 9 8 8 9
REMARK H PARENT
REMARK Flexibility Score: inf
ROOT
ATOM      1  C   UNL     1      16.572   0.618   7.919  1.00  0.00     0.000 C 
ENDROOT
BRANCH   1   2
ATOM      2  C   UNL     1      16.314   2.126   8.008  1.00  0.00    -0.000 C 
BRANCH   2   3
ATOM      3  C   UNL     1      17.469   2.841   8.719  1.00  0.00    -0.003 C 
ATOM      4  C   UNL     1      18.375   3.553   7.719  1.00  0.00     0.004 C 
ENDBRANCH   2   3
ENDBRANCH   1   2
BRANCH   1   5
ATOM      5  C   UNL     1      15.808  -0.003   6.744  1.00  0.00     0.008 C 
BRANCH   5   6
ATOM      6  C   UNL     1      16.150  -1.494   6.590  1.00  0.00     0.075 C 
BRANCH   6   7
ATOM      7  C   UNL     1      14.998  -2.405   6.944  1.00  0.00     0.129 C 
ATOM      8  O   UNL     1      14.458  -3.095   6.091  1.00  0.00    -0.300 OA
ATOM      9  C   UNL     1      14.504  -2.473   8.356  1.00  0.00     0.087 C 
ENDBRANCH   6   7
ENDBRANCH   5   6
ENDBRANCH   1   5
TORSDOF 5
ENDMDL
MODEL 9
REMARK VINA RESULT:    -2.459      1.284      2.094
REMARK INTER + INTRA:          -3.608
REMARK INTER:                  -3.371
REMARK INTRA:                  -0.237
REMARK UNBOUND:                -0.431
REMARK SMILES CCCCCCC(C)=O
REMARK SMILES IDX 4 1 3 2 2 3 1 4 5 5 6 6 7 7 9 8 8 9
REMARK H PARENT
REMARK Flexibility Score: inf
ROOT
ATOM      1  C   UNL     1       9.549  -3.476  -3.634  1.00  0.00     0.000 C 
ENDROOT
BRANCH   1   2
ATOM      2  C   UNL     1       8.018  -3.403  -3.603  1.00  0.00    -0.000 C 
BRANCH   2   3
ATOM      3  C   UNL     1       7.457  -4.131  -2.376  1.00  0.00    -0.003 C 
ATOM      4  C   UNL     1       6.320  -3.339  -1.738  1.00  0.00     0.004 C 
ENDBRANCH   2   3
ENDBRANCH   1   2
BRANCH   1   5
ATOM      5  C   UNL     1      10.096  -4.100  -2.345  1.00  0.00     0.008 C 
BRANCH   5   6
ATOM      6  C   UNL     1      11.415  -4.843  -2.609  1.00  0.00     0.075 C 
BRANCH   6   7
ATOM      7  C   UNL     1      12.635  -4.038  -2.232  1.00  0.00     0.129 C 
ATOM      8  O   UNL     1      13.207  -3.339  -3.056  1.00  0.00    -0.300 OA
ATOM      9  C   UNL     1      13.160  -4.086  -0.830  1.00  0.00     0.087 C 
ENDBRANCH   6   7
ENDBRANCH   5   6
ENDBRANCH   1   5
TORSDOF 5
ENDMDL
