MODEL 1
REMARK VINA RESULT:    -4.768      0.000      0.000
REMARK INTER + INTRA:          -8.315
REMARK INTER:                  -6.998
REMARK INTRA:                  -1.317
REMARK UNBOUND:                -1.317
REMARK SMILES Cc1cc2c(C(C)C)c(O)c(O)c(C=O)c2c(O)c1-c1c(C)cc2c(C(C)C)c(O)c(O)c(C=O)c2c1O
REMARK SMILES IDX 1 1 2 2 3 3 4 4 16 5 13 6 11 7 9 8 5 9 17 10 19 11 20 12
REMARK SMILES IDX 37 13 21 14 36 15 23 16 22 17 24 18 33 19 25 20 31 21 29 22
REMARK SMILES IDX 38 23 34 25 35 26 26 27 27 28 28 29 32 30 30 32 18 34 6 36
REMARK SMILES IDX 7 37 8 38 14 39 15 40 10 41 12 43
REMARK H PARENT 38 24 32 31 30 33 18 35 10 42 12 44
REMARK Flexibility Score: inf
ROOT
ATOM      1  C   UNL     1     140.264 139.950 132.447  1.00  0.00     0.045 C 
ATOM      2  C   UNL     1     141.034 140.982 131.659  1.00  0.00    -0.039 A 
ATOM      3  C   UNL     1     141.219 140.801 130.288  1.00  0.00     0.013 A 
ATOM      4  C   UNL     1     141.957 141.717 129.505  1.00  0.00    -0.006 A 
ATOM      5  C   UNL     1     142.473 142.894 130.130  1.00  0.00     0.039 A 
ATOM      6  C   UNL     1     143.193 143.834 129.337  1.00  0.00     0.072 A 
ATOM      7  C   UNL     1     143.230 143.690 127.937  1.00  0.00     0.169 A 
ATOM      8  C   UNL     1     142.638 142.574 127.323  1.00  0.00     0.162 A 
ATOM      9  C   UNL     1     142.152 141.505 128.105  1.00  0.00     0.008 A 
ATOM     10  C   UNL     1     142.214 143.112 131.517  1.00  0.00     0.132 A 
ATOM     11  C   UNL     1     141.524 142.143 132.277  1.00  0.00     0.031 A 
ENDROOT
BRANCH  11  12
ATOM     12  C   UNL     1     141.273 142.365 133.726  1.00  0.00     0.031 A 
ATOM     13  C   UNL     1     140.135 143.086 134.144  1.00  0.00     0.132 A 
ATOM     14  C   UNL     1     142.152 141.824 134.679  1.00  0.00    -0.039 A 
ATOM     15  C   UNL     1     139.915 143.351 135.529  1.00  0.00     0.039 A 
ATOM     16  C   UNL     1     141.882 141.993 136.037  1.00  0.00     0.013 A 
ATOM     17  C   UNL     1     143.336 140.986 134.261  1.00  0.00     0.045 C 
ATOM     18  C   UNL     1     140.801 142.780 136.492  1.00  0.00    -0.006 A 
ATOM     19  C   UNL     1     138.812 144.131 135.984  1.00  0.00     0.072 A 
ATOM     20  C   UNL     1     140.562 142.972 137.889  1.00  0.00     0.008 A 
ATOM     21  C   UNL     1     138.503 144.176 137.356  1.00  0.00     0.169 A 
ATOM     22  C   UNL     1     139.327 143.527 138.292  1.00  0.00     0.162 A 
BRANCH  13  23
ATOM     23  O   UNL     1     139.198 143.498 133.189  1.00  0.00    -0.507 OA
ATOM     24  H   UNL     1     139.342 143.427 132.189  1.00  0.00     0.293 HD
ENDBRANCH  13  23
BRANCH  19  25
ATOM     25  C   UNL     1     138.019 144.985 135.066  1.00  0.00     0.264 C 
ATOM     26  O   UNL     1     136.840 144.676 134.744  1.00  0.00    -0.298 OA
ENDBRANCH  19  25
BRANCH  20  27
ATOM     27  C   UNL     1     141.588 142.546 138.955  1.00  0.00     0.017 C 
ATOM     28  C   UNL     1     141.115 141.295 139.702  1.00  0.00     0.012 C 
ATOM     29  C   UNL     1     141.971 143.671 139.934  1.00  0.00     0.012 C 
ENDBRANCH  20  27
BRANCH  21  30
ATOM     30  O   UNL     1     137.393 144.921 137.772  1.00  0.00    -0.504 OA
ATOM     31  H   UNL     1     137.195 145.152 138.735  1.00  0.00     0.293 HD
ENDBRANCH  21  30
BRANCH  22  32
ATOM     32  O   UNL     1     138.932 143.412 139.627  1.00  0.00    -0.504 OA
ATOM     33  H   UNL     1     138.951 142.548 140.152  1.00  0.00     0.293 HD
ENDBRANCH  22  32
ENDBRANCH  11  12
BRANCH  10  34
ATOM     34  O   UNL     1     142.604 144.309 132.129  1.00  0.00    -0.507 OA
ATOM     35  H   UNL     1     141.977 144.908 132.652  1.00  0.00     0.293 HD
ENDBRANCH  10  34
BRANCH   9  36
ATOM     36  C   UNL     1     141.800 140.166 127.431  1.00  0.00     0.017 C 
ATOM     37  C   UNL     1     140.508 140.285 126.617  1.00  0.00     0.012 C 
ATOM     38  C   UNL     1     142.943 139.577 126.584  1.00  0.00     0.012 C 
ENDBRANCH   9  36
BRANCH   6  39
ATOM     39  C   UNL     1     143.988 144.931 129.939  1.00  0.00     0.264 C 
ATOM     40  O   UNL     1     145.124 144.714 130.439  1.00  0.00    -0.298 OA
ENDBRANCH   6  39
BRANCH   8  41
ATOM     41  O   UNL     1     142.510 142.512 125.932  1.00  0.00    -0.504 OA
ATOM     42  H   UNL     1     143.034 141.881 125.341  1.00  0.00     0.293 HD
ENDBRANCH   8  41
BRANCH   7  43
ATOM     43  O   UNL     1     143.910 144.651 127.180  1.00  0.00    -0.504 OA
ATOM     44  H   UNL     1     144.180 144.525 126.214  1.00  0.00     0.293 HD
ENDBRANCH   7  43
TORSDOF 11
ENDMDL
MODEL 2
REMARK VINA RESULT:    -4.759     14.490     18.373
REMARK INTER + INTRA:          -8.303
REMARK INTER:                  -6.983
REMARK INTRA:                  -1.320
REMARK UNBOUND:                -1.317
REMARK SMILES Cc1cc2c(C(C)C)c(O)c(O)c(C=O)c2c(O)c1-c1c(C)cc2c(C(C)C)c(O)c(O)c(C=O)c2c1O
REMARK SMILES IDX 1 1 2 2 3 3 4 4 16 5 13 6 11 7 9 8 5 9 17 10 19 11 20 12
REMARK SMILES IDX 37 13 21 14 36 15 23 16 22 17 24 18 33 19 25 20 31 21 29 22
REMARK SMILES IDX 38 23 34 25 35 26 26 27 27 28 28 29 32 30 30 32 18 34 6 36
REMARK SMILES IDX 7 37 8 38 14 39 15 40 10 41 12 43
REMARK H PARENT 38 24 32 31 30 33 18 35 10 42 12 44
REMARK Flexibility Score: inf
ROOT
ATOM      1  C   UNL     1     140.226 129.996 137.606  1.00  0.00     0.045 C 
ATOM      2  C   UNL     1     141.010 128.967 138.385  1.00  0.00    -0.039 A 
ATOM      3  C   UNL     1     141.201 129.143 139.755  1.00  0.00     0.013 A 
ATOM      4  C   UNL     1     141.953 128.231 140.530  1.00  0.00    -0.006 A 
ATOM      5  C   UNL     1     142.477 127.063 139.896  1.00  0.00     0.039 A 
ATOM      6  C   UNL     1     143.211 126.126 140.681  1.00  0.00     0.072 A 
ATOM      7  C   UNL     1     143.254 126.264 142.081  1.00  0.00     0.169 A 
ATOM      8  C   UNL     1     142.654 127.372 142.704  1.00  0.00     0.162 A 
ATOM      9  C   UNL     1     142.153 128.439 141.929  1.00  0.00     0.008 A 
ATOM     10  C   UNL     1     142.212 126.849 138.509  1.00  0.00     0.132 A 
ATOM     11  C   UNL     1     141.509 127.814 137.758  1.00  0.00     0.031 A 
ENDROOT
BRANCH  11  12
ATOM     12  C   UNL     1     141.252 127.597 136.310  1.00  0.00     0.031 A 
ATOM     13  C   UNL     1     140.119 126.866 135.894  1.00  0.00     0.132 A 
ATOM     14  C   UNL     1     142.120 128.151 135.354  1.00  0.00    -0.039 A 
ATOM     15  C   UNL     1     139.894 126.605 134.509  1.00  0.00     0.039 A 
ATOM     16  C   UNL     1     141.844 127.986 133.997  1.00  0.00     0.013 A 
ATOM     17  C   UNL     1     143.298 128.999 135.770  1.00  0.00     0.045 C 
ATOM     18  C   UNL     1     140.769 127.190 133.544  1.00  0.00    -0.006 A 
ATOM     19  C   UNL     1     138.796 125.817 134.057  1.00  0.00     0.072 A 
ATOM     20  C   UNL     1     140.524 127.003 132.147  1.00  0.00     0.008 A 
ATOM     21  C   UNL     1     138.481 125.776 132.686  1.00  0.00     0.169 A 
ATOM     22  C   UNL     1     139.292 126.437 131.749  1.00  0.00     0.162 A 
BRANCH  13  23
ATOM     23  O   UNL     1     139.192 126.441 136.852  1.00  0.00    -0.507 OA
ATOM     24  H   UNL     1     138.767 125.521 136.860  1.00  0.00     0.293 HD
ENDBRANCH  13  23
BRANCH  19  25
ATOM     25  C   UNL     1     138.017 124.951 134.975  1.00  0.00     0.264 C 
ATOM     26  O   UNL     1     136.846 125.258 135.323  1.00  0.00    -0.298 OA
ENDBRANCH  19  25
BRANCH  20  27
ATOM     27  C   UNL     1     141.540 127.444 131.078  1.00  0.00     0.017 C 
ATOM     28  C   UNL     1     141.060 128.706 130.354  1.00  0.00     0.012 C 
ATOM     29  C   UNL     1     141.914 126.333 130.079  1.00  0.00     0.012 C 
ENDBRANCH  20  27
BRANCH  21  30
ATOM     30  O   UNL     1     137.376 125.021 132.272  1.00  0.00    -0.504 OA
ATOM     31  H   UNL     1     136.799 125.252 131.476  1.00  0.00     0.293 HD
ENDBRANCH  21  30
BRANCH  22  32
ATOM     32  O   UNL     1     138.889 126.555 130.416  1.00  0.00    -0.504 OA
ATOM     33  H   UNL     1     139.447 126.260 129.627  1.00  0.00     0.293 HD
ENDBRANCH  22  32
ENDBRANCH  11  12
BRANCH  10  34
ATOM     34  O   UNL     1     142.611 125.658 137.889  1.00  0.00    -0.507 OA
ATOM     35  H   UNL     1     143.569 125.334 137.851  1.00  0.00     0.293 HD
ENDBRANCH  10  34
BRANCH   9  36
ATOM     36  C   UNL     1     141.791 129.771 142.612  1.00  0.00     0.017 C 
ATOM     37  C   UNL     1     140.521 129.628 143.455  1.00  0.00     0.012 C 
ATOM     38  C   UNL     1     142.942 130.382 143.433  1.00  0.00     0.012 C 
ENDBRANCH   9  36
BRANCH   6  39
ATOM     39  C   UNL     1     144.013 125.040 140.069  1.00  0.00     0.264 C 
ATOM     40  O   UNL     1     145.125 125.279 139.527  1.00  0.00    -0.298 OA
ENDBRANCH   6  39
BRANCH   8  41
ATOM     41  O   UNL     1     142.534 127.425 144.096  1.00  0.00    -0.504 OA
ATOM     42  H   UNL     1     141.669 127.610 144.584  1.00  0.00     0.293 HD
ENDBRANCH   8  41
BRANCH   7  43
ATOM     43  O   UNL     1     143.947 125.306 142.830  1.00  0.00    -0.504 OA
ATOM     44  H   UNL     1     143.587 124.873 143.669  1.00  0.00     0.293 HD
ENDBRANCH   7  43
TORSDOF 11
ENDMDL
MODEL 3
REMARK VINA RESULT:    -4.749     10.310     15.999
REMARK INTER + INTRA:          -8.288
REMARK INTER:                  -6.986
REMARK INTRA:                  -1.302
REMARK UNBOUND:                -1.317
REMARK SMILES Cc1cc2c(C(C)C)c(O)c(O)c(C=O)c2c(O)c1-c1c(C)cc2c(C(C)C)c(O)c(O)c(C=O)c2c1O
REMARK SMILES IDX 1 1 2 2 3 3 4 4 16 5 13 6 11 7 9 8 5 9 17 10 19 11 20 12
REMARK SMILES IDX 37 13 21 14 36 15 23 16 22 17 24 18 33 19 25 20 31 21 29 22
REMARK SMILES IDX 38 23 34 25 35 26 26 27 27 28 28 29 32 30 30 32 18 34 6 36
REMARK SMILES IDX 7 37 8 38 14 39 15 40 10 41 12 43
REMARK H PARENT 38 24 32 31 30 33 18 35 10 42 12 44
REMARK Flexibility Score: inf
ROOT
ATOM      1  C   UNL     1     129.734 139.919 137.529  1.00  0.00     0.045 C 
ATOM      2  C   UNL     1     128.958 140.943 138.322  1.00  0.00    -0.039 A 
ATOM      3  C   UNL     1     128.753 140.741 139.687  1.00  0.00     0.013 A 
ATOM      4  C   UNL     1     128.008 141.648 140.474  1.00  0.00    -0.006 A 
ATOM      5  C   UNL     1     127.506 142.837 139.860  1.00  0.00     0.039 A 
ATOM      6  C   UNL     1     126.780 143.768 140.658  1.00  0.00     0.072 A 
ATOM      7  C   UNL     1     126.722 143.603 142.054  1.00  0.00     0.169 A 
ATOM      8  C   UNL     1     127.300 142.474 142.660  1.00  0.00     0.162 A 
ATOM      9  C   UNL     1     127.792 141.415 141.867  1.00  0.00     0.008 A 
ATOM     10  C   UNL     1     127.787 143.076 138.480  1.00  0.00     0.132 A 
ATOM     11  C   UNL     1     128.482 142.115 137.715  1.00  0.00     0.031 A 
ENDROOT
BRANCH  11  12
ATOM     12  C   UNL     1     128.755 142.359 136.274  1.00  0.00     0.031 A 
ATOM     13  C   UNL     1     129.898 143.088 135.883  1.00  0.00     0.132 A 
ATOM     14  C   UNL     1     127.892 141.829 135.299  1.00  0.00    -0.039 A 
ATOM     15  C   UNL     1     130.138 143.374 134.506  1.00  0.00     0.039 A 
ATOM     16  C   UNL     1     128.182 142.018 133.948  1.00  0.00     0.013 A 
ATOM     17  C   UNL     1     126.703 140.983 135.687  1.00  0.00     0.045 C 
ATOM     18  C   UNL     1     129.268 142.815 133.521  1.00  0.00    -0.006 A 
ATOM     19  C   UNL     1     131.246 144.162 134.080  1.00  0.00     0.072 A 
ATOM     20  C   UNL     1     129.528 143.026 132.131  1.00  0.00     0.008 A 
ATOM     21  C   UNL     1     131.576 144.227 132.713  1.00  0.00     0.169 A 
ATOM     22  C   UNL     1     130.768 143.590 131.756  1.00  0.00     0.162 A 
BRANCH  13  23
ATOM     23  O   UNL     1     130.818 143.488 136.859  1.00  0.00    -0.507 OA
ATOM     24  H   UNL     1     131.798 143.664 136.674  1.00  0.00     0.293 HD
ENDBRANCH  13  23
BRANCH  19  25
ATOM     25  C   UNL     1     132.023 145.004 135.022  1.00  0.00     0.264 C 
ATOM     26  O   UNL     1     133.203 144.703 135.345  1.00  0.00    -0.298 OA
ENDBRANCH  19  25
BRANCH  20  27
ATOM     27  C   UNL     1     128.520 142.614 131.044  1.00  0.00     0.017 C 
ATOM     28  C   UNL     1     129.019 141.389 130.270  1.00  0.00     0.012 C 
ATOM     29  C   UNL     1     128.130 143.758 130.089  1.00  0.00     0.012 C 
ENDBRANCH  20  27
BRANCH  21  30
ATOM     30  O   UNL     1     132.690 144.981 132.325  1.00  0.00    -0.504 OA
ATOM     31  H   UNL     1     132.636 145.906 131.923  1.00  0.00     0.293 HD
ENDBRANCH  21  30
BRANCH  22  32
ATOM     32  O   UNL     1     131.184 143.495 130.425  1.00  0.00    -0.504 OA
ATOM     33  H   UNL     1     132.149 143.416 130.136  1.00  0.00     0.293 HD
ENDBRANCH  22  32
ENDBRANCH  11  12
BRANCH  10  34
ATOM     34  O   UNL     1     127.411 144.284 137.882  1.00  0.00    -0.507 OA
ATOM     35  H   UNL     1     127.238 145.140 138.394  1.00  0.00     0.293 HD
ENDBRANCH  10  34
BRANCH   9  36
ATOM     36  C   UNL     1     128.128 140.064 142.525  1.00  0.00     0.017 C 
ATOM     37  C   UNL     1     129.395 140.170 143.380  1.00  0.00     0.012 C 
ATOM     38  C   UNL     1     126.962 139.455 143.326  1.00  0.00     0.012 C 
ENDBRANCH   9  36
BRANCH   6  39
ATOM     39  C   UNL     1     125.999 144.879 140.062  1.00  0.00     0.264 C 
ATOM     40  O   UNL     1     124.876 144.672 139.529  1.00  0.00    -0.298 OA
ENDBRANCH   6  39
BRANCH   8  41
ATOM     41  O   UNL     1     127.407 142.390 144.051  1.00  0.00    -0.504 OA
ATOM     42  H   UNL     1     126.932 143.006 144.695  1.00  0.00     0.293 HD
ENDBRANCH   8  41
BRANCH   7  43
ATOM     43  O   UNL     1     126.036 144.555 142.816  1.00  0.00    -0.504 OA
ATOM     44  H   UNL     1     125.752 145.461 142.469  1.00  0.00     0.293 HD
ENDBRANCH   7  43
TORSDOF 11
ENDMDL
MODEL 4
REMARK VINA RESULT:    -4.743     11.596     16.097
REMARK INTER + INTRA:          -8.278
REMARK INTER:                  -6.812
REMARK INTRA:                  -1.466
REMARK UNBOUND:                -1.317
REMARK SMILES Cc1cc2c(C(C)C)c(O)c(O)c(C=O)c2c(O)c1-c1c(C)cc2c(C(C)C)c(O)c(O)c(C=O)c2c1O
REMARK SMILES IDX 1 1 2 2 3 3 4 4 16 5 13 6 11 7 9 8 5 9 17 10 19 11 20 12
REMARK SMILES IDX 37 13 21 14 36 15 23 16 22 17 24 18 33 19 25 20 31 21 29 22
REMARK SMILES IDX 38 23 34 25 35 26 26 27 27 28 28 29 32 30 30 32 18 34 6 36
REMARK SMILES IDX 7 37 8 38 14 39 15 40 10 41 12 43
REMARK H PARENT 38 24 32 31 30 33 18 35 10 42 12 44
REMARK Flexibility Score: inf
ROOT
ATOM      1  C   UNL     1     131.469 142.099 137.176  1.00  0.00     0.045 C 
ATOM      2  C   UNL     1     130.256 142.497 137.982  1.00  0.00    -0.039 A 
ATOM      3  C   UNL     1     130.370 142.644 139.365  1.00  0.00     0.013 A 
ATOM      4  C   UNL     1     129.263 142.984 140.175  1.00  0.00    -0.006 A 
ATOM      5  C   UNL     1     128.008 143.245 139.546  1.00  0.00     0.039 A 
ATOM      6  C   UNL     1     126.896 143.617 140.357  1.00  0.00     0.072 A 
ATOM      7  C   UNL     1     127.086 143.898 141.723  1.00  0.00     0.169 A 
ATOM      8  C   UNL     1     128.350 143.726 142.314  1.00  0.00     0.162 A 
ATOM      9  C   UNL     1     129.395 143.111 141.592  1.00  0.00     0.008 A 
ATOM     10  C   UNL     1     127.916 143.169 138.122  1.00  0.00     0.132 A 
ATOM     11  C   UNL     1     129.030 142.767 137.355  1.00  0.00     0.031 A 
ENDROOT
BRANCH  11  12
ATOM     12  C   UNL     1     128.926 142.670 135.875  1.00  0.00     0.031 A 
ATOM     13  C   UNL     1     128.525 141.459 135.271  1.00  0.00     0.132 A 
ATOM     14  C   UNL     1     129.191 143.798 135.080  1.00  0.00    -0.039 A 
ATOM     15  C   UNL     1     128.475 141.341 133.851  1.00  0.00     0.039 A 
ATOM     16  C   UNL     1     129.041 143.713 133.695  1.00  0.00     0.013 A 
ATOM     17  C   UNL     1     129.549 145.125 135.703  1.00  0.00     0.045 C 
ATOM     18  C   UNL     1     128.726 142.497 133.050  1.00  0.00    -0.006 A 
ATOM     19  C   UNL     1     128.138 140.115 133.205  1.00  0.00     0.072 A 
ATOM     20  C   UNL     1     128.612 142.422 131.626  1.00  0.00     0.008 A 
ATOM     21  C   UNL     1     127.877 140.100 131.822  1.00  0.00     0.169 A 
ATOM     22  C   UNL     1     128.030 141.268 131.056  1.00  0.00     0.162 A 
BRANCH  13  23
ATOM     23  O   UNL     1     128.132 140.390 136.084  1.00  0.00    -0.507 OA
ATOM     24  H   UNL     1     127.316 139.816 135.908  1.00  0.00     0.293 HD
ENDBRANCH  13  23
BRANCH  19  25
ATOM     25  C   UNL     1     128.142 138.819 133.925  1.00  0.00     0.264 C 
ATOM     26  O   UNL     1     127.065 138.228 134.210  1.00  0.00    -0.298 OA
ENDBRANCH  19  25
BRANCH  20  27
ATOM     27  C   UNL     1     129.059 143.579 130.714  1.00  0.00     0.017 C 
ATOM     28  C   UNL     1     130.559 143.852 130.872  1.00  0.00     0.012 C 
ATOM     29  C   UNL     1     128.234 144.867 130.893  1.00  0.00     0.012 C 
ENDBRANCH  20  27
BRANCH  21  30
ATOM     30  O   UNL     1     127.514 138.889 131.220  1.00  0.00    -0.504 OA
ATOM     31  H   UNL     1     126.559 138.579 131.101  1.00  0.00     0.293 HD
ENDBRANCH  21  30
BRANCH  22  32
ATOM     32  O   UNL     1     127.601 141.308 129.727  1.00  0.00    -0.504 OA
ATOM     33  H   UNL     1     128.054 140.816 128.970  1.00  0.00     0.293 HD
ENDBRANCH  22  32
ENDBRANCH  11  12
BRANCH  10  34
ATOM     34  O   UNL     1     126.733 143.534 137.470  1.00  0.00    -0.507 OA
ATOM     35  H   UNL     1     125.867 143.752 137.947  1.00  0.00     0.293 HD
ENDBRANCH  10  34
BRANCH   9  36
ATOM     36  C   UNL     1     130.660 142.644 142.334  1.00  0.00     0.017 C 
ATOM     37  C   UNL     1     131.511 143.839 142.776  1.00  0.00     0.012 C 
ATOM     38  C   UNL     1     130.375 141.694 143.513  1.00  0.00     0.012 C 
ENDBRANCH   9  36
BRANCH   6  39
ATOM     39  C   UNL     1     125.509 143.641 139.834  1.00  0.00     0.264 C 
ATOM     40  O   UNL     1     124.952 144.726 139.517  1.00  0.00    -0.298 OA
ENDBRANCH   6  39
BRANCH   8  41
ATOM     41  O   UNL     1     128.592 144.172 143.616  1.00  0.00    -0.504 OA
ATOM     42  H   UNL     1     128.260 145.052 143.986  1.00  0.00     0.293 HD
ENDBRANCH   8  41
BRANCH   7  43
ATOM     43  O   UNL     1     125.984 144.301 142.486  1.00  0.00    -0.504 OA
ATOM     44  H   UNL     1     125.125 143.775 142.563  1.00  0.00     0.293 HD
ENDBRANCH   7  43
TORSDOF 11
ENDMDL
MODEL 5
REMARK VINA RESULT:    -4.721     18.264     20.514
REMARK INTER + INTRA:          -8.246
REMARK INTER:                  -6.923
REMARK INTRA:                  -1.323
REMARK UNBOUND:                -1.317
REMARK SMILES Cc1cc2c(C(C)C)c(O)c(O)c(C=O)c2c(O)c1-c1c(C)cc2c(C(C)C)c(O)c(O)c(C=O)c2c1O
REMARK SMILES IDX 1 1 2 2 3 3 4 4 16 5 13 6 11 7 9 8 5 9 17 10 19 11 20 12
REMARK SMILES IDX 37 13 21 14 36 15 23 16 22 17 24 18 33 19 25 20 31 21 29 22
REMARK SMILES IDX 38 23 34 25 35 26 26 27 27 28 28 29 32 30 30 32 18 34 6 36
REMARK SMILES IDX 7 37 8 38 14 39 15 40 10 41 12 43
REMARK H PARENT 38 24 32 31 30 33 18 35 10 42 12 44
REMARK Flexibility Score: inf
ROOT
ATOM      1  C   UNL     1     129.941 129.837 132.244  1.00  0.00     0.045 C 
ATOM      2  C   UNL     1     129.113 128.830 131.483  1.00  0.00    -0.039 A 
ATOM      3  C   UNL     1     128.935 128.988 130.108  1.00  0.00     0.013 A 
ATOM      4  C   UNL     1     128.144 128.096 129.348  1.00  0.00    -0.006 A 
ATOM      5  C   UNL     1     127.566 126.966 130.002  1.00  0.00     0.039 A 
ATOM      6  C   UNL     1     126.793 126.048 129.233  1.00  0.00     0.072 A 
ATOM      7  C   UNL     1     126.760 126.160 127.831  1.00  0.00     0.169 A 
ATOM      8  C   UNL     1     127.412 127.226 127.188  1.00  0.00     0.162 A 
ATOM      9  C   UNL     1     127.958 128.285 127.944  1.00  0.00     0.008 A 
ATOM     10  C   UNL     1     127.816 126.767 131.394  1.00  0.00     0.132 A 
ATOM     11  C   UNL     1     128.560 127.714 132.130  1.00  0.00     0.031 A 
ENDROOT
BRANCH  11  12
ATOM     12  C   UNL     1     128.802 127.514 133.583  1.00  0.00     0.031 A 
ATOM     13  C   UNL     1     129.939 126.801 134.019  1.00  0.00     0.132 A 
ATOM     14  C   UNL     1     127.916 128.067 134.523  1.00  0.00    -0.039 A 
ATOM     15  C   UNL     1     130.150 126.556 135.409  1.00  0.00     0.039 A 
ATOM     16  C   UNL     1     128.177 127.919 135.885  1.00  0.00     0.013 A 
ATOM     17  C   UNL     1     126.733 128.896 134.084  1.00  0.00     0.045 C 
ATOM     18  C   UNL     1     129.256 127.140 136.358  1.00  0.00    -0.006 A 
ATOM     19  C   UNL     1     131.252 125.785 135.882  1.00  0.00     0.072 A 
ATOM     20  C   UNL     1     129.487 126.969 137.760  1.00  0.00     0.008 A 
ATOM     21  C   UNL     1     131.551 125.761 137.257  1.00  0.00     0.169 A 
ATOM     22  C   UNL     1     130.720 126.422 138.178  1.00  0.00     0.162 A 
BRANCH  13  23
ATOM     23  O   UNL     1     130.882 126.377 133.076  1.00  0.00    -0.507 OA
ATOM     24  H   UNL     1     131.721 125.859 133.308  1.00  0.00     0.293 HD
ENDBRANCH  13  23
BRANCH  19  25
ATOM     25  C   UNL     1     132.051 124.920 134.982  1.00  0.00     0.264 C 
ATOM     26  O   UNL     1     133.216 125.247 134.630  1.00  0.00    -0.298 OA
ENDBRANCH  19  25
BRANCH  20  27
ATOM     27  C   UNL     1     128.453 127.408 138.812  1.00  0.00     0.017 C 
ATOM     28  C   UNL     1     128.872 128.724 139.476  1.00  0.00     0.012 C 
ATOM     29  C   UNL     1     128.136 126.328 139.863  1.00  0.00     0.012 C 
ENDBRANCH  20  27
BRANCH  21  30
ATOM     30  O   UNL     1     132.660 125.024 137.692  1.00  0.00    -0.504 OA
ATOM     31  H   UNL     1     133.613 125.222 137.421  1.00  0.00     0.293 HD
ENDBRANCH  21  30
BRANCH  22  32
ATOM     32  O   UNL     1     131.106 126.557 139.514  1.00  0.00    -0.504 OA
ATOM     33  H   UNL     1     131.771 127.242 139.846  1.00  0.00     0.293 HD
ENDBRANCH  22  32
ENDBRANCH  11  12
BRANCH  10  34
ATOM     34  O   UNL     1     127.361 125.609 132.036  1.00  0.00    -0.507 OA
ATOM     35  H   UNL     1     127.880 124.740 132.070  1.00  0.00     0.293 HD
ENDBRANCH  10  34
BRANCH   9  36
ATOM     36  C   UNL     1     128.383 129.585 127.237  1.00  0.00     0.017 C 
ATOM     37  C   UNL     1     129.619 129.356 126.362  1.00  0.00     0.012 C 
ATOM     38  C   UNL     1     127.250 130.258 126.440  1.00  0.00     0.012 C 
ENDBRANCH   9  36
BRANCH   6  39
ATOM     39  C   UNL     1     125.939 125.012 129.863  1.00  0.00     0.264 C 
ATOM     40  O   UNL     1     124.878 125.321 130.467  1.00  0.00    -0.298 OA
ENDBRANCH   6  39
BRANCH   8  41
ATOM     41  O   UNL     1     127.539 127.247 125.796  1.00  0.00    -0.504 OA
ATOM     42  H   UNL     1     126.954 127.793 125.181  1.00  0.00     0.293 HD
ENDBRANCH   8  41
BRANCH   7  43
ATOM     43  O   UNL     1     126.026 125.220 127.098  1.00  0.00    -0.504 OA
ATOM     44  H   UNL     1     126.291 124.883 126.183  1.00  0.00     0.293 HD
ENDBRANCH   7  43
TORSDOF 11
ENDMDL
MODEL 6
REMARK VINA RESULT:    -4.688     18.008     21.520
REMARK INTER + INTRA:          -8.198
REMARK INTER:                  -6.748
REMARK INTRA:                  -1.450
REMARK UNBOUND:                -1.317
REMARK SMILES Cc1cc2c(C(C)C)c(O)c(O)c(C=O)c2c(O)c1-c1c(C)cc2c(C(C)C)c(O)c(O)c(C=O)c2c1O
REMARK SMILES IDX 1 1 2 2 3 3 4 4 16 5 13 6 11 7 9 8 5 9 17 10 19 11 20 12
REMARK SMILES IDX 37 13 21 14 36 15 23 16 22 17 24 18 33 19 25 20 31 21 29 22
REMARK SMILES IDX 38 23 34 25 35 26 26 27 27 28 28 29 32 30 30 32 18 34 6 36
REMARK SMILES IDX 7 37 8 38 14 39 15 40 10 41 12 43
REMARK H PARENT 38 24 32 31 30 33 18 35 10 42 12 44
REMARK Flexibility Score: inf
ROOT
ATOM      1  C   UNL     1     126.512 129.760 134.720  1.00  0.00     0.045 C 
ATOM      2  C   UNL     1     127.674 128.897 135.150  1.00  0.00    -0.039 A 
ATOM      3  C   UNL     1     127.873 128.641 136.508  1.00  0.00     0.013 A 
ATOM      4  C   UNL     1     128.960 127.868 136.972  1.00  0.00    -0.006 A 
ATOM      5  C   UNL     1     129.842 127.281 136.014  1.00  0.00     0.039 A 
ATOM      6  C   UNL     1     130.923 126.475 136.478  1.00  0.00     0.072 A 
ATOM      7  C   UNL     1     131.002 126.121 137.838  1.00  0.00     0.169 A 
ATOM      8  C   UNL     1     130.072 126.632 138.759  1.00  0.00     0.162 A 
ATOM      9  C   UNL     1     129.158 127.633 138.368  1.00  0.00     0.008 A 
ATOM     10  C   UNL     1     129.588 127.481 134.623  1.00  0.00     0.132 A 
ATOM     11  C   UNL     1     128.527 128.311 134.202  1.00  0.00     0.031 A 
ENDROOT
BRANCH  11  12
ATOM     12  C   UNL     1     128.277 128.533 132.754  1.00  0.00     0.031 A 
ATOM     13  C   UNL     1     127.443 127.650 132.035  1.00  0.00     0.132 A 
ATOM     14  C   UNL     1     128.844 129.646 132.109  1.00  0.00    -0.039 A 
ATOM     15  C   UNL     1     127.243 127.824 130.634  1.00  0.00     0.039 A 
ATOM     16  C   UNL     1     128.564 129.876 130.762  1.00  0.00     0.013 A 
ATOM     17  C   UNL     1     129.679 130.646 132.870  1.00  0.00     0.045 C 
ATOM     18  C   UNL     1     127.805 128.968 129.990  1.00  0.00    -0.006 A 
ATOM     19  C   UNL     1     126.460 126.915 129.863  1.00  0.00     0.072 A 
ATOM     20  C   UNL     1     127.559 129.204 128.601  1.00  0.00     0.008 A 
ATOM     21  C   UNL     1     126.099 127.245 128.544  1.00  0.00     0.169 A 
ATOM     22  C   UNL     1     126.577 128.425 127.949  1.00  0.00     0.162 A 
BRANCH  13  23
ATOM     23  O   UNL     1     126.778 126.629 132.723  1.00  0.00    -0.507 OA
ATOM     24  H   UNL     1     126.225 125.910 132.272  1.00  0.00     0.293 HD
ENDBRANCH  13  23
BRANCH  19  25
ATOM     25  C   UNL     1     126.082 125.574 130.372  1.00  0.00     0.264 C 
ATOM     26  O   UNL     1     124.876 125.270 130.576  1.00  0.00    -0.298 OA
ENDBRANCH  19  25
BRANCH  20  27
ATOM     27  C   UNL     1     128.296 130.307 127.821  1.00  0.00     0.017 C 
ATOM     28  C   UNL     1     127.349 131.460 127.475  1.00  0.00     0.012 C 
ATOM     29  C   UNL     1     129.037 129.796 126.571  1.00  0.00     0.012 C 
ENDBRANCH  20  27
BRANCH  21  30
ATOM     30  O   UNL     1     125.300 126.350 127.821  1.00  0.00    -0.504 OA
ATOM     31  H   UNL     1     125.418 125.346 127.836  1.00  0.00     0.293 HD
ENDBRANCH  21  30
BRANCH  22  32
ATOM     32  O   UNL     1     126.081 128.850 126.714  1.00  0.00    -0.504 OA
ATOM     33  H   UNL     1     126.367 129.701 126.250  1.00  0.00     0.293 HD
ENDBRANCH  22  32
ENDBRANCH  11  12
BRANCH  10  34
ATOM     34  O   UNL     1     130.363 126.823 133.661  1.00  0.00    -0.507 OA
ATOM     35  H   UNL     1     131.226 126.335 133.866  1.00  0.00     0.293 HD
ENDBRANCH  10  34
BRANCH   9  36
ATOM     36  C   UNL     1     128.368 128.404 139.440  1.00  0.00     0.017 C 
ATOM     37  C   UNL     1     127.446 127.465 140.225  1.00  0.00     0.012 C 
ATOM     38  C   UNL     1     129.253 129.238 140.385  1.00  0.00     0.012 C 
ENDBRANCH   9  36
BRANCH   6  39
ATOM     39  C   UNL     1     132.033 126.055 135.590  1.00  0.00     0.264 C 
ATOM     40  O   UNL     1     132.107 124.875 135.154  1.00  0.00    -0.298 OA
ENDBRANCH   6  39
BRANCH   8  41
ATOM     41  O   UNL     1     130.031 126.147 140.070  1.00  0.00    -0.504 OA
ATOM     42  H   UNL     1     129.569 125.291 140.344  1.00  0.00     0.293 HD
ENDBRANCH   8  41
BRANCH   7  43
ATOM     43  O   UNL     1     132.051 125.296 138.258  1.00  0.00    -0.504 OA
ATOM     44  H   UNL     1     132.844 125.049 137.681  1.00  0.00     0.293 HD
ENDBRANCH   7  43
TORSDOF 11
ENDMDL
MODEL 7
REMARK VINA RESULT:    -4.688     18.128     20.189
REMARK INTER + INTRA:          -8.198
REMARK INTER:                  -6.709
REMARK INTRA:                  -1.489
REMARK UNBOUND:                -1.317
REMARK SMILES Cc1cc2c(C(C)C)c(O)c(O)c(C=O)c2c(O)c1-c1c(C)cc2c(C(C)C)c(O)c(O)c(C=O)c2c1O
REMARK SMILES IDX 1 1 2 2 3 3 4 4 16 5 13 6 11 7 9 8 5 9 17 10 19 11 20 12
REMARK SMILES IDX 37 13 21 14 36 15 23 16 22 17 24 18 33 19 25 20 31 21 29 22
REMARK SMILES IDX 38 23 34 25 35 26 26 27 27 28 28 29 32 30 30 32 18 34 6 36
REMARK SMILES IDX 7 37 8 38 14 39 15 40 10 41 12 43
REMARK H PARENT 38 24 32 31 30 33 18 35 10 42 12 44
REMARK Flexibility Score: inf
ROOT
ATOM      1  C   UNL     1     131.340 128.048 132.811  1.00  0.00     0.045 C 
ATOM      2  C   UNL     1     130.130 127.627 132.011  1.00  0.00    -0.039 A 
ATOM      3  C   UNL     1     130.225 127.533 130.622  1.00  0.00     0.013 A 
ATOM      4  C   UNL     1     129.119 127.176 129.819  1.00  0.00    -0.006 A 
ATOM      5  C   UNL     1     127.887 126.840 130.459  1.00  0.00     0.039 A 
ATOM      6  C   UNL     1     126.778 126.450 129.653  1.00  0.00     0.072 A 
ATOM      7  C   UNL     1     126.954 126.225 128.275  1.00  0.00     0.169 A 
ATOM      8  C   UNL     1     128.199 126.471 127.670  1.00  0.00     0.162 A 
ATOM      9  C   UNL     1     129.230 127.104 128.396  1.00  0.00     0.008 A 
ATOM     10  C   UNL     1     127.818 126.862 131.885  1.00  0.00     0.132 A 
ATOM     11  C   UNL     1     128.928 127.284 132.648  1.00  0.00     0.031 A 
ENDROOT
BRANCH  11  12
ATOM     12  C   UNL     1     128.846 127.324 134.132  1.00  0.00     0.031 A 
ATOM     13  C   UNL     1     128.431 128.504 134.786  1.00  0.00     0.132 A 
ATOM     14  C   UNL     1     129.147 126.174 134.881  1.00  0.00    -0.039 A 
ATOM     15  C   UNL     1     128.402 128.569 136.211  1.00  0.00     0.039 A 
ATOM     16  C   UNL     1     129.018 126.205 136.270  1.00  0.00     0.013 A 
ATOM     17  C   UNL     1     129.522 124.878 134.203  1.00  0.00     0.045 C 
ATOM     18  C   UNL     1     128.690 127.390 136.964  1.00  0.00    -0.006 A 
ATOM     19  C   UNL     1     128.051 129.763 136.907  1.00  0.00     0.072 A 
ATOM     20  C   UNL     1     128.598 127.410 138.392  1.00  0.00     0.008 A 
ATOM     21  C   UNL     1     127.813 129.722 138.293  1.00  0.00     0.169 A 
ATOM     22  C   UNL     1     128.002 128.530 139.013  1.00  0.00     0.162 A 
BRANCH  13  23
ATOM     23  O   UNL     1     128.002 129.594 134.020  1.00  0.00    -0.507 OA
ATOM     24  H   UNL     1     127.813 130.513 134.401  1.00  0.00     0.293 HD
ENDBRANCH  13  23
BRANCH  19  25
ATOM     25  C   UNL     1     128.016 131.084 136.235  1.00  0.00     0.264 C 
ATOM     26  O   UNL     1     126.927 131.688 136.039  1.00  0.00    -0.298 OA
ENDBRANCH  19  25
BRANCH  20  27
ATOM     27  C   UNL     1     129.084 126.231 139.253  1.00  0.00     0.017 C 
ATOM     28  C   UNL     1     127.899 125.442 139.820  1.00  0.00     0.012 C 
ATOM     29  C   UNL     1     130.069 126.636 140.365  1.00  0.00     0.012 C 
ENDBRANCH  20  27
BRANCH  21  30
ATOM     30  O   UNL     1     127.435 130.902 138.946  1.00  0.00    -0.504 OA
ATOM     31  H   UNL     1     127.800 131.817 138.720  1.00  0.00     0.293 HD
ENDBRANCH  21  30
BRANCH  22  32
ATOM     32  O   UNL     1     127.596 128.433 140.346  1.00  0.00    -0.504 OA
ATOM     33  H   UNL     1     126.677 128.689 140.679  1.00  0.00     0.293 HD
ENDBRANCH  22  32
ENDBRANCH  11  12
BRANCH  10  34
ATOM     34  O   UNL     1     126.663 126.425 132.544  1.00  0.00    -0.507 OA
ATOM     35  H   UNL     1     126.514 126.509 133.542  1.00  0.00     0.293 HD
ENDBRANCH  10  34
BRANCH   9  36
ATOM     36  C   UNL     1     130.462 127.650 127.650  1.00  0.00     0.017 C 
ATOM     37  C   UNL     1     131.248 126.516 126.984  1.00  0.00     0.012 C 
ATOM     38  C   UNL     1     130.133 128.769 126.644  1.00  0.00     0.012 C 
ENDBRANCH   9  36
BRANCH   6  39
ATOM     39  C   UNL     1     125.402 126.348 130.197  1.00  0.00     0.264 C 
ATOM     40  O   UNL     1     124.875 125.228 130.430  1.00  0.00    -0.298 OA
ENDBRANCH   6  39
BRANCH   8  41
ATOM     41  O   UNL     1     128.436 126.081 126.349  1.00  0.00    -0.504 OA
ATOM     42  H   UNL     1     128.882 125.214 126.084  1.00  0.00     0.293 HD
ENDBRANCH   8  41
BRANCH   7  43
ATOM     43  O   UNL     1     125.857 125.803 127.516  1.00  0.00    -0.504 OA
ATOM     44  H   UNL     1     125.350 126.397 126.874  1.00  0.00     0.293 HD
ENDBRANCH   7  43
TORSDOF 11
ENDMDL
MODEL 8
REMARK VINA RESULT:    -4.668     14.153     18.096
REMARK INTER + INTRA:          -8.168
REMARK INTER:                  -6.673
REMARK INTRA:                  -1.494
REMARK UNBOUND:                -1.317
REMARK SMILES Cc1cc2c(C(C)C)c(O)c(O)c(C=O)c2c(O)c1-c1c(C)cc2c(C(C)C)c(O)c(O)c(C=O)c2c1O
REMARK SMILES IDX 1 1 2 2 3 3 4 4 16 5 13 6 11 7 9 8 5 9 17 10 19 11 20 12
REMARK SMILES IDX 37 13 21 14 36 15 23 16 22 17 24 18 33 19 25 20 31 21 29 22
REMARK SMILES IDX 38 23 34 25 35 26 26 27 27 28 28 29 32 30 30 32 18 34 6 36
REMARK SMILES IDX 7 37 8 38 14 39 15 40 10 41 12 43
REMARK H PARENT 38 24 32 31 30 33 18 35 10 42 12 44
REMARK Flexibility Score: inf
ROOT
ATOM      1  C   UNL     1     138.529 127.957 137.217  1.00  0.00     0.045 C 
ATOM      2  C   UNL     1     139.743 127.548 138.017  1.00  0.00    -0.039 A 
ATOM      3  C   UNL     1     139.643 127.433 139.404  1.00  0.00     0.013 A 
ATOM      4  C   UNL     1     140.752 127.086 140.208  1.00  0.00    -0.006 A 
ATOM      5  C   UNL     1     141.993 126.784 139.570  1.00  0.00     0.039 A 
ATOM      6  C   UNL     1     143.106 126.404 140.376  1.00  0.00     0.072 A 
ATOM      7  C   UNL     1     142.927 126.157 141.749  1.00  0.00     0.169 A 
ATOM      8  C   UNL     1     141.674 126.368 142.351  1.00  0.00     0.162 A 
ATOM      9  C   UNL     1     140.634 126.991 141.629  1.00  0.00     0.008 A 
ATOM     10  C   UNL     1     142.069 126.828 138.144  1.00  0.00     0.132 A 
ATOM     11  C   UNL     1     140.955 127.239 137.381  1.00  0.00     0.031 A 
ENDROOT
BRANCH  11  12
ATOM     12  C   UNL     1     141.044 127.302 135.899  1.00  0.00     0.031 A 
ATOM     13  C   UNL     1     141.490 128.482 135.266  1.00  0.00     0.132 A 
ATOM     14  C   UNL     1     140.718 126.173 135.129  1.00  0.00    -0.039 A 
ATOM     15  C   UNL     1     141.526 128.570 133.843  1.00  0.00     0.039 A 
ATOM     16  C   UNL     1     140.852 126.223 133.742  1.00  0.00     0.013 A 
ATOM     17  C   UNL     1     140.308 124.875 135.784  1.00  0.00     0.045 C 
ATOM     18  C   UNL     1     141.213 127.412 133.069  1.00  0.00    -0.006 A 
ATOM     19  C   UNL     1     141.909 129.767 133.169  1.00  0.00     0.072 A 
ATOM     20  C   UNL     1     141.311 127.454 131.642  1.00  0.00     0.008 A 
ATOM     21  C   UNL     1     142.152 129.744 131.783  1.00  0.00     0.169 A 
ATOM     22  C   UNL     1     141.936 128.569 131.042  1.00  0.00     0.162 A 
BRANCH  13  23
ATOM     23  O   UNL     1     141.942 129.548 136.052  1.00  0.00    -0.507 OA
ATOM     24  H   UNL     1     142.382 130.380 135.678  1.00  0.00     0.293 HD
ENDBRANCH  13  23
BRANCH  19  25
ATOM     25  C   UNL     1     141.973 131.076 133.863  1.00  0.00     0.264 C 
ATOM     26  O   UNL     1     143.079 131.625 134.118  1.00  0.00    -0.298 OA
ENDBRANCH  19  25
BRANCH  20  27
ATOM     27  C   UNL     1     140.800 126.301 130.759  1.00  0.00     0.017 C 
ATOM     28  C   UNL     1     141.963 125.584 130.067  1.00  0.00     0.012 C 
ATOM     29  C   UNL     1     139.721 126.725 129.745  1.00  0.00     0.012 C 
ENDBRANCH  20  27
BRANCH  21  30
ATOM     30  O   UNL     1     142.561 130.925 131.152  1.00  0.00    -0.504 OA
ATOM     31  H   UNL     1     142.104 131.818 131.270  1.00  0.00     0.293 HD
ENDBRANCH  21  30
BRANCH  22  32
ATOM     32  O   UNL     1     142.345 128.484 129.709  1.00  0.00    -0.504 OA
ATOM     33  H   UNL     1     141.981 129.065 128.966  1.00  0.00     0.293 HD
ENDBRANCH  22  32
ENDBRANCH  11  12
BRANCH  10  34
ATOM     34  O   UNL     1     143.236 126.424 137.485  1.00  0.00    -0.507 OA
ATOM     35  H   UNL     1     143.250 126.001 136.566  1.00  0.00     0.293 HD
ENDBRANCH  10  34
BRANCH   9  36
ATOM     36  C   UNL     1     139.389 127.502 142.376  1.00  0.00     0.017 C 
ATOM     37  C   UNL     1     138.502 126.336 142.827  1.00  0.00     0.012 C 
ATOM     38  C   UNL     1     139.711 128.446 143.549  1.00  0.00     0.012 C 
ENDBRANCH   9  36
BRANCH   6  39
ATOM     39  C   UNL     1     144.486 126.338 139.838  1.00  0.00     0.264 C 
ATOM     40  O   UNL     1     145.027 125.233 139.566  1.00  0.00    -0.298 OA
ENDBRANCH   6  39
BRANCH   8  41
ATOM     41  O   UNL     1     141.438 125.955 143.666  1.00  0.00    -0.504 OA
ATOM     42  H   UNL     1     140.519 125.803 144.056  1.00  0.00     0.293 HD
ENDBRANCH   8  41
BRANCH   7  43
ATOM     43  O   UNL     1     144.029 125.745 142.508  1.00  0.00    -0.504 OA
ATOM     44  H   UNL     1     144.369 124.794 142.543  1.00  0.00     0.293 HD
ENDBRANCH   7  43
TORSDOF 11
ENDMDL
MODEL 9
REMARK VINA RESULT:    -4.659      2.364      3.411
REMARK INTER + INTRA:          -8.156
REMARK INTER:                  -6.720
REMARK INTRA:                  -1.436
REMARK UNBOUND:                -1.317
REMARK SMILES Cc1cc2c(C(C)C)c(O)c(O)c(C=O)c2c(O)c1-c1c(C)cc2c(C(C)C)c(O)c(O)c(C=O)c2c1O
REMARK SMILES IDX 1 1 2 2 3 3 4 4 16 5 13 6 11 7 9 8 5 9 17 10 19 11 20 12
REMARK SMILES IDX 37 13 21 14 36 15 23 16 22 17 24 18 33 19 25 20 31 21 29 22
REMARK SMILES IDX 38 23 34 25 35 26 26 27 27 28 28 29 32 30 30 32 18 34 6 36
REMARK SMILES IDX 7 37 8 38 14 39 15 40 10 41 12 43
REMARK H PARENT 38 24 32 31 30 33 18 35 10 42 12 44
REMARK Flexibility Score: inf
ROOT
ATOM      1  C   UNL     1     138.600 142.018 132.830  1.00  0.00     0.045 C 
ATOM      2  C   UNL     1     139.805 142.434 132.020  1.00  0.00    -0.039 A 
ATOM      3  C   UNL     1     139.692 142.551 130.634  1.00  0.00     0.013 A 
ATOM      4  C   UNL     1     140.792 142.906 129.821  1.00  0.00    -0.006 A 
ATOM      5  C   UNL     1     142.037 143.214 130.449  1.00  0.00     0.039 A 
ATOM      6  C   UNL     1     143.141 143.601 129.634  1.00  0.00     0.072 A 
ATOM      7  C   UNL     1     142.949 143.850 128.262  1.00  0.00     0.169 A 
ATOM      8  C   UNL     1     141.692 143.631 127.671  1.00  0.00     0.162 A 
ATOM      9  C   UNL     1     140.662 143.002 128.401  1.00  0.00     0.008 A 
ATOM     10  C   UNL     1     142.125 143.169 131.874  1.00  0.00     0.132 A 
ATOM     11  C   UNL     1     141.020 142.751 132.646  1.00  0.00     0.031 A 
ENDROOT
BRANCH  11  12
ATOM     12  C   UNL     1     141.122 142.686 134.127  1.00  0.00     0.031 A 
ATOM     13  C   UNL     1     141.554 141.499 134.756  1.00  0.00     0.132 A 
ATOM     14  C   UNL     1     140.823 143.821 134.900  1.00  0.00    -0.039 A 
ATOM     15  C   UNL     1     141.602 141.409 136.179  1.00  0.00     0.039 A 
ATOM     16  C   UNL     1     140.970 143.768 136.286  1.00  0.00     0.013 A 
ATOM     17  C   UNL     1     140.429 145.125 134.249  1.00  0.00     0.045 C 
ATOM     18  C   UNL     1     141.316 142.573 136.956  1.00  0.00    -0.006 A 
ATOM     19  C   UNL     1     141.971 140.207 136.849  1.00  0.00     0.072 A 
ATOM     20  C   UNL     1     141.427 142.530 138.381  1.00  0.00     0.008 A 
ATOM     21  C   UNL     1     142.227 140.226 138.233  1.00  0.00     0.169 A 
ATOM     22  C   UNL     1     142.039 141.404 138.975  1.00  0.00     0.162 A 
BRANCH  13  23
ATOM     23  O   UNL     1     141.980 140.425 133.966  1.00  0.00    -0.507 OA
ATOM     24  H   UNL     1     142.646 139.725 134.273  1.00  0.00     0.293 HD
ENDBRANCH  13  23
BRANCH  19  25
ATOM     25  C   UNL     1     142.006 138.897 136.155  1.00  0.00     0.264 C 
ATOM     26  O   UNL     1     143.100 138.332 135.884  1.00  0.00    -0.298 OA
ENDBRANCH  19  25
BRANCH  20  27
ATOM     27  C   UNL     1     140.944 143.691 139.268  1.00  0.00     0.017 C 
ATOM     28  C   UNL     1     142.106 144.288 140.070  1.00  0.00     0.012 C 
ATOM     29  C   UNL     1     139.762 143.324 140.185  1.00  0.00     0.012 C 
ENDBRANCH  20  27
BRANCH  21  30
ATOM     30  O   UNL     1     142.622 139.038 138.861  1.00  0.00    -0.504 OA
ATOM     31  H   UNL     1     142.081 138.185 138.850  1.00  0.00     0.293 HD
ENDBRANCH  21  30
BRANCH  22  32
ATOM     32  O   UNL     1     142.462 141.482 140.305  1.00  0.00    -0.504 OA
ATOM     33  H   UNL     1     142.181 142.210 140.948  1.00  0.00     0.293 HD
ENDBRANCH  22  32
ENDBRANCH  11  12
BRANCH  10  34
ATOM     34  O   UNL     1     143.296 143.579 132.523  1.00  0.00    -0.507 OA
ATOM     35  H   UNL     1     143.972 142.943 132.925  1.00  0.00     0.293 HD
ENDBRANCH  10  34
BRANCH   9  36
ATOM     36  C   UNL     1     139.413 142.484 127.664  1.00  0.00     0.017 C 
ATOM     37  C   UNL     1     138.602 143.644 127.078  1.00  0.00     0.012 C 
ATOM     38  C   UNL     1     139.719 141.418 126.595  1.00  0.00     0.012 C 
ENDBRANCH   9  36
BRANCH   6  39
ATOM     39  C   UNL     1     144.525 143.675 130.161  1.00  0.00     0.264 C 
ATOM     40  O   UNL     1     145.102 144.783 130.323  1.00  0.00    -0.298 OA
ENDBRANCH   6  39
BRANCH   8  41
ATOM     41  O   UNL     1     141.443 144.045 126.359  1.00  0.00    -0.504 OA
ATOM     42  H   UNL     1     140.525 144.070 125.937  1.00  0.00     0.293 HD
ENDBRANCH   8  41
BRANCH   7  43
ATOM     43  O   UNL     1     144.041 144.268 127.495  1.00  0.00    -0.504 OA
ATOM     44  H   UNL     1     144.208 143.979 126.541  1.00  0.00     0.293 HD
ENDBRANCH   7  43
TORSDOF 11
ENDMDL
