MODEL 1
REMARK VINA RESULT:    -4.577      0.000      0.000
REMARK INTER + INTRA:          -4.577
REMARK INTER:                  -4.577
REMARK INTRA:                   0.000
REMARK UNBOUND:                 0.000
REMARK SMILES CC(C)=C1CC[C@@H](C)CC1=O
REMARK SMILES IDX 8 1 7 2 6 3 5 4 4 5 2 6 1 7 3 8 10 9 11 10 9 11
REMARK H PARENT
REMARK Flexibility Score: inf
ROOT
ATOM      1  C   UNL     1      21.273 -48.214  -0.722  1.00  0.00     0.008 C 
ATOM      2  C   UNL     1      20.622 -49.412  -1.431  1.00  0.00    -0.006 C 
ATOM      3  C   UNL     1      19.963 -49.014  -2.764  1.00  0.00     0.008 C 
ATOM      4  C   UNL     1      18.745 -48.094  -2.581  1.00  0.00     0.039 C 
ATOM      5  C   UNL     1      17.759 -48.614  -1.544  1.00  0.00    -0.006 C 
ATOM      6  C   UNL     1      16.423 -48.342  -1.641  1.00  0.00    -0.070 C 
ATOM      7  C   UNL     1      15.875 -47.500  -2.771  1.00  0.00     0.039 C 
ATOM      8  C   UNL     1      15.424 -48.897  -0.652  1.00  0.00     0.039 C 
ATOM      9  C   UNL     1      18.346 -49.323  -0.370  1.00  0.00     0.159 C 
ATOM     10  O   UNL     1      17.811 -49.256   0.770  1.00  0.00    -0.295 OA
ATOM     11  C   UNL     1      19.605 -50.125  -0.527  1.00  0.00     0.084 C 
ENDROOT
TORSDOF 0
ENDMDL
MODEL 2
REMARK VINA RESULT:    -4.362      1.871      2.591
REMARK INTER + INTRA:          -4.362
REMARK INTER:                  -4.362
REMARK INTRA:                   0.000
REMARK UNBOUND:                 0.000
REMARK SMILES CC(C)=C1CC[C@@H](C)CC1=O
REMARK SMILES IDX 8 1 7 2 6 3 5 4 4 5 2 6 1 7 3 8 10 9 11 10 9 11
REMARK H PARENT
REMARK Flexibility Score: inf
ROOT
ATOM      1  C   UNL     1      22.802 -48.336  -3.917  1.00  0.00     0.008 C 
ATOM      2  C   UNL     1      22.029 -49.662  -3.839  1.00  0.00    -0.006 C 
ATOM      3  C   UNL     1      20.671 -49.589  -4.559  1.00  0.00     0.008 C 
ATOM      4  C   UNL     1      19.676 -48.638  -3.873  1.00  0.00     0.039 C 
ATOM      5  C   UNL     1      19.560 -48.881  -2.375  1.00  0.00    -0.006 C 
ATOM      6  C   UNL     1      18.396 -48.626  -1.705  1.00  0.00    -0.070 C 
ATOM      7  C   UNL     1      17.185 -48.075  -2.423  1.00  0.00     0.039 C 
ATOM      8  C   UNL     1      18.246 -48.914  -0.229  1.00  0.00     0.039 C 
ATOM      9  C   UNL     1      20.810 -49.294  -1.672  1.00  0.00     0.159 C 
ATOM     10  O   UNL     1      21.036 -48.948  -0.481  1.00  0.00    -0.295 OA
ATOM     11  C   UNL     1      21.836 -50.124  -2.386  1.00  0.00     0.084 C 
ENDROOT
TORSDOF 0
ENDMDL
MODEL 3
REMARK VINA RESULT:    -4.280      1.513      4.576
REMARK INTER + INTRA:          -4.280
REMARK INTER:                  -4.280
REMARK INTRA:                   0.000
REMARK UNBOUND:                 0.000
REMARK SMILES CC(C)=C1CC[C@@H](C)CC1=O
REMARK SMILES IDX 8 1 7 2 6 3 5 4 4 5 2 6 1 7 3 8 10 9 11 10 9 11
REMARK H PARENT
REMARK Flexibility Score: inf
ROOT
ATOM      1  C   UNL     1      13.308 -49.112  -3.183  1.00  0.00     0.008 C 
ATOM      2  C   UNL     1      13.691 -47.918  -2.295  1.00  0.00    -0.006 C 
ATOM      3  C   UNL     1      14.819 -47.071  -2.911  1.00  0.00     0.008 C 
ATOM      4  C   UNL     1      16.162 -47.816  -2.981  1.00  0.00     0.039 C 
ATOM      5  C   UNL     1      16.545 -48.475  -1.664  1.00  0.00    -0.006 C 
ATOM      6  C   UNL     1      17.854 -48.644  -1.312  1.00  0.00    -0.070 C 
ATOM      7  C   UNL     1      18.974 -48.199  -2.225  1.00  0.00     0.039 C 
ATOM      8  C   UNL     1      18.251 -49.246   0.017  1.00  0.00     0.039 C 
ATOM      9  C   UNL     1      15.422 -49.027  -0.849  1.00  0.00     0.159 C 
ATOM     10  O   UNL     1      15.574 -50.056  -0.137  1.00  0.00    -0.295 OA
ATOM     11  C   UNL     1      14.076 -48.363  -0.876  1.00  0.00     0.084 C 
ENDROOT
TORSDOF 0
ENDMDL
MODEL 4
REMARK VINA RESULT:    -4.277      1.653      2.918
REMARK INTER + INTRA:          -4.277
REMARK INTER:                  -4.277
REMARK INTRA:                   0.000
REMARK UNBOUND:                 0.000
REMARK SMILES CC(C)=C1CC[C@@H](C)CC1=O
REMARK SMILES IDX 8 1 7 2 6 3 5 4 4 5 2 6 1 7 3 8 10 9 11 10 9 11
REMARK H PARENT
REMARK Flexibility Score: inf
ROOT
ATOM      1  C   UNL     1      19.455 -49.752  -3.508  1.00  0.00     0.008 C 
ATOM      2  C   UNL     1      19.360 -48.437  -2.719  1.00  0.00    -0.006 C 
ATOM      3  C   UNL     1      19.817 -48.600  -1.258  1.00  0.00     0.008 C 
ATOM      4  C   UNL     1      18.881 -49.497  -0.431  1.00  0.00     0.039 C 
ATOM      5  C   UNL     1      17.415 -49.114  -0.572  1.00  0.00    -0.006 C 
ATOM      6  C   UNL     1      16.529 -49.324   0.446  1.00  0.00    -0.070 C 
ATOM      7  C   UNL     1      16.966 -49.960   1.746  1.00  0.00     0.039 C 
ATOM      8  C   UNL     1      15.082 -48.899   0.343  1.00  0.00     0.039 C 
ATOM      9  C   UNL     1      16.987 -48.617  -1.913  1.00  0.00     0.159 C 
ATOM     10  O   UNL     1      15.829 -48.845  -2.356  1.00  0.00    -0.295 OA
ATOM     11  C   UNL     1      17.945 -47.842  -2.770  1.00  0.00     0.084 C 
ENDROOT
TORSDOF 0
ENDMDL
MODEL 5
REMARK VINA RESULT:    -4.249      1.763      4.514
REMARK INTER + INTRA:          -4.249
REMARK INTER:                  -4.249
REMARK INTRA:                   0.000
REMARK UNBOUND:                 0.000
REMARK SMILES CC(C)=C1CC[C@@H](C)CC1=O
REMARK SMILES IDX 8 1 7 2 6 3 5 4 4 5 2 6 1 7 3 8 10 9 11 10 9 11
REMARK H PARENT
REMARK Flexibility Score: inf
ROOT
ATOM      1  C   UNL     1      14.531 -46.757  -3.128  1.00  0.00     0.008 C 
ATOM      2  C   UNL     1      14.891 -48.233  -3.354  1.00  0.00    -0.006 C 
ATOM      3  C   UNL     1      14.577 -49.105  -2.125  1.00  0.00     0.008 C 
ATOM      4  C   UNL     1      15.464 -48.777  -0.913  1.00  0.00     0.039 C 
ATOM      5  C   UNL     1      16.945 -48.722  -1.258  1.00  0.00    -0.006 C 
ATOM      6  C   UNL     1      17.899 -49.045  -0.335  1.00  0.00    -0.070 C 
ATOM      7  C   UNL     1      17.522 -49.453   1.071  1.00  0.00     0.039 C 
ATOM      8  C   UNL     1      19.371 -49.049  -0.678  1.00  0.00     0.039 C 
ATOM      9  C   UNL     1      17.290 -48.184  -2.607  1.00  0.00     0.159 C 
ATOM     10  O   UNL     1      18.351 -47.530  -2.799  1.00  0.00    -0.295 OA
ATOM     11  C   UNL     1      16.362 -48.404  -3.765  1.00  0.00     0.084 C 
ENDROOT
TORSDOF 0
ENDMDL
MODEL 6
REMARK VINA RESULT:    -4.164      4.442      6.813
REMARK INTER + INTRA:          -4.164
REMARK INTER:                  -4.164
REMARK INTRA:                   0.000
REMARK UNBOUND:                 0.000
REMARK SMILES CC(C)=C1CC[C@@H](C)CC1=O
REMARK SMILES IDX 8 1 7 2 6 3 5 4 4 5 2 6 1 7 3 8 10 9 11 10 9 11
REMARK H PARENT
REMARK Flexibility Score: inf
ROOT
ATOM      1  C   UNL     1      13.530 -49.546  -8.017  1.00  0.00     0.008 C 
ATOM      2  C   UNL     1      14.245 -48.188  -7.931  1.00  0.00    -0.006 C 
ATOM      3  C   UNL     1      15.669 -48.314  -7.361  1.00  0.00     0.008 C 
ATOM      4  C   UNL     1      15.690 -48.741  -5.884  1.00  0.00     0.039 C 
ATOM      5  C   UNL     1      14.755 -47.913  -5.013  1.00  0.00    -0.006 C 
ATOM      6  C   UNL     1      15.030 -47.690  -3.694  1.00  0.00    -0.070 C 
ATOM      7  C   UNL     1      16.265 -48.271  -3.042  1.00  0.00     0.039 C 
ATOM      8  C   UNL     1      14.142 -46.825  -2.830  1.00  0.00     0.039 C 
ATOM      9  C   UNL     1      13.478 -47.470  -5.648  1.00  0.00     0.159 C 
ATOM     10  O   UNL     1      12.419 -47.353  -4.975  1.00  0.00    -0.295 OA
ATOM     11  C   UNL     1      13.434 -47.168  -7.117  1.00  0.00     0.084 C 
ENDROOT
TORSDOF 0
ENDMDL
MODEL 7
REMARK VINA RESULT:    -4.125      2.039      4.507
REMARK INTER + INTRA:          -4.125
REMARK INTER:                  -4.125
REMARK INTRA:                   0.000
REMARK UNBOUND:                 0.000
REMARK SMILES CC(C)=C1CC[C@@H](C)CC1=O
REMARK SMILES IDX 8 1 7 2 6 3 5 4 4 5 2 6 1 7 3 8 10 9 11 10 9 11
REMARK H PARENT
REMARK Flexibility Score: inf
ROOT
ATOM      1  C   UNL     1      16.300 -47.829  -2.746  1.00  0.00     0.008 C 
ATOM      2  C   UNL     1      16.715 -49.267  -2.396  1.00  0.00    -0.006 C 
ATOM      3  C   UNL     1      17.342 -49.368  -0.993  1.00  0.00     0.008 C 
ATOM      4  C   UNL     1      18.695 -48.646  -0.886  1.00  0.00     0.039 C 
ATOM      5  C   UNL     1      19.654 -49.011  -2.010  1.00  0.00    -0.006 C 
ATOM      6  C   UNL     1      21.006 -48.999  -1.817  1.00  0.00    -0.070 C 
ATOM      7  C   UNL     1      21.604 -48.606  -0.485  1.00  0.00     0.039 C 
ATOM      8  C   UNL     1      21.970 -49.412  -2.906  1.00  0.00     0.039 C 
ATOM      9  C   UNL     1      19.041 -49.260  -3.348  1.00  0.00     0.159 C 
ATOM     10  O   UNL     1      19.650 -48.967  -4.412  1.00  0.00    -0.295 OA
ATOM     11  C   UNL     1      17.667 -49.857  -3.447  1.00  0.00     0.084 C 
ENDROOT
TORSDOF 0
ENDMDL
MODEL 8
REMARK VINA RESULT:    -3.968      2.934      4.299
REMARK INTER + INTRA:          -3.968
REMARK INTER:                  -3.968
REMARK INTRA:                   0.000
REMARK UNBOUND:                 0.000
REMARK SMILES CC(C)=C1CC[C@@H](C)CC1=O
REMARK SMILES IDX 8 1 7 2 6 3 5 4 4 5 2 6 1 7 3 8 10 9 11 10 9 11
REMARK H PARENT
REMARK Flexibility Score: inf
ROOT
ATOM      1  C   UNL     1      18.252 -47.923  -2.397  1.00  0.00     0.008 C 
ATOM      2  C   UNL     1      17.103 -48.935  -2.264  1.00  0.00    -0.006 C 
ATOM      3  C   UNL     1      16.974 -49.836  -3.506  1.00  0.00     0.008 C 
ATOM      4  C   UNL     1      16.534 -49.069  -4.763  1.00  0.00     0.039 C 
ATOM      5  C   UNL     1      15.319 -48.183  -4.524  1.00  0.00    -0.006 C 
ATOM      6  C   UNL     1      14.432 -47.913  -5.527  1.00  0.00    -0.070 C 
ATOM      7  C   UNL     1      14.632 -48.469  -6.919  1.00  0.00     0.039 C 
ATOM      8  C   UNL     1      13.192 -47.082  -5.292  1.00  0.00     0.039 C 
ATOM      9  C   UNL     1      15.224 -47.540  -3.180  1.00  0.00     0.159 C 
ATOM     10  O   UNL     1      14.706 -46.399  -3.036  1.00  0.00    -0.295 OA
ATOM     11  C   UNL     1      15.764 -48.243  -1.969  1.00  0.00     0.084 C 
ENDROOT
TORSDOF 0
ENDMDL
MODEL 9
REMARK VINA RESULT:    -3.891     19.848     21.086
REMARK INTER + INTRA:          -3.891
REMARK INTER:                  -3.891
REMARK INTRA:                   0.000
REMARK UNBOUND:                 0.000
REMARK SMILES CC(C)=C1CC[C@@H](C)CC1=O
REMARK SMILES IDX 8 1 7 2 6 3 5 4 4 5 2 6 1 7 3 8 10 9 11 10 9 11
REMARK H PARENT
REMARK Flexibility Score: inf
ROOT
ATOM      1  C   UNL     1      23.401 -30.012 -10.250  1.00  0.00     0.008 C 
ATOM      2  C   UNL     1      23.931 -31.358  -9.730  1.00  0.00    -0.006 C 
ATOM      3  C   UNL     1      25.465 -31.374  -9.614  1.00  0.00     0.008 C 
ATOM      4  C   UNL     1      26.173 -31.295 -10.976  1.00  0.00     0.039 C 
ATOM      5  C   UNL     1      25.628 -32.294 -11.987  1.00  0.00    -0.006 C 
ATOM      6  C   UNL     1      26.425 -32.814 -12.967  1.00  0.00    -0.070 C 
ATOM      7  C   UNL     1      27.875 -32.404 -13.098  1.00  0.00     0.039 C 
ATOM      8  C   UNL     1      25.915 -33.848 -13.944  1.00  0.00     0.039 C 
ATOM      9  C   UNL     1      24.164 -32.574 -11.917  1.00  0.00     0.159 C 
ATOM     10  O   UNL     1      23.497 -32.836 -12.955  1.00  0.00    -0.295 OA
ATOM     11  C   UNL     1      23.451 -32.532 -10.597  1.00  0.00     0.084 C 
ENDROOT
TORSDOF 0
ENDMDL
