MODEL 1
REMARK VINA RESULT:    26.219      0.000      0.000
REMARK INTER + INTRA:          31.330
REMARK INTER:                  31.583
REMARK INTRA:                  -0.253
REMARK UNBOUND:                -0.253
REMARK SMILES O=c1c(O)c(-c2ccc(O)c(O)c2)oc2cc(O)cc(O)c12
REMARK SMILES IDX 5 1 3 2 2 3 1 4 22 5 20 6 19 7 17 8 16 9 15 10 14 11 6 12
REMARK SMILES IDX 7 13 8 14 9 15 13 16 11 17 10 18 12 20 4 22 21 24 18 26
REMARK H PARENT 10 19 12 21 4 23 21 25 18 27
REMARK Flexibility Score: inf
ROOT
ATOM      1  C   UNL     1      29.414  33.475  49.132  1.00  0.00     0.180 A 
ATOM      2  C   UNL     1      29.839  32.516  50.066  1.00  0.00     0.208 A 
ATOM      3  C   UNL     1      29.524  31.166  49.847  1.00  0.00     0.238 A 
ATOM      4  O   UNL     1      29.843  30.321  50.724  1.00  0.00    -0.285 OA
ATOM      5  C   UNL     1      28.837  30.784  48.668  1.00  0.00     0.111 A 
ATOM      6  C   UNL     1      28.506  29.438  48.320  1.00  0.00     0.134 A 
ATOM      7  C   UNL     1      27.730  29.192  47.181  1.00  0.00     0.093 A 
ATOM      8  C   UNL     1      27.329  30.235  46.342  1.00  0.00     0.123 A 
ATOM      9  C   UNL     1      27.695  31.544  46.642  1.00  0.00     0.094 A 
ATOM     10  C   UNL     1      28.435  31.826  47.793  1.00  0.00     0.146 A 
ATOM     11  O   UNL     1      28.742  33.092  48.053  1.00  0.00    -0.452 OA
ENDROOT
BRANCH   1  12
ATOM     12  C   UNL     1      29.694  34.920  49.302  1.00  0.00     0.025 A 
ATOM     13  C   UNL     1      30.983  35.444  49.103  1.00  0.00     0.016 A 
ATOM     14  C   UNL     1      31.228  36.807  49.292  1.00  0.00     0.051 A 
ATOM     15  C   UNL     1      30.194  37.662  49.698  1.00  0.00     0.157 A 
ATOM     16  C   UNL     1      28.667  35.777  49.728  1.00  0.00     0.062 A 
ATOM     17  C   UNL     1      28.908  37.141  49.919  1.00  0.00     0.158 A 
BRANCH  15  18
ATOM     18  O   UNL     1      30.442  39.020  49.884  1.00  0.00    -0.504 OA
ATOM     19  H   UNL     1      30.545  39.419  50.810  1.00  0.00     0.293 HD
ENDBRANCH  15  18
BRANCH  17  20
ATOM     20  O   UNL     1      27.859  37.965  50.330  1.00  0.00    -0.504 OA
ATOM     21  H   UNL     1      27.985  38.690  51.025  1.00  0.00     0.293 HD
ENDBRANCH  17  20
ENDBRANCH   1  12
BRANCH   2  22
ATOM     22  O   UNL     1      30.582  32.903  51.185  1.00  0.00    -0.502 OA
ATOM     23  H   UNL     1      31.285  33.632  51.145  1.00  0.00     0.293 HD
ENDBRANCH   2  22
BRANCH   6  24
ATOM     24  O   UNL     1      28.930  28.316  49.039  1.00  0.00    -0.507 OA
ATOM     25  H   UNL     1      29.265  27.459  48.627  1.00  0.00     0.293 HD
ENDBRANCH   6  24
BRANCH   8  26
ATOM     26  O   UNL     1      26.573  29.977  45.200  1.00  0.00    -0.508 OA
ATOM     27  H   UNL     1      26.438  30.680  44.484  1.00  0.00     0.293 HD
ENDBRANCH   8  26
TORSDOF 6
ENDMDL
MODEL 2
REMARK VINA RESULT:    26.884      1.228      2.857
REMARK INTER + INTRA:          32.132
REMARK INTER:                  32.379
REMARK INTRA:                  -0.247
REMARK UNBOUND:                -0.253
REMARK SMILES O=c1c(O)c(-c2ccc(O)c(O)c2)oc2cc(O)cc(O)c12
REMARK SMILES IDX 5 1 3 2 2 3 1 4 22 5 20 6 19 7 17 8 16 9 15 10 14 11 6 12
REMARK SMILES IDX 7 13 8 14 9 15 13 16 11 17 10 18 12 20 4 22 21 24 18 26
REMARK H PARENT 10 19 12 21 4 23 21 25 18 27
REMARK Flexibility Score: inf
ROOT
ATOM      1  C   UNL     1      29.125  33.391  48.547  1.00  0.00     0.180 A 
ATOM      2  C   UNL     1      28.400  33.131  47.372  1.00  0.00     0.208 A 
ATOM      3  C   UNL     1      28.126  31.799  47.021  1.00  0.00     0.238 A 
ATOM      4  O   UNL     1      27.542  31.571  45.930  1.00  0.00    -0.285 OA
ATOM      5  C   UNL     1      28.530  30.746  47.879  1.00  0.00     0.111 A 
ATOM      6  C   UNL     1      28.266  29.362  47.646  1.00  0.00     0.134 A 
ATOM      7  C   UNL     1      28.809  28.402  48.509  1.00  0.00     0.093 A 
ATOM      8  C   UNL     1      29.550  28.778  49.631  1.00  0.00     0.123 A 
ATOM      9  C   UNL     1      29.765  30.127  49.898  1.00  0.00     0.094 A 
ATOM     10  C   UNL     1      29.271  31.107  49.034  1.00  0.00     0.146 A 
ATOM     11  O   UNL     1      29.519  32.381  49.314  1.00  0.00    -0.452 OA
ENDROOT
BRANCH   1  12
ATOM     12  C   UNL     1      29.465  34.767  48.976  1.00  0.00     0.025 A 
ATOM     13  C   UNL     1      30.783  35.251  48.904  1.00  0.00     0.016 A 
ATOM     14  C   UNL     1      31.084  36.546  49.337  1.00  0.00     0.051 A 
ATOM     15  C   UNL     1      30.077  37.369  49.859  1.00  0.00     0.157 A 
ATOM     16  C   UNL     1      28.464  35.588  49.519  1.00  0.00     0.062 A 
ATOM     17  C   UNL     1      28.762  36.885  49.952  1.00  0.00     0.158 A 
BRANCH  15  18
ATOM     18  O   UNL     1      30.381  38.660  50.287  1.00  0.00    -0.504 OA
ATOM     19  H   UNL     1      31.316  38.914  50.586  1.00  0.00     0.293 HD
ENDBRANCH  15  18
BRANCH  17  20
ATOM     20  O   UNL     1      27.739  37.676  50.474  1.00  0.00    -0.504 OA
ATOM     21  H   UNL     1      26.831  37.745  50.030  1.00  0.00     0.293 HD
ENDBRANCH  17  20
ENDBRANCH   1  12
BRANCH   2  22
ATOM     22  O   UNL     1      27.943  34.187  46.579  1.00  0.00    -0.502 OA
ATOM     23  H   UNL     1      27.704  35.093  46.964  1.00  0.00     0.293 HD
ENDBRANCH   2  22
BRANCH   6  24
ATOM     24  O   UNL     1      27.465  28.882  46.605  1.00  0.00    -0.507 OA
ATOM     25  H   UNL     1      26.706  28.227  46.716  1.00  0.00     0.293 HD
ENDBRANCH   6  24
BRANCH   8  26
ATOM     26  O   UNL     1      30.070  27.815  50.494  1.00  0.00    -0.508 OA
ATOM     27  H   UNL     1      30.446  26.941  50.148  1.00  0.00     0.293 HD
ENDBRANCH   8  26
TORSDOF 6
ENDMDL
