MODEL 1
REMARK VINA RESULT:    -5.635      0.000      0.000
REMARK INTER + INTRA:         -11.293
REMARK INTER:                 -10.248
REMARK INTRA:                  -1.045
REMARK UNBOUND:                -1.045
REMARK SMILES CCCCCCCCCCCCCCCC(=O)[O-]
REMARK SMILES IDX 9 1 10 2 11 3 12 4 13 5 14 6 15 7 16 8 17 9 18 10 8 11 7 12
REMARK SMILES IDX 6 13 5 14 4 15 3 16 2 17 1 18
REMARK H PARENT
REMARK Flexibility Score: inf
ROOT
ATOM      1  C   UNL     1       1.685 -27.084  -0.624  1.00  0.00     0.000 C 
ENDROOT
BRANCH   1   2
ATOM      2  C   UNL     1       2.838 -28.087  -0.473  1.00  0.00     0.000 C 
BRANCH   2   3
ATOM      3  C   UNL     1       2.932 -28.599   0.973  1.00  0.00     0.000 C 
BRANCH   3   4
ATOM      4  C   UNL     1       4.274 -29.288   1.272  1.00  0.00     0.000 C 
BRANCH   4   5
ATOM      5  C   UNL     1       4.432 -29.653   2.758  1.00  0.00     0.000 C 
BRANCH   5   6
ATOM      6  C   UNL     1       3.148 -29.416   3.575  1.00  0.00     0.006 C 
BRANCH   6   7
ATOM      7  C   UNL     1       3.323 -29.627   5.089  1.00  0.00     0.053 C 
BRANCH   7   8
ATOM      8  C   UNL     1       2.322 -30.586   5.657  1.00  0.00     0.041 C 
ATOM      9  O   UNL     1       2.431 -31.820   5.434  1.00  0.00    -0.550 OA
ATOM     10  O   UNL     1       1.249 -30.117   6.404  1.00  0.00    -0.550 OA
ENDBRANCH   7   8
ENDBRANCH   6   7
ENDBRANCH   5   6
ENDBRANCH   4   5
ENDBRANCH   3   4
ENDBRANCH   2   3
ENDBRANCH   1   2
BRANCH   1  11
ATOM     11  C   UNL     1       0.501 -27.399   0.305  1.00  0.00     0.000 C 
BRANCH  11  12
ATOM     12  C   UNL     1      -0.734 -26.531   0.005  1.00  0.00    -0.000 C 
BRANCH  12  13
ATOM     13  C   UNL     1      -0.579 -25.701  -1.280  1.00  0.00    -0.000 C 
BRANCH  13  14
ATOM     14  C   UNL     1      -1.577 -24.532  -1.351  1.00  0.00    -0.000 C 
BRANCH  14  15
ATOM     15  C   UNL     1      -1.510 -23.609  -0.120  1.00  0.00    -0.000 C 
BRANCH  15  16
ATOM     16  C   UNL     1      -2.841 -23.425   0.632  1.00  0.00    -0.000 C 
BRANCH  16  17
ATOM     17  C   UNL     1      -3.941 -24.383   0.151  1.00  0.00    -0.003 C 
ATOM     18  C   UNL     1      -4.125 -25.543   1.124  1.00  0.00     0.004 C 
ENDBRANCH  16  17
ENDBRANCH  15  16
ENDBRANCH  14  15
ENDBRANCH  13  14
ENDBRANCH  12  13
ENDBRANCH  11  12
ENDBRANCH   1  11
TORSDOF 14
ENDMDL
MODEL 2
REMARK VINA RESULT:    -5.546      0.962      1.695
REMARK INTER + INTRA:         -11.130
REMARK INTER:                 -10.081
REMARK INTRA:                  -1.049
REMARK UNBOUND:                -1.045
REMARK SMILES CCCCCCCCCCCCCCCC(=O)[O-]
REMARK SMILES IDX 9 1 10 2 11 3 12 4 13 5 14 6 15 7 16 8 17 9 18 10 8 11 7 12
REMARK SMILES IDX 6 13 5 14 4 15 3 16 2 17 1 18
REMARK H PARENT
REMARK Flexibility Score: inf
ROOT
ATOM      1  C   UNL     1       0.544 -27.046  -0.735  1.00  0.00     0.000 C 
ENDROOT
BRANCH   1   2
ATOM      2  C   UNL     1       1.424 -27.489   0.443  1.00  0.00     0.000 C 
BRANCH   2   3
ATOM      3  C   UNL     1       2.708 -28.169  -0.057  1.00  0.00     0.000 C 
BRANCH   3   4
ATOM      4  C   UNL     1       3.531 -28.795   1.082  1.00  0.00     0.000 C 
BRANCH   4   5
ATOM      5  C   UNL     1       2.646 -29.427   2.170  1.00  0.00     0.000 C 
BRANCH   5   6
ATOM      6  C   UNL     1       3.228 -29.268   3.586  1.00  0.00     0.006 C 
BRANCH   6   7
ATOM      7  C   UNL     1       2.901 -30.436   4.532  1.00  0.00     0.053 C 
BRANCH   7   8
ATOM      8  C   UNL     1       2.339 -29.977   5.843  1.00  0.00     0.041 C 
ATOM      9  O   UNL     1       2.824 -28.969   6.421  1.00  0.00    -0.550 OA
ATOM     10  O   UNL     1       1.303 -30.680   6.445  1.00  0.00    -0.550 OA
ENDBRANCH   7   8
ENDBRANCH   6   7
ENDBRANCH   5   6
ENDBRANCH   4   5
ENDBRANCH   3   4
ENDBRANCH   2   3
ENDBRANCH   1   2
BRANCH   1  11
ATOM     11  C   UNL     1      -0.359 -25.853  -0.384  1.00  0.00     0.000 C 
BRANCH  11  12
ATOM     12  C   UNL     1      -0.993 -25.204  -1.627  1.00  0.00    -0.000 C 
BRANCH  12  13
ATOM     13  C   UNL     1      -2.141 -24.244  -1.275  1.00  0.00    -0.000 C 
BRANCH  13  14
ATOM     14  C   UNL     1      -1.927 -23.538   0.075  1.00  0.00    -0.000 C 
BRANCH  14  15
ATOM     15  C   UNL     1      -3.194 -23.520   0.951  1.00  0.00    -0.000 C 
BRANCH  15  16
ATOM     16  C   UNL     1      -4.197 -24.654   0.672  1.00  0.00    -0.000 C 
BRANCH  16  17
ATOM     17  C   UNL     1      -3.823 -25.971   1.368  1.00  0.00    -0.003 C 
ATOM     18  C   UNL     1      -3.831 -27.136   0.383  1.00  0.00     0.004 C 
ENDBRANCH  16  17
ENDBRANCH  15  16
ENDBRANCH  14  15
ENDBRANCH  13  14
ENDBRANCH  12  13
ENDBRANCH  11  12
ENDBRANCH   1  11
TORSDOF 14
ENDMDL
MODEL 3
REMARK VINA RESULT:    -5.533      1.085      1.593
REMARK INTER + INTRA:         -11.106
REMARK INTER:                 -10.649
REMARK INTRA:                  -0.457
REMARK UNBOUND:                -1.045
REMARK SMILES CCCCCCCCCCCCCCCC(=O)[O-]
REMARK SMILES IDX 9 1 10 2 11 3 12 4 13 5 14 6 15 7 16 8 17 9 18 10 8 11 7 12
REMARK SMILES IDX 6 13 5 14 4 15 3 16 2 17 1 18
REMARK H PARENT
REMARK Flexibility Score: inf
ROOT
ATOM      1  C   UNL     1       2.555 -27.883  -0.309  1.00  0.00     0.000 C 
ENDROOT
BRANCH   1   2
ATOM      2  C   UNL     1       2.029 -28.261   1.084  1.00  0.00     0.000 C 
BRANCH   2   3
ATOM      3  C   UNL     1       2.878 -29.383   1.703  1.00  0.00     0.000 C 
BRANCH   3   4
ATOM      4  C   UNL     1       3.196 -29.136   3.187  1.00  0.00     0.000 C 
BRANCH   4   5
ATOM      5  C   UNL     1       4.436 -29.912   3.662  1.00  0.00     0.000 C 
BRANCH   5   6
ATOM      6  C   UNL     1       4.208 -30.654   4.992  1.00  0.00     0.006 C 
BRANCH   6   7
ATOM      7  C   UNL     1       2.766 -31.152   5.191  1.00  0.00     0.053 C 
BRANCH   7   8
ATOM      8  C   UNL     1       1.990 -30.302   6.150  1.00  0.00     0.041 C 
ATOM      9  O   UNL     1       0.809 -30.611   6.456  1.00  0.00    -0.550 OA
ATOM     10  O   UNL     1       2.556 -29.149   6.678  1.00  0.00    -0.550 OA
ENDBRANCH   7   8
ENDBRANCH   6   7
ENDBRANCH   5   6
ENDBRANCH   4   5
ENDBRANCH   3   4
ENDBRANCH   2   3
ENDBRANCH   1   2
BRANCH   1  11
ATOM     11  C   UNL     1       1.582 -26.979  -1.083  1.00  0.00     0.000 C 
BRANCH  11  12
ATOM     12  C   UNL     1       0.432 -26.456  -0.203  1.00  0.00    -0.000 C 
BRANCH  12  13
ATOM     13  C   UNL     1      -0.706 -25.829  -1.024  1.00  0.00    -0.000 C 
BRANCH  13  14
ATOM     14  C   UNL     1      -1.260 -24.547  -0.379  1.00  0.00    -0.000 C 
BRANCH  14  15
ATOM     15  C   UNL     1      -2.649 -24.156  -0.917  1.00  0.00    -0.000 C 
BRANCH  15  16
ATOM     16  C   UNL     1      -3.810 -24.334   0.078  1.00  0.00    -0.000 C 
BRANCH  16  17
ATOM     17  C   UNL     1      -3.857 -23.234   1.149  1.00  0.00    -0.003 C 
ATOM     18  C   UNL     1      -5.009 -23.463   2.123  1.00  0.00     0.004 C 
ENDBRANCH  16  17
ENDBRANCH  15  16
ENDBRANCH  14  15
ENDBRANCH  13  14
ENDBRANCH  12  13
ENDBRANCH  11  12
ENDBRANCH   1  11
TORSDOF 14
ENDMDL
MODEL 4
REMARK VINA RESULT:    -5.347      3.676      8.492
REMARK INTER + INTRA:         -10.768
REMARK INTER:                 -10.149
REMARK INTRA:                  -0.619
REMARK UNBOUND:                -1.045
REMARK SMILES CCCCCCCCCCCCCCCC(=O)[O-]
REMARK SMILES IDX 9 1 10 2 11 3 12 4 13 5 14 6 15 7 16 8 17 9 18 10 8 11 7 12
REMARK SMILES IDX 6 13 5 14 4 15 3 16 2 17 1 18
REMARK H PARENT
REMARK Flexibility Score: inf
ROOT
ATOM      1  C   UNL     1       0.569 -27.349   0.470  1.00  0.00     0.000 C 
ENDROOT
BRANCH   1   2
ATOM      2  C   UNL     1       0.369 -26.321  -0.654  1.00  0.00     0.000 C 
BRANCH   2   3
ATOM      3  C   UNL     1      -0.851 -25.430  -0.370  1.00  0.00     0.000 C 
BRANCH   3   4
ATOM      4  C   UNL     1      -1.546 -24.949  -1.654  1.00  0.00     0.000 C 
BRANCH   4   5
ATOM      5  C   UNL     1      -3.080 -24.993  -1.547  1.00  0.00     0.000 C 
BRANCH   5   6
ATOM      6  C   UNL     1      -3.573 -25.554  -0.200  1.00  0.00     0.006 C 
BRANCH   6   7
ATOM      7  C   UNL     1      -4.797 -24.819   0.373  1.00  0.00     0.053 C 
BRANCH   7   8
ATOM      8  C   UNL     1      -4.419 -23.691   1.284  1.00  0.00     0.041 C 
ATOM      9  O   UNL     1      -3.310 -23.111   1.145  1.00  0.00    -0.550 OA
ATOM     10  O   UNL     1      -5.274 -23.302   2.307  1.00  0.00    -0.550 OA
ENDBRANCH   7   8
ENDBRANCH   6   7
ENDBRANCH   5   6
ENDBRANCH   4   5
ENDBRANCH   3   4
ENDBRANCH   2   3
ENDBRANCH   1   2
BRANCH   1  11
ATOM     11  C   UNL     1       1.912 -28.090   0.360  1.00  0.00     0.000 C 
BRANCH  11  12
ATOM     12  C   UNL     1       2.333 -28.751   1.685  1.00  0.00    -0.000 C 
BRANCH  12  13
ATOM     13  C   UNL     1       3.785 -29.256   1.662  1.00  0.00    -0.000 C 
BRANCH  13  14
ATOM     14  C   UNL     1       4.282 -29.687   3.052  1.00  0.00    -0.000 C 
BRANCH  14  15
ATOM     15  C   UNL     1       3.178 -29.641   4.125  1.00  0.00    -0.000 C 
BRANCH  15  16
ATOM     16  C   UNL     1       3.670 -29.796   5.576  1.00  0.00    -0.000 C 
BRANCH  16  17
ATOM     17  C   UNL     1       2.895 -30.864   6.362  1.00  0.00    -0.003 C 
ATOM     18  C   UNL     1       3.159 -32.258   5.802  1.00  0.00     0.004 C 
ENDBRANCH  16  17
ENDBRANCH  15  16
ENDBRANCH  14  15
ENDBRANCH  13  14
ENDBRANCH  12  13
ENDBRANCH  11  12
ENDBRANCH   1  11
TORSDOF 14
ENDMDL
MODEL 5
REMARK VINA RESULT:    -5.280      3.590      8.226
REMARK INTER + INTRA:         -10.647
REMARK INTER:                  -9.777
REMARK INTRA:                  -0.871
REMARK UNBOUND:                -1.045
REMARK SMILES CCCCCCCCCCCCCCCC(=O)[O-]
REMARK SMILES IDX 9 1 10 2 11 3 12 4 13 5 14 6 15 7 16 8 17 9 18 10 8 11 7 12
REMARK SMILES IDX 6 13 5 14 4 15 3 16 2 17 1 18
REMARK H PARENT
REMARK Flexibility Score: inf
ROOT
ATOM      1  C   UNL     1       2.103 -28.180   1.178  1.00  0.00     0.000 C 
ENDROOT
BRANCH   1   2
ATOM      2  C   UNL     1       2.528 -28.005  -0.288  1.00  0.00     0.000 C 
BRANCH   2   3
ATOM      3  C   UNL     1       1.600 -27.017  -1.012  1.00  0.00     0.000 C 
BRANCH   3   4
ATOM      4  C   UNL     1       0.747 -26.184  -0.042  1.00  0.00     0.000 C 
BRANCH   4   5
ATOM      5  C   UNL     1      -0.756 -26.262  -0.361  1.00  0.00     0.000 C 
BRANCH   5   6
ATOM      6  C   UNL     1      -1.304 -24.971  -0.998  1.00  0.00     0.006 C 
BRANCH   6   7
ATOM      7  C   UNL     1      -1.647 -23.869   0.018  1.00  0.00     0.053 C 
BRANCH   7   8
ATOM      8  C   UNL     1      -3.092 -23.880   0.416  1.00  0.00     0.041 C 
ATOM      9  O   UNL     1      -3.538 -23.008   1.206  1.00  0.00    -0.550 OA
ATOM     10  O   UNL     1      -3.940 -24.873  -0.059  1.00  0.00    -0.550 OA
ENDBRANCH   7   8
ENDBRANCH   6   7
ENDBRANCH   5   6
ENDBRANCH   4   5
ENDBRANCH   3   4
ENDBRANCH   2   3
ENDBRANCH   1   2
BRANCH   1  11
ATOM     11  C   UNL     1       2.650 -29.475   1.801  1.00  0.00     0.000 C 
BRANCH  11  12
ATOM     12  C   UNL     1       3.550 -29.210   3.021  1.00  0.00    -0.000 C 
BRANCH  12  13
ATOM     13  C   UNL     1       4.834 -30.056   3.007  1.00  0.00    -0.000 C 
BRANCH  13  14
ATOM     14  C   UNL     1       4.929 -31.004   4.215  1.00  0.00    -0.000 C 
BRANCH  14  15
ATOM     15  C   UNL     1       4.323 -30.405   5.497  1.00  0.00    -0.000 C 
BRANCH  15  16
ATOM     16  C   UNL     1       3.188 -31.230   6.131  1.00  0.00    -0.000 C 
BRANCH  16  17
ATOM     17  C   UNL     1       1.911 -30.411   6.370  1.00  0.00    -0.003 C 
ATOM     18  C   UNL     1       2.243 -28.965   6.727  1.00  0.00     0.004 C 
ENDBRANCH  16  17
ENDBRANCH  15  16
ENDBRANCH  14  15
ENDBRANCH  13  14
ENDBRANCH  12  13
ENDBRANCH  11  12
ENDBRANCH   1  11
TORSDOF 14
ENDMDL
MODEL 6
REMARK VINA RESULT:    -5.247      3.542      8.251
REMARK INTER + INTRA:         -10.586
REMARK INTER:                  -9.439
REMARK INTRA:                  -1.147
REMARK UNBOUND:                -1.045
REMARK SMILES CCCCCCCCCCCCCCCC(=O)[O-]
REMARK SMILES IDX 9 1 10 2 11 3 12 4 13 5 14 6 15 7 16 8 17 9 18 10 8 11 7 12
REMARK SMILES IDX 6 13 5 14 4 15 3 16 2 17 1 18
REMARK H PARENT
REMARK Flexibility Score: inf
ROOT
ATOM      1  C   UNL     1       3.626 -29.190   2.865  1.00  0.00     0.000 C 
ENDROOT
BRANCH   1   2
ATOM      2  C   UNL     1       2.503 -29.400   1.839  1.00  0.00     0.000 C 
BRANCH   2   3
ATOM      3  C   UNL     1       2.083 -28.065   1.205  1.00  0.00     0.000 C 
BRANCH   3   4
ATOM      4  C   UNL     1       2.199 -28.073  -0.328  1.00  0.00     0.000 C 
BRANCH   4   5
ATOM      5  C   UNL     1       1.432 -26.912  -0.985  1.00  0.00     0.000 C 
BRANCH   5   6
ATOM      6  C   UNL     1       0.567 -26.122   0.014  1.00  0.00     0.006 C 
BRANCH   6   7
ATOM      7  C   UNL     1      -0.945 -26.366  -0.138  1.00  0.00     0.053 C 
BRANCH   7   8
ATOM      8  C   UNL     1      -1.683 -25.145  -0.595  1.00  0.00     0.041 C 
ATOM      9  O   UNL     1      -2.512 -24.585   0.169  1.00  0.00    -0.550 OA
ATOM     10  O   UNL     1      -1.482 -24.644  -1.875  1.00  0.00    -0.550 OA
ENDBRANCH   7   8
ENDBRANCH   6   7
ENDBRANCH   5   6
ENDBRANCH   4   5
ENDBRANCH   3   4
ENDBRANCH   2   3
ENDBRANCH   1   2
BRANCH   1  11
ATOM     11  C   UNL     1       4.966 -29.788   2.407  1.00  0.00     0.000 C 
BRANCH  11  12
ATOM     12  C   UNL     1       5.692 -30.547   3.533  1.00  0.00    -0.000 C 
BRANCH  12  13
ATOM     13  C   UNL     1       5.108 -30.247   4.923  1.00  0.00    -0.000 C 
BRANCH  13  14
ATOM     14  C   UNL     1       5.103 -31.483   5.839  1.00  0.00    -0.000 C 
BRANCH  14  15
ATOM     15  C   UNL     1       3.685 -31.920   6.251  1.00  0.00    -0.000 C 
BRANCH  15  16
ATOM     16  C   UNL     1       2.549 -31.366   5.373  1.00  0.00    -0.000 C 
BRANCH  16  17
ATOM     17  C   UNL     1       1.551 -30.501   6.156  1.00  0.00    -0.003 C 
ATOM     18  C   UNL     1       2.230 -29.259   6.727  1.00  0.00     0.004 C 
ENDBRANCH  16  17
ENDBRANCH  15  16
ENDBRANCH  14  15
ENDBRANCH  13  14
ENDBRANCH  12  13
ENDBRANCH  11  12
ENDBRANCH   1  11
TORSDOF 14
ENDMDL
MODEL 7
REMARK VINA RESULT:    -5.240      1.314      1.619
REMARK INTER + INTRA:         -10.575
REMARK INTER:                  -9.850
REMARK INTRA:                  -0.724
REMARK UNBOUND:                -1.045
REMARK SMILES CCCCCCCCCCCCCCCC(=O)[O-]
REMARK SMILES IDX 9 1 10 2 11 3 12 4 13 5 14 6 15 7 16 8 17 9 18 10 8 11 7 12
REMARK SMILES IDX 6 13 5 14 4 15 3 16 2 17 1 18
REMARK H PARENT
REMARK Flexibility Score: inf
ROOT
ATOM      1  C   UNL     1       2.372 -27.775  -0.684  1.00  0.00     0.000 C 
ENDROOT
BRANCH   1   2
ATOM      2  C   UNL     1       3.185 -28.565   0.352  1.00  0.00     0.000 C 
BRANCH   2   3
ATOM      3  C   UNL     1       2.333 -28.881   1.592  1.00  0.00     0.000 C 
BRANCH   3   4
ATOM      4  C   UNL     1       3.180 -29.074   2.861  1.00  0.00     0.000 C 
BRANCH   4   5
ATOM      5  C   UNL     1       4.576 -29.647   2.556  1.00  0.00     0.000 C 
BRANCH   5   6
ATOM      6  C   UNL     1       4.892 -30.920   3.363  1.00  0.00     0.006 C 
BRANCH   6   7
ATOM      7  C   UNL     1       3.649 -31.627   3.928  1.00  0.00     0.053 C 
BRANCH   7   8
ATOM      8  C   UNL     1       3.621 -31.636   5.426  1.00  0.00     0.041 C 
ATOM      9  O   UNL     1       4.277 -32.499   6.066  1.00  0.00    -0.550 OA
ATOM     10  O   UNL     1       2.845 -30.713   6.116  1.00  0.00    -0.550 OA
ENDBRANCH   7   8
ENDBRANCH   6   7
ENDBRANCH   5   6
ENDBRANCH   4   5
ENDBRANCH   3   4
ENDBRANCH   2   3
ENDBRANCH   1   2
BRANCH   1  11
ATOM     11  C   UNL     1       0.902 -27.597  -0.271  1.00  0.00     0.000 C 
BRANCH  11  12
ATOM     12  C   UNL     1       0.313 -26.255  -0.744  1.00  0.00    -0.000 C 
BRANCH  12  13
ATOM     13  C   UNL     1      -1.076 -25.974  -0.148  1.00  0.00    -0.000 C 
BRANCH  13  14
ATOM     14  C   UNL     1      -1.535 -24.524  -0.381  1.00  0.00    -0.000 C 
BRANCH  14  15
ATOM     15  C   UNL     1      -2.916 -24.432  -1.056  1.00  0.00    -0.000 C 
BRANCH  15  16
ATOM     16  C   UNL     1      -4.110 -24.320  -0.091  1.00  0.00    -0.000 C 
BRANCH  16  17
ATOM     17  C   UNL     1      -3.892 -23.276   1.014  1.00  0.00    -0.003 C 
ATOM     18  C   UNL     1      -4.983 -23.363   2.077  1.00  0.00     0.004 C 
ENDBRANCH  16  17
ENDBRANCH  15  16
ENDBRANCH  14  15
ENDBRANCH  13  14
ENDBRANCH  12  13
ENDBRANCH  11  12
ENDBRANCH   1  11
TORSDOF 14
ENDMDL
MODEL 8
REMARK VINA RESULT:    -5.139      1.396      2.531
REMARK INTER + INTRA:         -10.391
REMARK INTER:                  -9.466
REMARK INTRA:                  -0.925
REMARK UNBOUND:                -1.045
REMARK SMILES CCCCCCCCCCCCCCCC(=O)[O-]
REMARK SMILES IDX 9 1 10 2 11 3 12 4 13 5 14 6 15 7 16 8 17 9 18 10 8 11 7 12
REMARK SMILES IDX 6 13 5 14 4 15 3 16 2 17 1 18
REMARK H PARENT
REMARK Flexibility Score: inf
ROOT
ATOM      1  C   UNL     1       2.527 -28.251   1.676  1.00  0.00     0.000 C 
ENDROOT
BRANCH   1   2
ATOM      2  C   UNL     1       3.011 -29.390   2.586  1.00  0.00     0.000 C 
BRANCH   2   3
ATOM      3  C   UNL     1       4.512 -29.652   2.384  1.00  0.00     0.000 C 
BRANCH   3   4
ATOM      4  C   UNL     1       5.219 -30.083   3.680  1.00  0.00     0.000 C 
BRANCH   4   5
ATOM      5  C   UNL     1       4.773 -31.476   4.159  1.00  0.00     0.000 C 
BRANCH   5   6
ATOM      6  C   UNL     1       4.249 -31.474   5.607  1.00  0.00     0.006 C 
BRANCH   6   7
ATOM      7  C   UNL     1       2.718 -31.574   5.718  1.00  0.00     0.053 C 
BRANCH   7   8
ATOM      8  C   UNL     1       2.088 -30.293   6.173  1.00  0.00     0.041 C 
ATOM      9  O   UNL     1       0.874 -30.269   6.506  1.00  0.00    -0.550 OA
ATOM     10  O   UNL     1       2.830 -29.119   6.198  1.00  0.00    -0.550 OA
ENDBRANCH   7   8
ENDBRANCH   6   7
ENDBRANCH   5   6
ENDBRANCH   4   5
ENDBRANCH   3   4
ENDBRANCH   2   3
ENDBRANCH   1   2
BRANCH   1  11
ATOM     11  C   UNL     1       2.445 -28.668   0.199  1.00  0.00     0.000 C 
BRANCH  11  12
ATOM     12  C   UNL     1       1.584 -27.707  -0.640  1.00  0.00    -0.000 C 
BRANCH  12  13
ATOM     13  C   UNL     1       0.923 -26.608   0.207  1.00  0.00    -0.000 C 
BRANCH  13  14
ATOM     14  C   UNL     1      -0.323 -26.010  -0.470  1.00  0.00    -0.000 C 
BRANCH  14  15
ATOM     15  C   UNL     1      -1.641 -26.497   0.159  1.00  0.00    -0.000 C 
BRANCH  15  16
ATOM     16  C   UNL     1      -2.914 -25.828  -0.389  1.00  0.00    -0.000 C 
BRANCH  16  17
ATOM     17  C   UNL     1      -2.618 -24.717  -1.407  1.00  0.00    -0.003 C 
ATOM     18  C   UNL     1      -3.870 -24.343  -2.194  1.00  0.00     0.004 C 
ENDBRANCH  16  17
ENDBRANCH  15  16
ENDBRANCH  14  15
ENDBRANCH  13  14
ENDBRANCH  12  13
ENDBRANCH  11  12
ENDBRANCH   1  11
TORSDOF 14
ENDMDL
MODEL 9
REMARK VINA RESULT:    -5.122      3.755      8.322
REMARK INTER + INTRA:         -10.359
REMARK INTER:                  -9.618
REMARK INTRA:                  -0.741
REMARK UNBOUND:                -1.045
REMARK SMILES CCCCCCCCCCCCCCCC(=O)[O-]
REMARK SMILES IDX 9 1 10 2 11 3 12 4 13 5 14 6 15 7 16 8 17 9 18 10 8 11 7 12
REMARK SMILES IDX 6 13 5 14 4 15 3 16 2 17 1 18
REMARK H PARENT
REMARK Flexibility Score: inf
ROOT
ATOM      1  C   UNL     1       0.929 -26.766   0.317  1.00  0.00     0.000 C 
ENDROOT
BRANCH   1   2
ATOM      2  C   UNL     1       0.065 -26.195  -0.818  1.00  0.00     0.000 C 
BRANCH   2   3
ATOM      3  C   UNL     1      -1.360 -25.898  -0.326  1.00  0.00     0.000 C 
BRANCH   3   4
ATOM      4  C   UNL     1      -1.760 -24.426  -0.519  1.00  0.00     0.000 C 
BRANCH   4   5
ATOM      5  C   UNL     1      -2.973 -24.027   0.339  1.00  0.00     0.000 C 
BRANCH   5   6
ATOM      6  C   UNL     1      -3.838 -25.231   0.755  1.00  0.00     0.006 C 
BRANCH   6   7
ATOM      7  C   UNL     1      -5.123 -25.395  -0.076  1.00  0.00     0.053 C 
BRANCH   7   8
ATOM      8  C   UNL     1      -4.950 -26.344  -1.223  1.00  0.00     0.041 C 
ATOM      9  O   UNL     1      -5.318 -27.543  -1.113  1.00  0.00    -0.550 OA
ATOM     10  O   UNL     1      -4.353 -25.915  -2.402  1.00  0.00    -0.550 OA
ENDBRANCH   7   8
ENDBRANCH   6   7
ENDBRANCH   5   6
ENDBRANCH   4   5
ENDBRANCH   3   4
ENDBRANCH   2   3
ENDBRANCH   1   2
BRANCH   1  11
ATOM     11  C   UNL     1       1.395 -28.204   0.038  1.00  0.00     0.000 C 
BRANCH  11  12
ATOM     12  C   UNL     1       2.100 -28.843   1.248  1.00  0.00    -0.000 C 
BRANCH  12  13
ATOM     13  C   UNL     1       3.631 -28.849   1.107  1.00  0.00    -0.000 C 
BRANCH  13  14
ATOM     14  C   UNL     1       4.328 -29.557   2.282  1.00  0.00    -0.000 C 
BRANCH  14  15
ATOM     15  C   UNL     1       3.337 -30.138   3.307  1.00  0.00    -0.000 C 
BRANCH  15  16
ATOM     16  C   UNL     1       3.688 -29.870   4.781  1.00  0.00    -0.000 C 
BRANCH  16  17
ATOM     17  C   UNL     1       2.524 -30.162   5.739  1.00  0.00    -0.003 C 
ATOM     18  C   UNL     1       2.348 -29.036   6.753  1.00  0.00     0.004 C 
ENDBRANCH  16  17
ENDBRANCH  15  16
ENDBRANCH  14  15
ENDBRANCH  13  14
ENDBRANCH  12  13
ENDBRANCH  11  12
ENDBRANCH   1  11
TORSDOF 14
ENDMDL
