MODEL 1
REMARK VINA RESULT:    -4.380      0.000      0.000
REMARK INTER + INTRA:          -7.090
REMARK INTER:                  -6.685
REMARK INTRA:                  -0.405
REMARK UNBOUND:                -0.405
REMARK SMILES O=C([O-])CCCCCCCCC(=O)[O-]
REMARK SMILES IDX 7 1 6 2 5 3 4 4 2 5 1 6 3 7 8 8 9 9 10 10 11 11 12 12 13 13
REMARK SMILES IDX 14 14
REMARK H PARENT
REMARK Flexibility Score: inf
ROOT
ATOM      1  C   UNL     1       6.097 -15.382  23.967  1.00  0.00     0.000 C 
ENDROOT
BRANCH   1   2
ATOM      2  C   UNL     1       6.739 -16.702  24.422  1.00  0.00     0.000 C 
BRANCH   2   3
ATOM      3  C   UNL     1       6.949 -16.715  25.940  1.00  0.00     0.006 C 
BRANCH   3   4
ATOM      4  C   UNL     1       7.928 -15.617  26.369  1.00  0.00     0.053 C 
BRANCH   4   5
ATOM      5  C   UNL     1       9.330 -15.997  26.016  1.00  0.00     0.041 C 
ATOM      6  O   UNL     1       9.926 -16.897  26.666  1.00  0.00    -0.550 OA
ATOM      7  O   UNL     1       9.964 -15.395  24.936  1.00  0.00    -0.550 OA
ENDBRANCH   4   5
ENDBRANCH   3   4
ENDBRANCH   2   3
ENDBRANCH   1   2
BRANCH   1   8
ATOM      8  C   UNL     1       6.878 -14.701  22.832  1.00  0.00     0.000 C 
BRANCH   8   9
ATOM      9  C   UNL     1       5.955 -14.072  21.773  1.00  0.00     0.000 C 
BRANCH   9  10
ATOM     10  C   UNL     1       6.257 -14.576  20.353  1.00  0.00     0.006 C 
BRANCH  10  11
ATOM     11  C   UNL     1       6.098 -13.481  19.290  1.00  0.00     0.053 C 
BRANCH  11  12
ATOM     12  C   UNL     1       6.771 -13.889  18.017  1.00  0.00     0.041 C 
ATOM     13  O   UNL     1       7.934 -14.372  18.042  1.00  0.00    -0.550 OA
ATOM     14  O   UNL     1       6.134 -13.692  16.799  1.00  0.00    -0.550 OA
ENDBRANCH  11  12
ENDBRANCH  10  11
ENDBRANCH   9  10
ENDBRANCH   8   9
ENDBRANCH   1   8
TORSDOF 9
ENDMDL
MODEL 2
REMARK VINA RESULT:    -4.307      1.562      7.461
REMARK INTER + INTRA:          -6.978
REMARK INTER:                  -6.558
REMARK INTRA:                  -0.420
REMARK UNBOUND:                -0.405
REMARK SMILES O=C([O-])CCCCCCCCC(=O)[O-]
REMARK SMILES IDX 7 1 6 2 5 3 4 4 2 5 1 6 3 7 8 8 9 9 10 10 11 11 12 12 13 13
REMARK SMILES IDX 14 14
REMARK H PARENT
REMARK Flexibility Score: inf
ROOT
ATOM      1  C   UNL     1       5.830 -14.071  20.564  1.00  0.00     0.000 C 
ENDROOT
BRANCH   1   2
ATOM      2  C   UNL     1       6.694 -15.210  19.999  1.00  0.00     0.000 C 
BRANCH   2   3
ATOM      3  C   UNL     1       7.370 -14.787  18.690  1.00  0.00     0.006 C 
BRANCH   3   4
ATOM      4  C   UNL     1       6.539 -13.728  17.958  1.00  0.00     0.053 C 
BRANCH   4   5
ATOM      5  C   UNL     1       7.386 -12.984  16.976  1.00  0.00     0.041 C 
ATOM      6  O   UNL     1       8.406 -12.357  17.366  1.00  0.00    -0.550 OA
ATOM      7  O   UNL     1       7.077 -13.022  15.622  1.00  0.00    -0.550 OA
ENDBRANCH   4   5
ENDBRANCH   3   4
ENDBRANCH   2   3
ENDBRANCH   1   2
BRANCH   1   8
ATOM      8  C   UNL     1       6.105 -13.798  22.051  1.00  0.00     0.000 C 
BRANCH   8   9
ATOM      9  C   UNL     1       6.787 -14.986  22.753  1.00  0.00     0.000 C 
BRANCH   9  10
ATOM     10  C   UNL     1       6.034 -15.436  24.015  1.00  0.00     0.006 C 
BRANCH  10  11
ATOM     11  C   UNL     1       6.377 -16.874  24.429  1.00  0.00     0.053 C 
BRANCH  11  12
ATOM     12  C   UNL     1       7.032 -16.887  25.775  1.00  0.00     0.041 C 
ATOM     13  O   UNL     1       7.051 -17.944  26.459  1.00  0.00    -0.550 OA
ATOM     14  O   UNL     1       7.577 -15.720  26.294  1.00  0.00    -0.550 OA
ENDBRANCH  11  12
ENDBRANCH  10  11
ENDBRANCH   9  10
ENDBRANCH   8   9
ENDBRANCH   1   8
TORSDOF 9
ENDMDL
MODEL 3
REMARK VINA RESULT:    -4.295      0.948      7.033
REMARK INTER + INTRA:          -6.959
REMARK INTER:                  -6.440
REMARK INTRA:                  -0.519
REMARK UNBOUND:                -0.405
REMARK SMILES O=C([O-])CCCCCCCCC(=O)[O-]
REMARK SMILES IDX 7 1 6 2 5 3 4 4 2 5 1 6 3 7 8 8 9 9 10 10 11 11 12 12 13 13
REMARK SMILES IDX 14 14
REMARK H PARENT
REMARK Flexibility Score: inf
ROOT
ATOM      1  C   UNL     1       6.502 -14.820  23.264  1.00  0.00     0.000 C 
ENDROOT
BRANCH   1   2
ATOM      2  C   UNL     1       6.184 -13.846  22.118  1.00  0.00     0.000 C 
BRANCH   2   3
ATOM      3  C   UNL     1       6.322 -14.537  20.757  1.00  0.00     0.006 C 
BRANCH   3   4
ATOM      4  C   UNL     1       6.013 -13.566  19.613  1.00  0.00     0.053 C 
BRANCH   4   5
ATOM      5  C   UNL     1       6.636 -14.041  18.339  1.00  0.00     0.041 C 
ATOM      6  O   UNL     1       7.613 -14.836  18.370  1.00  0.00    -0.550 OA
ATOM      7  O   UNL     1       6.108 -13.647  17.117  1.00  0.00    -0.550 OA
ENDBRANCH   4   5
ENDBRANCH   3   4
ENDBRANCH   2   3
ENDBRANCH   1   2
BRANCH   1   8
ATOM      8  C   UNL     1       7.393 -15.990  22.818  1.00  0.00     0.000 C 
BRANCH   8   9
ATOM      9  C   UNL     1       7.103 -17.285  23.599  1.00  0.00     0.000 C 
BRANCH   9  10
ATOM     10  C   UNL     1       6.834 -17.026  25.090  1.00  0.00     0.006 C 
BRANCH  10  11
ATOM     11  C   UNL     1       8.025 -17.405  25.981  1.00  0.00     0.053 C 
BRANCH  11  12
ATOM     12  C   UNL     1       8.861 -16.199  26.275  1.00  0.00     0.041 C 
ATOM     13  O   UNL     1      10.094 -16.322  26.499  1.00  0.00    -0.550 OA
ATOM     14  O   UNL     1       8.270 -14.945  26.350  1.00  0.00    -0.550 OA
ENDBRANCH  11  12
ENDBRANCH  10  11
ENDBRANCH   9  10
ENDBRANCH   8   9
ENDBRANCH   1   8
TORSDOF 9
ENDMDL
MODEL 4
REMARK VINA RESULT:    -4.189      1.512      6.207
REMARK INTER + INTRA:          -6.799
REMARK INTER:                  -6.151
REMARK INTRA:                  -0.647
REMARK UNBOUND:                -0.405
REMARK SMILES O=C([O-])CCCCCCCCC(=O)[O-]
REMARK SMILES IDX 7 1 6 2 5 3 4 4 2 5 1 6 3 7 8 8 9 9 10 10 11 11 12 12 13 13
REMARK SMILES IDX 14 14
REMARK H PARENT
REMARK Flexibility Score: inf
ROOT
ATOM      1  C   UNL     1       5.993 -16.012  24.239  1.00  0.00     0.000 C 
ENDROOT
BRANCH   1   2
ATOM      2  C   UNL     1       6.608 -14.731  23.653  1.00  0.00     0.000 C 
BRANCH   2   3
ATOM      3  C   UNL     1       6.893 -14.894  22.156  1.00  0.00     0.006 C 
BRANCH   3   4
ATOM      4  C   UNL     1       5.942 -14.034  21.318  1.00  0.00     0.053 C 
BRANCH   4   5
ATOM      5  C   UNL     1       6.245 -14.185  19.861  1.00  0.00     0.041 C 
ATOM      6  O   UNL     1       5.898 -13.290  19.046  1.00  0.00    -0.550 OA
ATOM      7  O   UNL     1       6.956 -15.289  19.409  1.00  0.00    -0.550 OA
ENDBRANCH   4   5
ENDBRANCH   3   4
ENDBRANCH   2   3
ENDBRANCH   1   2
BRANCH   1   8
ATOM      8  C   UNL     1       7.040 -16.928  24.893  1.00  0.00     0.000 C 
BRANCH   8   9
ATOM      9  C   UNL     1       7.539 -16.384  26.244  1.00  0.00     0.000 C 
BRANCH   9  10
ATOM     10  C   UNL     1       8.963 -15.814  26.161  1.00  0.00     0.006 C 
BRANCH  10  11
ATOM     11  C   UNL     1       9.807 -16.485  25.069  1.00  0.00     0.053 C 
BRANCH  11  12
ATOM     12  C   UNL     1      10.429 -15.452  24.182  1.00  0.00     0.041 C 
ATOM     13  O   UNL     1       9.966 -14.281  24.154  1.00  0.00    -0.550 OA
ATOM     14  O   UNL     1      11.487 -15.795  23.351  1.00  0.00    -0.550 OA
ENDBRANCH  11  12
ENDBRANCH  10  11
ENDBRANCH   9  10
ENDBRANCH   8   9
ENDBRANCH   1   8
TORSDOF 9
ENDMDL
MODEL 5
REMARK VINA RESULT:    -4.168      4.513      6.899
REMARK INTER + INTRA:          -6.767
REMARK INTER:                  -6.343
REMARK INTRA:                  -0.424
REMARK UNBOUND:                -0.405
REMARK SMILES O=C([O-])CCCCCCCCC(=O)[O-]
REMARK SMILES IDX 7 1 6 2 5 3 4 4 2 5 1 6 3 7 8 8 9 9 10 10 11 11 12 12 13 13
REMARK SMILES IDX 14 14
REMARK H PARENT
REMARK Flexibility Score: inf
ROOT
ATOM      1  C   UNL     1       7.161 -19.226  26.971  1.00  0.00     0.000 C 
ENDROOT
BRANCH   1   2
ATOM      2  C   UNL     1       7.618 -18.229  25.894  1.00  0.00     0.000 C 
BRANCH   2   3
ATOM      3  C   UNL     1       6.747 -16.968  25.910  1.00  0.00     0.006 C 
BRANCH   3   4
ATOM      4  C   UNL     1       6.240 -16.632  24.504  1.00  0.00     0.053 C 
BRANCH   4   5
ATOM      5  C   UNL     1       6.734 -15.288  24.075  1.00  0.00     0.041 C 
ATOM      6  O   UNL     1       6.191 -14.691  23.108  1.00  0.00    -0.550 OA
ATOM      7  O   UNL     1       7.763 -14.669  24.775  1.00  0.00    -0.550 OA
ENDBRANCH   4   5
ENDBRANCH   3   4
ENDBRANCH   2   3
ENDBRANCH   1   2
BRANCH   1   8
ATOM      8  C   UNL     1       7.095 -20.671  26.453  1.00  0.00     0.000 C 
BRANCH   8   9
ATOM      9  C   UNL     1       7.157 -20.752  24.917  1.00  0.00     0.000 C 
BRANCH   9  10
ATOM     10  C   UNL     1       8.484 -21.338  24.410  1.00  0.00     0.006 C 
BRANCH  10  11
ATOM     11  C   UNL     1       8.557 -21.397  22.878  1.00  0.00     0.053 C 
BRANCH  11  12
ATOM     12  C   UNL     1       9.336 -22.598  22.440  1.00  0.00     0.041 C 
ATOM     13  O   UNL     1      10.235 -23.075  23.182  1.00  0.00    -0.550 OA
ATOM     14  O   UNL     1       9.103 -23.161  21.192  1.00  0.00    -0.550 OA
ENDBRANCH  11  12
ENDBRANCH  10  11
ENDBRANCH   9  10
ENDBRANCH   8   9
ENDBRANCH   1   8
TORSDOF 9
ENDMDL
MODEL 6
REMARK VINA RESULT:    -4.157      1.697      2.943
REMARK INTER + INTRA:          -6.749
REMARK INTER:                  -6.317
REMARK INTRA:                  -0.432
REMARK UNBOUND:                -0.405
REMARK SMILES O=C([O-])CCCCCCCCC(=O)[O-]
REMARK SMILES IDX 7 1 6 2 5 3 4 4 2 5 1 6 3 7 8 8 9 9 10 10 11 11 12 12 13 13
REMARK SMILES IDX 14 14
REMARK H PARENT
REMARK Flexibility Score: inf
ROOT
ATOM      1  C   UNL     1       5.913 -14.080  20.601  1.00  0.00     0.000 C 
ENDROOT
BRANCH   1   2
ATOM      2  C   UNL     1       5.973 -13.994  22.135  1.00  0.00     0.000 C 
BRANCH   2   3
ATOM      3  C   UNL     1       6.995 -14.988  22.699  1.00  0.00     0.006 C 
BRANCH   3   4
ATOM      4  C   UNL     1       6.470 -15.650  23.977  1.00  0.00     0.053 C 
BRANCH   4   5
ATOM      5  C   UNL     1       7.410 -15.412  25.115  1.00  0.00     0.041 C 
ATOM      6  O   UNL     1       7.440 -16.210  26.089  1.00  0.00    -0.550 OA
ATOM      7  O   UNL     1       8.288 -14.337  25.078  1.00  0.00    -0.550 OA
ENDBRANCH   4   5
ENDBRANCH   3   4
ENDBRANCH   2   3
ENDBRANCH   1   2
BRANCH   1   8
ATOM      8  C   UNL     1       6.834 -15.169  20.030  1.00  0.00     0.000 C 
BRANCH   8   9
ATOM      9  C   UNL     1       7.333 -14.839  18.612  1.00  0.00     0.000 C 
BRANCH   9  10
ATOM     10  C   UNL     1       6.547 -13.688  17.964  1.00  0.00     0.006 C 
BRANCH  10  11
ATOM     11  C   UNL     1       6.512 -13.783  16.433  1.00  0.00     0.053 C 
BRANCH  11  12
ATOM     12  C   UNL     1       7.328 -12.686  15.824  1.00  0.00     0.041 C 
ATOM     13  O   UNL     1       8.169 -12.060  16.522  1.00  0.00    -0.550 OA
ATOM     14  O   UNL     1       7.125 -12.321  14.499  1.00  0.00    -0.550 OA
ENDBRANCH  11  12
ENDBRANCH  10  11
ENDBRANCH   9  10
ENDBRANCH   8   9
ENDBRANCH   1   8
TORSDOF 9
ENDMDL
MODEL 7
REMARK VINA RESULT:    -4.156      3.837      6.630
REMARK INTER + INTRA:          -6.747
REMARK INTER:                  -5.919
REMARK INTRA:                  -0.828
REMARK UNBOUND:                -0.405
REMARK SMILES O=C([O-])CCCCCCCCC(=O)[O-]
REMARK SMILES IDX 7 1 6 2 5 3 4 4 2 5 1 6 3 7 8 8 9 9 10 10 11 11 12 12 13 13
REMARK SMILES IDX 14 14
REMARK H PARENT
REMARK Flexibility Score: inf
ROOT
ATOM      1  C   UNL     1       7.485 -18.609  22.360  1.00  0.00     0.000 C 
ENDROOT
BRANCH   1   2
ATOM      2  C   UNL     1       8.039 -17.493  23.262  1.00  0.00     0.000 C 
BRANCH   2   3
ATOM      3  C   UNL     1       6.923 -16.535  23.696  1.00  0.00     0.006 C 
BRANCH   3   4
ATOM      4  C   UNL     1       7.392 -15.078  23.624  1.00  0.00     0.053 C 
BRANCH   4   5
ATOM      5  C   UNL     1       8.452 -14.818  24.646  1.00  0.00     0.041 C 
ATOM      6  O   UNL     1       9.555 -14.317  24.301  1.00  0.00    -0.550 OA
ATOM      7  O   UNL     1       8.206 -15.081  25.987  1.00  0.00    -0.550 OA
ENDBRANCH   4   5
ENDBRANCH   3   4
ENDBRANCH   2   3
ENDBRANCH   1   2
BRANCH   1   8
ATOM      8  C   UNL     1       6.816 -19.739  23.158  1.00  0.00     0.000 C 
BRANCH   8   9
ATOM      9  C   UNL     1       7.825 -20.557  23.984  1.00  0.00     0.000 C 
BRANCH   9  10
ATOM     10  C   UNL     1       7.265 -20.974  25.353  1.00  0.00     0.006 C 
BRANCH  10  11
ATOM     11  C   UNL     1       8.154 -20.522  26.520  1.00  0.00     0.053 C 
BRANCH  11  12
ATOM     12  C   UNL     1       8.187 -19.028  26.600  1.00  0.00     0.041 C 
ATOM     13  O   UNL     1       9.289 -18.419  26.627  1.00  0.00    -0.550 OA
ATOM     14  O   UNL     1       7.002 -18.310  26.696  1.00  0.00    -0.550 OA
ENDBRANCH  11  12
ENDBRANCH  10  11
ENDBRANCH   9  10
ENDBRANCH   8   9
ENDBRANCH   1   8
TORSDOF 9
ENDMDL
MODEL 8
REMARK VINA RESULT:    -4.136      4.036      6.039
REMARK INTER + INTRA:          -6.717
REMARK INTER:                  -6.156
REMARK INTRA:                  -0.561
REMARK UNBOUND:                -0.405
REMARK SMILES O=C([O-])CCCCCCCCC(=O)[O-]
REMARK SMILES IDX 7 1 6 2 5 3 4 4 2 5 1 6 3 7 8 8 9 9 10 10 11 11 12 12 13 13
REMARK SMILES IDX 14 14
REMARK H PARENT
REMARK Flexibility Score: inf
ROOT
ATOM      1  C   UNL     1       7.539 -19.034  22.363  1.00  0.00     0.000 C 
ENDROOT
BRANCH   1   2
ATOM      2  C   UNL     1       6.701 -19.941  23.279  1.00  0.00     0.000 C 
BRANCH   2   3
ATOM      3  C   UNL     1       7.600 -20.878  24.093  1.00  0.00     0.006 C 
BRANCH   3   4
ATOM      4  C   UNL     1       9.001 -20.966  23.480  1.00  0.00     0.053 C 
BRANCH   4   5
ATOM      5  C   UNL     1       9.255 -22.340  22.947  1.00  0.00     0.041 C 
ATOM      6  O   UNL     1       8.580 -22.778  21.979  1.00  0.00    -0.550 OA
ATOM      7  O   UNL     1      10.270 -23.119  23.487  1.00  0.00    -0.550 OA
ENDBRANCH   4   5
ENDBRANCH   3   4
ENDBRANCH   2   3
ENDBRANCH   1   2
BRANCH   1   8
ATOM      8  C   UNL     1       7.493 -17.557  22.787  1.00  0.00     0.000 C 
BRANCH   8   9
ATOM      9  C   UNL     1       6.714 -17.342  24.097  1.00  0.00     0.000 C 
BRANCH   9  10
ATOM     10  C   UNL     1       6.387 -15.863  24.353  1.00  0.00     0.006 C 
BRANCH  10  11
ATOM     11  C   UNL     1       7.442 -14.913  23.767  1.00  0.00     0.053 C 
BRANCH  11  12
ATOM     12  C   UNL     1       8.547 -14.692  24.752  1.00  0.00     0.041 C 
ATOM     13  O   UNL     1       9.706 -14.407  24.349  1.00  0.00    -0.550 OA
ATOM     14  O   UNL     1       8.310 -14.850  26.111  1.00  0.00    -0.550 OA
ENDBRANCH  11  12
ENDBRANCH  10  11
ENDBRANCH   9  10
ENDBRANCH   8   9
ENDBRANCH   1   8
TORSDOF 9
ENDMDL
MODEL 9
REMARK VINA RESULT:    -4.078      4.744      6.416
REMARK INTER + INTRA:          -6.629
REMARK INTER:                  -6.031
REMARK INTRA:                  -0.598
REMARK UNBOUND:                -0.405
REMARK SMILES O=C([O-])CCCCCCCCC(=O)[O-]
REMARK SMILES IDX 7 1 6 2 5 3 4 4 2 5 1 6 3 7 8 8 9 9 10 10 11 11 12 12 13 13
REMARK SMILES IDX 14 14
REMARK H PARENT
REMARK Flexibility Score: inf
ROOT
ATOM      1  C   UNL     1       7.992 -18.950  22.668  1.00  0.00     0.000 C 
ENDROOT
BRANCH   1   2
ATOM      2  C   UNL     1       7.460 -17.515  22.810  1.00  0.00     0.000 C 
BRANCH   2   3
ATOM      3  C   UNL     1       6.859 -17.288  24.202  1.00  0.00     0.006 C 
BRANCH   3   4
ATOM      4  C   UNL     1       6.059 -15.983  24.249  1.00  0.00     0.053 C 
BRANCH   4   5
ATOM      5  C   UNL     1       6.958 -14.808  24.033  1.00  0.00     0.041 C 
ATOM      6  O   UNL     1       7.904 -14.579  24.833  1.00  0.00    -0.550 OA
ATOM      7  O   UNL     1       6.785 -13.994  22.921  1.00  0.00    -0.550 OA
ENDBRANCH   4   5
ENDBRANCH   3   4
ENDBRANCH   2   3
ENDBRANCH   1   2
BRANCH   1   8
ATOM      8  C   UNL     1       7.017 -20.002  23.220  1.00  0.00     0.000 C 
BRANCH   8   9
ATOM      9  C   UNL     1       7.724 -21.077  24.064  1.00  0.00     0.000 C 
BRANCH   9  10
ATOM     10  C   UNL     1       9.072 -21.507  23.464  1.00  0.00     0.006 C 
BRANCH  10  11
ATOM     11  C   UNL     1       8.932 -22.659  22.459  1.00  0.00     0.053 C 
BRANCH  11  12
ATOM     12  C   UNL     1       9.201 -22.174  21.069  1.00  0.00     0.041 C 
ATOM     13  O   UNL     1       8.247 -21.983  20.269  1.00  0.00    -0.550 OA
ATOM     14  O   UNL     1      10.508 -21.980  20.641  1.00  0.00    -0.550 OA
ENDBRANCH  11  12
ENDBRANCH  10  11
ENDBRANCH   9  10
ENDBRANCH   8   9
ENDBRANCH   1   8
TORSDOF 9
ENDMDL
