MODEL 1
REMARK VINA RESULT:    -2.341      0.000      0.000
REMARK INTER + INTRA:          -2.341
REMARK INTER:                  -2.341
REMARK INTRA:                   0.000
REMARK UNBOUND:                 0.000
REMARK SMILES CC(=O)[O-]
REMARK SMILES IDX 1 1 2 2 3 3 4 4
REMARK H PARENT
REMARK Flexibility Score: inf
ROOT
ATOM      1  C   UNL     1      -7.634  19.002  -7.358  1.00  0.00     0.063 C 
ATOM      2  C   UNL     1      -6.979  19.289  -8.667  1.00  0.00     0.038 C 
ATOM      3  O   UNL     1      -7.487  20.127  -9.457  1.00  0.00    -0.550 OA
ATOM      4  O   UNL     1      -5.779  18.671  -8.996  1.00  0.00    -0.550 OA
ENDROOT
TORSDOF 0
ENDMDL
MODEL 2
REMARK VINA RESULT:    -2.320      1.611      1.852
REMARK INTER + INTRA:          -2.320
REMARK INTER:                  -2.320
REMARK INTRA:                   0.000
REMARK UNBOUND:                 0.000
REMARK SMILES CC(=O)[O-]
REMARK SMILES IDX 1 1 2 2 3 3 4 4
REMARK H PARENT
REMARK Flexibility Score: inf
ROOT
ATOM      1  C   UNL     1      -7.248  18.172  -8.769  1.00  0.00     0.063 C 
ATOM      2  C   UNL     1      -7.178  19.484  -8.062  1.00  0.00     0.038 C 
ATOM      3  O   UNL     1      -7.786  19.647  -6.972  1.00  0.00    -0.550 OA
ATOM      4  O   UNL     1      -6.397  20.512  -8.576  1.00  0.00    -0.550 OA
ENDROOT
TORSDOF 0
ENDMDL
MODEL 3
REMARK VINA RESULT:    -2.267      1.682      2.202
REMARK INTER + INTRA:          -2.267
REMARK INTER:                  -2.267
REMARK INTRA:                   0.000
REMARK UNBOUND:                 0.000
REMARK SMILES CC(=O)[O-]
REMARK SMILES IDX 1 1 2 2 3 3 4 4
REMARK H PARENT
REMARK Flexibility Score: inf
ROOT
ATOM      1  C   UNL     1      -6.523  20.261  -8.902  1.00  0.00     0.063 C 
ATOM      2  C   UNL     1      -7.317  19.188  -8.235  1.00  0.00     0.038 C 
ATOM      3  O   UNL     1      -7.410  18.050  -8.764  1.00  0.00    -0.550 OA
ATOM      4  O   UNL     1      -7.910  19.426  -7.002  1.00  0.00    -0.550 OA
ENDROOT
TORSDOF 0
ENDMDL
MODEL 4
REMARK VINA RESULT:    -2.250      1.659      1.939
REMARK INTER + INTRA:          -2.250
REMARK INTER:                  -2.250
REMARK INTRA:                   0.000
REMARK UNBOUND:                 0.000
REMARK SMILES CC(=O)[O-]
REMARK SMILES IDX 1 1 2 2 3 3 4 4
REMARK H PARENT
REMARK Flexibility Score: inf
ROOT
ATOM      1  C   UNL     1      -6.520  20.308  -8.900  1.00  0.00     0.063 C 
ATOM      2  C   UNL     1      -7.302  19.252  -8.194  1.00  0.00     0.038 C 
ATOM      3  O   UNL     1      -7.870  19.511  -7.101  1.00  0.00    -0.550 OA
ATOM      4  O   UNL     1      -7.450  17.995  -8.767  1.00  0.00    -0.550 OA
ENDROOT
TORSDOF 0
ENDMDL
MODEL 5
REMARK VINA RESULT:    -2.210     12.546     13.029
REMARK INTER + INTRA:          -2.210
REMARK INTER:                  -2.210
REMARK INTRA:                   0.000
REMARK UNBOUND:                 0.000
REMARK SMILES CC(=O)[O-]
REMARK SMILES IDX 1 1 2 2 3 3 4 4
REMARK H PARENT
REMARK Flexibility Score: inf
ROOT
ATOM      1  C   UNL     1     -17.746  17.603  -1.823  1.00  0.00     0.063 C 
ATOM      2  C   UNL     1     -17.292  18.749  -0.984  1.00  0.00     0.038 C 
ATOM      3  O   UNL     1     -16.088  18.831  -0.624  1.00  0.00    -0.550 OA
ATOM      4  O   UNL     1     -18.184  19.758  -0.642  1.00  0.00    -0.550 OA
ENDROOT
TORSDOF 0
ENDMDL
MODEL 6
REMARK VINA RESULT:    -1.982      1.328      1.845
REMARK INTER + INTRA:          -1.982
REMARK INTER:                  -1.982
REMARK INTRA:                   0.000
REMARK UNBOUND:                 0.000
REMARK SMILES CC(=O)[O-]
REMARK SMILES IDX 1 1 2 2 3 3 4 4
REMARK H PARENT
REMARK Flexibility Score: inf
ROOT
ATOM      1  C   UNL     1      -6.529  20.969  -9.729  1.00  0.00     0.063 C 
ATOM      2  C   UNL     1      -6.603  19.765  -8.851  1.00  0.00     0.038 C 
ATOM      3  O   UNL     1      -7.467  19.702  -7.937  1.00  0.00    -0.550 OA
ATOM      4  O   UNL     1      -5.754  18.688  -9.073  1.00  0.00    -0.550 OA
ENDROOT
TORSDOF 0
ENDMDL
MODEL 7
REMARK VINA RESULT:    -1.927     11.267     11.760
REMARK INTER + INTRA:          -1.927
REMARK INTER:                  -1.927
REMARK INTRA:                   0.000
REMARK UNBOUND:                 0.000
REMARK SMILES CC(=O)[O-]
REMARK SMILES IDX 1 1 2 2 3 3 4 4
REMARK H PARENT
REMARK Flexibility Score: inf
ROOT
ATOM      1  C   UNL     1     -17.960  17.481  -2.044  1.00  0.00     0.063 C 
ATOM      2  C   UNL     1     -16.780  16.896  -2.744  1.00  0.00     0.038 C 
ATOM      3  O   UNL     1     -16.945  16.056  -3.666  1.00  0.00    -0.550 OA
ATOM      4  O   UNL     1     -15.497  17.317  -2.416  1.00  0.00    -0.550 OA
ENDROOT
TORSDOF 0
ENDMDL
MODEL 8
REMARK VINA RESULT:    -1.822     12.923     13.334
REMARK INTER + INTRA:          -1.822
REMARK INTER:                  -1.822
REMARK INTRA:                   0.000
REMARK UNBOUND:                 0.000
REMARK SMILES CC(=O)[O-]
REMARK SMILES IDX 1 1 2 2 3 3 4 4
REMARK H PARENT
REMARK Flexibility Score: inf
ROOT
ATOM      1  C   UNL     1     -15.259  26.000  -0.932  1.00  0.00     0.063 C 
ATOM      2  C   UNL     1     -16.433  25.672  -1.793  1.00  0.00     0.038 C 
ATOM      3  O   UNL     1     -17.264  26.567  -2.095  1.00  0.00    -0.550 OA
ATOM      4  O   UNL     1     -16.582  24.390  -2.307  1.00  0.00    -0.550 OA
ENDROOT
TORSDOF 0
ENDMDL
MODEL 9
REMARK VINA RESULT:    -1.789     13.689     14.111
REMARK INTER + INTRA:          -1.789
REMARK INTER:                  -1.789
REMARK INTRA:                   0.000
REMARK UNBOUND:                 0.000
REMARK SMILES CC(=O)[O-]
REMARK SMILES IDX 1 1 2 2 3 3 4 4
REMARK H PARENT
REMARK Flexibility Score: inf
ROOT
ATOM      1  C   UNL     1     -16.693  24.663  -2.152  1.00  0.00     0.063 C 
ATOM      2  C   UNL     1     -16.970  25.923  -1.404  1.00  0.00     0.038 C 
ATOM      3  O   UNL     1     -17.049  25.908  -0.148  1.00  0.00    -0.550 OA
ATOM      4  O   UNL     1     -17.089  27.126  -2.088  1.00  0.00    -0.550 OA
ENDROOT
TORSDOF 0
ENDMDL
