MODEL 1
REMARK VINA RESULT:    -3.000      0.000      0.000
REMARK INTER + INTRA:          -6.436
REMARK INTER:                  -5.104
REMARK INTRA:                  -1.331
REMARK UNBOUND:                -1.331
REMARK SMILES CCCCCCCCCCCCCC(=O)[O-]
REMARK SMILES IDX 8 1 9 2 10 3 11 4 12 5 13 6 14 7 15 8 16 9 7 10 6 11 5 12
REMARK SMILES IDX 4 13 3 14 2 15 1 16
REMARK H PARENT
REMARK Flexibility Score: inf
ROOT
ATOM      1  C   UNL     1       9.982 -16.018   8.879  1.00  0.00     0.000 C 
ENDROOT
BRANCH   1   2
ATOM      2  C   UNL     1       9.650 -14.847   7.937  1.00  0.00     0.000 C 
BRANCH   2   3
ATOM      3  C   UNL     1       9.861 -15.207   6.458  1.00  0.00     0.000 C 
BRANCH   3   4
ATOM      4  C   UNL     1       8.967 -16.371   5.996  1.00  0.00     0.000 C 
BRANCH   4   5
ATOM      5  C   UNL     1       9.753 -17.467   5.254  1.00  0.00     0.006 C 
BRANCH   5   6
ATOM      6  C   UNL     1       8.871 -18.559   4.626  1.00  0.00     0.053 C 
BRANCH   6   7
ATOM      7  C   UNL     1       8.931 -18.539   3.130  1.00  0.00     0.041 C 
ATOM      8  O   UNL     1       8.999 -17.444   2.513  1.00  0.00    -0.550 OA
ATOM      9  O   UNL     1       8.877 -19.730   2.415  1.00  0.00    -0.550 OA
ENDBRANCH   6   7
ENDBRANCH   5   6
ENDBRANCH   4   5
ENDBRANCH   3   4
ENDBRANCH   2   3
ENDBRANCH   1   2
BRANCH   1  10
ATOM     10  C   UNL     1       8.849 -16.312   9.878  1.00  0.00     0.000 C 
BRANCH  10  11
ATOM     11  C   UNL     1       7.770 -17.238   9.293  1.00  0.00    -0.000 C 
BRANCH  11  12
ATOM     12  C   UNL     1       6.391 -16.560   9.214  1.00  0.00    -0.000 C 
BRANCH  12  13
ATOM     13  C   UNL     1       6.047 -16.087   7.792  1.00  0.00    -0.000 C 
BRANCH  13  14
ATOM     14  C   UNL     1       4.779 -15.214   7.743  1.00  0.00    -0.000 C 
BRANCH  14  15
ATOM     15  C   UNL     1       5.002 -13.772   7.251  1.00  0.00    -0.003 C 
ATOM     16  C   UNL     1       6.423 -13.523   6.751  1.00  0.00     0.004 C 
ENDBRANCH  14  15
ENDBRANCH  13  14
ENDBRANCH  12  13
ENDBRANCH  11  12
ENDBRANCH  10  11
ENDBRANCH   1  10
TORSDOF 12
ENDMDL
MODEL 2
REMARK VINA RESULT:    -2.985      1.942      3.885
REMARK INTER + INTRA:          -6.410
REMARK INTER:                  -4.186
REMARK INTRA:                  -2.224
REMARK UNBOUND:                -1.331
REMARK SMILES CCCCCCCCCCCCCC(=O)[O-]
REMARK SMILES IDX 8 1 9 2 10 3 11 4 12 5 13 6 14 7 15 8 16 9 7 10 6 11 5 12
REMARK SMILES IDX 4 13 3 14 2 15 1 16
REMARK H PARENT
REMARK Flexibility Score: inf
ROOT
ATOM      1  C   UNL     1       9.384 -18.331   8.426  1.00  0.00     0.000 C 
ENDROOT
BRANCH   1   2
ATOM      2  C   UNL     1      10.832 -18.311   7.904  1.00  0.00     0.000 C 
BRANCH   2   3
ATOM      3  C   UNL     1      10.935 -18.778   6.444  1.00  0.00     0.000 C 
BRANCH   3   4
ATOM      4  C   UNL     1      11.300 -17.635   5.480  1.00  0.00     0.000 C 
BRANCH   4   5
ATOM      5  C   UNL     1      10.078 -17.077   4.728  1.00  0.00     0.006 C 
BRANCH   5   6
ATOM      6  C   UNL     1       8.905 -18.065   4.613  1.00  0.00     0.053 C 
BRANCH   6   7
ATOM      7  C   UNL     1       8.476 -18.266   3.192  1.00  0.00     0.041 C 
ATOM      8  O   UNL     1       7.663 -19.180   2.899  1.00  0.00    -0.550 OA
ATOM      9  O   UNL     1       9.002 -17.463   2.186  1.00  0.00    -0.550 OA
ENDBRANCH   6   7
ENDBRANCH   5   6
ENDBRANCH   4   5
ENDBRANCH   3   4
ENDBRANCH   2   3
ENDBRANCH   1   2
BRANCH   1  10
ATOM     10  C   UNL     1       8.909 -16.947   8.902  1.00  0.00     0.000 C 
BRANCH  10  11
ATOM     11  C   UNL     1       8.163 -16.168   7.805  1.00  0.00    -0.000 C 
BRANCH  11  12
ATOM     12  C   UNL     1       8.909 -14.893   7.377  1.00  0.00    -0.000 C 
BRANCH  12  13
ATOM     13  C   UNL     1      10.092 -14.563   8.305  1.00  0.00    -0.000 C 
BRANCH  13  14
ATOM     14  C   UNL     1      11.450 -14.601   7.579  1.00  0.00    -0.000 C 
BRANCH  14  15
ATOM     15  C   UNL     1      12.607 -15.198   8.399  1.00  0.00    -0.003 C 
ATOM     16  C   UNL     1      12.258 -15.394   9.874  1.00  0.00     0.004 C 
ENDBRANCH  14  15
ENDBRANCH  13  14
ENDBRANCH  12  13
ENDBRANCH  11  12
ENDBRANCH  10  11
ENDBRANCH   1  10
TORSDOF 12
ENDMDL
MODEL 3
REMARK VINA RESULT:    -2.935      2.104      4.445
REMARK INTER + INTRA:          -6.326
REMARK INTER:                  -4.562
REMARK INTRA:                  -1.764
REMARK UNBOUND:                -1.331
REMARK SMILES CCCCCCCCCCCCCC(=O)[O-]
REMARK SMILES IDX 8 1 9 2 10 3 11 4 12 5 13 6 14 7 15 8 16 9 7 10 6 11 5 12
REMARK SMILES IDX 4 13 3 14 2 15 1 16
REMARK H PARENT
REMARK Flexibility Score: inf
ROOT
ATOM      1  C   UNL     1       9.004 -15.842   8.577  1.00  0.00     0.000 C 
ENDROOT
BRANCH   1   2
ATOM      2  C   UNL     1       8.846 -14.734   7.520  1.00  0.00     0.000 C 
BRANCH   2   3
ATOM      3  C   UNL     1       9.201 -15.218   6.105  1.00  0.00     0.000 C 
BRANCH   3   4
ATOM      4  C   UNL     1       9.535 -16.719   6.057  1.00  0.00     0.000 C 
BRANCH   4   5
ATOM      5  C   UNL     1      10.156 -17.149   4.715  1.00  0.00     0.006 C 
BRANCH   5   6
ATOM      6  C   UNL     1       9.590 -18.462   4.151  1.00  0.00     0.053 C 
BRANCH   6   7
ATOM      7  C   UNL     1       8.633 -18.223   3.024  1.00  0.00     0.041 C 
ATOM      8  O   UNL     1       8.870 -17.330   2.170  1.00  0.00    -0.550 OA
ATOM      9  O   UNL     1       7.460 -18.964   2.938  1.00  0.00    -0.550 OA
ENDBRANCH   6   7
ENDBRANCH   5   6
ENDBRANCH   4   5
ENDBRANCH   3   4
ENDBRANCH   2   3
ENDBRANCH   1   2
BRANCH   1  10
ATOM     10  C   UNL     1      10.072 -15.503   9.632  1.00  0.00     0.000 C 
BRANCH  10  11
ATOM     11  C   UNL     1      10.796 -14.178   9.336  1.00  0.00    -0.000 C 
BRANCH  11  12
ATOM     12  C   UNL     1      12.081 -14.379   8.517  1.00  0.00    -0.000 C 
BRANCH  12  13
ATOM     13  C   UNL     1      12.663 -15.796   8.669  1.00  0.00    -0.000 C 
BRANCH  13  14
ATOM     14  C   UNL     1      13.054 -16.430   7.321  1.00  0.00    -0.000 C 
BRANCH  14  15
ATOM     15  C   UNL     1      12.806 -17.945   7.220  1.00  0.00    -0.003 C 
ATOM     16  C   UNL     1      11.918 -18.483   8.342  1.00  0.00     0.004 C 
ENDBRANCH  14  15
ENDBRANCH  13  14
ENDBRANCH  12  13
ENDBRANCH  11  12
ENDBRANCH  10  11
ENDBRANCH   1  10
TORSDOF 12
ENDMDL
MODEL 4
REMARK VINA RESULT:    -2.905      4.065      6.192
REMARK INTER + INTRA:          -6.275
REMARK INTER:                  -4.889
REMARK INTRA:                  -1.386
REMARK UNBOUND:                -1.331
REMARK SMILES CCCCCCCCCCCCCC(=O)[O-]
REMARK SMILES IDX 8 1 9 2 10 3 11 4 12 5 13 6 14 7 15 8 16 9 7 10 6 11 5 12
REMARK SMILES IDX 4 13 3 14 2 15 1 16
REMARK H PARENT
REMARK Flexibility Score: inf
ROOT
ATOM      1  C   UNL     1       3.833 -19.944   1.992  1.00  0.00     0.000 C 
ENDROOT
BRANCH   1   2
ATOM      2  C   UNL     1       4.736 -20.708   2.977  1.00  0.00     0.000 C 
BRANCH   2   3
ATOM      3  C   UNL     1       5.804 -19.805   3.616  1.00  0.00     0.000 C 
BRANCH   3   4
ATOM      4  C   UNL     1       6.956 -20.605   4.249  1.00  0.00     0.000 C 
BRANCH   4   5
ATOM      5  C   UNL     1       8.342 -20.054   3.868  1.00  0.00     0.006 C 
BRANCH   5   6
ATOM      6  C   UNL     1       8.640 -18.654   4.429  1.00  0.00     0.053 C 
BRANCH   6   7
ATOM      7  C   UNL     1       9.395 -17.805   3.452  1.00  0.00     0.041 C 
ATOM      8  O   UNL     1      10.562 -17.419   3.719  1.00  0.00    -0.550 OA
ATOM      9  O   UNL     1       8.794 -17.413   2.262  1.00  0.00    -0.550 OA
ENDBRANCH   6   7
ENDBRANCH   5   6
ENDBRANCH   4   5
ENDBRANCH   3   4
ENDBRANCH   2   3
ENDBRANCH   1   2
BRANCH   1  10
ATOM     10  C   UNL     1       3.946 -18.418   2.150  1.00  0.00     0.000 C 
BRANCH  10  11
ATOM     11  C   UNL     1       2.826 -17.829   3.025  1.00  0.00    -0.000 C 
BRANCH  11  12
ATOM     12  C   UNL     1       1.702 -18.841   3.302  1.00  0.00    -0.000 C 
BRANCH  12  13
ATOM     13  C   UNL     1       1.716 -19.358   4.751  1.00  0.00    -0.000 C 
BRANCH  13  14
ATOM     14  C   UNL     1       2.655 -18.549   5.665  1.00  0.00    -0.000 C 
BRANCH  14  15
ATOM     15  C   UNL     1       3.408 -19.379   6.720  1.00  0.00    -0.003 C 
ATOM     16  C   UNL     1       4.797 -18.829   7.036  1.00  0.00     0.004 C 
ENDBRANCH  14  15
ENDBRANCH  13  14
ENDBRANCH  12  13
ENDBRANCH  11  12
ENDBRANCH  10  11
ENDBRANCH   1  10
TORSDOF 12
ENDMDL
MODEL 5
REMARK VINA RESULT:    -2.902      4.007      5.949
REMARK INTER + INTRA:          -6.269
REMARK INTER:                  -4.872
REMARK INTRA:                  -1.397
REMARK UNBOUND:                -1.331
REMARK SMILES CCCCCCCCCCCCCC(=O)[O-]
REMARK SMILES IDX 8 1 9 2 10 3 11 4 12 5 13 6 14 7 15 8 16 9 7 10 6 11 5 12
REMARK SMILES IDX 4 13 3 14 2 15 1 16
REMARK H PARENT
REMARK Flexibility Score: inf
ROOT
ATOM      1  C   UNL     1       5.235 -20.605   5.259  1.00  0.00     0.000 C 
ENDROOT
BRANCH   1   2
ATOM      2  C   UNL     1       6.651 -20.062   4.997  1.00  0.00     0.000 C 
BRANCH   2   3
ATOM      3  C   UNL     1       6.875 -19.696   3.521  1.00  0.00     0.000 C 
BRANCH   3   4
ATOM      4  C   UNL     1       8.029 -18.697   3.326  1.00  0.00     0.000 C 
BRANCH   4   5
ATOM      5  C   UNL     1       8.857 -18.486   4.607  1.00  0.00     0.006 C 
BRANCH   5   6
ATOM      6  C   UNL     1      10.127 -17.644   4.403  1.00  0.00     0.053 C 
BRANCH   6   7
ATOM      7  C   UNL     1       9.945 -16.231   4.865  1.00  0.00     0.041 C 
ATOM      8  O   UNL     1      10.478 -15.284   4.230  1.00  0.00    -0.550 OA
ATOM      9  O   UNL     1       9.215 -15.963   6.016  1.00  0.00    -0.550 OA
ENDBRANCH   6   7
ENDBRANCH   5   6
ENDBRANCH   4   5
ENDBRANCH   3   4
ENDBRANCH   2   3
ENDBRANCH   1   2
BRANCH   1  10
ATOM     10  C   UNL     1       4.329 -19.579   5.961  1.00  0.00     0.000 C 
BRANCH  10  11
ATOM     11  C   UNL     1       2.961 -19.430   5.272  1.00  0.00    -0.000 C 
BRANCH  11  12
ATOM     12  C   UNL     1       2.773 -18.044   4.632  1.00  0.00    -0.000 C 
BRANCH  12  13
ATOM     13  C   UNL     1       2.447 -18.126   3.131  1.00  0.00    -0.000 C 
BRANCH  13  14
ATOM     14  C   UNL     1       3.701 -18.318   2.257  1.00  0.00    -0.000 C 
BRANCH  14  15
ATOM     15  C   UNL     1       3.606 -19.458   1.227  1.00  0.00    -0.003 C 
ATOM     16  C   UNL     1       3.648 -20.846   1.863  1.00  0.00     0.004 C 
ENDBRANCH  14  15
ENDBRANCH  13  14
ENDBRANCH  12  13
ENDBRANCH  11  12
ENDBRANCH  10  11
ENDBRANCH   1  10
TORSDOF 12
ENDMDL
MODEL 6
REMARK VINA RESULT:    -2.854      1.424      2.226
REMARK INTER + INTRA:          -6.188
REMARK INTER:                  -4.585
REMARK INTRA:                  -1.604
REMARK UNBOUND:                -1.331
REMARK SMILES CCCCCCCCCCCCCC(=O)[O-]
REMARK SMILES IDX 8 1 9 2 10 3 11 4 12 5 13 6 14 7 15 8 16 9 7 10 6 11 5 12
REMARK SMILES IDX 4 13 3 14 2 15 1 16
REMARK H PARENT
REMARK Flexibility Score: inf
ROOT
ATOM      1  C   UNL     1      10.302 -17.380   9.090  1.00  0.00     0.000 C 
ENDROOT
BRANCH   1   2
ATOM      2  C   UNL     1      10.606 -15.940   9.539  1.00  0.00     0.000 C 
BRANCH   2   3
ATOM      3  C   UNL     1      10.505 -14.932   8.383  1.00  0.00     0.000 C 
BRANCH   3   4
ATOM      4  C   UNL     1       9.051 -14.646   7.970  1.00  0.00     0.000 C 
BRANCH   4   5
ATOM      5  C   UNL     1       8.812 -14.839   6.460  1.00  0.00     0.006 C 
BRANCH   5   6
ATOM      6  C   UNL     1       9.963 -15.548   5.728  1.00  0.00     0.053 C 
BRANCH   6   7
ATOM      7  C   UNL     1       9.513 -16.814   5.065  1.00  0.00     0.041 C 
ATOM      8  O   UNL     1       8.936 -17.708   5.736  1.00  0.00    -0.550 OA
ATOM      9  O   UNL     1       9.763 -17.019   3.714  1.00  0.00    -0.550 OA
ENDBRANCH   6   7
ENDBRANCH   5   6
ENDBRANCH   4   5
ENDBRANCH   3   4
ENDBRANCH   2   3
ENDBRANCH   1   2
BRANCH   1  10
ATOM     10  C   UNL     1       9.116 -17.998   9.851  1.00  0.00     0.000 C 
BRANCH  10  11
ATOM     11  C   UNL     1       7.759 -17.645   9.220  1.00  0.00    -0.000 C 
BRANCH  11  12
ATOM     12  C   UNL     1       6.778 -17.034  10.235  1.00  0.00    -0.000 C 
BRANCH  12  13
ATOM     13  C   UNL     1       5.484 -16.528   9.575  1.00  0.00    -0.000 C 
BRANCH  13  14
ATOM     14  C   UNL     1       5.683 -16.118   8.103  1.00  0.00    -0.000 C 
BRANCH  14  15
ATOM     15  C   UNL     1       4.655 -15.107   7.566  1.00  0.00    -0.003 C 
ATOM     16  C   UNL     1       5.280 -13.774   7.162  1.00  0.00     0.004 C 
ENDBRANCH  14  15
ENDBRANCH  13  14
ENDBRANCH  12  13
ENDBRANCH  11  12
ENDBRANCH  10  11
ENDBRANCH   1  10
TORSDOF 12
ENDMDL
MODEL 7
REMARK VINA RESULT:    -2.820      1.772      2.777
REMARK INTER + INTRA:          -6.131
REMARK INTER:                  -4.432
REMARK INTRA:                  -1.699
REMARK UNBOUND:                -1.331
REMARK SMILES CCCCCCCCCCCCCC(=O)[O-]
REMARK SMILES IDX 8 1 9 2 10 3 11 4 12 5 13 6 14 7 15 8 16 9 7 10 6 11 5 12
REMARK SMILES IDX 4 13 3 14 2 15 1 16
REMARK H PARENT
REMARK Flexibility Score: inf
ROOT
ATOM      1  C   UNL     1      11.377 -14.653   7.955  1.00  0.00     0.000 C 
ENDROOT
BRANCH   1   2
ATOM      2  C   UNL     1      11.496 -15.284   6.557  1.00  0.00     0.000 C 
BRANCH   2   3
ATOM      3  C   UNL     1      11.962 -16.748   6.612  1.00  0.00     0.000 C 
BRANCH   3   4
ATOM      4  C   UNL     1      10.807 -17.746   6.420  1.00  0.00     0.000 C 
BRANCH   4   5
ATOM      5  C   UNL     1      10.459 -17.977   4.937  1.00  0.00     0.006 C 
BRANCH   5   6
ATOM      6  C   UNL     1       8.950 -18.023   4.645  1.00  0.00     0.053 C 
BRANCH   6   7
ATOM      7  C   UNL     1       8.666 -18.274   3.196  1.00  0.00     0.041 C 
ATOM      8  O   UNL     1       8.935 -17.395   2.337  1.00  0.00    -0.550 OA
ATOM      9  O   UNL     1       8.070 -19.465   2.800  1.00  0.00    -0.550 OA
ENDBRANCH   6   7
ENDBRANCH   5   6
ENDBRANCH   4   5
ENDBRANCH   3   4
ENDBRANCH   2   3
ENDBRANCH   1   2
BRANCH   1  10
ATOM     10  C   UNL     1       9.922 -14.584   8.451  1.00  0.00     0.000 C 
BRANCH  10  11
ATOM     11  C   UNL     1       8.902 -14.675   7.303  1.00  0.00    -0.000 C 
BRANCH  11  12
ATOM     12  C   UNL     1       7.886 -15.811   7.507  1.00  0.00    -0.000 C 
BRANCH  12  13
ATOM     13  C   UNL     1       8.142 -16.609   8.797  1.00  0.00    -0.000 C 
BRANCH  13  14
ATOM     14  C   UNL     1       7.740 -18.090   8.675  1.00  0.00    -0.000 C 
BRANCH  14  15
ATOM     15  C   UNL     1       6.698 -18.392   7.583  1.00  0.00    -0.003 C 
ATOM     16  C   UNL     1       5.265 -18.418   8.113  1.00  0.00     0.004 C 
ENDBRANCH  14  15
ENDBRANCH  13  14
ENDBRANCH  12  13
ENDBRANCH  11  12
ENDBRANCH  10  11
ENDBRANCH   1  10
TORSDOF 12
ENDMDL
MODEL 8
REMARK VINA RESULT:    -2.807      2.227      4.009
REMARK INTER + INTRA:          -6.107
REMARK INTER:                  -4.144
REMARK INTRA:                  -1.963
REMARK UNBOUND:                -1.331
REMARK SMILES CCCCCCCCCCCCCC(=O)[O-]
REMARK SMILES IDX 8 1 9 2 10 3 11 4 12 5 13 6 14 7 15 8 16 9 7 10 6 11 5 12
REMARK SMILES IDX 4 13 3 14 2 15 1 16
REMARK H PARENT
REMARK Flexibility Score: inf
ROOT
ATOM      1  C   UNL     1      12.458 -17.196   7.096  1.00  0.00     0.000 C 
ENDROOT
BRANCH   1   2
ATOM      2  C   UNL     1      11.988 -18.643   7.331  1.00  0.00     0.000 C 
BRANCH   2   3
ATOM      3  C   UNL     1      10.487 -18.729   7.649  1.00  0.00     0.000 C 
BRANCH   3   4
ATOM      4  C   UNL     1       9.703 -19.535   6.598  1.00  0.00     0.000 C 
BRANCH   4   5
ATOM      5  C   UNL     1       9.036 -18.639   5.537  1.00  0.00     0.006 C 
BRANCH   5   6
ATOM      6  C   UNL     1       9.522 -18.896   4.101  1.00  0.00     0.053 C 
BRANCH   6   7
ATOM      7  C   UNL     1       8.542 -18.406   3.080  1.00  0.00     0.041 C 
ATOM      8  O   UNL     1       7.427 -18.973   2.949  1.00  0.00    -0.550 OA
ATOM      9  O   UNL     1       8.877 -17.343   2.249  1.00  0.00    -0.550 OA
ENDBRANCH   6   7
ENDBRANCH   5   6
ENDBRANCH   4   5
ENDBRANCH   3   4
ENDBRANCH   2   3
ENDBRANCH   1   2
BRANCH   1  10
ATOM     10  C   UNL     1      12.818 -16.923   5.626  1.00  0.00     0.000 C 
BRANCH  10  11
ATOM     11  C   UNL     1      11.779 -16.037   4.917  1.00  0.00    -0.000 C 
BRANCH  11  12
ATOM     12  C   UNL     1      11.055 -15.088   5.886  1.00  0.00    -0.000 C 
BRANCH  12  13
ATOM     13  C   UNL     1       9.529 -15.285   5.877  1.00  0.00    -0.000 C 
BRANCH  13  14
ATOM     14  C   UNL     1       8.862 -14.848   7.195  1.00  0.00    -0.000 C 
BRANCH  14  15
ATOM     15  C   UNL     1       9.832 -14.600   8.363  1.00  0.00    -0.003 C 
ATOM     16  C   UNL     1       9.709 -15.641   9.475  1.00  0.00     0.004 C 
ENDBRANCH  14  15
ENDBRANCH  13  14
ENDBRANCH  12  13
ENDBRANCH  11  12
ENDBRANCH  10  11
ENDBRANCH   1  10
TORSDOF 12
ENDMDL
MODEL 9
REMARK VINA RESULT:    -2.786      1.675      2.571
REMARK INTER + INTRA:          -6.072
REMARK INTER:                  -4.155
REMARK INTRA:                  -1.917
REMARK UNBOUND:                -1.331
REMARK SMILES CCCCCCCCCCCCCC(=O)[O-]
REMARK SMILES IDX 8 1 9 2 10 3 11 4 12 5 13 6 14 7 15 8 16 9 7 10 6 11 5 12
REMARK SMILES IDX 4 13 3 14 2 15 1 16
REMARK H PARENT
REMARK Flexibility Score: inf
ROOT
ATOM      1  C   UNL     1      10.302 -15.060   8.544  1.00  0.00     0.000 C 
ENDROOT
BRANCH   1   2
ATOM      2  C   UNL     1       9.075 -14.479   7.819  1.00  0.00     0.000 C 
BRANCH   2   3
ATOM      3  C   UNL     1       8.902 -15.057   6.405  1.00  0.00     0.000 C 
BRANCH   3   4
ATOM      4  C   UNL     1      10.116 -15.884   5.949  1.00  0.00     0.000 C 
BRANCH   4   5
ATOM      5  C   UNL     1       9.958 -16.433   4.518  1.00  0.00     0.006 C 
BRANCH   5   6
ATOM      6  C   UNL     1       9.443 -17.880   4.453  1.00  0.00     0.053 C 
BRANCH   6   7
ATOM      7  C   UNL     1       8.935 -18.235   3.089  1.00  0.00     0.041 C 
ATOM      8  O   UNL     1       9.702 -18.178   2.093  1.00  0.00    -0.550 OA
ATOM      9  O   UNL     1       7.604 -18.596   2.914  1.00  0.00    -0.550 OA
ENDBRANCH   6   7
ENDBRANCH   5   6
ENDBRANCH   4   5
ENDBRANCH   3   4
ENDBRANCH   2   3
ENDBRANCH   1   2
BRANCH   1  10
ATOM     10  C   UNL     1       9.965 -15.577   9.954  1.00  0.00     0.000 C 
BRANCH  10  11
ATOM     11  C   UNL     1      10.425 -17.028  10.177  1.00  0.00    -0.000 C 
BRANCH  11  12
ATOM     12  C   UNL     1      10.124 -17.933   8.971  1.00  0.00    -0.000 C 
BRANCH  12  13
ATOM     13  C   UNL     1       8.719 -18.558   9.038  1.00  0.00    -0.000 C 
BRANCH  13  14
ATOM     14  C   UNL     1       7.918 -18.368   7.736  1.00  0.00    -0.000 C 
BRANCH  14  15
ATOM     15  C   UNL     1       6.480 -17.854   7.929  1.00  0.00    -0.003 C 
ATOM     16  C   UNL     1       6.377 -16.739   8.968  1.00  0.00     0.004 C 
ENDBRANCH  14  15
ENDBRANCH  13  14
ENDBRANCH  12  13
ENDBRANCH  11  12
ENDBRANCH  10  11
ENDBRANCH   1  10
TORSDOF 12
ENDMDL
