MODEL 1
REMARK VINA RESULT:    -3.610      0.000      0.000
REMARK INTER + INTRA:          -4.615
REMARK INTER:                  -4.454
REMARK INTRA:                  -0.161
REMARK UNBOUND:                -0.161
REMARK SMILES CCCCCC(=O)[O-]
REMARK SMILES IDX 4 1 5 2 6 3 7 4 8 5 3 6 2 7 1 8
REMARK H PARENT
REMARK Flexibility Score: inf
ROOT
ATOM      1  C   UNL     1      -8.497  27.497  25.186  1.00  0.00     0.006 C 
ENDROOT
BRANCH   1   2
ATOM      2  C   UNL     1      -9.610  27.916  24.214  1.00  0.00     0.053 C 
BRANCH   2   3
ATOM      3  C   UNL     1      -9.289  29.200  23.511  1.00  0.00     0.041 C 
ATOM      4  O   UNL     1      -8.683  30.120  24.120  1.00  0.00    -0.550 OA
ATOM      5  O   UNL     1      -9.626  29.365  22.173  1.00  0.00    -0.550 OA
ENDBRANCH   2   3
ENDBRANCH   1   2
BRANCH   1   6
ATOM      6  C   UNL     1      -7.568  26.386  24.653  1.00  0.00     0.000 C 
BRANCH   6   7
ATOM      7  C   UNL     1      -8.140  25.569  23.482  1.00  0.00    -0.003 C 
ATOM      8  C   UNL     1      -7.232  25.566  22.254  1.00  0.00     0.004 C 
ENDBRANCH   6   7
ENDBRANCH   1   6
TORSDOF 4
ENDMDL
MODEL 2
REMARK VINA RESULT:    -3.581      1.766      2.973
REMARK INTER + INTRA:          -4.580
REMARK INTER:                  -4.353
REMARK INTRA:                  -0.226
REMARK UNBOUND:                -0.161
REMARK SMILES CCCCCC(=O)[O-]
REMARK SMILES IDX 4 1 5 2 6 3 7 4 8 5 3 6 2 7 1 8
REMARK H PARENT
REMARK Flexibility Score: inf
ROOT
ATOM      1  C   UNL     1      -7.087  25.754  22.618  1.00  0.00     0.006 C 
ENDROOT
BRANCH   1   2
ATOM      2  C   UNL     1      -8.473  25.768  21.956  1.00  0.00     0.053 C 
BRANCH   2   3
ATOM      3  C   UNL     1      -8.759  27.072  21.276  1.00  0.00     0.041 C 
ATOM      4  O   UNL     1      -8.863  28.129  21.951  1.00  0.00    -0.550 OA
ATOM      5  O   UNL     1      -8.873  27.126  19.892  1.00  0.00    -0.550 OA
ENDBRANCH   2   3
ENDBRANCH   1   2
BRANCH   1   6
ATOM      6  C   UNL     1      -7.104  25.986  24.143  1.00  0.00     0.000 C 
BRANCH   6   7
ATOM      7  C   UNL     1      -8.496  25.913  24.794  1.00  0.00    -0.003 C 
ATOM      8  C   UNL     1      -8.872  27.188  25.547  1.00  0.00     0.004 C 
ENDBRANCH   6   7
ENDBRANCH   1   6
TORSDOF 4
ENDMDL
MODEL 3
REMARK VINA RESULT:    -3.573      0.539      1.309
REMARK INTER + INTRA:          -4.571
REMARK INTER:                  -4.433
REMARK INTRA:                  -0.138
REMARK UNBOUND:                -0.161
REMARK SMILES CCCCCC(=O)[O-]
REMARK SMILES IDX 4 1 5 2 6 3 7 4 8 5 3 6 2 7 1 8
REMARK H PARENT
REMARK Flexibility Score: inf
ROOT
ATOM      1  C   UNL     1      -8.319  27.295  24.743  1.00  0.00     0.006 C 
ENDROOT
BRANCH   1   2
ATOM      2  C   UNL     1      -9.524  27.749  23.904  1.00  0.00     0.053 C 
BRANCH   2   3
ATOM      3  C   UNL     1      -9.299  29.091  23.277  1.00  0.00     0.041 C 
ATOM      4  O   UNL     1      -9.721  29.326  22.115  1.00  0.00    -0.550 OA
ATOM      5  O   UNL     1      -8.656  30.095  23.991  1.00  0.00    -0.550 OA
ENDBRANCH   2   3
ENDBRANCH   1   2
BRANCH   1   6
ATOM      6  C   UNL     1      -7.676  25.973  24.276  1.00  0.00     0.000 C 
BRANCH   6   7
ATOM      7  C   UNL     1      -7.175  25.975  22.822  1.00  0.00    -0.003 C 
ATOM      8  C   UNL     1      -7.787  24.859  21.976  1.00  0.00     0.004 C 
ENDBRANCH   6   7
ENDBRANCH   1   6
TORSDOF 4
ENDMDL
MODEL 4
REMARK VINA RESULT:    -3.554      1.741      3.131
REMARK INTER + INTRA:          -4.547
REMARK INTER:                  -4.319
REMARK INTRA:                  -0.228
REMARK UNBOUND:                -0.161
REMARK SMILES CCCCCC(=O)[O-]
REMARK SMILES IDX 4 1 5 2 6 3 7 4 8 5 3 6 2 7 1 8
REMARK H PARENT
REMARK Flexibility Score: inf
ROOT
ATOM      1  C   UNL     1      -7.250  25.638  22.556  1.00  0.00     0.006 C 
ENDROOT
BRANCH   1   2
ATOM      2  C   UNL     1      -8.650  25.774  21.936  1.00  0.00     0.053 C 
BRANCH   2   3
ATOM      3  C   UNL     1      -8.842  27.102  21.269  1.00  0.00     0.041 C 
ATOM      4  O   UNL     1      -8.854  27.183  20.012  1.00  0.00    -0.550 OA
ATOM      5  O   UNL     1      -9.046  28.243  22.034  1.00  0.00    -0.550 OA
ENDBRANCH   2   3
ENDBRANCH   1   2
BRANCH   1   6
ATOM      6  C   UNL     1      -7.176  26.003  24.053  1.00  0.00     0.000 C 
BRANCH   6   7
ATOM      7  C   UNL     1      -8.505  25.873  24.818  1.00  0.00    -0.003 C 
ATOM      8  C   UNL     1      -8.866  27.129  25.608  1.00  0.00     0.004 C 
ENDBRANCH   6   7
ENDBRANCH   1   6
TORSDOF 4
ENDMDL
MODEL 5
REMARK VINA RESULT:    -3.396      2.110      2.963
REMARK INTER + INTRA:          -4.351
REMARK INTER:                  -4.216
REMARK INTRA:                  -0.135
REMARK UNBOUND:                -0.161
REMARK SMILES CCCCCC(=O)[O-]
REMARK SMILES IDX 4 1 5 2 6 3 7 4 8 5 3 6 2 7 1 8
REMARK H PARENT
REMARK Flexibility Score: inf
ROOT
ATOM      1  C   UNL     1      -7.397  26.004  22.561  1.00  0.00     0.006 C 
ENDROOT
BRANCH   1   2
ATOM      2  C   UNL     1      -7.512  25.953  24.092  1.00  0.00     0.053 C 
BRANCH   2   3
ATOM      3  C   UNL     1      -8.399  27.036  24.626  1.00  0.00     0.041 C 
ATOM      4  O   UNL     1      -8.666  27.087  25.856  1.00  0.00    -0.550 OA
ATOM      5  O   UNL     1      -8.902  28.009  23.772  1.00  0.00    -0.550 OA
ENDBRANCH   2   3
ENDBRANCH   1   2
BRANCH   1   6
ATOM      6  C   UNL     1      -7.793  24.696  21.845  1.00  0.00     0.000 C 
BRANCH   6   7
ATOM      7  C   UNL     1      -8.990  23.955  22.466  1.00  0.00    -0.003 C 
ATOM      8  C   UNL     1      -8.918  22.441  22.279  1.00  0.00     0.004 C 
ENDBRANCH   6   7
ENDBRANCH   1   6
TORSDOF 4
ENDMDL
MODEL 6
REMARK VINA RESULT:    -3.388      3.237      4.369
REMARK INTER + INTRA:          -4.342
REMARK INTER:                  -4.237
REMARK INTRA:                  -0.105
REMARK UNBOUND:                -0.161
REMARK SMILES CCCCCC(=O)[O-]
REMARK SMILES IDX 4 1 5 2 6 3 7 4 8 5 3 6 2 7 1 8
REMARK H PARENT
REMARK Flexibility Score: inf
ROOT
ATOM      1  C   UNL     1      -7.024  25.999  22.971  1.00  0.00     0.006 C 
ENDROOT
BRANCH   1   2
ATOM      2  C   UNL     1      -8.113  26.112  21.892  1.00  0.00     0.053 C 
BRANCH   2   3
ATOM      3  C   UNL     1      -8.263  24.843  21.110  1.00  0.00     0.041 C 
ATOM      4  O   UNL     1      -8.473  24.885  19.870  1.00  0.00    -0.550 OA
ATOM      5  O   UNL     1      -8.135  23.614  21.745  1.00  0.00    -0.550 OA
ENDBRANCH   2   3
ENDBRANCH   1   2
BRANCH   1   6
ATOM      6  C   UNL     1      -7.556  25.999  24.419  1.00  0.00     0.000 C 
BRANCH   6   7
ATOM      7  C   UNL     1      -8.274  27.291  24.846  1.00  0.00    -0.003 C 
ATOM      8  C   UNL     1      -9.176  27.100  26.063  1.00  0.00     0.004 C 
ENDBRANCH   6   7
ENDBRANCH   1   6
TORSDOF 4
ENDMDL
MODEL 7
REMARK VINA RESULT:    -3.382      1.955      3.628
REMARK INTER + INTRA:          -4.334
REMARK INTER:                  -4.145
REMARK INTRA:                  -0.190
REMARK UNBOUND:                -0.161
REMARK SMILES CCCCCC(=O)[O-]
REMARK SMILES IDX 4 1 5 2 6 3 7 4 8 5 3 6 2 7 1 8
REMARK H PARENT
REMARK Flexibility Score: inf
ROOT
ATOM      1  C   UNL     1      -8.152  25.614  23.761  1.00  0.00     0.006 C 
ENDROOT
BRANCH   1   2
ATOM      2  C   UNL     1      -7.327  25.634  22.465  1.00  0.00     0.053 C 
BRANCH   2   3
ATOM      3  C   UNL     1      -8.137  26.092  21.290  1.00  0.00     0.041 C 
ATOM      4  O   UNL     1      -8.473  25.273  20.395  1.00  0.00    -0.550 OA
ATOM      5  O   UNL     1      -8.551  27.415  21.203  1.00  0.00    -0.550 OA
ENDBRANCH   2   3
ENDBRANCH   1   2
BRANCH   1   6
ATOM      6  C   UNL     1      -7.812  26.745  24.753  1.00  0.00     0.000 C 
BRANCH   6   7
ATOM      7  C   UNL     1      -8.982  27.687  25.087  1.00  0.00    -0.003 C 
ATOM      8  C   UNL     1      -8.930  29.003  24.314  1.00  0.00     0.004 C 
ENDBRANCH   6   7
ENDBRANCH   1   6
TORSDOF 4
ENDMDL
MODEL 8
REMARK VINA RESULT:    -3.266      4.018      5.217
REMARK INTER + INTRA:          -4.192
REMARK INTER:                  -4.073
REMARK INTRA:                  -0.119
REMARK UNBOUND:                -0.161
REMARK SMILES CCCCCC(=O)[O-]
REMARK SMILES IDX 4 1 5 2 6 3 7 4 8 5 3 6 2 7 1 8
REMARK H PARENT
REMARK Flexibility Score: inf
ROOT
ATOM      1  C   UNL     1      -7.849  24.717  21.888  1.00  0.00     0.006 C 
ENDROOT
BRANCH   1   2
ATOM      2  C   UNL     1      -9.348  24.379  21.880  1.00  0.00     0.053 C 
BRANCH   2   3
ATOM      3  C   UNL     1      -9.593  22.907  22.011  1.00  0.00     0.041 C 
ATOM      4  O   UNL     1     -10.710  22.420  21.693  1.00  0.00    -0.550 OA
ATOM      5  O   UNL     1      -8.576  22.067  22.448  1.00  0.00    -0.550 OA
ENDBRANCH   2   3
ENDBRANCH   1   2
BRANCH   1   6
ATOM      6  C   UNL     1      -7.481  25.977  22.698  1.00  0.00     0.000 C 
BRANCH   6   7
ATOM      7  C   UNL     1      -7.723  25.865  24.214  1.00  0.00    -0.003 C 
ATOM      8  C   UNL     1      -8.243  27.161  24.834  1.00  0.00     0.004 C 
ENDBRANCH   6   7
ENDBRANCH   1   6
TORSDOF 4
ENDMDL
MODEL 9
REMARK VINA RESULT:    -3.261      2.909      3.273
REMARK INTER + INTRA:          -4.185
REMARK INTER:                  -4.129
REMARK INTRA:                  -0.056
REMARK UNBOUND:                -0.161
REMARK SMILES CCCCCC(=O)[O-]
REMARK SMILES IDX 4 1 5 2 6 3 7 4 8 5 3 6 2 7 1 8
REMARK H PARENT
REMARK Flexibility Score: inf
ROOT
ATOM      1  C   UNL     1      -8.755  25.919  24.807  1.00  0.00     0.006 C 
ENDROOT
BRANCH   1   2
ATOM      2  C   UNL     1      -8.936  26.996  25.888  1.00  0.00     0.053 C 
BRANCH   2   3
ATOM      3  C   UNL     1     -10.153  26.752  26.728  1.00  0.00     0.041 C 
ATOM      4  O   UNL     1     -10.744  27.715  27.282  1.00  0.00    -0.550 OA
ATOM      5  O   UNL     1     -10.655  25.464  26.868  1.00  0.00    -0.550 OA
ENDBRANCH   2   3
ENDBRANCH   1   2
BRANCH   1   6
ATOM      6  C   UNL     1      -7.407  25.983  24.060  1.00  0.00     0.000 C 
BRANCH   6   7
ATOM      7  C   UNL     1      -7.518  25.999  22.525  1.00  0.00    -0.003 C 
ATOM      8  C   UNL     1      -7.912  24.644  21.940  1.00  0.00     0.004 C 
ENDBRANCH   6   7
ENDBRANCH   1   6
TORSDOF 4
ENDMDL
