MODEL 1
REMARK VINA RESULT:    -6.436      0.000      0.000
REMARK INTER + INTRA:          -6.813
REMARK INTER:                  -6.813
REMARK INTRA:                   0.000
REMARK UNBOUND:                 0.000
REMARK SMILES O=c1ccc2cc(O)c(O)cc2o1
REMARK SMILES IDX 4 1 3 2 2 3 1 4 13 5 12 6 11 7 9 8 7 9 6 10 5 11 8 12 10 14
REMARK H PARENT 8 13 10 15
REMARK Flexibility Score: inf
ROOT
ATOM      1  C   UNL     1      13.363 -22.616  22.677  1.00  0.00     0.019 A 
ATOM      2  C   UNL     1      14.361 -22.574  21.703  1.00  0.00     0.094 A 
ATOM      3  C   UNL     1      14.198 -23.325  20.534  1.00  0.00     0.336 A 
ATOM      4  O   UNL     1      15.088 -23.302  19.644  1.00  0.00    -0.246 OA
ATOM      5  O   UNL     1      13.109 -24.068  20.357  1.00  0.00    -0.423 OA
ATOM      6  C   UNL     1      12.133 -24.136  21.259  1.00  0.00     0.142 A 
ATOM      7  C   UNL     1      11.010 -24.932  21.017  1.00  0.00     0.098 A 
ATOM      8  C   UNL     1       9.979 -25.006  21.966  1.00  0.00     0.161 A 
ATOM      9  C   UNL     1      10.073 -24.280  23.162  1.00  0.00     0.158 A 
ATOM     10  C   UNL     1      11.198 -23.478  23.410  1.00  0.00     0.062 A 
ATOM     11  C   UNL     1      12.228 -23.404  22.464  1.00  0.00     0.022 A 
ENDROOT
BRANCH   9  12
ATOM     12  O   UNL     1       9.045 -24.360  24.099  1.00  0.00    -0.504 OA
ATOM     13  H   UNL     1       8.505 -23.545  24.365  1.00  0.00     0.293 HD
ENDBRANCH   9  12
BRANCH   8  14
ATOM     14  O   UNL     1       8.859 -25.801  21.728  1.00  0.00    -0.504 OA
ATOM     15  H   UNL     1       8.375 -25.782  20.838  1.00  0.00     0.293 HD
ENDBRANCH   8  14
TORSDOF 2
ENDMDL
MODEL 2
REMARK VINA RESULT:    -5.869      1.108      2.244
REMARK INTER + INTRA:          -6.212
REMARK INTER:                  -6.212
REMARK INTRA:                   0.000
REMARK UNBOUND:                 0.000
REMARK SMILES O=c1ccc2cc(O)c(O)cc2o1
REMARK SMILES IDX 4 1 3 2 2 3 1 4 13 5 12 6 11 7 9 8 7 9 6 10 5 11 8 12 10 14
REMARK H PARENT 8 13 10 15
REMARK Flexibility Score: inf
ROOT
ATOM      1  C   UNL     1      12.649 -24.889  20.409  1.00  0.00     0.019 A 
ATOM      2  C   UNL     1      13.867 -24.210  20.373  1.00  0.00     0.094 A 
ATOM      3  C   UNL     1      14.138 -23.252  21.356  1.00  0.00     0.336 A 
ATOM      4  O   UNL     1      15.231 -22.628  21.340  1.00  0.00    -0.246 OA
ATOM      5  O   UNL     1      13.246 -22.994  22.309  1.00  0.00    -0.423 OA
ATOM      6  C   UNL     1      12.073 -23.619  22.381  1.00  0.00     0.142 A 
ATOM      7  C   UNL     1      11.176 -23.306  23.406  1.00  0.00     0.098 A 
ATOM      8  C   UNL     1       9.939 -23.962  23.485  1.00  0.00     0.161 A 
ATOM      9  C   UNL     1       9.598 -24.935  22.534  1.00  0.00     0.158 A 
ATOM     10  C   UNL     1      10.495 -25.254  21.503  1.00  0.00     0.062 A 
ATOM     11  C   UNL     1      11.731 -24.599  21.423  1.00  0.00     0.022 A 
ENDROOT
BRANCH   9  12
ATOM     12  O   UNL     1       8.366 -25.581  22.620  1.00  0.00    -0.504 OA
ATOM     13  H   UNL     1       8.095 -26.297  21.956  1.00  0.00     0.293 HD
ENDBRANCH   9  12
BRANCH   8  14
ATOM     14  O   UNL     1       9.041 -23.652  24.506  1.00  0.00    -0.504 OA
ATOM     15  H   UNL     1       9.202 -22.874  25.135  1.00  0.00     0.293 HD
ENDBRANCH   8  14
TORSDOF 2
ENDMDL
MODEL 3
REMARK VINA RESULT:    -5.833      1.922      3.087
REMARK INTER + INTRA:          -6.174
REMARK INTER:                  -6.174
REMARK INTRA:                   0.000
REMARK UNBOUND:                 0.000
REMARK SMILES O=c1ccc2cc(O)c(O)cc2o1
REMARK SMILES IDX 4 1 3 2 2 3 1 4 13 5 12 6 11 7 9 8 7 9 6 10 5 11 8 12 10 14
REMARK H PARENT 8 13 10 15
REMARK Flexibility Score: inf
ROOT
ATOM      1  C   UNL     1      12.006 -23.531  21.204  1.00  0.00     0.019 A 
ATOM      2  C   UNL     1      13.110 -23.374  20.367  1.00  0.00     0.094 A 
ATOM      3  C   UNL     1      14.361 -23.114  20.937  1.00  0.00     0.336 A 
ATOM      4  O   UNL     1      15.370 -22.969  20.197  1.00  0.00    -0.246 OA
ATOM      5  O   UNL     1      14.493 -23.019  22.257  1.00  0.00    -0.423 OA
ATOM      6  C   UNL     1      13.467 -23.162  23.092  1.00  0.00     0.142 A 
ATOM      7  C   UNL     1      13.666 -23.052  24.471  1.00  0.00     0.098 A 
ATOM      8  C   UNL     1      12.587 -23.203  25.355  1.00  0.00     0.161 A 
ATOM      9  C   UNL     1      11.303 -23.464  24.856  1.00  0.00     0.158 A 
ATOM     10  C   UNL     1      11.097 -23.576  23.472  1.00  0.00     0.062 A 
ATOM     11  C   UNL     1      12.174 -23.426  22.589  1.00  0.00     0.022 A 
ENDROOT
BRANCH   9  12
ATOM     12  O   UNL     1      10.236 -23.612  25.740  1.00  0.00    -0.504 OA
ATOM     13  H   UNL     1       9.475 -22.943  25.770  1.00  0.00     0.293 HD
ENDBRANCH   9  12
BRANCH   8  14
ATOM     14  O   UNL     1      12.783 -23.093  26.730  1.00  0.00    -0.504 OA
ATOM     15  H   UNL     1      12.008 -23.146  27.381  1.00  0.00     0.293 HD
ENDBRANCH   8  14
TORSDOF 2
ENDMDL
MODEL 4
REMARK VINA RESULT:    -5.708      1.194      1.586
REMARK INTER + INTRA:          -6.042
REMARK INTER:                  -6.042
REMARK INTRA:                   0.000
REMARK UNBOUND:                 0.000
REMARK SMILES O=c1ccc2cc(O)c(O)cc2o1
REMARK SMILES IDX 4 1 3 2 2 3 1 4 13 5 12 6 11 7 9 8 7 9 6 10 5 11 8 12 10 14
REMARK H PARENT 8 13 10 15
REMARK Flexibility Score: inf
ROOT
ATOM      1  C   UNL     1      13.548 -21.994  23.206  1.00  0.00     0.019 A 
ATOM      2  C   UNL     1      14.264 -22.237  22.034  1.00  0.00     0.094 A 
ATOM      3  C   UNL     1      13.733 -23.121  21.088  1.00  0.00     0.336 A 
ATOM      4  O   UNL     1      14.365 -23.355  20.024  1.00  0.00    -0.246 OA
ATOM      5  O   UNL     1      12.564 -23.718  21.304  1.00  0.00    -0.423 OA
ATOM      6  C   UNL     1      11.849 -23.513  22.407  1.00  0.00     0.142 A 
ATOM      7  C   UNL     1      10.626 -24.168  22.580  1.00  0.00     0.098 A 
ATOM      8  C   UNL     1       9.869 -23.955  23.741  1.00  0.00     0.161 A 
ATOM      9  C   UNL     1      10.337 -23.083  24.735  1.00  0.00     0.158 A 
ATOM     10  C   UNL     1      11.564 -22.422  24.567  1.00  0.00     0.062 A 
ATOM     11  C   UNL     1      12.321 -22.634  23.407  1.00  0.00     0.022 A 
ENDROOT
BRANCH   9  12
ATOM     12  O   UNL     1       9.579 -22.877  25.885  1.00  0.00    -0.504 OA
ATOM     13  H   UNL     1       9.578 -23.547  26.647  1.00  0.00     0.293 HD
ENDBRANCH   9  12
BRANCH   8  14
ATOM     14  O   UNL     1       8.649 -24.607  23.917  1.00  0.00    -0.504 OA
ATOM     15  H   UNL     1       8.516 -25.568  23.624  1.00  0.00     0.293 HD
ENDBRANCH   8  14
TORSDOF 2
ENDMDL
MODEL 5
REMARK VINA RESULT:    -5.687      1.765      4.611
REMARK INTER + INTRA:          -6.019
REMARK INTER:                  -6.019
REMARK INTRA:                   0.000
REMARK UNBOUND:                 0.000
REMARK SMILES O=c1ccc2cc(O)c(O)cc2o1
REMARK SMILES IDX 4 1 3 2 2 3 1 4 13 5 12 6 11 7 9 8 7 9 6 10 5 11 8 12 10 14
REMARK H PARENT 8 13 10 15
REMARK Flexibility Score: inf
ROOT
ATOM      1  C   UNL     1      10.348 -23.444  24.490  1.00  0.00     0.019 A 
ATOM      2  C   UNL     1       9.349 -24.275  23.982  1.00  0.00     0.094 A 
ATOM      3  C   UNL     1       9.484 -24.781  22.685  1.00  0.00     0.336 A 
ATOM      4  O   UNL     1       8.592 -25.532  22.208  1.00  0.00    -0.246 OA
ATOM      5  O   UNL     1      10.548 -24.474  21.949  1.00  0.00    -0.423 OA
ATOM      6  C   UNL     1      11.524 -23.686  22.394  1.00  0.00     0.142 A 
ATOM      7  C   UNL     1      12.620 -23.399  21.576  1.00  0.00     0.098 A 
ATOM      8  C   UNL     1      13.651 -22.569  22.041  1.00  0.00     0.161 A 
ATOM      9  C   UNL     1      13.584 -22.024  23.332  1.00  0.00     0.158 A 
ATOM     10  C   UNL     1      12.487 -22.310  24.159  1.00  0.00     0.062 A 
ATOM     11  C   UNL     1      11.457 -23.138  23.695  1.00  0.00     0.022 A 
ENDROOT
BRANCH   9  12
ATOM     12  O   UNL     1      14.612 -21.201  23.787  1.00  0.00    -0.504 OA
ATOM     13  H   UNL     1      14.920 -20.394  23.256  1.00  0.00     0.293 HD
ENDBRANCH   9  12
BRANCH   8  14
ATOM     14  O   UNL     1      14.745 -22.280  21.227  1.00  0.00    -0.504 OA
ATOM     15  H   UNL     1      15.631 -21.980  21.617  1.00  0.00     0.293 HD
ENDBRANCH   8  14
TORSDOF 2
ENDMDL
MODEL 6
REMARK VINA RESULT:    -5.643      1.400      5.033
REMARK INTER + INTRA:          -5.973
REMARK INTER:                  -5.973
REMARK INTRA:                   0.000
REMARK UNBOUND:                 0.000
REMARK SMILES O=c1ccc2cc(O)c(O)cc2o1
REMARK SMILES IDX 4 1 3 2 2 3 1 4 13 5 12 6 11 7 9 8 7 9 6 10 5 11 8 12 10 14
REMARK H PARENT 8 13 10 15
REMARK Flexibility Score: inf
ROOT
ATOM      1  C   UNL     1      10.994 -24.890  21.124  1.00  0.00     0.019 A 
ATOM      2  C   UNL     1       9.823 -25.095  21.855  1.00  0.00     0.094 A 
ATOM      3  C   UNL     1       9.650 -24.409  23.062  1.00  0.00     0.336 A 
ATOM      4  O   UNL     1       8.601 -24.582  23.736  1.00  0.00    -0.246 OA
ATOM      5  O   UNL     1      10.587 -23.576  23.504  1.00  0.00    -0.423 OA
ATOM      6  C   UNL     1      11.717 -23.350  22.838  1.00  0.00     0.142 A 
ATOM      7  C   UNL     1      12.667 -22.462  23.352  1.00  0.00     0.098 A 
ATOM      8  C   UNL     1      13.859 -22.222  22.653  1.00  0.00     0.161 A 
ATOM      9  C   UNL     1      14.103 -22.874  21.436  1.00  0.00     0.158 A 
ATOM     10  C   UNL     1      13.153 -23.766  20.915  1.00  0.00     0.062 A 
ATOM     11  C   UNL     1      11.962 -24.007  21.611  1.00  0.00     0.022 A 
ENDROOT
BRANCH   9  12
ATOM     12  O   UNL     1      15.290 -22.630  20.749  1.00  0.00    -0.504 OA
ATOM     13  H   UNL     1      15.850 -23.386  20.372  1.00  0.00     0.293 HD
ENDBRANCH   9  12
BRANCH   8  14
ATOM     14  O   UNL     1      14.808 -21.337  23.163  1.00  0.00    -0.504 OA
ATOM     15  H   UNL     1      14.764 -20.344  22.971  1.00  0.00     0.293 HD
ENDBRANCH   8  14
TORSDOF 2
ENDMDL
MODEL 7
REMARK VINA RESULT:    -5.560      2.358      5.606
REMARK INTER + INTRA:          -5.885
REMARK INTER:                  -5.885
REMARK INTRA:                   0.000
REMARK UNBOUND:                 0.000
REMARK SMILES O=c1ccc2cc(O)c(O)cc2o1
REMARK SMILES IDX 4 1 3 2 2 3 1 4 13 5 12 6 11 7 9 8 7 9 6 10 5 11 8 12 10 14
REMARK H PARENT 8 13 10 15
REMARK Flexibility Score: inf
ROOT
ATOM      1  C   UNL     1      10.260 -23.926  23.430  1.00  0.00     0.019 A 
ATOM      2  C   UNL     1       9.495 -24.358  24.514  1.00  0.00     0.094 A 
ATOM      3  C   UNL     1      10.040 -24.283  25.800  1.00  0.00     0.336 A 
ATOM      4  O   UNL     1       9.365 -24.669  26.791  1.00  0.00    -0.246 OA
ATOM      5  O   UNL     1      11.269 -23.809  25.984  1.00  0.00    -0.423 OA
ATOM      6  C   UNL     1      12.032 -23.386  24.979  1.00  0.00     0.142 A 
ATOM      7  C   UNL     1      13.316 -22.896  25.234  1.00  0.00     0.098 A 
ATOM      8  C   UNL     1      14.124 -22.450  24.177  1.00  0.00     0.161 A 
ATOM      9  C   UNL     1      13.644 -22.494  22.860  1.00  0.00     0.158 A 
ATOM     10  C   UNL     1      12.355 -22.985  22.598  1.00  0.00     0.062 A 
ATOM     11  C   UNL     1      11.548 -23.431  23.653  1.00  0.00     0.022 A 
ENDROOT
BRANCH   9  12
ATOM     12  O   UNL     1      14.453 -22.050  21.816  1.00  0.00    -0.504 OA
ATOM     13  H   UNL     1      15.172 -21.351  21.963  1.00  0.00     0.293 HD
ENDBRANCH   9  12
BRANCH   8  14
ATOM     14  O   UNL     1      15.405 -21.961  24.428  1.00  0.00    -0.504 OA
ATOM     15  H   UNL     1      16.156 -22.573  24.725  1.00  0.00     0.293 HD
ENDBRANCH   8  14
TORSDOF 2
ENDMDL
MODEL 8
REMARK VINA RESULT:    -5.527      2.427      5.016
REMARK INTER + INTRA:          -5.850
REMARK INTER:                  -5.850
REMARK INTRA:                   0.000
REMARK UNBOUND:                 0.000
REMARK SMILES O=c1ccc2cc(O)c(O)cc2o1
REMARK SMILES IDX 4 1 3 2 2 3 1 4 13 5 12 6 11 7 9 8 7 9 6 10 5 11 8 12 10 14
REMARK H PARENT 8 13 10 15
REMARK Flexibility Score: inf
ROOT
ATOM      1  C   UNL     1      10.648 -23.738  24.634  1.00  0.00     0.019 A 
ATOM      2  C   UNL     1      10.876 -23.712  26.010  1.00  0.00     0.094 A 
ATOM      3  C   UNL     1      12.139 -23.335  26.479  1.00  0.00     0.336 A 
ATOM      4  O   UNL     1      12.366 -23.306  27.718  1.00  0.00    -0.246 OA
ATOM      5  O   UNL     1      13.105 -23.007  25.626  1.00  0.00    -0.423 OA
ATOM      6  C   UNL     1      12.930 -23.018  24.307  1.00  0.00     0.142 A 
ATOM      7  C   UNL     1      13.982 -22.663  23.458  1.00  0.00     0.098 A 
ATOM      8  C   UNL     1      13.801 -22.673  22.067  1.00  0.00     0.161 A 
ATOM      9  C   UNL     1      12.561 -23.040  21.523  1.00  0.00     0.158 A 
ATOM     10  C   UNL     1      11.501 -23.398  22.370  1.00  0.00     0.062 A 
ATOM     11  C   UNL     1      11.681 -23.388  23.759  1.00  0.00     0.022 A 
ENDROOT
BRANCH   9  12
ATOM     12  O   UNL     1      12.391 -23.048  20.140  1.00  0.00    -0.504 OA
ATOM     13  H   UNL     1      12.379 -22.189  19.602  1.00  0.00     0.293 HD
ENDBRANCH   9  12
BRANCH   8  14
ATOM     14  O   UNL     1      14.849 -22.320  21.218  1.00  0.00    -0.504 OA
ATOM     15  H   UNL     1      14.729 -22.291  20.212  1.00  0.00     0.293 HD
ENDBRANCH   8  14
TORSDOF 2
ENDMDL
MODEL 9
REMARK VINA RESULT:    -5.518      2.182      4.255
REMARK INTER + INTRA:          -5.841
REMARK INTER:                  -5.841
REMARK INTRA:                   0.000
REMARK UNBOUND:                 0.000
REMARK SMILES O=c1ccc2cc(O)c(O)cc2o1
REMARK SMILES IDX 4 1 3 2 2 3 1 4 13 5 12 6 11 7 9 8 7 9 6 10 5 11 8 12 10 14
REMARK H PARENT 8 13 10 15
REMARK Flexibility Score: inf
ROOT
ATOM      1  C   UNL     1      14.322 -22.027  22.834  1.00  0.00     0.019 A 
ATOM      2  C   UNL     1      13.346 -21.590  23.729  1.00  0.00     0.094 A 
ATOM      3  C   UNL     1      12.123 -22.268  23.781  1.00  0.00     0.336 A 
ATOM      4  O   UNL     1      11.228 -21.889  24.582  1.00  0.00    -0.246 OA
ATOM      5  O   UNL     1      11.897 -23.312  22.988  1.00  0.00    -0.423 OA
ATOM      6  C   UNL     1      12.801 -23.762  22.121  1.00  0.00     0.142 A 
ATOM      7  C   UNL     1      12.508 -24.865  21.313  1.00  0.00     0.098 A 
ATOM      8  C   UNL     1      13.458 -25.342  20.398  1.00  0.00     0.161 A 
ATOM      9  C   UNL     1      14.706 -24.712  20.290  1.00  0.00     0.158 A 
ATOM     10  C   UNL     1      15.007 -23.605  21.098  1.00  0.00     0.062 A 
ATOM     11  C   UNL     1      14.059 -23.128  22.013  1.00  0.00     0.022 A 
ENDROOT
BRANCH   9  12
ATOM     12  O   UNL     1      15.644 -25.192  19.378  1.00  0.00    -0.504 OA
ATOM     13  H   UNL     1      15.781 -26.186  19.231  1.00  0.00     0.293 HD
ENDBRANCH   9  12
BRANCH   8  14
ATOM     14  O   UNL     1      13.168 -26.441  19.590  1.00  0.00    -0.504 OA
ATOM     15  H   UNL     1      13.149 -27.382  19.964  1.00  0.00     0.293 HD
ENDBRANCH   8  14
TORSDOF 2
ENDMDL
