MODEL 1
REMARK VINA RESULT:    -4.421      0.000      0.000
REMARK INTER + INTRA:          -8.208
REMARK INTER:                  -7.523
REMARK INTRA:                  -0.685
REMARK UNBOUND:                -0.685
REMARK SMILES CCCCCCCCCCCCCC(=O)[O-]
REMARK SMILES IDX 8 1 9 2 10 3 11 4 12 5 13 6 14 7 15 8 16 9 7 10 6 11 5 12
REMARK SMILES IDX 4 13 3 14 2 15 1 16
REMARK H PARENT
REMARK Flexibility Score: inf
ROOT
ATOM      1  C   UNL     1     -11.408   2.949 -42.190  1.00  0.00     0.000 C 
ENDROOT
BRANCH   1   2
ATOM      2  C   UNL     1     -12.256   4.212 -42.428  1.00  0.00     0.000 C 
BRANCH   2   3
ATOM      3  C   UNL     1     -13.235   4.503 -41.278  1.00  0.00     0.000 C 
BRANCH   3   4
ATOM      4  C   UNL     1     -14.554   5.137 -41.758  1.00  0.00     0.000 C 
BRANCH   4   5
ATOM      5  C   UNL     1     -15.666   5.233 -40.692  1.00  0.00     0.006 C 
BRANCH   5   6
ATOM      6  C   UNL     1     -16.635   4.041 -40.669  1.00  0.00     0.053 C 
BRANCH   6   7
ATOM      7  C   UNL     1     -17.934   4.363 -41.345  1.00  0.00     0.041 C 
ATOM      8  O   UNL     1     -18.805   3.469 -41.504  1.00  0.00    -0.550 OA
ATOM      9  O   UNL     1     -18.193   5.660 -41.769  1.00  0.00    -0.550 OA
ENDBRANCH   6   7
ENDBRANCH   5   6
ENDBRANCH   4   5
ENDBRANCH   3   4
ENDBRANCH   2   3
ENDBRANCH   1   2
BRANCH   1  10
ATOM     10  C   UNL     1     -11.944   1.996 -41.106  1.00  0.00     0.000 C 
BRANCH  10  11
ATOM     11  C   UNL     1     -10.916   0.935 -40.677  1.00  0.00    -0.000 C 
BRANCH  11  12
ATOM     12  C   UNL     1     -11.231  -0.456 -41.249  1.00  0.00    -0.000 C 
BRANCH  12  13
ATOM     13  C   UNL     1     -11.113  -1.568 -40.194  1.00  0.00    -0.000 C 
BRANCH  13  14
ATOM     14  C   UNL     1     -12.261  -1.544 -39.171  1.00  0.00    -0.000 C 
BRANCH  14  15
ATOM     15  C   UNL     1     -13.537  -2.263 -39.659  1.00  0.00    -0.003 C 
ATOM     16  C   UNL     1     -14.542  -1.301 -40.294  1.00  0.00     0.004 C 
ENDBRANCH  14  15
ENDBRANCH  13  14
ENDBRANCH  12  13
ENDBRANCH  11  12
ENDBRANCH  10  11
ENDBRANCH   1  10
TORSDOF 12
ENDMDL
MODEL 2
REMARK VINA RESULT:    -4.353      1.666      2.693
REMARK INTER + INTRA:          -8.092
REMARK INTER:                  -7.392
REMARK INTRA:                  -0.700
REMARK UNBOUND:                -0.685
REMARK SMILES CCCCCCCCCCCCCC(=O)[O-]
REMARK SMILES IDX 8 1 9 2 10 3 11 4 12 5 13 6 14 7 15 8 16 9 7 10 6 11 5 12
REMARK SMILES IDX 4 13 3 14 2 15 1 16
REMARK H PARENT
REMARK Flexibility Score: inf
ROOT
ATOM      1  C   UNL     1     -13.303   4.865 -41.738  1.00  0.00     0.000 C 
ENDROOT
BRANCH   1   2
ATOM      2  C   UNL     1     -14.790   5.264 -41.723  1.00  0.00     0.000 C 
BRANCH   2   3
ATOM      3  C   UNL     1     -15.607   4.494 -40.673  1.00  0.00     0.000 C 
BRANCH   3   4
ATOM      4  C   UNL     1     -17.127   4.690 -40.832  1.00  0.00     0.000 C 
BRANCH   4   5
ATOM      5  C   UNL     1     -17.560   5.514 -42.062  1.00  0.00     0.006 C 
BRANCH   5   6
ATOM      6  C   UNL     1     -18.353   6.788 -41.732  1.00  0.00     0.053 C 
BRANCH   6   7
ATOM      7  C   UNL     1     -17.636   7.651 -40.738  1.00  0.00     0.041 C 
ATOM      8  O   UNL     1     -17.995   7.662 -39.532  1.00  0.00    -0.550 OA
ATOM      9  O   UNL     1     -16.552   8.420 -41.141  1.00  0.00    -0.550 OA
ENDBRANCH   6   7
ENDBRANCH   5   6
ENDBRANCH   4   5
ENDBRANCH   3   4
ENDBRANCH   2   3
ENDBRANCH   1   2
BRANCH   1  10
ATOM     10  C   UNL     1     -12.906   3.784 -40.715  1.00  0.00     0.000 C 
BRANCH  10  11
ATOM     11  C   UNL     1     -11.990   2.701 -41.312  1.00  0.00    -0.000 C 
BRANCH  11  12
ATOM     12  C   UNL     1     -12.365   1.287 -40.837  1.00  0.00    -0.000 C 
BRANCH  12  13
ATOM     13  C   UNL     1     -11.217   0.281 -41.020  1.00  0.00    -0.000 C 
BRANCH  13  14
ATOM     14  C   UNL     1     -11.598  -1.144 -40.589  1.00  0.00    -0.000 C 
BRANCH  14  15
ATOM     15  C   UNL     1     -13.054  -1.271 -40.093  1.00  0.00    -0.003 C 
ATOM     16  C   UNL     1     -13.301  -2.576 -39.336  1.00  0.00     0.004 C 
ENDBRANCH  14  15
ENDBRANCH  13  14
ENDBRANCH  12  13
ENDBRANCH  11  12
ENDBRANCH  10  11
ENDBRANCH   1  10
TORSDOF 12
ENDMDL
MODEL 3
REMARK VINA RESULT:    -4.329      4.552      6.106
REMARK INTER + INTRA:          -8.050
REMARK INTER:                  -6.254
REMARK INTRA:                  -1.796
REMARK UNBOUND:                -0.685
REMARK SMILES CCCCCCCCCCCCCC(=O)[O-]
REMARK SMILES IDX 8 1 9 2 10 3 11 4 12 5 13 6 14 7 15 8 16 9 7 10 6 11 5 12
REMARK SMILES IDX 4 13 3 14 2 15 1 16
REMARK H PARENT
REMARK Flexibility Score: inf
ROOT
ATOM      1  C   UNL     1      -8.056  -0.418 -40.963  1.00  0.00     0.000 C 
ENDROOT
BRANCH   1   2
ATOM      2  C   UNL     1      -8.423   0.903 -40.262  1.00  0.00     0.000 C 
BRANCH   2   3
ATOM      3  C   UNL     1      -9.761   1.486 -40.745  1.00  0.00     0.000 C 
BRANCH   3   4
ATOM      4  C   UNL     1     -10.655   0.443 -41.441  1.00  0.00     0.000 C 
BRANCH   4   5
ATOM      5  C   UNL     1     -11.921   0.032 -40.661  1.00  0.00     0.006 C 
BRANCH   5   6
ATOM      6  C   UNL     1     -11.972  -1.451 -40.259  1.00  0.00     0.053 C 
BRANCH   6   7
ATOM      7  C   UNL     1     -13.359  -1.884 -39.894  1.00  0.00     0.041 C 
ATOM      8  O   UNL     1     -14.354  -1.214 -40.277  1.00  0.00    -0.550 OA
ATOM      9  O   UNL     1     -13.553  -3.044 -39.156  1.00  0.00    -0.550 OA
ENDBRANCH   6   7
ENDBRANCH   5   6
ENDBRANCH   4   5
ENDBRANCH   3   4
ENDBRANCH   2   3
ENDBRANCH   1   2
BRANCH   1  10
ATOM     10  C   UNL     1      -7.471  -1.507 -40.044  1.00  0.00     0.000 C 
BRANCH  10  11
ATOM     11  C   UNL     1      -8.555  -2.327 -39.323  1.00  0.00    -0.000 C 
BRANCH  11  12
ATOM     12  C   UNL     1      -8.242  -2.534 -37.832  1.00  0.00    -0.000 C 
BRANCH  12  13
ATOM     13  C   UNL     1      -8.652  -1.328 -36.971  1.00  0.00    -0.000 C 
BRANCH  13  14
ATOM     14  C   UNL     1     -10.049  -0.791 -37.322  1.00  0.00    -0.000 C 
BRANCH  14  15
ATOM     15  C   UNL     1     -10.272   0.676 -36.898  1.00  0.00    -0.003 C 
ATOM     16  C   UNL     1      -9.624   0.998 -35.550  1.00  0.00     0.004 C 
ENDBRANCH  14  15
ENDBRANCH  13  14
ENDBRANCH  12  13
ENDBRANCH  11  12
ENDBRANCH  10  11
ENDBRANCH   1  10
TORSDOF 12
ENDMDL
MODEL 4
REMARK VINA RESULT:    -4.288      0.993      1.371
REMARK INTER + INTRA:          -7.982
REMARK INTER:                  -7.318
REMARK INTRA:                  -0.664
REMARK UNBOUND:                -0.685
REMARK SMILES CCCCCCCCCCCCCC(=O)[O-]
REMARK SMILES IDX 8 1 9 2 10 3 11 4 12 5 13 6 14 7 15 8 16 9 7 10 6 11 5 12
REMARK SMILES IDX 4 13 3 14 2 15 1 16
REMARK H PARENT
REMARK Flexibility Score: inf
ROOT
ATOM      1  C   UNL     1     -11.990   3.916 -41.500  1.00  0.00     0.000 C 
ENDROOT
BRANCH   1   2
ATOM      2  C   UNL     1     -12.513   4.096 -42.938  1.00  0.00     0.000 C 
BRANCH   2   3
ATOM      3  C   UNL     1     -13.689   5.082 -43.029  1.00  0.00     0.000 C 
BRANCH   3   4
ATOM      4  C   UNL     1     -14.521   5.147 -41.734  1.00  0.00     0.000 C 
BRANCH   4   5
ATOM      5  C   UNL     1     -16.045   4.996 -41.920  1.00  0.00     0.006 C 
BRANCH   5   6
ATOM      6  C   UNL     1     -16.818   4.669 -40.633  1.00  0.00     0.053 C 
BRANCH   6   7
ATOM      7  C   UNL     1     -17.670   3.446 -40.788  1.00  0.00     0.041 C 
ATOM      8  O   UNL     1     -18.685   3.471 -41.531  1.00  0.00    -0.550 OA
ATOM      9  O   UNL     1     -17.324   2.270 -40.135  1.00  0.00    -0.550 OA
ENDBRANCH   6   7
ENDBRANCH   5   6
ENDBRANCH   4   5
ENDBRANCH   3   4
ENDBRANCH   2   3
ENDBRANCH   1   2
BRANCH   1  10
ATOM     10  C   UNL     1     -10.850   2.893 -41.342  1.00  0.00     0.000 C 
BRANCH  10  11
ATOM     11  C   UNL     1     -11.241   1.688 -40.469  1.00  0.00    -0.000 C 
BRANCH  11  12
ATOM     12  C   UNL     1     -10.542   0.392 -40.908  1.00  0.00    -0.000 C 
BRANCH  12  13
ATOM     13  C   UNL     1     -11.506  -0.803 -40.977  1.00  0.00    -0.000 C 
BRANCH  13  14
ATOM     14  C   UNL     1     -11.825  -1.395 -39.595  1.00  0.00    -0.000 C 
BRANCH  14  15
ATOM     15  C   UNL     1     -13.241  -2.001 -39.494  1.00  0.00    -0.003 C 
ATOM     16  C   UNL     1     -14.272  -1.212 -40.304  1.00  0.00     0.004 C 
ENDBRANCH  14  15
ENDBRANCH  13  14
ENDBRANCH  12  13
ENDBRANCH  11  12
ENDBRANCH  10  11
ENDBRANCH   1  10
TORSDOF 12
ENDMDL
MODEL 5
REMARK VINA RESULT:    -4.288      3.731      6.854
REMARK INTER + INTRA:          -7.981
REMARK INTER:                  -6.349
REMARK INTRA:                  -1.632
REMARK UNBOUND:                -0.685
REMARK SMILES CCCCCCCCCCCCCC(=O)[O-]
REMARK SMILES IDX 8 1 9 2 10 3 11 4 12 5 13 6 14 7 15 8 16 9 7 10 6 11 5 12
REMARK SMILES IDX 4 13 3 14 2 15 1 16
REMARK H PARENT
REMARK Flexibility Score: inf
ROOT
ATOM      1  C   UNL     1     -16.155   4.928 -44.486  1.00  0.00     0.000 C 
ENDROOT
BRANCH   1   2
ATOM      2  C   UNL     1     -14.802   4.970 -45.221  1.00  0.00     0.000 C 
BRANCH   2   3
ATOM      3  C   UNL     1     -13.603   5.071 -44.264  1.00  0.00     0.000 C 
BRANCH   3   4
ATOM      4  C   UNL     1     -14.020   5.120 -42.782  1.00  0.00     0.000 C 
BRANCH   4   5
ATOM      5  C   UNL     1     -12.868   4.960 -41.767  1.00  0.00     0.006 C 
BRANCH   5   6
ATOM      6  C   UNL     1     -12.931   3.675 -40.926  1.00  0.00     0.053 C 
BRANCH   6   7
ATOM      7  C   UNL     1     -11.997   2.623 -41.441  1.00  0.00     0.041 C 
ATOM      8  O   UNL     1     -12.095   1.435 -41.036  1.00  0.00    -0.550 OA
ATOM      9  O   UNL     1     -11.039   2.949 -42.392  1.00  0.00    -0.550 OA
ENDBRANCH   6   7
ENDBRANCH   5   6
ENDBRANCH   4   5
ENDBRANCH   3   4
ENDBRANCH   2   3
ENDBRANCH   1   2
BRANCH   1  10
ATOM     10  C   UNL     1     -17.040   6.174 -44.675  1.00  0.00     0.000 C 
BRANCH  10  11
ATOM     11  C   UNL     1     -16.630   7.344 -43.765  1.00  0.00    -0.000 C 
BRANCH  11  12
ATOM     12  C   UNL     1     -17.455   7.399 -42.469  1.00  0.00    -0.000 C 
BRANCH  12  13
ATOM     13  C   UNL     1     -16.655   6.934 -41.241  1.00  0.00    -0.000 C 
BRANCH  13  14
ATOM     14  C   UNL     1     -17.388   5.858 -40.424  1.00  0.00    -0.000 C 
BRANCH  14  15
ATOM     15  C   UNL     1     -16.980   4.416 -40.796  1.00  0.00    -0.003 C 
ATOM     16  C   UNL     1     -18.090   3.669 -41.537  1.00  0.00     0.004 C 
ENDBRANCH  14  15
ENDBRANCH  13  14
ENDBRANCH  12  13
ENDBRANCH  11  12
ENDBRANCH  10  11
ENDBRANCH   1  10
TORSDOF 12
ENDMDL
MODEL 6
REMARK VINA RESULT:    -4.204      4.458      7.534
REMARK INTER + INTRA:          -7.839
REMARK INTER:                  -7.203
REMARK INTRA:                  -0.636
REMARK UNBOUND:                -0.685
REMARK SMILES CCCCCCCCCCCCCC(=O)[O-]
REMARK SMILES IDX 8 1 9 2 10 3 11 4 12 5 13 6 14 7 15 8 16 9 7 10 6 11 5 12
REMARK SMILES IDX 4 13 3 14 2 15 1 16
REMARK H PARENT
REMARK Flexibility Score: inf
ROOT
ATOM      1  C   UNL     1     -11.818   3.681 -41.062  1.00  0.00     0.000 C 
ENDROOT
BRANCH   1   2
ATOM      2  C   UNL     1     -11.353   2.384 -40.375  1.00  0.00     0.000 C 
BRANCH   2   3
ATOM      3  C   UNL     1     -11.408   1.160 -41.304  1.00  0.00     0.000 C 
BRANCH   3   4
ATOM      4  C   UNL     1     -12.318   0.039 -40.767  1.00  0.00     0.000 C 
BRANCH   4   5
ATOM      5  C   UNL     1     -11.586  -1.237 -40.300  1.00  0.00     0.006 C 
BRANCH   5   6
ATOM      6  C   UNL     1     -10.301  -1.559 -41.079  1.00  0.00     0.053 C 
BRANCH   6   7
ATOM      7  C   UNL     1      -9.297  -2.277 -40.229  1.00  0.00     0.041 C 
ATOM      8  O   UNL     1      -9.624  -3.321 -39.607  1.00  0.00    -0.550 OA
ATOM      9  O   UNL     1      -7.993  -1.808 -40.149  1.00  0.00    -0.550 OA
ENDBRANCH   6   7
ENDBRANCH   5   6
ENDBRANCH   4   5
ENDBRANCH   3   4
ENDBRANCH   2   3
ENDBRANCH   1   2
BRANCH   1  10
ATOM     10  C   UNL     1     -13.262   4.110 -40.742  1.00  0.00     0.000 C 
BRANCH  10  11
ATOM     11  C   UNL     1     -13.966   4.784 -41.932  1.00  0.00    -0.000 C 
BRANCH  11  12
ATOM     12  C   UNL     1     -15.121   5.698 -41.492  1.00  0.00    -0.000 C 
BRANCH  12  13
ATOM     13  C   UNL     1     -16.062   5.015 -40.485  1.00  0.00    -0.000 C 
BRANCH  13  14
ATOM     14  C   UNL     1     -17.515   4.941 -40.982  1.00  0.00    -0.000 C 
BRANCH  14  15
ATOM     15  C   UNL     1     -17.981   3.509 -41.319  1.00  0.00    -0.003 C 
ATOM     16  C   UNL     1     -17.471   2.478 -40.310  1.00  0.00     0.004 C 
ENDBRANCH  14  15
ENDBRANCH  13  14
ENDBRANCH  12  13
ENDBRANCH  11  12
ENDBRANCH  10  11
ENDBRANCH   1  10
TORSDOF 12
ENDMDL
MODEL 7
REMARK VINA RESULT:    -4.178      2.982      6.586
REMARK INTER + INTRA:          -7.794
REMARK INTER:                  -6.891
REMARK INTRA:                  -0.903
REMARK UNBOUND:                -0.685
REMARK SMILES CCCCCCCCCCCCCC(=O)[O-]
REMARK SMILES IDX 8 1 9 2 10 3 11 4 12 5 13 6 14 7 15 8 16 9 7 10 6 11 5 12
REMARK SMILES IDX 4 13 3 14 2 15 1 16
REMARK H PARENT
REMARK Flexibility Score: inf
ROOT
ATOM      1  C   UNL     1     -11.792   2.817 -41.431  1.00  0.00     0.000 C 
ENDROOT
BRANCH   1   2
ATOM      2  C   UNL     1     -10.545   2.082 -40.906  1.00  0.00     0.000 C 
BRANCH   2   3
ATOM      3  C   UNL     1     -10.462   2.063 -39.370  1.00  0.00     0.000 C 
BRANCH   3   4
ATOM      4  C   UNL     1      -9.999   0.705 -38.810  1.00  0.00     0.000 C 
BRANCH   4   5
ATOM      5  C   UNL     1     -10.351  -0.521 -39.677  1.00  0.00     0.006 C 
BRANCH   5   6
ATOM      6  C   UNL     1     -11.346  -1.498 -39.030  1.00  0.00     0.053 C 
BRANCH   6   7
ATOM      7  C   UNL     1     -12.661  -1.513 -39.748  1.00  0.00     0.041 C 
ATOM      8  O   UNL     1     -12.927  -0.629 -40.603  1.00  0.00    -0.550 OA
ATOM      9  O   UNL     1     -13.580  -2.522 -39.493  1.00  0.00    -0.550 OA
ENDBRANCH   6   7
ENDBRANCH   5   6
ENDBRANCH   4   5
ENDBRANCH   3   4
ENDBRANCH   2   3
ENDBRANCH   1   2
BRANCH   1  10
ATOM     10  C   UNL     1     -12.487   3.737 -40.410  1.00  0.00     0.000 C 
BRANCH  10  11
ATOM     11  C   UNL     1     -14.009   3.824 -40.620  1.00  0.00    -0.000 C 
BRANCH  11  12
ATOM     12  C   UNL     1     -14.456   5.209 -41.113  1.00  0.00    -0.000 C 
BRANCH  12  13
ATOM     13  C   UNL     1     -15.818   5.169 -41.827  1.00  0.00    -0.000 C 
BRANCH  13  14
ATOM     14  C   UNL     1     -16.995   4.977 -40.857  1.00  0.00    -0.000 C 
BRANCH  14  15
ATOM     15  C   UNL     1     -17.868   3.746 -41.182  1.00  0.00    -0.003 C 
ATOM     16  C   UNL     1     -17.522   2.539 -40.308  1.00  0.00     0.004 C 
ENDBRANCH  14  15
ENDBRANCH  13  14
ENDBRANCH  12  13
ENDBRANCH  11  12
ENDBRANCH  10  11
ENDBRANCH   1  10
TORSDOF 12
ENDMDL
MODEL 8
REMARK VINA RESULT:    -4.154      4.346      7.054
REMARK INTER + INTRA:          -7.753
REMARK INTER:                  -5.820
REMARK INTRA:                  -1.933
REMARK UNBOUND:                -0.685
REMARK SMILES CCCCCCCCCCCCCC(=O)[O-]
REMARK SMILES IDX 8 1 9 2 10 3 11 4 12 5 13 6 14 7 15 8 16 9 7 10 6 11 5 12
REMARK SMILES IDX 4 13 3 14 2 15 1 16
REMARK H PARENT
REMARK Flexibility Score: inf
ROOT
ATOM      1  C   UNL     1     -13.963   7.771 -42.925  1.00  0.00     0.000 C 
ENDROOT
BRANCH   1   2
ATOM      2  C   UNL     1     -13.191   6.510 -42.494  1.00  0.00     0.000 C 
BRANCH   2   3
ATOM      3  C   UNL     1     -14.099   5.279 -42.330  1.00  0.00     0.000 C 
BRANCH   3   4
ATOM      4  C   UNL     1     -14.397   4.944 -40.856  1.00  0.00     0.000 C 
BRANCH   4   5
ATOM      5  C   UNL     1     -15.865   5.136 -40.420  1.00  0.00     0.006 C 
BRANCH   5   6
ATOM      6  C   UNL     1     -16.903   4.810 -41.506  1.00  0.00     0.053 C 
BRANCH   6   7
ATOM      7  C   UNL     1     -17.793   3.673 -41.105  1.00  0.00     0.041 C 
ATOM      8  O   UNL     1     -17.364   2.772 -40.338  1.00  0.00    -0.550 OA
ATOM      9  O   UNL     1     -19.106   3.627 -41.553  1.00  0.00    -0.550 OA
ENDBRANCH   6   7
ENDBRANCH   5   6
ENDBRANCH   4   5
ENDBRANCH   3   4
ENDBRANCH   2   3
ENDBRANCH   1   2
BRANCH   1  10
ATOM     10  C   UNL     1     -14.296   8.754 -41.787  1.00  0.00     0.000 C 
BRANCH  10  11
ATOM     11  C   UNL     1     -15.804   8.843 -41.494  1.00  0.00    -0.000 C 
BRANCH  11  12
ATOM     12  C   UNL     1     -16.648   8.937 -42.776  1.00  0.00    -0.000 C 
BRANCH  12  13
ATOM     13  C   UNL     1     -17.883   8.022 -42.737  1.00  0.00    -0.000 C 
BRANCH  13  14
ATOM     14  C   UNL     1     -18.206   7.397 -44.104  1.00  0.00    -0.000 C 
BRANCH  14  15
ATOM     15  C   UNL     1     -16.958   7.134 -44.973  1.00  0.00    -0.003 C 
ATOM     16  C   UNL     1     -16.562   5.657 -44.992  1.00  0.00     0.004 C 
ENDBRANCH  14  15
ENDBRANCH  13  14
ENDBRANCH  12  13
ENDBRANCH  11  12
ENDBRANCH  10  11
ENDBRANCH   1  10
TORSDOF 12
ENDMDL
MODEL 9
REMARK VINA RESULT:    -4.095      4.179      7.383
REMARK INTER + INTRA:          -7.653
REMARK INTER:                  -5.633
REMARK INTRA:                  -2.020
REMARK UNBOUND:                -0.685
REMARK SMILES CCCCCCCCCCCCCC(=O)[O-]
REMARK SMILES IDX 8 1 9 2 10 3 11 4 12 5 13 6 14 7 15 8 16 9 7 10 6 11 5 12
REMARK SMILES IDX 4 13 3 14 2 15 1 16
REMARK H PARENT
REMARK Flexibility Score: inf
ROOT
ATOM      1  C   UNL     1     -18.119   6.909 -41.831  1.00  0.00     0.000 C 
ENDROOT
BRANCH   1   2
ATOM      2  C   UNL     1     -17.956   5.429 -41.437  1.00  0.00     0.000 C 
BRANCH   2   3
ATOM      3  C   UNL     1     -16.973   5.223 -40.273  1.00  0.00     0.000 C 
BRANCH   3   4
ATOM      4  C   UNL     1     -15.732   4.403 -40.673  1.00  0.00     0.000 C 
BRANCH   4   5
ATOM      5  C   UNL     1     -14.403   5.188 -40.698  1.00  0.00     0.006 C 
BRANCH   5   6
ATOM      6  C   UNL     1     -13.222   4.425 -41.318  1.00  0.00     0.053 C 
BRANCH   6   7
ATOM      7  C   UNL     1     -12.272   3.922 -40.274  1.00  0.00     0.041 C 
ATOM      8  O   UNL     1     -12.113   4.560 -39.201  1.00  0.00    -0.550 OA
ATOM      9  O   UNL     1     -11.585   2.732 -40.475  1.00  0.00    -0.550 OA
ENDBRANCH   6   7
ENDBRANCH   5   6
ENDBRANCH   4   5
ENDBRANCH   3   4
ENDBRANCH   2   3
ENDBRANCH   1   2
BRANCH   1  10
ATOM     10  C   UNL     1     -17.343   7.908 -40.953  1.00  0.00     0.000 C 
BRANCH  10  11
ATOM     11  C   UNL     1     -16.159   8.559 -41.689  1.00  0.00    -0.000 C 
BRANCH  11  12
ATOM     12  C   UNL     1     -16.077   8.136 -43.164  1.00  0.00    -0.000 C 
BRANCH  12  13
ATOM     13  C   UNL     1     -14.675   7.642 -43.559  1.00  0.00    -0.000 C 
BRANCH  13  14
ATOM     14  C   UNL     1     -14.705   6.607 -44.695  1.00  0.00    -0.000 C 
BRANCH  14  15
ATOM     15  C   UNL     1     -15.182   5.210 -44.245  1.00  0.00    -0.003 C 
ATOM     16  C   UNL     1     -16.516   4.816 -44.881  1.00  0.00     0.004 C 
ENDBRANCH  14  15
ENDBRANCH  13  14
ENDBRANCH  12  13
ENDBRANCH  11  12
ENDBRANCH  10  11
ENDBRANCH   1  10
TORSDOF 12
ENDMDL
