MODEL 1
REMARK VINA RESULT:    -5.715      0.000      0.000
REMARK INTER + INTRA:         -10.144
REMARK INTER:                  -8.722
REMARK INTRA:                  -1.422
REMARK UNBOUND:                -1.422
REMARK SMILES OC[C@@H]1O[C@@H](O[C@]2(CO)O[C@@H](CO)[C@@H](O)[C@@H]2O)[C@H](O)[C@@H](O)[C@H]1O
REMARK SMILES IDX 6 1 5 2 3 3 22 4 4 5 20 6 18 7 2 8 1 9 23 11 21 13 19 15
REMARK SMILES IDX 7 17 16 18 10 19 14 20 11 21 8 22 9 23 17 25 15 27 12 29
REMARK SMILES IDX 13 30
REMARK H PARENT 1 10 23 12 21 14 19 16 9 24 17 26 15 28 13 31
REMARK Flexibility Score: inf
ROOT
ATOM      1  O   UNL     1       6.290  11.378  13.755  1.00  0.00    -0.313 OA
ENDROOT
BRANCH   1   2
ATOM      2  C   UNL     1       7.463  12.156  13.973  1.00  0.00     0.285 C 
ATOM      3  C   UNL     1       6.820  12.784  16.148  1.00  0.00     0.178 C 
ATOM      4  C   UNL     1       6.615  14.264  15.754  1.00  0.00     0.177 C 
ATOM      5  O   UNL     1       7.827  12.188  15.345  1.00  0.00    -0.341 OA
ATOM      6  C   UNL     1       6.233  14.359  14.267  1.00  0.00     0.179 C 
ATOM      7  C   UNL     1       7.250  13.582  13.417  1.00  0.00     0.202 C 
BRANCH   3   8
ATOM      8  C   UNL     1       7.238  12.663  17.620  1.00  0.00     0.191 C 
BRANCH   8   9
ATOM      9  O   UNL     1       6.101  12.647  18.437  1.00  0.00    -0.394 OA
ATOM     10  H   UNL     1       5.358  12.307  17.873  1.00  0.00     0.210 HD
ENDBRANCH   8   9
ENDBRANCH   3   8
BRANCH   4  11
ATOM     11  O   UNL     1       5.597  14.839  16.532  1.00  0.00    -0.387 OA
ATOM     12  H   UNL     1       5.415  14.224  17.287  1.00  0.00     0.211 HD
ENDBRANCH   4  11
BRANCH   6  13
ATOM     13  O   UNL     1       4.945  13.839  14.048  1.00  0.00    -0.387 OA
ATOM     14  H   UNL     1       4.638  13.443  14.906  1.00  0.00     0.211 HD
ENDBRANCH   6  13
BRANCH   7  15
ATOM     15  O   UNL     1       8.472  14.280  13.408  1.00  0.00    -0.385 OA
ATOM     16  H   UNL     1       8.483  14.839  12.588  1.00  0.00     0.211 HD
ENDBRANCH   7  15
ENDBRANCH   1   2
BRANCH   1  17
ATOM     17  C   UNL     1       6.444  10.282  12.841  1.00  0.00     0.224 C 
ATOM     18  C   UNL     1       5.413  10.448  11.684  1.00  0.00     0.208 C 
ATOM     19  O   UNL     1       7.737  10.253  12.253  1.00  0.00    -0.337 OA
ATOM     20  C   UNL     1       6.265  10.444  10.432  1.00  0.00     0.180 C 
ATOM     21  C   UNL     1       7.625  10.846  10.986  1.00  0.00     0.179 C 
BRANCH  17  22
ATOM     22  C   UNL     1       6.211   8.938  13.564  1.00  0.00     0.225 C 
BRANCH  22  23
ATOM     23  O   UNL     1       6.217   7.878  12.644  1.00  0.00    -0.391 OA
ATOM     24  H   UNL     1       5.269   7.685  12.430  1.00  0.00     0.210 HD
ENDBRANCH  22  23
ENDBRANCH  17  22
BRANCH  18  25
ATOM     25  O   UNL     1       4.726  11.670  11.796  1.00  0.00    -0.385 OA
ATOM     26  H   UNL     1       5.381  12.338  12.133  1.00  0.00     0.211 HD
ENDBRANCH  18  25
BRANCH  20  27
ATOM     27  O   UNL     1       6.286   9.144   9.894  1.00  0.00    -0.387 OA
ATOM     28  H   UNL     1       6.749   9.194   9.020  1.00  0.00     0.211 HD
ENDBRANCH  20  27
BRANCH  21  29
ATOM     29  C   UNL     1       8.814  10.441  10.101  1.00  0.00     0.191 C 
BRANCH  29  30
ATOM     30  O   UNL     1       9.153   9.102  10.320  1.00  0.00    -0.394 OA
ATOM     31  H   UNL     1       8.718   8.574   9.600  1.00  0.00     0.210 HD
ENDBRANCH  29  30
ENDBRANCH  21  29
ENDBRANCH   1  17
TORSDOF 13
ENDMDL
MODEL 2
REMARK VINA RESULT:    -5.565      1.818      6.367
REMARK INTER + INTRA:          -9.915
REMARK INTER:                  -8.737
REMARK INTRA:                  -1.179
REMARK UNBOUND:                -1.422
REMARK SMILES OC[C@@H]1O[C@@H](O[C@]2(CO)O[C@@H](CO)[C@@H](O)[C@@H]2O)[C@H](O)[C@@H](O)[C@H]1O
REMARK SMILES IDX 6 1 5 2 3 3 22 4 4 5 20 6 18 7 2 8 1 9 23 11 21 13 19 15
REMARK SMILES IDX 7 17 16 18 10 19 14 20 11 21 8 22 9 23 17 25 15 27 12 29
REMARK SMILES IDX 13 30
REMARK H PARENT 1 10 23 12 21 14 19 16 9 24 17 26 15 28 13 31
REMARK Flexibility Score: inf
ROOT
ATOM      1  O   UNL     1       6.634  12.574  14.808  1.00  0.00    -0.313 OA
ENDROOT
BRANCH   1   2
ATOM      2  C   UNL     1       7.059  12.807  13.469  1.00  0.00     0.285 C 
ATOM      3  C   UNL     1       5.021  12.081  12.541  1.00  0.00     0.178 C 
ATOM      4  C   UNL     1       5.658  10.824  11.907  1.00  0.00     0.177 C 
ATOM      5  O   UNL     1       5.969  13.135  12.619  1.00  0.00    -0.341 OA
ATOM      6  C   UNL     1       6.875  10.382  12.738  1.00  0.00     0.179 C 
ATOM      7  C   UNL     1       7.824  11.571  12.945  1.00  0.00     0.202 C 
BRANCH   3   8
ATOM      8  C   UNL     1       3.824  12.566  11.710  1.00  0.00     0.191 C 
BRANCH   8   9
ATOM      9  O   UNL     1       4.111  12.438  10.346  1.00  0.00    -0.394 OA
ATOM     10  H   UNL     1       4.870  11.802  10.280  1.00  0.00     0.210 HD
ENDBRANCH   8   9
ENDBRANCH   3   8
BRANCH   4  11
ATOM     11  O   UNL     1       4.723   9.776  11.859  1.00  0.00    -0.387 OA
ATOM     12  H   UNL     1       5.211   8.933  12.037  1.00  0.00     0.211 HD
ENDBRANCH   4  11
BRANCH   6  13
ATOM     13  O   UNL     1       6.471   9.881  13.988  1.00  0.00    -0.387 OA
ATOM     14  H   UNL     1       6.545  10.625  14.641  1.00  0.00     0.211 HD
ENDBRANCH   6  13
BRANCH   7  15
ATOM     15  O   UNL     1       8.451  11.879  11.723  1.00  0.00    -0.385 OA
ATOM     16  H   UNL     1       8.574  12.864  11.698  1.00  0.00     0.211 HD
ENDBRANCH   7  15
ENDBRANCH   1   2
BRANCH   1  17
ATOM     17  C   UNL     1       6.807  13.679  15.707  1.00  0.00     0.224 C 
ATOM     18  C   UNL     1       5.410  14.301  16.008  1.00  0.00     0.208 C 
ATOM     19  O   UNL     1       7.367  13.276  16.949  1.00  0.00    -0.337 OA
ATOM     20  C   UNL     1       5.306  14.247  17.518  1.00  0.00     0.180 C 
ATOM     21  C   UNL     1       6.305  13.149  17.856  1.00  0.00     0.179 C 
BRANCH  17  22
ATOM     22  C   UNL     1       7.733  14.745  15.081  1.00  0.00     0.225 C 
BRANCH  22  23
ATOM     23  O   UNL     1       6.994  15.878  14.706  1.00  0.00    -0.391 OA
ATOM     24  H   UNL     1       7.528  16.347  14.016  1.00  0.00     0.210 HD
ENDBRANCH  22  23
ENDBRANCH  17  22
BRANCH  18  25
ATOM     25  O   UNL     1       4.384  13.536  15.426  1.00  0.00    -0.385 OA
ATOM     26  H   UNL     1       4.110  14.008  14.595  1.00  0.00     0.211 HD
ENDBRANCH  18  25
BRANCH  20  27
ATOM     27  O   UNL     1       5.698  15.490  18.051  1.00  0.00    -0.387 OA
ATOM     28  H   UNL     1       4.974  15.792  18.657  1.00  0.00     0.211 HD
ENDBRANCH  20  27
BRANCH  21  29
ATOM     29  C   UNL     1       6.828  13.192  19.300  1.00  0.00     0.191 C 
BRANCH  29  30
ATOM     30  O   UNL     1       5.763  13.295  20.203  1.00  0.00    -0.394 OA
ATOM     31  H   UNL     1       5.669  14.258  20.428  1.00  0.00     0.210 HD
ENDBRANCH  29  30
ENDBRANCH  21  29
ENDBRANCH   1  17
TORSDOF 13
ENDMDL
MODEL 3
REMARK VINA RESULT:    -5.546      0.935      6.198
REMARK INTER + INTRA:          -9.887
REMARK INTER:                  -8.737
REMARK INTRA:                  -1.149
REMARK UNBOUND:                -1.422
REMARK SMILES OC[C@@H]1O[C@@H](O[C@]2(CO)O[C@@H](CO)[C@@H](O)[C@@H]2O)[C@H](O)[C@@H](O)[C@H]1O
REMARK SMILES IDX 6 1 5 2 3 3 22 4 4 5 20 6 18 7 2 8 1 9 23 11 21 13 19 15
REMARK SMILES IDX 7 17 16 18 10 19 14 20 11 21 8 22 9 23 17 25 15 27 12 29
REMARK SMILES IDX 13 30
REMARK H PARENT 1 10 23 12 21 14 19 16 9 24 17 26 15 28 13 31
REMARK Flexibility Score: inf
ROOT
ATOM      1  O   UNL     1       6.343  11.834  13.197  1.00  0.00    -0.313 OA
ENDROOT
BRANCH   1   2
ATOM      2  C   UNL     1       6.998  10.578  13.345  1.00  0.00     0.285 C 
ATOM      3  C   UNL     1       7.119  10.202  11.025  1.00  0.00     0.178 C 
ATOM      4  C   UNL     1       6.116   9.027  11.075  1.00  0.00     0.177 C 
ATOM      5  O   UNL     1       7.845  10.291  12.241  1.00  0.00    -0.341 OA
ATOM      6  C   UNL     1       5.150   9.218  12.256  1.00  0.00     0.179 C 
ATOM      7  C   UNL     1       5.946   9.464  13.546  1.00  0.00     0.202 C 
BRANCH   3   8
ATOM      8  C   UNL     1       8.120  10.018   9.875  1.00  0.00     0.191 C 
BRANCH   8   9
ATOM      9  O   UNL     1       9.127   9.125  10.262  1.00  0.00    -0.394 OA
ATOM     10  H   UNL     1       9.988   9.597  10.115  1.00  0.00     0.210 HD
ENDBRANCH   8   9
ENDBRANCH   3   8
BRANCH   4  11
ATOM     11  O   UNL     1       5.381   8.963   9.879  1.00  0.00    -0.387 OA
ATOM     12  H   UNL     1       4.640   8.321  10.018  1.00  0.00     0.211 HD
ENDBRANCH   4  11
BRANCH   6  13
ATOM     13  O   UNL     1       4.286  10.303  12.024  1.00  0.00    -0.387 OA
ATOM     14  H   UNL     1       4.699  11.103  12.442  1.00  0.00     0.211 HD
ENDBRANCH   6  13
BRANCH   7  15
ATOM     15  O   UNL     1       6.581   8.269  13.931  1.00  0.00    -0.385 OA
ATOM     16  H   UNL     1       7.558   8.442  13.923  1.00  0.00     0.211 HD
ENDBRANCH   7  15
ENDBRANCH   1   2
BRANCH   1  17
ATOM     17  C   UNL     1       6.849  12.889  14.028  1.00  0.00     0.224 C 
ATOM     18  C   UNL     1       5.758  13.996  14.148  1.00  0.00     0.208 C 
ATOM     19  O   UNL     1       7.141  12.441  15.344  1.00  0.00    -0.337 OA
ATOM     20  C   UNL     1       5.544  14.136  15.641  1.00  0.00     0.180 C 
ATOM     21  C   UNL     1       6.050  12.794  16.150  1.00  0.00     0.179 C 
BRANCH  17  22
ATOM     22  C   UNL     1       8.138  13.485  13.421  1.00  0.00     0.225 C 
BRANCH  22  23
ATOM     23  O   UNL     1       8.416  14.737  13.992  1.00  0.00    -0.391 OA
ATOM     24  H   UNL     1       8.043  14.717  14.909  1.00  0.00     0.210 HD
ENDBRANCH  22  23
ENDBRANCH  17  22
BRANCH  18  25
ATOM     25  O   UNL     1       4.563  13.593  13.525  1.00  0.00    -0.385 OA
ATOM     26  H   UNL     1       4.821  13.118  12.690  1.00  0.00     0.211 HD
ENDBRANCH  18  25
BRANCH  20  27
ATOM     27  O   UNL     1       6.326  15.203  16.120  1.00  0.00    -0.387 OA
ATOM     28  H   UNL     1       6.803  15.591  15.342  1.00  0.00     0.211 HD
ENDBRANCH  20  27
BRANCH  21  29
ATOM     29  C   UNL     1       6.458  12.792  17.632  1.00  0.00     0.191 C 
BRANCH  29  30
ATOM     30  O   UNL     1       5.522  13.497  18.397  1.00  0.00    -0.394 OA
ATOM     31  H   UNL     1       5.804  13.411  19.346  1.00  0.00     0.210 HD
ENDBRANCH  29  30
ENDBRANCH  21  29
ENDBRANCH   1  17
TORSDOF 13
ENDMDL
MODEL 4
REMARK VINA RESULT:    -5.486      1.607      1.798
REMARK INTER + INTRA:          -9.794
REMARK INTER:                  -8.587
REMARK INTRA:                  -1.207
REMARK UNBOUND:                -1.422
REMARK SMILES OC[C@@H]1O[C@@H](O[C@]2(CO)O[C@@H](CO)[C@@H](O)[C@@H]2O)[C@H](O)[C@@H](O)[C@H]1O
REMARK SMILES IDX 6 1 5 2 3 3 22 4 4 5 20 6 18 7 2 8 1 9 23 11 21 13 19 15
REMARK SMILES IDX 7 17 16 18 10 19 14 20 11 21 8 22 9 23 17 25 15 27 12 29
REMARK SMILES IDX 13 30
REMARK H PARENT 1 10 23 12 21 14 19 16 9 24 17 26 15 28 13 31
REMARK Flexibility Score: inf
ROOT
ATOM      1  O   UNL     1       5.680  12.423  14.278  1.00  0.00    -0.313 OA
ENDROOT
BRANCH   1   2
ATOM      2  C   UNL     1       6.964  12.174  14.841  1.00  0.00     0.285 C 
ATOM      3  C   UNL     1       6.511  13.411  16.791  1.00  0.00     0.178 C 
ATOM      4  C   UNL     1       7.527  14.518  16.429  1.00  0.00     0.177 C 
ATOM      5  O   UNL     1       6.925  12.162  16.261  1.00  0.00    -0.341 OA
ATOM      6  C   UNL     1       7.671  14.613  14.901  1.00  0.00     0.179 C 
ATOM      7  C   UNL     1       7.972  13.223  14.319  1.00  0.00     0.202 C 
BRANCH   3   8
ATOM      8  C   UNL     1       6.375  13.270  18.314  1.00  0.00     0.191 C 
BRANCH   8   9
ATOM      9  O   UNL     1       5.290  14.033  18.766  1.00  0.00    -0.394 OA
ATOM     10  H   UNL     1       5.674  14.755  19.329  1.00  0.00     0.210 HD
ENDBRANCH   8   9
ENDBRANCH   3   8
BRANCH   4  11
ATOM     11  O   UNL     1       7.097  15.757  16.933  1.00  0.00    -0.387 OA
ATOM     12  H   UNL     1       6.923  16.350  16.159  1.00  0.00     0.211 HD
ENDBRANCH   4  11
BRANCH   6  13
ATOM     13  O   UNL     1       6.496  15.121  14.319  1.00  0.00    -0.387 OA
ATOM     14  H   UNL     1       5.876  14.357  14.193  1.00  0.00     0.211 HD
ENDBRANCH   6  13
BRANCH   7  15
ATOM     15  O   UNL     1       9.281  12.848  14.673  1.00  0.00    -0.385 OA
ATOM     16  H   UNL     1       9.220  11.967  15.126  1.00  0.00     0.211 HD
ENDBRANCH   7  15
ENDBRANCH   1   2
BRANCH   1  17
ATOM     17  C   UNL     1       5.229  11.447  13.327  1.00  0.00     0.224 C 
ATOM     18  C   UNL     1       4.342  12.160  12.263  1.00  0.00     0.208 C 
ATOM     19  O   UNL     1       6.309  10.836  12.635  1.00  0.00    -0.337 OA
ATOM     20  C   UNL     1       5.010  11.823  10.946  1.00  0.00     0.180 C 
ATOM     21  C   UNL     1       6.424  11.486  11.398  1.00  0.00     0.179 C 
BRANCH  17  22
ATOM     22  C   UNL     1       4.417  10.339  14.033  1.00  0.00     0.225 C 
BRANCH  22  23
ATOM     23  O   UNL     1       3.561   9.702  13.120  1.00  0.00    -0.391 OA
ATOM     24  H   UNL     1       3.602  10.226  12.282  1.00  0.00     0.210 HD
ENDBRANCH  22  23
ENDBRANCH  17  22
BRANCH  18  25
ATOM     25  O   UNL     1       4.341  13.551  12.461  1.00  0.00    -0.385 OA
ATOM     26  H   UNL     1       5.269  13.866  12.293  1.00  0.00     0.211 HD
ENDBRANCH  18  25
BRANCH  20  27
ATOM     27  O   UNL     1       4.367  10.709  10.375  1.00  0.00    -0.387 OA
ATOM     28  H   UNL     1       3.422  10.731  10.672  1.00  0.00     0.211 HD
ENDBRANCH  20  27
BRANCH  21  29
ATOM     29  C   UNL     1       7.214  10.614  10.408  1.00  0.00     0.191 C 
BRANCH  29  30
ATOM     30  O   UNL     1       7.710   9.474  11.049  1.00  0.00    -0.394 OA
ATOM     31  H   UNL     1       8.641   9.681  11.325  1.00  0.00     0.210 HD
ENDBRANCH  29  30
ENDBRANCH  21  29
ENDBRANCH   1  17
TORSDOF 13
ENDMDL
MODEL 5
REMARK VINA RESULT:    -5.458      1.913      6.238
REMARK INTER + INTRA:          -9.752
REMARK INTER:                  -8.657
REMARK INTRA:                  -1.095
REMARK UNBOUND:                -1.422
REMARK SMILES OC[C@@H]1O[C@@H](O[C@]2(CO)O[C@@H](CO)[C@@H](O)[C@@H]2O)[C@H](O)[C@@H](O)[C@H]1O
REMARK SMILES IDX 6 1 5 2 3 3 22 4 4 5 20 6 18 7 2 8 1 9 23 11 21 13 19 15
REMARK SMILES IDX 7 17 16 18 10 19 14 20 11 21 8 22 9 23 17 25 15 27 12 29
REMARK SMILES IDX 13 30
REMARK H PARENT 1 10 23 12 21 14 19 16 9 24 17 26 15 28 13 31
REMARK Flexibility Score: inf
ROOT
ATOM      1  O   UNL     1       6.004  13.110  14.284  1.00  0.00    -0.313 OA
ENDROOT
BRANCH   1   2
ATOM      2  C   UNL     1       5.609  11.757  14.084  1.00  0.00     0.285 C 
ATOM      3  C   UNL     1       6.231  11.756  11.814  1.00  0.00     0.178 C 
ATOM      4  C   UNL     1       4.769  11.644  11.324  1.00  0.00     0.177 C 
ATOM      5  O   UNL     1       6.384  11.124  13.075  1.00  0.00    -0.341 OA
ATOM      6  C   UNL     1       3.825  12.284  12.355  1.00  0.00     0.179 C 
ATOM      7  C   UNL     1       4.102  11.699  13.749  1.00  0.00     0.202 C 
BRANCH   3   8
ATOM      8  C   UNL     1       7.194  11.092  10.819  1.00  0.00     0.191 C 
BRANCH   8   9
ATOM      9  O   UNL     1       8.516  11.294  11.232  1.00  0.00    -0.394 OA
ATOM     10  H   UNL     1       9.086  10.782  10.601  1.00  0.00     0.210 HD
ENDBRANCH   8   9
ENDBRANCH   3   8
BRANCH   4  11
ATOM     11  O   UNL     1       4.619  12.297  10.089  1.00  0.00    -0.387 OA
ATOM     12  H   UNL     1       5.515  12.605   9.803  1.00  0.00     0.211 HD
ENDBRANCH   4  11
BRANCH   6  13
ATOM     13  O   UNL     1       3.994  13.680  12.390  1.00  0.00    -0.387 OA
ATOM     14  H   UNL     1       4.971  13.858  12.379  1.00  0.00     0.211 HD
ENDBRANCH   6  13
BRANCH   7  15
ATOM     15  O   UNL     1       3.652  10.366  13.788  1.00  0.00    -0.385 OA
ATOM     16  H   UNL     1       3.538  10.125  14.744  1.00  0.00     0.211 HD
ENDBRANCH   7  15
ENDBRANCH   1   2
BRANCH   1  17
ATOM     17  C   UNL     1       6.925  13.326  15.363  1.00  0.00     0.224 C 
ATOM     18  C   UNL     1       7.376  14.818  15.343  1.00  0.00     0.208 C 
ATOM     19  O   UNL     1       6.331  13.082  16.630  1.00  0.00    -0.337 OA
ATOM     20  C   UNL     1       7.025  15.323  16.727  1.00  0.00     0.180 C 
ATOM     21  C   UNL     1       5.956  14.327  17.155  1.00  0.00     0.179 C 
BRANCH  17  22
ATOM     22  C   UNL     1       8.154  12.403  15.218  1.00  0.00     0.225 C 
BRANCH  22  23
ATOM     23  O   UNL     1       8.830  12.671  14.017  1.00  0.00    -0.391 OA
ATOM     24  H   UNL     1       8.865  11.817  13.517  1.00  0.00     0.210 HD
ENDBRANCH  22  23
ENDBRANCH  17  22
BRANCH  18  25
ATOM     25  O   UNL     1       6.667  15.544  14.370  1.00  0.00    -0.385 OA
ATOM     26  H   UNL     1       7.182  16.378  14.201  1.00  0.00     0.211 HD
ENDBRANCH  18  25
BRANCH  20  27
ATOM     27  O   UNL     1       8.166  15.248  17.548  1.00  0.00    -0.387 OA
ATOM     28  H   UNL     1       8.176  16.061  18.114  1.00  0.00     0.211 HD
ENDBRANCH  20  27
BRANCH  21  29
ATOM     29  C   UNL     1       5.757  14.228  18.675  1.00  0.00     0.191 C 
BRANCH  29  30
ATOM     30  O   UNL     1       5.783  15.501  19.256  1.00  0.00    -0.394 OA
ATOM     31  H   UNL     1       4.852  15.709  19.534  1.00  0.00     0.210 HD
ENDBRANCH  29  30
ENDBRANCH  21  29
ENDBRANCH   1  17
TORSDOF 13
ENDMDL
MODEL 6
REMARK VINA RESULT:    -5.437      1.875      6.166
REMARK INTER + INTRA:          -9.719
REMARK INTER:                  -8.619
REMARK INTRA:                  -1.100
REMARK UNBOUND:                -1.422
REMARK SMILES OC[C@@H]1O[C@@H](O[C@]2(CO)O[C@@H](CO)[C@@H](O)[C@@H]2O)[C@H](O)[C@@H](O)[C@H]1O
REMARK SMILES IDX 6 1 5 2 3 3 22 4 4 5 20 6 18 7 2 8 1 9 23 11 21 13 19 15
REMARK SMILES IDX 7 17 16 18 10 19 14 20 11 21 8 22 9 23 17 25 15 27 12 29
REMARK SMILES IDX 13 30
REMARK H PARENT 1 10 23 12 21 14 19 16 9 24 17 26 15 28 13 31
REMARK Flexibility Score: inf
ROOT
ATOM      1  O   UNL     1       5.618  11.465  14.329  1.00  0.00    -0.313 OA
ENDROOT
BRANCH   1   2
ATOM      2  C   UNL     1       6.258  10.501  13.500  1.00  0.00     0.285 C 
ATOM      3  C   UNL     1       4.991  11.076  11.602  1.00  0.00     0.178 C 
ATOM      4  C   UNL     1       4.235   9.728  11.590  1.00  0.00     0.177 C 
ATOM      5  O   UNL     1       6.294  10.913  12.141  1.00  0.00    -0.341 OA
ATOM      6  C   UNL     1       4.151   9.167  13.020  1.00  0.00     0.179 C 
ATOM      7  C   UNL     1       5.551   9.135  13.651  1.00  0.00     0.202 C 
BRANCH   3   8
ATOM      8  C   UNL     1       5.122  11.642  10.180  1.00  0.00     0.191 C 
BRANCH   8   9
ATOM      9  O   UNL     1       4.002  12.427   9.877  1.00  0.00    -0.394 OA
ATOM     10  H   UNL     1       3.672  12.785  10.741  1.00  0.00     0.210 HD
ENDBRANCH   8   9
ENDBRANCH   3   8
BRANCH   4  11
ATOM     11  O   UNL     1       2.937   9.902  11.082  1.00  0.00    -0.387 OA
ATOM     12  H   UNL     1       2.396  10.338  11.788  1.00  0.00     0.211 HD
ENDBRANCH   4  11
BRANCH   6  13
ATOM     13  O   UNL     1       3.296   9.951  13.814  1.00  0.00    -0.387 OA
ATOM     14  H   UNL     1       3.732  10.835  13.932  1.00  0.00     0.211 HD
ENDBRANCH   6  13
BRANCH   7  15
ATOM     15  O   UNL     1       6.314   8.129  13.030  1.00  0.00    -0.385 OA
ATOM     16  H   UNL     1       7.257   8.263  13.310  1.00  0.00     0.211 HD
ENDBRANCH   7  15
ENDBRANCH   1   2
BRANCH   1  17
ATOM     17  C   UNL     1       6.485  12.460  14.893  1.00  0.00     0.224 C 
ATOM     18  C   UNL     1       6.160  13.835  14.236  1.00  0.00     0.208 C 
ATOM     19  O   UNL     1       6.295  12.605  16.293  1.00  0.00    -0.337 OA
ATOM     20  C   UNL     1       5.840  14.734  15.413  1.00  0.00     0.180 C 
ATOM     21  C   UNL     1       5.462  13.717  16.481  1.00  0.00     0.179 C 
BRANCH  17  22
ATOM     22  C   UNL     1       7.964  12.094  14.640  1.00  0.00     0.225 C 
BRANCH  22  23
ATOM     23  O   UNL     1       8.495  12.881  13.606  1.00  0.00    -0.391 OA
ATOM     24  H   UNL     1       8.315  13.824  13.848  1.00  0.00     0.210 HD
ENDBRANCH  22  23
ENDBRANCH  17  22
BRANCH  18  25
ATOM     25  O   UNL     1       5.043  13.736  13.389  1.00  0.00    -0.385 OA
ATOM     26  H   UNL     1       5.345  13.256  12.571  1.00  0.00     0.211 HD
ENDBRANCH  18  25
BRANCH  20  27
ATOM     27  O   UNL     1       6.995  15.457  15.768  1.00  0.00    -0.387 OA
ATOM     28  H   UNL     1       7.001  15.537  16.755  1.00  0.00     0.211 HD
ENDBRANCH  20  27
BRANCH  21  29
ATOM     29  C   UNL     1       5.584  14.238  17.922  1.00  0.00     0.191 C 
BRANCH  29  30
ATOM     30  O   UNL     1       5.022  15.515  18.029  1.00  0.00    -0.394 OA
ATOM     31  H   UNL     1       4.984  15.891  17.111  1.00  0.00     0.210 HD
ENDBRANCH  29  30
ENDBRANCH  21  29
ENDBRANCH   1  17
TORSDOF 13
ENDMDL
MODEL 7
REMARK VINA RESULT:    -5.422      1.852      6.094
REMARK INTER + INTRA:          -9.696
REMARK INTER:                  -8.348
REMARK INTRA:                  -1.348
REMARK UNBOUND:                -1.422
REMARK SMILES OC[C@@H]1O[C@@H](O[C@]2(CO)O[C@@H](CO)[C@@H](O)[C@@H]2O)[C@H](O)[C@@H](O)[C@H]1O
REMARK SMILES IDX 6 1 5 2 3 3 22 4 4 5 20 6 18 7 2 8 1 9 23 11 21 13 19 15
REMARK SMILES IDX 7 17 16 18 10 19 14 20 11 21 8 22 9 23 17 25 15 27 12 29
REMARK SMILES IDX 13 30
REMARK H PARENT 1 10 23 12 21 14 19 16 9 24 17 26 15 28 13 31
REMARK Flexibility Score: inf
ROOT
ATOM      1  O   UNL     1       6.471  12.585  15.014  1.00  0.00    -0.313 OA
ENDROOT
BRANCH   1   2
ATOM      2  C   UNL     1       6.936  12.942  13.716  1.00  0.00     0.285 C 
ATOM      3  C   UNL     1       4.992  12.159  12.644  1.00  0.00     0.178 C 
ATOM      4  C   UNL     1       5.737  10.994  11.954  1.00  0.00     0.177 C 
ATOM      5  O   UNL     1       5.863  13.262  12.841  1.00  0.00    -0.341 OA
ATOM      6  C   UNL     1       6.944  10.570  12.808  1.00  0.00     0.179 C 
ATOM      7  C   UNL     1       7.803  11.799  13.143  1.00  0.00     0.202 C 
BRANCH   3   8
ATOM      8  C   UNL     1       3.802  12.627  11.794  1.00  0.00     0.191 C 
BRANCH   8   9
ATOM      9  O   UNL     1       4.101  12.473  10.435  1.00  0.00    -0.394 OA
ATOM     10  H   UNL     1       3.237  12.303   9.977  1.00  0.00     0.210 HD
ENDBRANCH   8   9
ENDBRANCH   3   8
BRANCH   4  11
ATOM     11  O   UNL     1       4.877   9.896  11.789  1.00  0.00    -0.387 OA
ATOM     12  H   UNL     1       5.307   9.274  11.150  1.00  0.00     0.211 HD
ENDBRANCH   4  11
BRANCH   6  13
ATOM     13  O   UNL     1       6.521   9.955  14.000  1.00  0.00    -0.387 OA
ATOM     14  H   UNL     1       6.342  10.677  14.656  1.00  0.00     0.211 HD
ENDBRANCH   6  13
BRANCH   7  15
ATOM     15  O   UNL     1       8.460  12.234  11.977  1.00  0.00    -0.385 OA
ATOM     16  H   UNL     1       9.017  11.478  11.655  1.00  0.00     0.211 HD
ENDBRANCH   7  15
ENDBRANCH   1   2
BRANCH   1  17
ATOM     17  C   UNL     1       6.938  13.421  16.082  1.00  0.00     0.224 C 
ATOM     18  C   UNL     1       6.664  12.700  17.437  1.00  0.00     0.208 C 
ATOM     19  O   UNL     1       8.338  13.656  16.005  1.00  0.00    -0.337 OA
ATOM     20  C   UNL     1       8.028  12.628  18.094  1.00  0.00     0.180 C 
ATOM     21  C   UNL     1       8.954  12.762  16.893  1.00  0.00     0.179 C 
BRANCH  17  22
ATOM     22  C   UNL     1       6.216  14.786  16.058  1.00  0.00     0.225 C 
BRANCH  22  23
ATOM     23  O   UNL     1       6.590  15.559  17.169  1.00  0.00    -0.391 OA
ATOM     24  H   UNL     1       7.523  15.850  17.008  1.00  0.00     0.210 HD
ENDBRANCH  22  23
ENDBRANCH  17  22
BRANCH  18  25
ATOM     25  O   UNL     1       6.164  11.404  17.223  1.00  0.00    -0.385 OA
ATOM     26  H   UNL     1       6.499  11.109  16.334  1.00  0.00     0.211 HD
ENDBRANCH  18  25
BRANCH  20  27
ATOM     27  O   UNL     1       8.167  13.710  18.983  1.00  0.00    -0.387 OA
ATOM     28  H   UNL     1       8.625  13.369  19.793  1.00  0.00     0.211 HD
ENDBRANCH  20  27
BRANCH  21  29
ATOM     29  C   UNL     1      10.371  13.245  17.239  1.00  0.00     0.191 C 
BRANCH  29  30
ATOM     30  O   UNL     1      10.895  12.502  18.303  1.00  0.00    -0.394 OA
ATOM     31  H   UNL     1      11.794  12.188  18.019  1.00  0.00     0.210 HD
ENDBRANCH  29  30
ENDBRANCH  21  29
ENDBRANCH   1  17
TORSDOF 13
ENDMDL
MODEL 8
REMARK VINA RESULT:    -5.359      1.753      3.521
REMARK INTER + INTRA:          -9.601
REMARK INTER:                  -8.237
REMARK INTRA:                  -1.363
REMARK UNBOUND:                -1.422
REMARK SMILES OC[C@@H]1O[C@@H](O[C@]2(CO)O[C@@H](CO)[C@@H](O)[C@@H]2O)[C@H](O)[C@@H](O)[C@H]1O
REMARK SMILES IDX 6 1 5 2 3 3 22 4 4 5 20 6 18 7 2 8 1 9 23 11 21 13 19 15
REMARK SMILES IDX 7 17 16 18 10 19 14 20 11 21 8 22 9 23 17 25 15 27 12 29
REMARK SMILES IDX 13 30
REMARK H PARENT 1 10 23 12 21 14 19 16 9 24 17 26 15 28 13 31
REMARK Flexibility Score: inf
ROOT
ATOM      1  O   UNL     1       6.495  12.518  14.986  1.00  0.00    -0.313 OA
ENDROOT
BRANCH   1   2
ATOM      2  C   UNL     1       6.458  13.842  15.509  1.00  0.00     0.285 C 
ATOM      3  C   UNL     1       8.508  13.611  16.642  1.00  0.00     0.178 C 
ATOM      4  C   UNL     1       7.843  13.665  18.036  1.00  0.00     0.177 C 
ATOM      5  O   UNL     1       7.762  14.371  15.703  1.00  0.00    -0.341 OA
ATOM      6  C   UNL     1       6.403  13.132  17.947  1.00  0.00     0.179 C 
ATOM      7  C   UNL     1       5.647  13.859  16.824  1.00  0.00     0.202 C 
BRANCH   3   8
ATOM      8  C   UNL     1       9.936  14.172  16.694  1.00  0.00     0.191 C 
BRANCH   8   9
ATOM      9  O   UNL     1      10.847  13.132  16.920  1.00  0.00    -0.394 OA
ATOM     10  H   UNL     1      11.054  12.747  16.029  1.00  0.00     0.210 HD
ENDBRANCH   8   9
ENDBRANCH   3   8
BRANCH   4  11
ATOM     11  O   UNL     1       8.570  12.888  18.953  1.00  0.00    -0.387 OA
ATOM     12  H   UNL     1       9.044  13.510  19.561  1.00  0.00     0.211 HD
ENDBRANCH   4  11
BRANCH   6  13
ATOM     13  O   UNL     1       6.398  11.748  17.697  1.00  0.00    -0.387 OA
ATOM     14  H   UNL     1       6.900  11.600  16.853  1.00  0.00     0.211 HD
ENDBRANCH   6  13
BRANCH   7  15
ATOM     15  O   UNL     1       5.400  15.187  17.219  1.00  0.00    -0.385 OA
ATOM     16  H   UNL     1       4.465  15.399  16.961  1.00  0.00     0.211 HD
ENDBRANCH   7  15
ENDBRANCH   1   2
BRANCH   1  17
ATOM     17  C   UNL     1       6.040  12.382  13.633  1.00  0.00     0.224 C 
ATOM     18  C   UNL     1       7.275  12.422  12.684  1.00  0.00     0.208 C 
ATOM     19  O   UNL     1       5.379  11.143  13.412  1.00  0.00    -0.337 OA
ATOM     20  C   UNL     1       7.177  11.128  11.902  1.00  0.00     0.180 C 
ATOM     21  C   UNL     1       6.313  10.279  12.823  1.00  0.00     0.179 C 
BRANCH  17  22
ATOM     22  C   UNL     1       5.063  13.523  13.273  1.00  0.00     0.225 C 
BRANCH  22  23
ATOM     23  O   UNL     1       4.315  13.187  12.133  1.00  0.00    -0.391 OA
ATOM     24  H   UNL     1       3.476  13.710  12.183  1.00  0.00     0.210 HD
ENDBRANCH  22  23
ENDBRANCH  17  22
BRANCH  18  25
ATOM     25  O   UNL     1       8.473  12.451  13.420  1.00  0.00    -0.385 OA
ATOM     26  H   UNL     1       8.902  11.562  13.304  1.00  0.00     0.211 HD
ENDBRANCH  18  25
BRANCH  20  27
ATOM     27  O   UNL     1       6.538  11.380  10.674  1.00  0.00    -0.387 OA
ATOM     28  H   UNL     1       5.827  12.050  10.843  1.00  0.00     0.211 HD
ENDBRANCH  20  27
BRANCH  21  29
ATOM     29  C   UNL     1       5.595   9.115  12.122  1.00  0.00     0.191 C 
BRANCH  29  30
ATOM     30  O   UNL     1       6.491   8.402  11.317  1.00  0.00    -0.394 OA
ATOM     31  H   UNL     1       6.873   7.681  11.882  1.00  0.00     0.210 HD
ENDBRANCH  29  30
ENDBRANCH  21  29
ENDBRANCH   1  17
TORSDOF 13
ENDMDL
