MODEL 1
REMARK VINA RESULT:    -5.320      0.000      0.000
REMARK INTER + INTRA:          -5.320
REMARK INTER:                  -5.320
REMARK INTRA:                   0.000
REMARK UNBOUND:                 0.000
REMARK SMILES C=C1CCC[C@@]2(C)CC(=O)C(=C(C)C)C[C@@H]12
REMARK SMILES IDX 13 1 12 2 11 3 15 4 16 5 2 6 1 7 3 8 4 9 5 10 6 11 8 12 9 13
REMARK SMILES IDX 10 14 7 15 14 16
REMARK H PARENT
REMARK Flexibility Score: inf
ROOT
ATOM      1  C   UNL     1      46.249   3.527  18.825  1.00  0.00     0.039 C 
ATOM      2  C   UNL     1      47.434   4.350  19.275  1.00  0.00    -0.070 C 
ATOM      3  C   UNL     1      48.635   3.763  19.555  1.00  0.00    -0.006 C 
ATOM      4  C   UNL     1      48.885   2.280  19.380  1.00  0.00     0.047 C 
ATOM      5  C   UNL     1      50.004   2.049  18.337  1.00  0.00     0.025 C 
ATOM      6  C   UNL     1      49.421   2.217  16.930  1.00  0.00    -0.073 C 
ATOM      7  C   UNL     1      48.642   1.247  16.421  1.00  0.00     0.008 C 
ATOM      8  C   UNL     1      49.669   3.441  16.077  1.00  0.00     0.031 C 
ATOM      9  C   UNL     1      50.597   4.459  16.730  1.00  0.00     0.005 C 
ATOM     10  C   UNL     1      51.767   3.754  17.410  1.00  0.00     0.008 C 
ATOM     11  C   UNL     1      51.325   2.894  18.634  1.00  0.00    -0.018 C 
ATOM     12  C   UNL     1      51.179   3.810  19.899  1.00  0.00     0.088 C 
ATOM     13  C   UNL     1      49.851   4.510  19.965  1.00  0.00     0.159 C 
ATOM     14  O   UNL     1      49.798   5.677  20.438  1.00  0.00    -0.295 OA
ATOM     15  C   UNL     1      52.489   1.915  18.931  1.00  0.00     0.012 C 
ATOM     16  C   UNL     1      47.242   5.845  19.362  1.00  0.00     0.039 C 
ENDROOT
TORSDOF 0
ENDMDL
MODEL 2
REMARK VINA RESULT:    -5.038      1.595      2.891
REMARK INTER + INTRA:          -5.038
REMARK INTER:                  -5.038
REMARK INTRA:                   0.000
REMARK UNBOUND:                 0.000
REMARK SMILES C=C1CCC[C@@]2(C)CC(=O)C(=C(C)C)C[C@@H]12
REMARK SMILES IDX 13 1 12 2 11 3 15 4 16 5 2 6 1 7 3 8 4 9 5 10 6 11 8 12 9 13
REMARK SMILES IDX 10 14 7 15 14 16
REMARK H PARENT
REMARK Flexibility Score: inf
ROOT
ATOM      1  C   UNL     1      47.727   1.735  19.291  1.00  0.00     0.039 C 
ATOM      2  C   UNL     1      47.428   3.205  19.109  1.00  0.00    -0.070 C 
ATOM      3  C   UNL     1      48.180   4.159  19.731  1.00  0.00    -0.006 C 
ATOM      4  C   UNL     1      49.386   3.829  20.584  1.00  0.00     0.047 C 
ATOM      5  C   UNL     1      50.659   4.465  19.976  1.00  0.00     0.025 C 
ATOM      6  C   UNL     1      51.134   3.610  18.798  1.00  0.00    -0.073 C 
ATOM      7  C   UNL     1      51.745   2.437  19.041  1.00  0.00     0.008 C 
ATOM      8  C   UNL     1      50.937   4.015  17.355  1.00  0.00     0.031 C 
ATOM      9  C   UNL     1      50.273   5.377  17.191  1.00  0.00     0.005 C 
ATOM     10  C   UNL     1      50.850   6.375  18.190  1.00  0.00     0.008 C 
ATOM     11  C   UNL     1      50.497   6.023  19.668  1.00  0.00    -0.018 C 
ATOM     12  C   UNL     1      49.061   6.555  20.009  1.00  0.00     0.088 C 
ATOM     13  C   UNL     1      47.970   5.621  19.570  1.00  0.00     0.159 C 
ATOM     14  O   UNL     1      46.883   6.103  19.153  1.00  0.00    -0.295 OA
ATOM     15  C   UNL     1      51.485   6.815  20.561  1.00  0.00     0.012 C 
ATOM     16  C   UNL     1      46.292   3.568  18.183  1.00  0.00     0.039 C 
ENDROOT
TORSDOF 0
ENDMDL
MODEL 3
REMARK VINA RESULT:    -5.018      1.845      4.397
REMARK INTER + INTRA:          -5.018
REMARK INTER:                  -5.018
REMARK INTRA:                   0.000
REMARK UNBOUND:                 0.000
REMARK SMILES C=C1CCC[C@@]2(C)CC(=O)C(=C(C)C)C[C@@H]12
REMARK SMILES IDX 13 1 12 2 11 3 15 4 16 5 2 6 1 7 3 8 4 9 5 10 6 11 8 12 9 13
REMARK SMILES IDX 10 14 7 15 14 16
REMARK H PARENT
REMARK Flexibility Score: inf
ROOT
ATOM      1  C   UNL     1      52.745   5.274  16.681  1.00  0.00     0.039 C 
ATOM      2  C   UNL     1      51.420   4.814  16.119  1.00  0.00    -0.070 C 
ATOM      3  C   UNL     1      50.850   3.642  16.527  1.00  0.00    -0.006 C 
ATOM      4  C   UNL     1      51.457   2.761  17.598  1.00  0.00     0.047 C 
ATOM      5  C   UNL     1      50.489   2.638  18.799  1.00  0.00     0.025 C 
ATOM      6  C   UNL     1      50.581   3.908  19.650  1.00  0.00    -0.073 C 
ATOM      7  C   UNL     1      51.654   4.094  20.438  1.00  0.00     0.008 C 
ATOM      8  C   UNL     1      49.519   4.984  19.641  1.00  0.00     0.031 C 
ATOM      9  C   UNL     1      48.328   4.655  18.748  1.00  0.00     0.005 C 
ATOM     10  C   UNL     1      47.928   3.192  18.910  1.00  0.00     0.008 C 
ATOM     11  C   UNL     1      49.012   2.207  18.373  1.00  0.00    -0.018 C 
ATOM     12  C   UNL     1      48.858   2.048  16.820  1.00  0.00     0.088 C 
ATOM     13  C   UNL     1      49.534   3.144  16.048  1.00  0.00     0.159 C 
ATOM     14  O   UNL     1      49.008   3.555  14.979  1.00  0.00    -0.295 OA
ATOM     15  C   UNL     1      48.697   0.822  18.992  1.00  0.00     0.012 C 
ATOM     16  C   UNL     1      50.741   5.721  15.121  1.00  0.00     0.039 C 
ENDROOT
TORSDOF 0
ENDMDL
MODEL 4
REMARK VINA RESULT:    -4.785      8.832     12.146
REMARK INTER + INTRA:          -4.785
REMARK INTER:                  -4.785
REMARK INTRA:                   0.000
REMARK UNBOUND:                 0.000
REMARK SMILES C=C1CCC[C@@]2(C)CC(=O)C(=C(C)C)C[C@@H]12
REMARK SMILES IDX 13 1 12 2 11 3 15 4 16 5 2 6 1 7 3 8 4 9 5 10 6 11 8 12 9 13
REMARK SMILES IDX 10 14 7 15 14 16
REMARK H PARENT
REMARK Flexibility Score: inf
ROOT
ATOM      1  C   UNL     1      44.755   9.896  20.877  1.00  0.00     0.039 C 
ATOM      2  C   UNL     1      43.601   9.940  19.902  1.00  0.00    -0.070 C 
ATOM      3  C   UNL     1      42.308   9.971  20.341  1.00  0.00    -0.006 C 
ATOM      4  C   UNL     1      41.939  10.025  21.809  1.00  0.00     0.047 C 
ATOM      5  C   UNL     1      41.155  11.324  22.113  1.00  0.00     0.025 C 
ATOM      6  C   UNL     1      42.140  12.492  22.215  1.00  0.00    -0.073 C 
ATOM      7  C   UNL     1      42.909  12.610  23.312  1.00  0.00     0.008 C 
ATOM      8  C   UNL     1      42.305  13.528  21.126  1.00  0.00     0.031 C 
ATOM      9  C   UNL     1      41.359  13.326  19.948  1.00  0.00     0.005 C 
ATOM     10  C   UNL     1      39.964  12.956  20.441  1.00  0.00     0.008 C 
ATOM     11  C   UNL     1      39.919  11.557  21.130  1.00  0.00    -0.018 C 
ATOM     12  C   UNL     1      39.801  10.435  20.040  1.00  0.00     0.088 C 
ATOM     13  C   UNL     1      41.126  10.052  19.445  1.00  0.00     0.159 C 
ATOM     14  O   UNL     1      41.182   9.737  18.226  1.00  0.00    -0.295 OA
ATOM     15  C   UNL     1      38.608  11.511  21.955  1.00  0.00     0.012 C 
ATOM     16  C   UNL     1      43.941   9.988  18.432  1.00  0.00     0.039 C 
ENDROOT
TORSDOF 0
ENDMDL
MODEL 5
REMARK VINA RESULT:    -4.772      8.932     11.495
REMARK INTER + INTRA:          -4.772
REMARK INTER:                  -4.772
REMARK INTRA:                   0.000
REMARK UNBOUND:                 0.000
REMARK SMILES C=C1CCC[C@@]2(C)CC(=O)C(=C(C)C)C[C@@H]12
REMARK SMILES IDX 13 1 12 2 11 3 15 4 16 5 2 6 1 7 3 8 4 9 5 10 6 11 8 12 9 13
REMARK SMILES IDX 10 14 7 15 14 16
REMARK H PARENT
REMARK Flexibility Score: inf
ROOT
ATOM      1  C   UNL     1      44.296  11.324  17.125  1.00  0.00     0.039 C 
ATOM      2  C   UNL     1      42.981  11.955  17.521  1.00  0.00    -0.070 C 
ATOM      3  C   UNL     1      42.064  11.266  18.262  1.00  0.00    -0.006 C 
ATOM      4  C   UNL     1      42.312   9.868  18.786  1.00  0.00     0.047 C 
ATOM      5  C   UNL     1      42.270   9.864  20.333  1.00  0.00     0.025 C 
ATOM      6  C   UNL     1      43.596  10.410  20.872  1.00  0.00    -0.073 C 
ATOM      7  C   UNL     1      44.694   9.635  20.825  1.00  0.00     0.008 C 
ATOM      8  C   UNL     1      43.739  11.799  21.451  1.00  0.00     0.031 C 
ATOM      9  C   UNL     1      42.429  12.577  21.496  1.00  0.00     0.005 C 
ATOM     10  C   UNL     1      41.289  11.675  21.956  1.00  0.00     0.008 C 
ATOM     11  C   UNL     1      40.957  10.550  20.927  1.00  0.00    -0.018 C 
ATOM     12  C   UNL     1      40.018  11.119  19.807  1.00  0.00     0.088 C 
ATOM     13  C   UNL     1      40.768  11.833  18.719  1.00  0.00     0.159 C 
ATOM     14  O   UNL     1      40.245  12.841  18.175  1.00  0.00    -0.295 OA
ATOM     15  C   UNL     1      40.136   9.480  21.690  1.00  0.00     0.012 C 
ATOM     16  C   UNL     1      42.747  13.385  17.097  1.00  0.00     0.039 C 
ENDROOT
TORSDOF 0
ENDMDL
MODEL 6
REMARK VINA RESULT:    -4.763      7.681      9.959
REMARK INTER + INTRA:          -4.763
REMARK INTER:                  -4.763
REMARK INTRA:                   0.000
REMARK UNBOUND:                 0.000
REMARK SMILES C=C1CCC[C@@]2(C)CC(=O)C(=C(C)C)C[C@@H]12
REMARK SMILES IDX 13 1 12 2 11 3 15 4 16 5 2 6 1 7 3 8 4 9 5 10 6 11 8 12 9 13
REMARK SMILES IDX 10 14 7 15 14 16
REMARK H PARENT
REMARK Flexibility Score: inf
ROOT
ATOM      1  C   UNL     1      41.984  11.827  22.393  1.00  0.00     0.039 C 
ATOM      2  C   UNL     1      41.925  10.958  21.158  1.00  0.00    -0.070 C 
ATOM      3  C   UNL     1      42.664  11.257  20.050  1.00  0.00    -0.006 C 
ATOM      4  C   UNL     1      43.629  12.423  19.994  1.00  0.00     0.047 C 
ATOM      5  C   UNL     1      45.068  11.912  19.745  1.00  0.00     0.025 C 
ATOM      6  C   UNL     1      45.642  11.371  21.058  1.00  0.00    -0.073 C 
ATOM      7  C   UNL     1      46.033  12.236  22.011  1.00  0.00     0.008 C 
ATOM      8  C   UNL     1      45.782   9.894  21.348  1.00  0.00     0.031 C 
ATOM      9  C   UNL     1      45.350   9.003  20.189  1.00  0.00     0.005 C 
ATOM     10  C   UNL     1      45.852   9.570  18.865  1.00  0.00     0.008 C 
ATOM     11  C   UNL     1      45.177  10.926  18.495  1.00  0.00    -0.018 C 
ATOM     12  C   UNL     1      43.787  10.658  17.820  1.00  0.00     0.088 C 
ATOM     13  C   UNL     1      42.686  10.431  18.815  1.00  0.00     0.159 C 
ATOM     14  O   UNL     1      41.773   9.606  18.542  1.00  0.00    -0.295 OA
ATOM     15  C   UNL     1      46.071  11.586  17.415  1.00  0.00     0.012 C 
ATOM     16  C   UNL     1      41.047   9.731  21.220  1.00  0.00     0.039 C 
ENDROOT
TORSDOF 0
ENDMDL
MODEL 7
REMARK VINA RESULT:    -4.745      8.903     11.420
REMARK INTER + INTRA:          -4.745
REMARK INTER:                  -4.745
REMARK INTRA:                   0.000
REMARK UNBOUND:                 0.000
REMARK SMILES C=C1CCC[C@@]2(C)CC(=O)C(=C(C)C)C[C@@H]12
REMARK SMILES IDX 13 1 12 2 11 3 15 4 16 5 2 6 1 7 3 8 4 9 5 10 6 11 8 12 9 13
REMARK SMILES IDX 10 14 7 15 14 16
REMARK H PARENT
REMARK Flexibility Score: inf
ROOT
ATOM      1  C   UNL     1      38.268  11.377  19.254  1.00  0.00     0.039 C 
ATOM      2  C   UNL     1      39.330  10.937  20.235  1.00  0.00    -0.070 C 
ATOM      3  C   UNL     1      40.514  10.410  19.803  1.00  0.00    -0.006 C 
ATOM      4  C   UNL     1      40.872  10.285  18.337  1.00  0.00     0.047 C 
ATOM      5  C   UNL     1      42.135  11.123  18.025  1.00  0.00     0.025 C 
ATOM      6  C   UNL     1      41.741  12.598  17.906  1.00  0.00    -0.073 C 
ATOM      7  C   UNL     1      41.096  13.019  16.803  1.00  0.00     0.008 C 
ATOM      8  C   UNL     1      42.031  13.618  18.984  1.00  0.00     0.031 C 
ATOM      9  C   UNL     1      42.800  13.047  20.169  1.00  0.00     0.005 C 
ATOM     10  C   UNL     1      43.905  12.112  19.688  1.00  0.00     0.008 C 
ATOM     11  C   UNL     1      43.351  10.819  19.013  1.00  0.00    -0.018 C 
ATOM     12  C   UNL     1      42.980   9.766  20.115  1.00  0.00     0.088 C 
ATOM     13  C   UNL     1      41.617   9.991  20.705  1.00  0.00     0.159 C 
ATOM     14  O   UNL     1      41.431   9.744  21.927  1.00  0.00    -0.295 OA
ATOM     15  C   UNL     1      44.519  10.210  18.197  1.00  0.00     0.012 C 
ATOM     16  C   UNL     1      39.041  11.142  21.702  1.00  0.00     0.039 C 
ENDROOT
TORSDOF 0
ENDMDL
MODEL 8
REMARK VINA RESULT:    -4.733      5.345      7.678
REMARK INTER + INTRA:          -4.733
REMARK INTER:                  -4.733
REMARK INTRA:                   0.000
REMARK UNBOUND:                 0.000
REMARK SMILES C=C1CCC[C@@]2(C)CC(=O)C(=C(C)C)C[C@@H]12
REMARK SMILES IDX 13 1 12 2 11 3 15 4 16 5 2 6 1 7 3 8 4 9 5 10 6 11 8 12 9 13
REMARK SMILES IDX 10 14 7 15 14 16
REMARK H PARENT
REMARK Flexibility Score: inf
ROOT
ATOM      1  C   UNL     1      54.119   3.146  15.884  1.00  0.00     0.039 C 
ATOM      2  C   UNL     1      54.771   4.012  14.832  1.00  0.00    -0.070 C 
ATOM      3  C   UNL     1      54.431   3.899  13.515  1.00  0.00    -0.006 C 
ATOM      4  C   UNL     1      53.351   2.958  13.023  1.00  0.00     0.047 C 
ATOM      5  C   UNL     1      52.214   3.761  12.346  1.00  0.00     0.025 C 
ATOM      6  C   UNL     1      51.323   4.378  13.428  1.00  0.00    -0.073 C 
ATOM      7  C   UNL     1      50.468   3.590  14.103  1.00  0.00     0.008 C 
ATOM      8  C   UNL     1      51.365   5.845  13.791  1.00  0.00     0.031 C 
ATOM      9  C   UNL     1      52.336   6.654  12.939  1.00  0.00     0.005 C 
ATOM     10  C   UNL     1      52.240   6.234  11.476  1.00  0.00     0.008 C 
ATOM     11  C   UNL     1      52.739   4.777  11.233  1.00  0.00    -0.018 C 
ATOM     12  C   UNL     1      54.303   4.769  11.103  1.00  0.00     0.088 C 
ATOM     13  C   UNL     1      55.001   4.741  12.432  1.00  0.00     0.159 C 
ATOM     14  O   UNL     1      56.087   5.365  12.566  1.00  0.00    -0.295 OA
ATOM     15  C   UNL     1      52.180   4.341   9.855  1.00  0.00     0.012 C 
ATOM     16  C   UNL     1      55.781   5.030  15.306  1.00  0.00     0.039 C 
ENDROOT
TORSDOF 0
ENDMDL
MODEL 9
REMARK VINA RESULT:    -4.641      8.766     12.127
REMARK INTER + INTRA:          -4.641
REMARK INTER:                  -4.641
REMARK INTRA:                   0.000
REMARK UNBOUND:                 0.000
REMARK SMILES C=C1CCC[C@@]2(C)CC(=O)C(=C(C)C)C[C@@H]12
REMARK SMILES IDX 13 1 12 2 11 3 15 4 16 5 2 6 1 7 3 8 4 9 5 10 6 11 8 12 9 13
REMARK SMILES IDX 10 14 7 15 14 16
REMARK H PARENT
REMARK Flexibility Score: inf
ROOT
ATOM      1  C   UNL     1      44.312   9.625  19.524  1.00  0.00     0.039 C 
ATOM      2  C   UNL     1      43.823  10.824  18.743  1.00  0.00    -0.070 C 
ATOM      3  C   UNL     1      42.536  10.896  18.295  1.00  0.00    -0.006 C 
ATOM      4  C   UNL     1      41.501   9.832  18.592  1.00  0.00     0.047 C 
ATOM      5  C   UNL     1      40.330  10.438  19.402  1.00  0.00     0.025 C 
ATOM      6  C   UNL     1      40.754  10.576  20.868  1.00  0.00    -0.073 C 
ATOM      7  C   UNL     1      40.818   9.477  21.640  1.00  0.00     0.008 C 
ATOM      8  C   UNL     1      41.121  11.901  21.497  1.00  0.00     0.031 C 
ATOM      9  C   UNL     1      40.975  13.085  20.550  1.00  0.00     0.005 C 
ATOM     10  C   UNL     1      39.692  12.960  19.733  1.00  0.00     0.008 C 
ATOM     11  C   UNL     1      39.725  11.758  18.740  1.00  0.00    -0.018 C 
ATOM     12  C   UNL     1      40.483  12.174  17.431  1.00  0.00     0.088 C 
ATOM     13  C   UNL     1      41.975  12.057  17.555  1.00  0.00     0.159 C 
ATOM     14  O   UNL     1      42.707  12.897  16.967  1.00  0.00    -0.295 OA
ATOM     15  C   UNL     1      38.256  11.483  18.329  1.00  0.00     0.012 C 
ATOM     16  C   UNL     1      44.807  11.947  18.518  1.00  0.00     0.039 C 
ENDROOT
TORSDOF 0
ENDMDL
