MODEL 1
REMARK VINA RESULT:    -4.258      0.000      0.000
REMARK INTER + INTRA:          -4.383
REMARK INTER:                  -4.383
REMARK INTRA:                   0.000
REMARK UNBOUND:                 0.000
REMARK SMILES Cc1cccc(O)c1C
REMARK SMILES IDX 1 1 2 2 8 3 6 4 5 5 4 6 3 7 9 8 7 9
REMARK H PARENT 7 10
REMARK Flexibility Score: inf
ROOT
ATOM      1  C   UNL     1      29.619  -6.173  34.372  1.00  0.00     0.045 C 
ATOM      2  C   UNL     1      30.619  -5.093  34.048  1.00  0.00    -0.045 A 
ATOM      3  C   UNL     1      30.494  -3.784  34.581  1.00  0.00    -0.006 A 
ATOM      4  C   UNL     1      31.446  -2.801  34.229  1.00  0.00     0.118 A 
ATOM      5  C   UNL     1      32.522  -3.133  33.398  1.00  0.00     0.046 A 
ATOM      6  C   UNL     1      32.657  -4.429  32.902  1.00  0.00     0.004 A 
ATOM      7  C   UNL     1      31.713  -5.403  33.225  1.00  0.00     0.004 A 
ATOM      8  C   UNL     1      29.327  -3.422  35.469  1.00  0.00     0.048 C 
ENDROOT
BRANCH   4   9
ATOM      9  O   UNL     1      31.322  -1.495  34.705  1.00  0.00    -0.508 OA
ATOM     10  H   UNL     1      32.130  -0.898  34.838  1.00  0.00     0.293 HD
ENDBRANCH   4   9
TORSDOF 1
ENDMDL
MODEL 2
REMARK VINA RESULT:    -4.071      1.138      2.686
REMARK INTER + INTRA:          -4.190
REMARK INTER:                  -4.190
REMARK INTRA:                   0.000
REMARK UNBOUND:                 0.000
REMARK SMILES Cc1cccc(O)c1C
REMARK SMILES IDX 1 1 2 2 8 3 6 4 5 5 4 6 3 7 9 8 7 9
REMARK H PARENT 7 10
REMARK Flexibility Score: inf
ROOT
ATOM      1  C   UNL     1      32.950  -5.008  33.494  1.00  0.00     0.045 C 
ATOM      2  C   UNL     1      31.527  -4.745  33.915  1.00  0.00    -0.045 A 
ATOM      3  C   UNL     1      31.139  -3.501  34.477  1.00  0.00    -0.006 A 
ATOM      4  C   UNL     1      29.797  -3.312  34.876  1.00  0.00     0.118 A 
ATOM      5  C   UNL     1      28.856  -4.329  34.677  1.00  0.00     0.046 A 
ATOM      6  C   UNL     1      29.236  -5.537  34.095  1.00  0.00     0.004 A 
ATOM      7  C   UNL     1      30.562  -5.745  33.716  1.00  0.00     0.004 A 
ATOM      8  C   UNL     1      32.156  -2.407  34.702  1.00  0.00     0.048 C 
ENDROOT
BRANCH   4   9
ATOM      9  O   UNL     1      29.399  -2.113  35.470  1.00  0.00    -0.508 OA
ATOM     10  H   UNL     1      29.721  -1.844  36.393  1.00  0.00     0.293 HD
ENDBRANCH   4   9
TORSDOF 1
ENDMDL
MODEL 3
REMARK VINA RESULT:    -4.033      2.014      3.659
REMARK INTER + INTRA:          -4.151
REMARK INTER:                  -4.151
REMARK INTRA:                   0.000
REMARK UNBOUND:                 0.000
REMARK SMILES Cc1cccc(O)c1C
REMARK SMILES IDX 1 1 2 2 8 3 6 4 5 5 4 6 3 7 9 8 7 9
REMARK H PARENT 7 10
REMARK Flexibility Score: inf
ROOT
ATOM      1  C   UNL     1      32.888  -3.349  35.476  1.00  0.00     0.045 C 
ATOM      2  C   UNL     1      31.541  -3.753  34.935  1.00  0.00    -0.045 A 
ATOM      3  C   UNL     1      31.415  -4.447  33.704  1.00  0.00    -0.006 A 
ATOM      4  C   UNL     1      30.128  -4.783  33.229  1.00  0.00     0.118 A 
ATOM      5  C   UNL     1      28.996  -4.470  33.991  1.00  0.00     0.046 A 
ATOM      6  C   UNL     1      29.127  -3.817  35.215  1.00  0.00     0.004 A 
ATOM      7  C   UNL     1      30.391  -3.460  35.685  1.00  0.00     0.004 A 
ATOM      8  C   UNL     1      32.636  -4.775  32.876  1.00  0.00     0.048 C 
ENDROOT
BRANCH   4   9
ATOM      9  O   UNL     1      29.974  -5.428  32.001  1.00  0.00    -0.508 OA
ATOM     10  H   UNL     1      29.368  -5.059  31.278  1.00  0.00     0.293 HD
ENDBRANCH   4   9
TORSDOF 1
ENDMDL
MODEL 4
REMARK VINA RESULT:    -3.987      2.052      2.786
REMARK INTER + INTRA:          -4.104
REMARK INTER:                  -4.104
REMARK INTRA:                   0.000
REMARK UNBOUND:                 0.000
REMARK SMILES Cc1cccc(O)c1C
REMARK SMILES IDX 1 1 2 2 8 3 6 4 5 5 4 6 3 7 9 8 7 9
REMARK H PARENT 7 10
REMARK Flexibility Score: inf
ROOT
ATOM      1  C   UNL     1      29.090  -3.100  36.392  1.00  0.00     0.045 C 
ATOM      2  C   UNL     1      30.023  -3.666  35.352  1.00  0.00    -0.045 A 
ATOM      3  C   UNL     1      29.531  -4.297  34.181  1.00  0.00    -0.006 A 
ATOM      4  C   UNL     1      30.447  -4.831  33.247  1.00  0.00     0.118 A 
ATOM      5  C   UNL     1      31.824  -4.698  33.462  1.00  0.00     0.046 A 
ATOM      6  C   UNL     1      32.302  -4.049  34.599  1.00  0.00     0.004 A 
ATOM      7  C   UNL     1      31.408  -3.536  35.538  1.00  0.00     0.004 A 
ATOM      8  C   UNL     1      28.045  -4.451  33.954  1.00  0.00     0.048 C 
ENDROOT
BRANCH   4   9
ATOM      9  O   UNL     1      29.989  -5.494  32.108  1.00  0.00    -0.508 OA
ATOM     10  H   UNL     1      29.539  -4.998  31.348  1.00  0.00     0.293 HD
ENDBRANCH   4   9
TORSDOF 1
ENDMDL
MODEL 5
REMARK VINA RESULT:    -3.978      2.095      2.858
REMARK INTER + INTRA:          -4.094
REMARK INTER:                  -4.094
REMARK INTRA:                   0.000
REMARK UNBOUND:                 0.000
REMARK SMILES Cc1cccc(O)c1C
REMARK SMILES IDX 1 1 2 2 8 3 6 4 5 5 4 6 3 7 9 8 7 9
REMARK H PARENT 7 10
REMARK Flexibility Score: inf
ROOT
ATOM      1  C   UNL     1      30.149  -3.889  35.469  1.00  0.00     0.045 C 
ATOM      2  C   UNL     1      31.466  -3.963  34.741  1.00  0.00    -0.045 A 
ATOM      3  C   UNL     1      31.554  -4.471  33.419  1.00  0.00    -0.006 A 
ATOM      4  C   UNL     1      32.816  -4.540  32.789  1.00  0.00     0.118 A 
ATOM      5  C   UNL     1      33.957  -4.071  33.451  1.00  0.00     0.046 A 
ATOM      6  C   UNL     1      33.860  -3.544  34.737  1.00  0.00     0.004 A 
ATOM      7  C   UNL     1      32.624  -3.490  35.379  1.00  0.00     0.004 A 
ATOM      8  C   UNL     1      30.325  -4.987  32.709  1.00  0.00     0.048 C 
ENDROOT
BRANCH   4   9
ATOM      9  O   UNL     1      32.936  -5.074  31.505  1.00  0.00    -0.508 OA
ATOM     10  H   UNL     1      32.263  -5.738  31.140  1.00  0.00     0.293 HD
ENDBRANCH   4   9
TORSDOF 1
ENDMDL
MODEL 6
REMARK VINA RESULT:    -3.916      6.839      8.465
REMARK INTER + INTRA:          -4.031
REMARK INTER:                  -4.031
REMARK INTRA:                   0.000
REMARK UNBOUND:                 0.000
REMARK SMILES Cc1cccc(O)c1C
REMARK SMILES IDX 1 1 2 2 8 3 6 4 5 5 4 6 3 7 9 8 7 9
REMARK H PARENT 7 10
REMARK Flexibility Score: inf
ROOT
ATOM      1  C   UNL     1      24.754   1.747  33.520  1.00  0.00     0.045 C 
ATOM      2  C   UNL     1      24.502   0.285  33.785  1.00  0.00    -0.045 A 
ATOM      3  C   UNL     1      23.244  -0.178  34.250  1.00  0.00    -0.006 A 
ATOM      4  C   UNL     1      23.066  -1.556  34.504  1.00  0.00     0.118 A 
ATOM      5  C   UNL     1      24.110  -2.455  34.256  1.00  0.00     0.046 A 
ATOM      6  C   UNL     1      25.333  -1.999  33.769  1.00  0.00     0.004 A 
ATOM      7  C   UNL     1      25.529  -0.639  33.534  1.00  0.00     0.004 A 
ATOM      8  C   UNL     1      22.121   0.793  34.528  1.00  0.00     0.048 C 
ENDROOT
BRANCH   4   9
ATOM      9  O   UNL     1      21.852  -2.031  35.002  1.00  0.00    -0.508 OA
ATOM     10  H   UNL     1      21.497  -2.947  34.754  1.00  0.00     0.293 HD
ENDBRANCH   4   9
TORSDOF 1
ENDMDL
MODEL 7
REMARK VINA RESULT:    -3.901      6.880      8.468
REMARK INTER + INTRA:          -4.015
REMARK INTER:                  -4.015
REMARK INTRA:                   0.000
REMARK UNBOUND:                 0.000
REMARK SMILES Cc1cccc(O)c1C
REMARK SMILES IDX 1 1 2 2 8 3 6 4 5 5 4 6 3 7 9 8 7 9
REMARK H PARENT 7 10
REMARK Flexibility Score: inf
ROOT
ATOM      1  C   UNL     1      22.241   1.649  34.031  1.00  0.00     0.045 C 
ATOM      2  C   UNL     1      23.328   0.627  33.826  1.00  0.00    -0.045 A 
ATOM      3  C   UNL     1      23.257  -0.660  34.419  1.00  0.00    -0.006 A 
ATOM      4  C   UNL     1      24.313  -1.575  34.213  1.00  0.00     0.118 A 
ATOM      5  C   UNL     1      25.396  -1.224  33.397  1.00  0.00     0.046 A 
ATOM      6  C   UNL     1      25.446   0.030  32.791  1.00  0.00     0.004 A 
ATOM      7  C   UNL     1      24.420   0.950  33.003  1.00  0.00     0.004 A 
ATOM      8  C   UNL     1      22.095  -1.035  35.308  1.00  0.00     0.048 C 
ENDROOT
BRANCH   4   9
ATOM      9  O   UNL     1      24.288  -2.832  34.819  1.00  0.00    -0.508 OA
ATOM     10  H   UNL     1      24.786  -3.017  35.682  1.00  0.00     0.293 HD
ENDBRANCH   4   9
TORSDOF 1
ENDMDL
MODEL 8
REMARK VINA RESULT:    -3.838      1.800      2.557
REMARK INTER + INTRA:          -3.950
REMARK INTER:                  -3.950
REMARK INTRA:                   0.000
REMARK UNBOUND:                 0.000
REMARK SMILES Cc1cccc(O)c1C
REMARK SMILES IDX 1 1 2 2 8 3 6 4 5 5 4 6 3 7 9 8 7 9
REMARK H PARENT 7 10
REMARK Flexibility Score: inf
ROOT
ATOM      1  C   UNL     1      32.741  -3.324  35.655  1.00  0.00     0.045 C 
ATOM      2  C   UNL     1      31.892  -3.895  34.549  1.00  0.00    -0.045 A 
ATOM      3  C   UNL     1      30.479  -3.764  34.558  1.00  0.00    -0.006 A 
ATOM      4  C   UNL     1      29.726  -4.336  33.508  1.00  0.00     0.118 A 
ATOM      5  C   UNL     1      30.376  -4.986  32.452  1.00  0.00     0.046 A 
ATOM      6  C   UNL     1      31.766  -5.084  32.433  1.00  0.00     0.004 A 
ATOM      7  C   UNL     1      32.520  -4.543  33.473  1.00  0.00     0.004 A 
ATOM      8  C   UNL     1      29.776  -3.073  35.702  1.00  0.00     0.048 C 
ENDROOT
BRANCH   4   9
ATOM      9  O   UNL     1      28.333  -4.259  33.515  1.00  0.00    -0.508 OA
ATOM     10  H   UNL     1      27.770  -4.734  32.819  1.00  0.00     0.293 HD
ENDBRANCH   4   9
TORSDOF 1
ENDMDL
MODEL 9
REMARK VINA RESULT:    -3.803      5.693      7.536
REMARK INTER + INTRA:          -3.914
REMARK INTER:                  -3.914
REMARK INTRA:                   0.000
REMARK UNBOUND:                 0.000
REMARK SMILES Cc1cccc(O)c1C
REMARK SMILES IDX 1 1 2 2 8 3 6 4 5 5 4 6 3 7 9 8 7 9
REMARK H PARENT 7 10
REMARK Flexibility Score: inf
ROOT
ATOM      1  C   UNL     1      25.922  -2.794  33.684  1.00  0.00     0.045 C 
ATOM      2  C   UNL     1      24.997  -1.985  34.557  1.00  0.00    -0.045 A 
ATOM      3  C   UNL     1      25.493  -1.181  35.615  1.00  0.00    -0.006 A 
ATOM      4  C   UNL     1      24.583  -0.459  36.419  1.00  0.00     0.118 A 
ATOM      5  C   UNL     1      23.212  -0.507  36.141  1.00  0.00     0.046 A 
ATOM      6  C   UNL     1      22.733  -1.273  35.080  1.00  0.00     0.004 A 
ATOM      7  C   UNL     1      23.619  -2.008  34.292  1.00  0.00     0.004 A 
ATOM      8  C   UNL     1      26.972  -1.138  35.922  1.00  0.00     0.048 C 
ENDROOT
BRANCH   4   9
ATOM      9  O   UNL     1      25.042   0.305  37.492  1.00  0.00    -0.508 OA
ATOM     10  H   UNL     1      25.907   0.830  37.442  1.00  0.00     0.293 HD
ENDBRANCH   4   9
TORSDOF 1
ENDMDL
