MODEL 1
REMARK VINA RESULT:     0.609      0.000      0.000
REMARK INTER + INTRA:           0.486
REMARK INTER:                   1.392
REMARK INTRA:                  -0.906
REMARK UNBOUND:                -0.906
REMARK SMILES CCCCCCCCCCCCCCCCCCCCCCCC(=O)[O-]
REMARK SMILES IDX 13 1 14 2 15 3 16 4 17 5 18 6 19 7 20 8 21 9 22 10 23 11
REMARK SMILES IDX 24 12 25 13 26 14 12 15 11 16 10 17 9 18 8 19 7 20 6 21 5 22
REMARK SMILES IDX 4 23 3 24 2 25 1 26
REMARK H PARENT
REMARK Flexibility Score: inf
ROOT
ATOM      1  C   UNL     1       6.123 -35.418  24.787  1.00  0.00     0.000 C 
ENDROOT
BRANCH   1   2
ATOM      2  C   UNL     1       5.249 -35.104  23.563  1.00  0.00     0.000 C 
BRANCH   2   3
ATOM      3  C   UNL     1       6.024 -35.204  22.238  1.00  0.00     0.000 C 
BRANCH   3   4
ATOM      4  C   UNL     1       5.104 -35.411  21.021  1.00  0.00     0.000 C 
BRANCH   4   5
ATOM      5  C   UNL     1       5.280 -34.384  19.887  1.00  0.00     0.000 C 
BRANCH   5   6
ATOM      6  C   UNL     1       5.588 -35.037  18.528  1.00  0.00     0.000 C 
BRANCH   6   7
ATOM      7  C   UNL     1       4.470 -34.810  17.497  1.00  0.00     0.000 C 
BRANCH   7   8
ATOM      8  C   UNL     1       3.731 -36.111  17.133  1.00  0.00     0.000 C 
BRANCH   8   9
ATOM      9  C   UNL     1       2.403 -35.849  16.404  1.00  0.00     0.000 C 
BRANCH   9  10
ATOM     10  C   UNL     1       2.363 -36.474  14.999  1.00  0.00     0.006 C 
BRANCH  10  11
ATOM     11  C   UNL     1       2.802 -37.944  15.006  1.00  0.00     0.053 C 
BRANCH  11  12
ATOM     12  C   UNL     1       4.146 -38.129  14.369  1.00  0.00     0.041 C 
ATOM     13  O   UNL     1       4.640 -39.281  14.252  1.00  0.00    -0.550 OA
ATOM     14  O   UNL     1       4.839 -37.030  13.878  1.00  0.00    -0.550 OA
ENDBRANCH  11  12
ENDBRANCH  10  11
ENDBRANCH   9  10
ENDBRANCH   8   9
ENDBRANCH   7   8
ENDBRANCH   6   7
ENDBRANCH   5   6
ENDBRANCH   4   5
ENDBRANCH   3   4
ENDBRANCH   2   3
ENDBRANCH   1   2
BRANCH   1  15
ATOM     15  C   UNL     1       5.588 -36.609  25.602  1.00  0.00     0.000 C 
BRANCH  15  16
ATOM     16  C   UNL     1       4.964 -37.700  24.716  1.00  0.00     0.000 C 
BRANCH  16  17
ATOM     17  C   UNL     1       6.005 -38.702  24.193  1.00  0.00     0.000 C 
BRANCH  17  18
ATOM     18  C   UNL     1       5.330 -40.001  23.723  1.00  0.00    -0.000 C 
BRANCH  18  19
ATOM     19  C   UNL     1       4.944 -39.968  22.233  1.00  0.00    -0.000 C 
BRANCH  19  20
ATOM     20  C   UNL     1       6.062 -39.502  21.276  1.00  0.00    -0.000 C 
BRANCH  20  21
ATOM     21  C   UNL     1       5.621 -38.536  20.158  1.00  0.00    -0.000 C 
BRANCH  21  22
ATOM     22  C   UNL     1       4.303 -37.788  20.439  1.00  0.00    -0.000 C 
BRANCH  22  23
ATOM     23  C   UNL     1       3.311 -37.822  19.255  1.00  0.00    -0.000 C 
BRANCH  23  24
ATOM     24  C   UNL     1       1.858 -38.134  19.666  1.00  0.00    -0.000 C 
BRANCH  24  25
ATOM     25  C   UNL     1       0.953 -38.568  18.495  1.00  0.00    -0.003 C 
ATOM     26  C   UNL     1      -0.227 -37.622  18.277  1.00  0.00     0.004 C 
ENDBRANCH  24  25
ENDBRANCH  23  24
ENDBRANCH  22  23
ENDBRANCH  21  22
ENDBRANCH  20  21
ENDBRANCH  19  20
ENDBRANCH  18  19
ENDBRANCH  17  18
ENDBRANCH  16  17
ENDBRANCH  15  16
ENDBRANCH   1  15
TORSDOF 22
ENDMDL
MODEL 2
REMARK VINA RESULT:     1.199      2.124      5.462
REMARK INTER + INTRA:           1.835
REMARK INTER:                   3.369
REMARK INTRA:                  -1.534
REMARK UNBOUND:                -0.906
REMARK SMILES CCCCCCCCCCCCCCCCCCCCCCCC(=O)[O-]
REMARK SMILES IDX 13 1 14 2 15 3 16 4 17 5 18 6 19 7 20 8 21 9 22 10 23 11
REMARK SMILES IDX 24 12 25 13 26 14 12 15 11 16 10 17 9 18 8 19 7 20 6 21 5 22
REMARK SMILES IDX 4 23 3 24 2 25 1 26
REMARK H PARENT
REMARK Flexibility Score: inf
ROOT
ATOM      1  C   UNL     1       6.122 -36.355  23.547  1.00  0.00     0.000 C 
ENDROOT
BRANCH   1   2
ATOM      2  C   UNL     1       5.519 -35.995  24.914  1.00  0.00     0.000 C 
BRANCH   2   3
ATOM      3  C   UNL     1       5.103 -37.234  25.725  1.00  0.00     0.000 C 
BRANCH   3   4
ATOM      4  C   UNL     1       5.510 -38.556  25.048  1.00  0.00     0.000 C 
BRANCH   4   5
ATOM      5  C   UNL     1       4.790 -38.856  23.720  1.00  0.00     0.000 C 
BRANCH   5   6
ATOM      6  C   UNL     1       5.198 -40.208  23.109  1.00  0.00     0.000 C 
BRANCH   6   7
ATOM      7  C   UNL     1       5.729 -40.072  21.672  1.00  0.00     0.000 C 
BRANCH   7   8
ATOM      8  C   UNL     1       5.831 -38.604  21.219  1.00  0.00     0.000 C 
BRANCH   8   9
ATOM      9  C   UNL     1       5.060 -38.336  19.915  1.00  0.00     0.000 C 
BRANCH   9  10
ATOM     10  C   UNL     1       3.548 -38.589  20.058  1.00  0.00     0.006 C 
BRANCH  10  11
ATOM     11  C   UNL     1       2.715 -37.609  19.221  1.00  0.00     0.053 C 
BRANCH  11  12
ATOM     12  C   UNL     1       1.248 -37.901  19.317  1.00  0.00     0.041 C 
ATOM     13  O   UNL     1       0.690 -38.634  18.458  1.00  0.00    -0.550 OA
ATOM     14  O   UNL     1       0.505 -37.389  20.373  1.00  0.00    -0.550 OA
ENDBRANCH  11  12
ENDBRANCH  10  11
ENDBRANCH   9  10
ENDBRANCH   8   9
ENDBRANCH   7   8
ENDBRANCH   6   7
ENDBRANCH   5   6
ENDBRANCH   4   5
ENDBRANCH   3   4
ENDBRANCH   2   3
ENDBRANCH   1   2
BRANCH   1  15
ATOM     15  C   UNL     1       5.850 -35.278  22.483  1.00  0.00     0.000 C 
BRANCH  15  16
ATOM     16  C   UNL     1       4.459 -35.414  21.843  1.00  0.00     0.000 C 
BRANCH  16  17
ATOM     17  C   UNL     1       4.339 -34.641  20.521  1.00  0.00     0.000 C 
BRANCH  17  18
ATOM     18  C   UNL     1       5.370 -35.139  19.496  1.00  0.00    -0.000 C 
BRANCH  18  19
ATOM     19  C   UNL     1       4.991 -34.783  18.047  1.00  0.00    -0.000 C 
BRANCH  19  20
ATOM     20  C   UNL     1       4.082 -35.809  17.337  1.00  0.00    -0.000 C 
BRANCH  20  21
ATOM     21  C   UNL     1       3.377 -35.303  16.062  1.00  0.00    -0.000 C 
BRANCH  21  22
ATOM     22  C   UNL     1       3.195 -36.368  14.963  1.00  0.00    -0.000 C 
BRANCH  22  23
ATOM     23  C   UNL     1       2.657 -37.715  15.495  1.00  0.00    -0.000 C 
BRANCH  23  24
ATOM     24  C   UNL     1       3.658 -38.882  15.372  1.00  0.00    -0.000 C 
BRANCH  24  25
ATOM     25  C   UNL     1       4.458 -38.887  14.053  1.00  0.00    -0.003 C 
ATOM     26  C   UNL     1       5.297 -40.151  13.875  1.00  0.00     0.004 C 
ENDBRANCH  24  25
ENDBRANCH  23  24
ENDBRANCH  22  23
ENDBRANCH  21  22
ENDBRANCH  20  21
ENDBRANCH  19  20
ENDBRANCH  18  19
ENDBRANCH  17  18
ENDBRANCH  16  17
ENDBRANCH  15  16
ENDBRANCH   1  15
TORSDOF 22
ENDMDL
MODEL 3
REMARK VINA RESULT:     1.871      2.629      6.866
REMARK INTER + INTRA:           3.371
REMARK INTER:                   5.189
REMARK INTRA:                  -1.817
REMARK UNBOUND:                -0.906
REMARK SMILES CCCCCCCCCCCCCCCCCCCCCCCC(=O)[O-]
REMARK SMILES IDX 13 1 14 2 15 3 16 4 17 5 18 6 19 7 20 8 21 9 22 10 23 11
REMARK SMILES IDX 24 12 25 13 26 14 12 15 11 16 10 17 9 18 8 19 7 20 6 21 5 22
REMARK SMILES IDX 4 23 3 24 2 25 1 26
REMARK H PARENT
REMARK Flexibility Score: inf
ROOT
ATOM      1  C   UNL     1       5.270 -38.239  21.194  1.00  0.00     0.000 C 
ENDROOT
BRANCH   1   2
ATOM      2  C   UNL     1       5.771 -39.677  21.402  1.00  0.00     0.000 C 
BRANCH   2   3
ATOM      3  C   UNL     1       5.444 -40.222  22.804  1.00  0.00     0.000 C 
BRANCH   3   4
ATOM      4  C   UNL     1       5.528 -39.143  23.899  1.00  0.00     0.000 C 
BRANCH   4   5
ATOM      5  C   UNL     1       4.347 -39.123  24.887  1.00  0.00     0.000 C 
BRANCH   5   6
ATOM      6  C   UNL     1       4.686 -38.421  26.214  1.00  0.00     0.000 C 
BRANCH   6   7
ATOM      7  C   UNL     1       4.739 -36.890  26.075  1.00  0.00     0.000 C 
BRANCH   7   8
ATOM      8  C   UNL     1       6.124 -36.387  25.627  1.00  0.00     0.000 C 
BRANCH   8   9
ATOM      9  C   UNL     1       6.036 -35.122  24.757  1.00  0.00     0.000 C 
BRANCH   9  10
ATOM     10  C   UNL     1       5.477 -35.406  23.352  1.00  0.00     0.006 C 
BRANCH  10  11
ATOM     11  C   UNL     1       5.014 -34.126  22.643  1.00  0.00     0.053 C 
BRANCH  11  12
ATOM     12  C   UNL     1       3.671 -34.299  22.000  1.00  0.00     0.041 C 
ATOM     13  O   UNL     1       3.197 -35.452  21.823  1.00  0.00    -0.550 OA
ATOM     14  O   UNL     1       2.931 -33.185  21.627  1.00  0.00    -0.550 OA
ENDBRANCH  11  12
ENDBRANCH  10  11
ENDBRANCH   9  10
ENDBRANCH   8   9
ENDBRANCH   7   8
ENDBRANCH   6   7
ENDBRANCH   5   6
ENDBRANCH   4   5
ENDBRANCH   3   4
ENDBRANCH   2   3
ENDBRANCH   1   2
BRANCH   1  15
ATOM     15  C   UNL     1       5.733 -37.645  19.852  1.00  0.00     0.000 C 
BRANCH  15  16
ATOM     16  C   UNL     1       6.110 -36.159  19.961  1.00  0.00     0.000 C 
BRANCH  16  17
ATOM     17  C   UNL     1       5.340 -35.280  18.962  1.00  0.00     0.000 C 
BRANCH  17  18
ATOM     18  C   UNL     1       4.441 -36.134  18.056  1.00  0.00    -0.000 C 
BRANCH  18  19
ATOM     19  C   UNL     1       3.072 -36.440  18.691  1.00  0.00    -0.000 C 
BRANCH  19  20
ATOM     20  C   UNL     1       2.426 -37.770  18.248  1.00  0.00    -0.000 C 
BRANCH  20  21
ATOM     21  C   UNL     1       1.556 -37.696  16.976  1.00  0.00    -0.000 C 
BRANCH  21  22
ATOM     22  C   UNL     1       1.850 -36.487  16.067  1.00  0.00    -0.000 C 
BRANCH  22  23
ATOM     23  C   UNL     1       2.019 -36.863  14.578  1.00  0.00    -0.000 C 
BRANCH  23  24
ATOM     24  C   UNL     1       3.324 -36.340  13.945  1.00  0.00    -0.000 C 
BRANCH  24  25
ATOM     25  C   UNL     1       4.452 -37.389  13.875  1.00  0.00    -0.003 C 
ATOM     26  C   UNL     1       4.083 -38.701  14.565  1.00  0.00     0.004 C 
ENDBRANCH  24  25
ENDBRANCH  23  24
ENDBRANCH  22  23
ENDBRANCH  21  22
ENDBRANCH  20  21
ENDBRANCH  19  20
ENDBRANCH  18  19
ENDBRANCH  17  18
ENDBRANCH  16  17
ENDBRANCH  15  16
ENDBRANCH   1  15
TORSDOF 22
ENDMDL
MODEL 4
REMARK VINA RESULT:     2.220      1.045      4.185
REMARK INTER + INTRA:           4.169
REMARK INTER:                   5.536
REMARK INTRA:                  -1.366
REMARK UNBOUND:                -0.906
REMARK SMILES CCCCCCCCCCCCCCCCCCCCCCCC(=O)[O-]
REMARK SMILES IDX 13 1 14 2 15 3 16 4 17 5 18 6 19 7 20 8 21 9 22 10 23 11
REMARK SMILES IDX 24 12 25 13 26 14 12 15 11 16 10 17 9 18 8 19 7 20 6 21 5 22
REMARK SMILES IDX 4 23 3 24 2 25 1 26
REMARK H PARENT
REMARK Flexibility Score: inf
ROOT
ATOM      1  C   UNL     1       5.180 -35.196  20.753  1.00  0.00     0.000 C 
ENDROOT
BRANCH   1   2
ATOM      2  C   UNL     1       5.844 -36.148  19.746  1.00  0.00     0.000 C 
BRANCH   2   3
ATOM      3  C   UNL     1       4.821 -36.922  18.897  1.00  0.00     0.000 C 
BRANCH   3   4
ATOM      4  C   UNL     1       3.643 -37.465  19.728  1.00  0.00     0.000 C 
BRANCH   4   5
ATOM      5  C   UNL     1       2.633 -38.323  18.944  1.00  0.00     0.000 C 
BRANCH   5   6
ATOM      6  C   UNL     1       1.170 -38.005  19.302  1.00  0.00     0.000 C 
BRANCH   6   7
ATOM      7  C   UNL     1       0.355 -37.529  18.089  1.00  0.00     0.000 C 
BRANCH   7   8
ATOM      8  C   UNL     1       1.106 -37.726  16.760  1.00  0.00     0.000 C 
BRANCH   8   9
ATOM      9  C   UNL     1       2.131 -36.612  16.492  1.00  0.00     0.000 C 
BRANCH   9  10
ATOM     10  C   UNL     1       2.101 -36.115  15.036  1.00  0.00     0.006 C 
BRANCH  10  11
ATOM     11  C   UNL     1       2.459 -37.224  14.037  1.00  0.00     0.053 C 
BRANCH  11  12
ATOM     12  C   UNL     1       3.909 -37.596  14.114  1.00  0.00     0.041 C 
ATOM     13  O   UNL     1       4.784 -36.706  14.280  1.00  0.00    -0.550 OA
ATOM     14  O   UNL     1       4.290 -38.929  14.032  1.00  0.00    -0.550 OA
ENDBRANCH  11  12
ENDBRANCH  10  11
ENDBRANCH   9  10
ENDBRANCH   8   9
ENDBRANCH   7   8
ENDBRANCH   6   7
ENDBRANCH   5   6
ENDBRANCH   4   5
ENDBRANCH   3   4
ENDBRANCH   2   3
ENDBRANCH   1   2
BRANCH   1  15
ATOM     15  C   UNL     1       6.121 -34.815  21.909  1.00  0.00     0.000 C 
BRANCH  15  16
ATOM     16  C   UNL     1       5.993 -35.760  23.115  1.00  0.00     0.000 C 
BRANCH  16  17
ATOM     17  C   UNL     1       6.013 -35.013  24.457  1.00  0.00     0.000 C 
BRANCH  17  18
ATOM     18  C   UNL     1       5.786 -35.981  25.629  1.00  0.00    -0.000 C 
BRANCH  18  19
ATOM     19  C   UNL     1       4.305 -36.357  25.815  1.00  0.00    -0.000 C 
BRANCH  19  20
ATOM     20  C   UNL     1       4.037 -37.851  26.092  1.00  0.00    -0.000 C 
BRANCH  20  21
ATOM     21  C   UNL     1       5.251 -38.787  25.924  1.00  0.00    -0.000 C 
BRANCH  21  22
ATOM     22  C   UNL     1       5.800 -38.875  24.487  1.00  0.00    -0.000 C 
BRANCH  22  23
ATOM     23  C   UNL     1       4.823 -39.545  23.495  1.00  0.00    -0.000 C 
BRANCH  23  24
ATOM     24  C   UNL     1       5.520 -40.309  22.351  1.00  0.00    -0.000 C 
BRANCH  24  25
ATOM     25  C   UNL     1       5.918 -39.422  21.154  1.00  0.00    -0.003 C 
ATOM     26  C   UNL     1       6.124 -40.222  19.868  1.00  0.00     0.004 C 
ENDBRANCH  24  25
ENDBRANCH  23  24
ENDBRANCH  22  23
ENDBRANCH  21  22
ENDBRANCH  20  21
ENDBRANCH  19  20
ENDBRANCH  18  19
ENDBRANCH  17  18
ENDBRANCH  16  17
ENDBRANCH  15  16
ENDBRANCH   1  15
TORSDOF 22
ENDMDL
MODEL 5
REMARK VINA RESULT:     2.323      5.097      8.657
REMARK INTER + INTRA:           4.405
REMARK INTER:                   6.099
REMARK INTRA:                  -1.693
REMARK UNBOUND:                -0.906
REMARK SMILES CCCCCCCCCCCCCCCCCCCCCCCC(=O)[O-]
REMARK SMILES IDX 13 1 14 2 15 3 16 4 17 5 18 6 19 7 20 8 21 9 22 10 23 11
REMARK SMILES IDX 24 12 25 13 26 14 12 15 11 16 10 17 9 18 8 19 7 20 6 21 5 22
REMARK SMILES IDX 4 23 3 24 2 25 1 26
REMARK H PARENT
REMARK Flexibility Score: inf
ROOT
ATOM      1  C   UNL     1       5.682 -37.203  21.993  1.00  0.00     0.000 C 
ENDROOT
BRANCH   1   2
ATOM      2  C   UNL     1       5.812 -38.573  21.309  1.00  0.00     0.000 C 
BRANCH   2   3
ATOM      3  C   UNL     1       5.654 -39.746  22.292  1.00  0.00     0.000 C 
BRANCH   3   4
ATOM      4  C   UNL     1       4.742 -39.406  23.486  1.00  0.00     0.000 C 
BRANCH   4   5
ATOM      5  C   UNL     1       5.471 -39.205  24.827  1.00  0.00     0.000 C 
BRANCH   5   6
ATOM      6  C   UNL     1       5.685 -37.722  25.178  1.00  0.00     0.000 C 
BRANCH   6   7
ATOM      7  C   UNL     1       4.415 -37.056  25.731  1.00  0.00     0.000 C 
BRANCH   7   8
ATOM      8  C   UNL     1       3.667 -37.954  26.734  1.00  0.00     0.000 C 
BRANCH   8   9
ATOM      9  C   UNL     1       2.211 -37.510  26.948  1.00  0.00     0.000 C 
BRANCH   9  10
ATOM     10  C   UNL     1       2.001 -36.794  28.294  1.00  0.00     0.006 C 
BRANCH  10  11
ATOM     11  C   UNL     1       2.003 -35.267  28.145  1.00  0.00     0.053 C 
BRANCH  11  12
ATOM     12  C   UNL     1       1.512 -34.585  29.386  1.00  0.00     0.041 C 
ATOM     13  O   UNL     1       2.306 -34.341  30.332  1.00  0.00    -0.550 OA
ATOM     14  O   UNL     1       0.184 -34.192  29.484  1.00  0.00    -0.550 OA
ENDBRANCH  11  12
ENDBRANCH  10  11
ENDBRANCH   9  10
ENDBRANCH   8   9
ENDBRANCH   7   8
ENDBRANCH   6   7
ENDBRANCH   5   6
ENDBRANCH   4   5
ENDBRANCH   3   4
ENDBRANCH   2   3
ENDBRANCH   1   2
BRANCH   1  15
ATOM     15  C   UNL     1       5.986 -36.037  21.036  1.00  0.00     0.000 C 
BRANCH  15  16
ATOM     16  C   UNL     1       4.716 -35.435  20.414  1.00  0.00     0.000 C 
BRANCH  16  17
ATOM     17  C   UNL     1       4.589 -35.745  18.914  1.00  0.00     0.000 C 
BRANCH  17  18
ATOM     18  C   UNL     1       4.141 -37.197  18.688  1.00  0.00    -0.000 C 
BRANCH  18  19
ATOM     19  C   UNL     1       2.915 -37.582  19.536  1.00  0.00    -0.000 C 
BRANCH  19  20
ATOM     20  C   UNL     1       1.624 -37.858  18.737  1.00  0.00    -0.000 C 
BRANCH  20  21
ATOM     21  C   UNL     1       1.792 -37.929  17.205  1.00  0.00    -0.000 C 
BRANCH  21  22
ATOM     22  C   UNL     1       1.380 -36.648  16.454  1.00  0.00    -0.000 C 
BRANCH  22  23
ATOM     23  C   UNL     1       2.005 -36.530  15.047  1.00  0.00    -0.000 C 
BRANCH  23  24
ATOM     24  C   UNL     1       3.547 -36.553  15.043  1.00  0.00    -0.000 C 
BRANCH  24  25
ATOM     25  C   UNL     1       4.159 -37.429  13.931  1.00  0.00    -0.003 C 
ATOM     26  C   UNL     1       4.277 -38.898  14.332  1.00  0.00     0.004 C 
ENDBRANCH  24  25
ENDBRANCH  23  24
ENDBRANCH  22  23
ENDBRANCH  21  22
ENDBRANCH  20  21
ENDBRANCH  19  20
ENDBRANCH  18  19
ENDBRANCH  17  18
ENDBRANCH  16  17
ENDBRANCH  15  16
ENDBRANCH   1  15
TORSDOF 22
ENDMDL
MODEL 6
REMARK VINA RESULT:     2.338      2.268      6.338
REMARK INTER + INTRA:           4.438
REMARK INTER:                   2.290
REMARK INTRA:                   2.148
REMARK UNBOUND:                -0.906
REMARK SMILES CCCCCCCCCCCCCCCCCCCCCCCC(=O)[O-]
REMARK SMILES IDX 13 1 14 2 15 3 16 4 17 5 18 6 19 7 20 8 21 9 22 10 23 11
REMARK SMILES IDX 24 12 25 13 26 14 12 15 11 16 10 17 9 18 8 19 7 20 6 21 5 22
REMARK SMILES IDX 4 23 3 24 2 25 1 26
REMARK H PARENT
REMARK Flexibility Score: inf
ROOT
ATOM      1  C   UNL     1       3.806 -35.388  21.243  1.00  0.00     0.000 C 
ENDROOT
BRANCH   1   2
ATOM      2  C   UNL     1       4.219 -34.522  22.443  1.00  0.00     0.000 C 
BRANCH   2   3
ATOM      3  C   UNL     1       5.739 -34.522  22.680  1.00  0.00     0.000 C 
BRANCH   3   4
ATOM      4  C   UNL     1       6.125 -34.031  24.088  1.00  0.00     0.000 C 
BRANCH   4   5
ATOM      5  C   UNL     1       5.938 -35.065  25.213  1.00  0.00     0.000 C 
BRANCH   5   6
ATOM      6  C   UNL     1       5.715 -36.493  24.685  1.00  0.00     0.000 C 
BRANCH   6   7
ATOM      7  C   UNL     1       5.405 -37.497  25.807  1.00  0.00     0.000 C 
BRANCH   7   8
ATOM      8  C   UNL     1       4.390 -38.571  25.374  1.00  0.00     0.000 C 
BRANCH   8   9
ATOM      9  C   UNL     1       5.068 -39.813  24.772  1.00  0.00     0.000 C 
BRANCH   9  10
ATOM     10  C   UNL     1       4.819 -39.950  23.259  1.00  0.00     0.006 C 
BRANCH  10  11
ATOM     11  C   UNL     1       6.125 -40.102  22.469  1.00  0.00     0.053 C 
BRANCH  11  12
ATOM     12  C   UNL     1       5.982 -39.621  21.056  1.00  0.00     0.041 C 
ATOM     13  O   UNL     1       5.836 -40.446  20.117  1.00  0.00    -0.550 OA
ATOM     14  O   UNL     1       5.978 -38.259  20.784  1.00  0.00    -0.550 OA
ENDBRANCH  11  12
ENDBRANCH  10  11
ENDBRANCH   9  10
ENDBRANCH   8   9
ENDBRANCH   7   8
ENDBRANCH   6   7
ENDBRANCH   5   6
ENDBRANCH   4   5
ENDBRANCH   3   4
ENDBRANCH   2   3
ENDBRANCH   1   2
BRANCH   1  15
ATOM     15  C   UNL     1       5.016 -35.998  20.515  1.00  0.00     0.000 C 
BRANCH  15  16
ATOM     16  C   UNL     1       5.984 -34.932  19.978  1.00  0.00     0.000 C 
BRANCH  16  17
ATOM     17  C   UNL     1       5.567 -34.394  18.600  1.00  0.00     0.000 C 
BRANCH  17  18
ATOM     18  C   UNL     1       4.329 -35.135  18.072  1.00  0.00    -0.000 C 
BRANCH  18  19
ATOM     19  C   UNL     1       4.452 -36.665  18.197  1.00  0.00    -0.000 C 
BRANCH  19  20
ATOM     20  C   UNL     1       3.552 -37.476  17.239  1.00  0.00    -0.000 C 
BRANCH  20  21
ATOM     21  C   UNL     1       2.079 -37.024  17.168  1.00  0.00    -0.000 C 
BRANCH  21  22
ATOM     22  C   UNL     1       1.721 -36.199  15.917  1.00  0.00    -0.000 C 
BRANCH  22  23
ATOM     23  C   UNL     1       2.097 -36.896  14.591  1.00  0.00    -0.000 C 
BRANCH  23  24
ATOM     24  C   UNL     1       3.452 -36.445  14.008  1.00  0.00    -0.000 C 
BRANCH  24  25
ATOM     25  C   UNL     1       4.539 -37.539  14.027  1.00  0.00    -0.003 C 
ATOM     26  C   UNL     1       4.002 -38.899  14.470  1.00  0.00     0.004 C 
ENDBRANCH  24  25
ENDBRANCH  23  24
ENDBRANCH  22  23
ENDBRANCH  21  22
ENDBRANCH  20  21
ENDBRANCH  19  20
ENDBRANCH  18  19
ENDBRANCH  17  18
ENDBRANCH  16  17
ENDBRANCH  15  16
ENDBRANCH   1  15
TORSDOF 22
ENDMDL
MODEL 7
REMARK VINA RESULT:     2.491      2.029      4.712
REMARK INTER + INTRA:           4.789
REMARK INTER:                   3.972
REMARK INTRA:                   0.817
REMARK UNBOUND:                -0.906
REMARK SMILES CCCCCCCCCCCCCCCCCCCCCCCC(=O)[O-]
REMARK SMILES IDX 13 1 14 2 15 3 16 4 17 5 18 6 19 7 20 8 21 9 22 10 23 11
REMARK SMILES IDX 24 12 25 13 26 14 12 15 11 16 10 17 9 18 8 19 7 20 6 21 5 22
REMARK SMILES IDX 4 23 3 24 2 25 1 26
REMARK H PARENT
REMARK Flexibility Score: inf
ROOT
ATOM      1  C   UNL     1       4.418 -37.009  21.188  1.00  0.00     0.000 C 
ENDROOT
BRANCH   1   2
ATOM      2  C   UNL     1       4.557 -35.620  20.544  1.00  0.00     0.000 C 
BRANCH   2   3
ATOM      3  C   UNL     1       6.005 -35.298  20.135  1.00  0.00     0.000 C 
BRANCH   3   4
ATOM      4  C   UNL     1       6.124 -34.843  18.669  1.00  0.00     0.000 C 
BRANCH   4   5
ATOM      5  C   UNL     1       4.784 -34.604  17.949  1.00  0.00     0.000 C 
BRANCH   5   6
ATOM      6  C   UNL     1       4.330 -35.810  17.107  1.00  0.00     0.000 C 
BRANCH   6   7
ATOM      7  C   UNL     1       3.291 -35.429  16.041  1.00  0.00     0.000 C 
BRANCH   7   8
ATOM      8  C   UNL     1       2.581 -36.658  15.445  1.00  0.00     0.000 C 
BRANCH   8   9
ATOM      9  C   UNL     1       2.199 -37.694  16.515  1.00  0.00     0.000 C 
BRANCH   9  10
ATOM     10  C   UNL     1       0.752 -37.528  17.012  1.00  0.00     0.006 C 
BRANCH  10  11
ATOM     11  C   UNL     1       0.500 -38.280  18.325  1.00  0.00     0.053 C 
BRANCH  11  12
ATOM     12  C   UNL     1       1.455 -37.860  19.401  1.00  0.00     0.041 C 
ATOM     13  O   UNL     1       1.021 -37.414  20.496  1.00  0.00    -0.550 OA
ATOM     14  O   UNL     1       2.824 -37.991  19.205  1.00  0.00    -0.550 OA
ENDBRANCH  11  12
ENDBRANCH  10  11
ENDBRANCH   9  10
ENDBRANCH   8   9
ENDBRANCH   7   8
ENDBRANCH   6   7
ENDBRANCH   5   6
ENDBRANCH   4   5
ENDBRANCH   3   4
ENDBRANCH   2   3
ENDBRANCH   1   2
BRANCH   1  15
ATOM     15  C   UNL     1       5.778 -37.698  21.397  1.00  0.00     0.000 C 
BRANCH  15  16
ATOM     16  C   UNL     1       6.072 -38.765  20.329  1.00  0.00     0.000 C 
BRANCH  16  17
ATOM     17  C   UNL     1       5.990 -40.195  20.884  1.00  0.00     0.000 C 
BRANCH  17  18
ATOM     18  C   UNL     1       5.055 -40.260  22.103  1.00  0.00    -0.000 C 
BRANCH  18  19
ATOM     19  C   UNL     1       5.802 -40.078  23.437  1.00  0.00    -0.000 C 
BRANCH  19  20
ATOM     20  C   UNL     1       5.617 -38.701  24.109  1.00  0.00    -0.000 C 
BRANCH  20  21
ATOM     21  C   UNL     1       4.565 -38.645  25.235  1.00  0.00    -0.000 C 
BRANCH  21  22
ATOM     22  C   UNL     1       4.509 -37.305  25.995  1.00  0.00    -0.000 C 
BRANCH  22  23
ATOM     23  C   UNL     1       5.808 -36.477  25.881  1.00  0.00    -0.000 C 
BRANCH  23  24
ATOM     24  C   UNL     1       6.076 -35.926  24.466  1.00  0.00    -0.000 C 
BRANCH  24  25
ATOM     25  C   UNL     1       6.122 -34.386  24.390  1.00  0.00    -0.003 C 
ATOM     26  C   UNL     1       5.332 -33.828  23.207  1.00  0.00     0.004 C 
ENDBRANCH  24  25
ENDBRANCH  23  24
ENDBRANCH  22  23
ENDBRANCH  21  22
ENDBRANCH  20  21
ENDBRANCH  19  20
ENDBRANCH  18  19
ENDBRANCH  17  18
ENDBRANCH  16  17
ENDBRANCH  15  16
ENDBRANCH   1  15
TORSDOF 22
ENDMDL
MODEL 8
REMARK VINA RESULT:     2.592      2.774      6.367
REMARK INTER + INTRA:           5.020
REMARK INTER:                   5.824
REMARK INTRA:                  -0.805
REMARK UNBOUND:                -0.906
REMARK SMILES CCCCCCCCCCCCCCCCCCCCCCCC(=O)[O-]
REMARK SMILES IDX 13 1 14 2 15 3 16 4 17 5 18 6 19 7 20 8 21 9 22 10 23 11
REMARK SMILES IDX 24 12 25 13 26 14 12 15 11 16 10 17 9 18 8 19 7 20 6 21 5 22
REMARK SMILES IDX 4 23 3 24 2 25 1 26
REMARK H PARENT
REMARK Flexibility Score: inf
ROOT
ATOM      1  C   UNL     1       0.312 -37.917  18.736  1.00  0.00     0.000 C 
ENDROOT
BRANCH   1   2
ATOM      2  C   UNL     1       0.516 -37.041  17.490  1.00  0.00     0.000 C 
BRANCH   2   3
ATOM      3  C   UNL     1       1.656 -37.546  16.588  1.00  0.00     0.000 C 
BRANCH   3   4
ATOM      4  C   UNL     1       1.875 -36.658  15.349  1.00  0.00     0.000 C 
BRANCH   4   5
ATOM      5  C   UNL     1       3.306 -36.677  14.779  1.00  0.00     0.000 C 
BRANCH   5   6
ATOM      6  C   UNL     1       4.375 -36.326  15.828  1.00  0.00     0.000 C 
BRANCH   6   7
ATOM      7  C   UNL     1       3.776 -35.689  17.093  1.00  0.00     0.000 C 
BRANCH   7   8
ATOM      8  C   UNL     1       4.774 -34.769  17.819  1.00  0.00     0.000 C 
BRANCH   8   9
ATOM      9  C   UNL     1       5.613 -35.522  18.865  1.00  0.00     0.000 C 
BRANCH   9  10
ATOM     10  C   UNL     1       6.116 -34.604  19.994  1.00  0.00     0.006 C 
BRANCH  10  11
ATOM     11  C   UNL     1       6.125 -35.311  21.356  1.00  0.00     0.053 C 
BRANCH  11  12
ATOM     12  C   UNL     1       4.920 -34.958  22.175  1.00  0.00     0.041 C 
ATOM     13  O   UNL     1       3.780 -34.916  21.641  1.00  0.00    -0.550 OA
ATOM     14  O   UNL     1       5.054 -34.706  23.534  1.00  0.00    -0.550 OA
ENDBRANCH  11  12
ENDBRANCH  10  11
ENDBRANCH   9  10
ENDBRANCH   8   9
ENDBRANCH   7   8
ENDBRANCH   6   7
ENDBRANCH   5   6
ENDBRANCH   4   5
ENDBRANCH   3   4
ENDBRANCH   2   3
ENDBRANCH   1   2
BRANCH   1  15
ATOM     15  C   UNL     1       1.600 -38.646  19.158  1.00  0.00     0.000 C 
BRANCH  15  16
ATOM     16  C   UNL     1       2.777 -37.684  19.391  1.00  0.00     0.000 C 
BRANCH  16  17
ATOM     17  C   UNL     1       3.739 -38.181  20.481  1.00  0.00     0.000 C 
BRANCH  17  18
ATOM     18  C   UNL     1       5.133 -38.464  19.897  1.00  0.00    -0.000 C 
BRANCH  18  19
ATOM     19  C   UNL     1       5.878 -39.583  20.648  1.00  0.00    -0.000 C 
BRANCH  19  20
ATOM     20  C   UNL     1       5.312 -39.927  22.042  1.00  0.00    -0.000 C 
BRANCH  20  21
ATOM     21  C   UNL     1       6.006 -39.234  23.232  1.00  0.00    -0.000 C 
BRANCH  21  22
ATOM     22  C   UNL     1       5.299 -37.960  23.734  1.00  0.00    -0.000 C 
BRANCH  22  23
ATOM     23  C   UNL     1       5.850 -37.438  25.079  1.00  0.00    -0.000 C 
BRANCH  23  24
ATOM     24  C   UNL     1       4.758 -37.021  26.084  1.00  0.00    -0.000 C 
BRANCH  24  25
ATOM     25  C   UNL     1       3.618 -38.049  26.236  1.00  0.00    -0.003 C 
ATOM     26  C   UNL     1       2.466 -37.531  27.095  1.00  0.00     0.004 C 
ENDBRANCH  24  25
ENDBRANCH  23  24
ENDBRANCH  22  23
ENDBRANCH  21  22
ENDBRANCH  20  21
ENDBRANCH  19  20
ENDBRANCH  18  19
ENDBRANCH  17  18
ENDBRANCH  16  17
ENDBRANCH  15  16
ENDBRANCH   1  15
TORSDOF 22
ENDMDL
MODEL 9
REMARK VINA RESULT:     2.664      2.205      3.900
REMARK INTER + INTRA:           5.184
REMARK INTER:                   6.191
REMARK INTRA:                  -1.008
REMARK UNBOUND:                -0.906
REMARK SMILES CCCCCCCCCCCCCCCCCCCCCCCC(=O)[O-]
REMARK SMILES IDX 13 1 14 2 15 3 16 4 17 5 18 6 19 7 20 8 21 9 22 10 23 11
REMARK SMILES IDX 24 12 25 13 26 14 12 15 11 16 10 17 9 18 8 19 7 20 6 21 5 22
REMARK SMILES IDX 4 23 3 24 2 25 1 26
REMARK H PARENT
REMARK Flexibility Score: inf
ROOT
ATOM      1  C   UNL     1       4.467 -35.588  21.975  1.00  0.00     0.000 C 
ENDROOT
BRANCH   1   2
ATOM      2  C   UNL     1       4.852 -34.815  20.704  1.00  0.00     0.000 C 
BRANCH   2   3
ATOM      3  C   UNL     1       6.044 -35.446  19.963  1.00  0.00     0.000 C 
BRANCH   3   4
ATOM      4  C   UNL     1       6.079 -35.080  18.467  1.00  0.00     0.000 C 
BRANCH   4   5
ATOM      5  C   UNL     1       5.002 -34.076  18.016  1.00  0.00     0.000 C 
BRANCH   5   6
ATOM      6  C   UNL     1       3.926 -34.713  17.119  1.00  0.00     0.000 C 
BRANCH   6   7
ATOM      7  C   UNL     1       4.218 -36.188  16.803  1.00  0.00     0.000 C 
BRANCH   7   8
ATOM      8  C   UNL     1       3.482 -36.678  15.542  1.00  0.00     0.000 C 
BRANCH   8   9
ATOM      9  C   UNL     1       1.961 -36.468  15.629  1.00  0.00     0.000 C 
BRANCH   9  10
ATOM     10  C   UNL     1       1.266 -37.526  16.505  1.00  0.00     0.006 C 
BRANCH  10  11
ATOM     11  C   UNL     1       1.750 -37.483  17.960  1.00  0.00     0.053 C 
BRANCH  11  12
ATOM     12  C   UNL     1       0.637 -37.755  18.926  1.00  0.00     0.041 C 
ATOM     13  O   UNL     1       0.796 -37.532  20.156  1.00  0.00    -0.550 OA
ATOM     14  O   UNL     1      -0.586 -38.224  18.464  1.00  0.00    -0.550 OA
ENDBRANCH  11  12
ENDBRANCH  10  11
ENDBRANCH   9  10
ENDBRANCH   8   9
ENDBRANCH   7   8
ENDBRANCH   6   7
ENDBRANCH   5   6
ENDBRANCH   4   5
ENDBRANCH   3   4
ENDBRANCH   2   3
ENDBRANCH   1   2
BRANCH   1  15
ATOM     15  C   UNL     1       4.773 -34.797  23.259  1.00  0.00     0.000 C 
BRANCH  15  16
ATOM     16  C   UNL     1       6.125 -35.178  23.883  1.00  0.00     0.000 C 
BRANCH  16  17
ATOM     17  C   UNL     1       5.970 -35.981  25.184  1.00  0.00     0.000 C 
BRANCH  17  18
ATOM     18  C   UNL     1       4.603 -36.680  25.241  1.00  0.00    -0.000 C 
BRANCH  18  19
ATOM     19  C   UNL     1       4.559 -37.822  26.272  1.00  0.00    -0.000 C 
BRANCH  19  20
ATOM     20  C   UNL     1       4.654 -39.244  25.680  1.00  0.00    -0.000 C 
BRANCH  20  21
ATOM     21  C   UNL     1       5.489 -39.373  24.389  1.00  0.00    -0.000 C 
BRANCH  21  22
ATOM     22  C   UNL     1       4.787 -40.129  23.244  1.00  0.00    -0.000 C 
BRANCH  22  23
ATOM     23  C   UNL     1       5.570 -40.096  21.913  1.00  0.00    -0.000 C 
BRANCH  23  24
ATOM     24  C   UNL     1       5.851 -38.674  21.387  1.00  0.00    -0.000 C 
BRANCH  24  25
ATOM     25  C   UNL     1       5.612 -38.505  19.873  1.00  0.00    -0.003 C 
ATOM     26  C   UNL     1       4.149 -38.224  19.533  1.00  0.00     0.004 C 
ENDBRANCH  24  25
ENDBRANCH  23  24
ENDBRANCH  22  23
ENDBRANCH  21  22
ENDBRANCH  20  21
ENDBRANCH  19  20
ENDBRANCH  18  19
ENDBRANCH  17  18
ENDBRANCH  16  17
ENDBRANCH  15  16
ENDBRANCH   1  15
TORSDOF 22
ENDMDL
