MODEL 1
REMARK VINA RESULT:    -3.999      0.000      0.000
REMARK INTER + INTRA:          -7.639
REMARK INTER:                  -5.635
REMARK INTRA:                  -2.004
REMARK UNBOUND:                -2.004
REMARK SMILES C=CC(=C)CCC=C(C)CCC=C(C)C
REMARK SMILES IDX 8 1 7 2 9 3 10 4 11 5 12 6 14 7 13 8 15 9 6 10 5 11 3 12
REMARK SMILES IDX 4 13 2 14 1 15
REMARK H PARENT
REMARK Flexibility Score: inf
ROOT
ATOM      1  C   UNL     1       0.117  16.172  16.758  1.00  0.00    -0.077 C 
ATOM      2  C   UNL     1      -0.816  16.763  15.975  1.00  0.00    -0.028 C 
ATOM      3  C   UNL     1       1.507  16.741  16.912  1.00  0.00     0.039 C 
ENDROOT
BRANCH   1   4
ATOM      4  C   UNL     1      -0.240  14.896  17.487  1.00  0.00     0.034 C 
BRANCH   4   5
ATOM      5  C   UNL     1       0.942  13.921  17.485  1.00  0.00     0.032 C 
BRANCH   5   6
ATOM      6  C   UNL     1       0.785  12.891  16.394  1.00  0.00    -0.028 C 
ATOM      7  C   UNL     1       1.297  11.771  14.247  1.00  0.00     0.039 C 
ATOM      8  C   UNL     1       1.561  12.827  15.289  1.00  0.00    -0.080 C 
ATOM      9  C   UNL     1       2.729  13.757  15.075  1.00  0.00     0.039 C 
ENDBRANCH   5   6
ENDBRANCH   4   5
ENDBRANCH   1   4
BRANCH   2  10
ATOM     10  C   UNL     1      -0.607  18.049  15.215  1.00  0.00     0.032 C 
BRANCH  10  11
ATOM     11  C   UNL     1      -0.623  17.800  13.702  1.00  0.00     0.039 C 
BRANCH  11  12
ATOM     12  C   UNL     1       0.690  17.203  13.241  1.00  0.00    -0.055 C 
ATOM     13  C   UNL     1       1.802  17.941  13.315  1.00  0.00     0.012 C 
BRANCH  12  14
ATOM     14  C   UNL     1       0.780  15.836  12.663  1.00  0.00    -0.005 C 
ATOM     15  C   UNL     1      -0.176  14.914  12.777  1.00  0.00     0.009 C 
ENDBRANCH  12  14
ENDBRANCH  11  12
ENDBRANCH  10  11
ENDBRANCH   2  10
TORSDOF 7
ENDMDL
MODEL 2
REMARK VINA RESULT:    -3.885      1.062      2.043
REMARK INTER + INTRA:          -7.478
REMARK INTER:                  -5.724
REMARK INTRA:                  -1.754
REMARK UNBOUND:                -2.004
REMARK SMILES C=CC(=C)CCC=C(C)CCC=C(C)C
REMARK SMILES IDX 8 1 7 2 9 3 10 4 11 5 12 6 14 7 13 8 15 9 6 10 5 11 3 12
REMARK SMILES IDX 4 13 2 14 1 15
REMARK H PARENT
REMARK Flexibility Score: inf
ROOT
ATOM      1  C   UNL     1       1.018  16.442  16.699  1.00  0.00    -0.077 C 
ATOM      2  C   UNL     1      -0.025  16.636  15.859  1.00  0.00    -0.028 C 
ATOM      3  C   UNL     1       1.933  17.572  17.110  1.00  0.00     0.039 C 
ENDROOT
BRANCH   1   4
ATOM      4  C   UNL     1       1.284  15.051  17.230  1.00  0.00     0.034 C 
BRANCH   4   5
ATOM      5  C   UNL     1       1.372  14.040  16.081  1.00  0.00     0.032 C 
BRANCH   5   6
ATOM      6  C   UNL     1       2.611  14.274  15.254  1.00  0.00    -0.028 C 
ATOM      7  C   UNL     1       4.134  13.982  13.325  1.00  0.00     0.039 C 
ATOM      8  C   UNL     1       2.847  13.698  14.054  1.00  0.00    -0.080 C 
ATOM      9  C   UNL     1       1.835  12.801  13.383  1.00  0.00     0.039 C 
ENDBRANCH   5   6
ENDBRANCH   4   5
ENDBRANCH   1   4
BRANCH   2  10
ATOM     10  C   UNL     1      -0.422  17.969  15.278  1.00  0.00     0.032 C 
BRANCH  10  11
ATOM     11  C   UNL     1      -0.715  17.849  13.778  1.00  0.00     0.039 C 
BRANCH  11  12
ATOM     12  C   UNL     1       0.428  17.164  13.060  1.00  0.00    -0.055 C 
ATOM     13  C   UNL     1       0.200  16.009  12.426  1.00  0.00     0.012 C 
BRANCH  12  14
ATOM     14  C   UNL     1       1.812  17.707  13.072  1.00  0.00    -0.005 C 
ATOM     15  C   UNL     1       2.776  17.313  12.239  1.00  0.00     0.009 C 
ENDBRANCH  12  14
ENDBRANCH  11  12
ENDBRANCH  10  11
ENDBRANCH   2  10
TORSDOF 7
ENDMDL
MODEL 3
REMARK VINA RESULT:    -3.882      1.051      4.203
REMARK INTER + INTRA:          -7.474
REMARK INTER:                  -5.304
REMARK INTRA:                  -2.169
REMARK UNBOUND:                -2.004
REMARK SMILES C=CC(=C)CCC=C(C)CCC=C(C)C
REMARK SMILES IDX 8 1 7 2 9 3 10 4 11 5 12 6 14 7 13 8 15 9 6 10 5 11 3 12
REMARK SMILES IDX 4 13 2 14 1 15
REMARK H PARENT
REMARK Flexibility Score: inf
ROOT
ATOM      1  C   UNL     1       0.765  16.900  16.412  1.00  0.00    -0.077 C 
ATOM      2  C   UNL     1      -0.447  16.316  16.258  1.00  0.00    -0.028 C 
ATOM      3  C   UNL     1       1.716  16.488  17.511  1.00  0.00     0.039 C 
ENDROOT
BRANCH   1   4
ATOM      4  C   UNL     1       1.171  18.008  15.465  1.00  0.00     0.034 C 
BRANCH   4   5
ATOM      5  C   UNL     1       0.597  17.763  14.065  1.00  0.00     0.032 C 
BRANCH   5   6
ATOM      6  C   UNL     1       1.572  16.988  13.215  1.00  0.00    -0.028 C 
ATOM      7  C   UNL     1       2.384  15.068  11.881  1.00  0.00     0.039 C 
ATOM      8  C   UNL     1       1.325  15.765  12.695  1.00  0.00    -0.080 C 
ATOM      9  C   UNL     1      -0.008  15.077  12.863  1.00  0.00     0.039 C 
ENDBRANCH   5   6
ENDBRANCH   4   5
ENDBRANCH   1   4
BRANCH   2  10
ATOM     10  C   UNL     1      -0.968  15.185  17.108  1.00  0.00     0.032 C 
BRANCH  10  11
ATOM     11  C   UNL     1      -0.882  13.851  16.359  1.00  0.00     0.039 C 
BRANCH  11  12
ATOM     12  C   UNL     1       0.418  13.140  16.672  1.00  0.00    -0.055 C 
ATOM     13  C   UNL     1       0.680  12.790  17.935  1.00  0.00     0.012 C 
BRANCH  12  14
ATOM     14  C   UNL     1       1.438  12.858  15.628  1.00  0.00    -0.005 C 
ATOM     15  C   UNL     1       2.504  13.627  15.400  1.00  0.00     0.009 C 
ENDBRANCH  12  14
ENDBRANCH  11  12
ENDBRANCH  10  11
ENDBRANCH   2  10
TORSDOF 7
ENDMDL
MODEL 4
REMARK VINA RESULT:    -3.798      1.652      4.807
REMARK INTER + INTRA:          -7.356
REMARK INTER:                  -5.871
REMARK INTRA:                  -1.485
REMARK UNBOUND:                -2.004
REMARK SMILES C=CC(=C)CCC=C(C)CCC=C(C)C
REMARK SMILES IDX 8 1 7 2 9 3 10 4 11 5 12 6 14 7 13 8 15 9 6 10 5 11 3 12
REMARK SMILES IDX 4 13 2 14 1 15
REMARK H PARENT
REMARK Flexibility Score: inf
ROOT
ATOM      1  C   UNL     1       0.578  16.959  15.515  1.00  0.00    -0.077 C 
ATOM      2  C   UNL     1       1.454  16.435  16.404  1.00  0.00    -0.028 C 
ATOM      3  C   UNL     1      -0.903  16.671  15.589  1.00  0.00     0.039 C 
ENDROOT
BRANCH   1   4
ATOM      4  C   UNL     1       1.100  17.845  14.406  1.00  0.00     0.034 C 
BRANCH   4   5
ATOM      5  C   UNL     1       1.115  17.092  13.071  1.00  0.00     0.032 C 
BRANCH   5   6
ATOM      6  C   UNL     1       2.431  16.384  12.870  1.00  0.00    -0.028 C 
ATOM      7  C   UNL     1       3.988  14.459  12.859  1.00  0.00     0.039 C 
ATOM      8  C   UNL     1       2.621  15.058  13.062  1.00  0.00    -0.080 C 
ATOM      9  C   UNL     1       1.489  14.133  13.434  1.00  0.00     0.039 C 
ENDBRANCH   5   6
ENDBRANCH   4   5
ENDBRANCH   1   4
BRANCH   2  10
ATOM     10  C   UNL     1       1.072  15.561  17.572  1.00  0.00     0.032 C 
BRANCH  10  11
ATOM     11  C   UNL     1       1.570  14.126  17.368  1.00  0.00     0.039 C 
BRANCH  11  12
ATOM     12  C   UNL     1       0.433  13.136  17.507  1.00  0.00    -0.055 C 
ATOM     13  C   UNL     1      -0.388  12.940  16.471  1.00  0.00     0.012 C 
BRANCH  12  14
ATOM     14  C   UNL     1       0.168  12.405  18.774  1.00  0.00    -0.005 C 
ATOM     15  C   UNL     1      -0.818  12.710  19.618  1.00  0.00     0.009 C 
ENDBRANCH  12  14
ENDBRANCH  11  12
ENDBRANCH  10  11
ENDBRANCH   2  10
TORSDOF 7
ENDMDL
MODEL 5
REMARK VINA RESULT:    -3.785      0.982      4.844
REMARK INTER + INTRA:          -7.337
REMARK INTER:                  -5.596
REMARK INTRA:                  -1.740
REMARK UNBOUND:                -2.004
REMARK SMILES C=CC(=C)CCC=C(C)CCC=C(C)C
REMARK SMILES IDX 8 1 7 2 9 3 10 4 11 5 12 6 14 7 13 8 15 9 6 10 5 11 3 12
REMARK SMILES IDX 4 13 2 14 1 15
REMARK H PARENT
REMARK Flexibility Score: inf
ROOT
ATOM      1  C   UNL     1       1.021  16.133  13.043  1.00  0.00    -0.077 C 
ATOM      2  C   UNL     1       2.319  15.795  13.222  1.00  0.00    -0.028 C 
ATOM      3  C   UNL     1      -0.055  15.092  12.841  1.00  0.00     0.039 C 
ENDROOT
BRANCH   1   4
ATOM      4  C   UNL     1       0.640  17.597  13.027  1.00  0.00     0.034 C 
BRANCH   4   5
ATOM      5  C   UNL     1       0.038  18.015  14.374  1.00  0.00     0.032 C 
BRANCH   5   6
ATOM      6  C   UNL     1       0.989  17.708  15.504  1.00  0.00    -0.028 C 
ATOM      7  C   UNL     1       1.748  16.610  17.589  1.00  0.00     0.039 C 
ATOM      8  C   UNL     1       0.737  16.818  16.491  1.00  0.00    -0.080 C 
ATOM      9  C   UNL     1      -0.518  15.980  16.513  1.00  0.00     0.039 C 
ENDBRANCH   5   6
ENDBRANCH   4   5
ENDBRANCH   1   4
BRANCH   2  10
ATOM     10  C   UNL     1       2.835  14.379  13.286  1.00  0.00     0.032 C 
BRANCH  10  11
ATOM     11  C   UNL     1       2.898  13.883  14.735  1.00  0.00     0.039 C 
BRANCH  11  12
ATOM     12  C   UNL     1       1.807  12.869  15.005  1.00  0.00    -0.055 C 
ATOM     13  C   UNL     1       1.199  12.868  16.196  1.00  0.00     0.012 C 
BRANCH  12  14
ATOM     14  C   UNL     1       1.417  11.839  14.006  1.00  0.00    -0.005 C 
ATOM     15  C   UNL     1       0.180  11.357  13.876  1.00  0.00     0.009 C 
ENDBRANCH  12  14
ENDBRANCH  11  12
ENDBRANCH  10  11
ENDBRANCH   2  10
TORSDOF 7
ENDMDL
MODEL 6
REMARK VINA RESULT:    -3.779      1.353      3.656
REMARK INTER + INTRA:          -7.329
REMARK INTER:                  -6.249
REMARK INTRA:                  -1.080
REMARK UNBOUND:                -2.004
REMARK SMILES C=CC(=C)CCC=C(C)CCC=C(C)C
REMARK SMILES IDX 8 1 7 2 9 3 10 4 11 5 12 6 14 7 13 8 15 9 6 10 5 11 3 12
REMARK SMILES IDX 4 13 2 14 1 15
REMARK H PARENT
REMARK Flexibility Score: inf
ROOT
ATOM      1  C   UNL     1       2.797  14.253  14.203  1.00  0.00    -0.077 C 
ATOM      2  C   UNL     1       1.914  15.222  13.865  1.00  0.00    -0.028 C 
ATOM      3  C   UNL     1       4.029  13.971  13.377  1.00  0.00     0.039 C 
ENDROOT
BRANCH   1   4
ATOM      4  C   UNL     1       2.531  13.418  15.436  1.00  0.00     0.034 C 
BRANCH   4   5
ATOM      5  C   UNL     1       1.904  14.271  16.545  1.00  0.00     0.032 C 
BRANCH   5   6
ATOM      6  C   UNL     1       1.138  13.407  17.516  1.00  0.00    -0.028 C 
ATOM      7  C   UNL     1      -0.651  12.865  19.139  1.00  0.00     0.039 C 
ATOM      8  C   UNL     1       0.020  13.801  18.167  1.00  0.00    -0.080 C 
ATOM      9  C   UNL     1      -0.619  15.146  17.922  1.00  0.00     0.039 C 
ENDBRANCH   5   6
ENDBRANCH   4   5
ENDBRANCH   1   4
BRANCH   2  10
ATOM     10  C   UNL     1       2.066  16.145  12.682  1.00  0.00     0.032 C 
BRANCH  10  11
ATOM     11  C   UNL     1       1.774  17.597  13.078  1.00  0.00     0.039 C 
BRANCH  11  12
ATOM     12  C   UNL     1       0.390  17.723  13.679  1.00  0.00    -0.055 C 
ATOM     13  C   UNL     1      -0.676  17.675  12.874  1.00  0.00     0.012 C 
BRANCH  12  14
ATOM     14  C   UNL     1       0.175  17.946  15.133  1.00  0.00    -0.005 C 
ATOM     15  C   UNL     1       1.152  17.950  16.040  1.00  0.00     0.009 C 
ENDBRANCH  12  14
ENDBRANCH  11  12
ENDBRANCH  10  11
ENDBRANCH   2  10
TORSDOF 7
ENDMDL
MODEL 7
REMARK VINA RESULT:    -3.731      1.401      4.234
REMARK INTER + INTRA:          -7.261
REMARK INTER:                  -5.464
REMARK INTRA:                  -1.797
REMARK UNBOUND:                -2.004
REMARK SMILES C=CC(=C)CCC=C(C)CCC=C(C)C
REMARK SMILES IDX 8 1 7 2 9 3 10 4 11 5 12 6 14 7 13 8 15 9 6 10 5 11 3 12
REMARK SMILES IDX 4 13 2 14 1 15
REMARK H PARENT
REMARK Flexibility Score: inf
ROOT
ATOM      1  C   UNL     1       1.132  13.425  16.755  1.00  0.00    -0.077 C 
ATOM      2  C   UNL     1       1.773  13.022  15.633  1.00  0.00    -0.028 C 
ATOM      3  C   UNL     1      -0.263  12.954  17.091  1.00  0.00     0.039 C 
ENDROOT
BRANCH   1   4
ATOM      4  C   UNL     1       1.827  14.389  17.691  1.00  0.00     0.034 C 
BRANCH   4   5
ATOM      5  C   UNL     1       1.105  15.741  17.713  1.00  0.00     0.032 C 
BRANCH   5   6
ATOM      6  C   UNL     1       1.487  16.571  16.512  1.00  0.00    -0.028 C 
ATOM      7  C   UNL     1       1.156  17.657  14.313  1.00  0.00     0.039 C 
ATOM      8  C   UNL     1       0.660  16.838  15.476  1.00  0.00    -0.080 C 
ATOM      9  C   UNL     1      -0.777  16.379  15.460  1.00  0.00     0.039 C 
ENDBRANCH   5   6
ENDBRANCH   4   5
ENDBRANCH   1   4
BRANCH   2  10
ATOM     10  C   UNL     1       1.213  12.047  14.629  1.00  0.00     0.032 C 
BRANCH  10  11
ATOM     11  C   UNL     1       1.778  12.315  13.230  1.00  0.00     0.039 C 
BRANCH  11  12
ATOM     12  C   UNL     1       1.699  13.788  12.890  1.00  0.00    -0.055 C 
ATOM     13  C   UNL     1       0.511  14.323  12.592  1.00  0.00     0.012 C 
BRANCH  12  14
ATOM     14  C   UNL     1       2.905  14.655  12.829  1.00  0.00    -0.005 C 
ATOM     15  C   UNL     1       4.150  14.214  13.017  1.00  0.00     0.009 C 
ENDBRANCH  12  14
ENDBRANCH  11  12
ENDBRANCH  10  11
ENDBRANCH   2  10
TORSDOF 7
ENDMDL
MODEL 8
REMARK VINA RESULT:    -3.725      1.339      3.747
REMARK INTER + INTRA:          -7.252
REMARK INTER:                  -5.071
REMARK INTRA:                  -2.182
REMARK UNBOUND:                -2.004
REMARK SMILES C=CC(=C)CCC=C(C)CCC=C(C)C
REMARK SMILES IDX 8 1 7 2 9 3 10 4 11 5 12 6 14 7 13 8 15 9 6 10 5 11 3 12
REMARK SMILES IDX 4 13 2 14 1 15
REMARK H PARENT
REMARK Flexibility Score: inf
ROOT
ATOM      1  C   UNL     1       2.430  15.808  12.361  1.00  0.00    -0.077 C 
ATOM      2  C   UNL     1       1.207  15.264  12.164  1.00  0.00    -0.028 C 
ATOM      3  C   UNL     1       2.668  17.297  12.265  1.00  0.00     0.039 C 
ENDROOT
BRANCH   1   4
ATOM      4  C   UNL     1       3.597  14.897  12.671  1.00  0.00     0.034 C 
BRANCH   4   5
ATOM      5  C   UNL     1       3.132  13.670  13.463  1.00  0.00     0.032 C 
BRANCH   5   6
ATOM      6  C   UNL     1       2.963  14.007  14.923  1.00  0.00    -0.028 C 
ATOM      7  C   UNL     1       1.784  14.133  17.096  1.00  0.00     0.039 C 
ATOM      8  C   UNL     1       1.857  13.724  15.648  1.00  0.00    -0.080 C 
ATOM      9  C   UNL     1       0.692  12.962  15.066  1.00  0.00     0.039 C 
ENDBRANCH   5   6
ENDBRANCH   4   5
ENDBRANCH   1   4
BRANCH   2  10
ATOM     10  C   UNL     1      -0.046  16.052  11.875  1.00  0.00     0.032 C 
BRANCH  10  11
ATOM     11  C   UNL     1      -0.956  16.105  13.108  1.00  0.00     0.039 C 
BRANCH  11  12
ATOM     12  C   UNL     1      -0.561  17.246  14.021  1.00  0.00    -0.055 C 
ATOM     13  C   UNL     1      -0.694  18.503  13.586  1.00  0.00     0.012 C 
BRANCH  12  14
ATOM     14  C   UNL     1       0.016  17.017  15.372  1.00  0.00    -0.005 C 
ATOM     15  C   UNL     1       1.157  17.560  15.798  1.00  0.00     0.009 C 
ENDBRANCH  12  14
ENDBRANCH  11  12
ENDBRANCH  10  11
ENDBRANCH   2  10
TORSDOF 7
ENDMDL
MODEL 9
REMARK VINA RESULT:    -3.713      1.189      5.370
REMARK INTER + INTRA:          -7.236
REMARK INTER:                  -5.266
REMARK INTRA:                  -1.971
REMARK UNBOUND:                -2.004
REMARK SMILES C=CC(=C)CCC=C(C)CCC=C(C)C
REMARK SMILES IDX 8 1 7 2 9 3 10 4 11 5 12 6 14 7 13 8 15 9 6 10 5 11 3 12
REMARK SMILES IDX 4 13 2 14 1 15
REMARK H PARENT
REMARK Flexibility Score: inf
ROOT
ATOM      1  C   UNL     1       2.148  14.906  13.224  1.00  0.00    -0.077 C 
ATOM      2  C   UNL     1       2.529  14.464  14.445  1.00  0.00    -0.028 C 
ATOM      3  C   UNL     1       1.051  14.232  12.436  1.00  0.00     0.039 C 
ENDROOT
BRANCH   1   4
ATOM      4  C   UNL     1       2.855  16.103  12.625  1.00  0.00     0.034 C 
BRANCH   4   5
ATOM      5  C   UNL     1       1.856  17.223  12.314  1.00  0.00     0.032 C 
BRANCH   5   6
ATOM      6  C   UNL     1       1.155  17.679  13.570  1.00  0.00    -0.028 C 
ATOM      7  C   UNL     1      -0.774  18.342  14.972  1.00  0.00     0.039 C 
ATOM      8  C   UNL     1      -0.182  17.854  13.675  1.00  0.00    -0.080 C 
ATOM      9  C   UNL     1      -1.124  17.533  12.541  1.00  0.00     0.039 C 
ENDBRANCH   5   6
ENDBRANCH   4   5
ENDBRANCH   1   4
BRANCH   2  10
ATOM     10  C   UNL     1       1.897  13.304  15.172  1.00  0.00     0.032 C 
BRANCH  10  11
ATOM     11  C   UNL     1       1.539  13.689  16.612  1.00  0.00     0.039 C 
BRANCH  11  12
ATOM     12  C   UNL     1       0.521  14.810  16.633  1.00  0.00    -0.055 C 
ATOM     13  C   UNL     1      -0.597  14.688  15.911  1.00  0.00     0.012 C 
BRANCH  12  14
ATOM     14  C   UNL     1       0.742  16.067  17.395  1.00  0.00    -0.005 C 
ATOM     15  C   UNL     1       1.879  16.763  17.372  1.00  0.00     0.009 C 
ENDBRANCH  12  14
ENDBRANCH  11  12
ENDBRANCH  10  11
ENDBRANCH   2  10
TORSDOF 7
ENDMDL
