MODEL 1
REMARK VINA RESULT:    -3.939      0.000      0.000
REMARK INTER + INTRA:          -5.146
REMARK INTER:                  -5.091
REMARK INTRA:                  -0.056
REMARK UNBOUND:                -0.056
REMARK SMILES CCCCCCC=O
REMARK SMILES IDX 4 1 3 2 2 3 1 4 5 5 6 6 7 7 8 8
REMARK H PARENT
REMARK Flexibility Score: inf
ROOT
ATOM      1  C   UNL     1      25.489  56.235  -9.099  1.00  0.00     0.000 C 
ENDROOT
BRANCH   1   2
ATOM      2  C   UNL     1      24.085  55.594  -9.087  1.00  0.00    -0.000 C 
BRANCH   2   3
ATOM      3  C   UNL     1      23.685  55.012  -7.721  1.00  0.00    -0.003 C 
ATOM      4  C   UNL     1      22.339  54.293  -7.746  1.00  0.00     0.004 C 
ENDBRANCH   2   3
ENDBRANCH   1   2
BRANCH   1   5
ATOM      5  C   UNL     1      25.446  57.722  -9.479  1.00  0.00     0.008 C 
BRANCH   5   6
ATOM      6  C   UNL     1      26.623  58.091 -10.389  1.00  0.00     0.072 C 
BRANCH   6   7
ATOM      7  C   UNL     1      26.970  59.543 -10.255  1.00  0.00     0.224 C 
ATOM      8  O   UNL     1      27.937  60.006 -10.841  1.00  0.00    -0.303 OA
ENDBRANCH   6   7
ENDBRANCH   5   6
ENDBRANCH   1   5
TORSDOF 5
ENDMDL
MODEL 2
REMARK VINA RESULT:    -3.924      3.000      5.653
REMARK INTER + INTRA:          -5.126
REMARK INTER:                  -5.072
REMARK INTRA:                  -0.055
REMARK UNBOUND:                -0.056
REMARK SMILES CCCCCCC=O
REMARK SMILES IDX 4 1 3 2 2 3 1 4 5 5 6 6 7 7 8 8
REMARK H PARENT
REMARK Flexibility Score: inf
ROOT
ATOM      1  C   UNL     1      25.490  57.720  -9.495  1.00  0.00     0.000 C 
ENDROOT
BRANCH   1   2
ATOM      2  C   UNL     1      26.636  58.034 -10.482  1.00  0.00    -0.000 C 
BRANCH   2   3
ATOM      3  C   UNL     1      27.167  59.473 -10.370  1.00  0.00    -0.003 C 
ATOM      4  C   UNL     1      28.640  59.599 -10.751  1.00  0.00     0.004 C 
ENDBRANCH   2   3
ENDBRANCH   1   2
BRANCH   1   5
ATOM      5  C   UNL     1      25.430  56.230  -9.129  1.00  0.00     0.008 C 
BRANCH   5   6
ATOM      6  C   UNL     1      23.996  55.696  -9.233  1.00  0.00     0.072 C 
BRANCH   6   7
ATOM      7  C   UNL     1      23.653  54.847  -8.046  1.00  0.00     0.224 C 
ATOM      8  O   UNL     1      22.495  54.528  -7.827  1.00  0.00    -0.303 OA
ENDBRANCH   6   7
ENDBRANCH   5   6
ENDBRANCH   1   5
TORSDOF 5
ENDMDL
MODEL 3
REMARK VINA RESULT:    -3.723      1.341      1.952
REMARK INTER + INTRA:          -4.867
REMARK INTER:                  -4.718
REMARK INTRA:                  -0.149
REMARK UNBOUND:                -0.056
REMARK SMILES CCCCCCC=O
REMARK SMILES IDX 4 1 3 2 2 3 1 4 5 5 6 6 7 7 8 8
REMARK H PARENT
REMARK Flexibility Score: inf
ROOT
ATOM      1  C   UNL     1      24.673  54.725  -8.384  1.00  0.00     0.000 C 
ENDROOT
BRANCH   1   2
ATOM      2  C   UNL     1      23.187  55.134  -8.298  1.00  0.00    -0.000 C 
BRANCH   2   3
ATOM      3  C   UNL     1      22.288  54.056  -7.669  1.00  0.00    -0.003 C 
ATOM      4  C   UNL     1      22.288  54.091  -6.143  1.00  0.00     0.004 C 
ENDBRANCH   2   3
ENDBRANCH   1   2
BRANCH   1   5
ATOM      5  C   UNL     1      25.591  55.925  -8.656  1.00  0.00     0.008 C 
BRANCH   5   6
ATOM      6  C   UNL     1      24.786  57.136  -9.142  1.00  0.00     0.072 C 
BRANCH   6   7
ATOM      7  C   UNL     1      25.691  58.195  -9.695  1.00  0.00     0.224 C 
ATOM      8  O   UNL     1      26.619  57.895 -10.429  1.00  0.00    -0.303 OA
ENDBRANCH   6   7
ENDBRANCH   5   6
ENDBRANCH   1   5
TORSDOF 5
ENDMDL
MODEL 4
REMARK VINA RESULT:    -3.555      1.226      2.026
REMARK INTER + INTRA:          -4.650
REMARK INTER:                  -4.572
REMARK INTRA:                  -0.078
REMARK UNBOUND:                -0.056
REMARK SMILES CCCCCCC=O
REMARK SMILES IDX 4 1 3 2 2 3 1 4 5 5 6 6 7 7 8 8
REMARK H PARENT
REMARK Flexibility Score: inf
ROOT
ATOM      1  C   UNL     1      26.263  57.749 -10.124  1.00  0.00     0.000 C 
ENDROOT
BRANCH   1   2
ATOM      2  C   UNL     1      25.119  57.247  -9.217  1.00  0.00    -0.000 C 
BRANCH   2   3
ATOM      3  C   UNL     1      25.286  55.786  -8.767  1.00  0.00    -0.003 C 
ATOM      4  C   UNL     1      23.963  55.029  -8.687  1.00  0.00     0.004 C 
ENDBRANCH   2   3
ENDBRANCH   1   2
BRANCH   1   5
ATOM      5  C   UNL     1      26.522  59.253  -9.956  1.00  0.00     0.008 C 
BRANCH   5   6
ATOM      6  C   UNL     1      27.676  59.716 -10.852  1.00  0.00     0.072 C 
BRANCH   6   7
ATOM      7  C   UNL     1      28.979  59.677 -10.110  1.00  0.00     0.224 C 
ATOM      8  O   UNL     1      29.900  58.985 -10.513  1.00  0.00    -0.303 OA
ENDBRANCH   6   7
ENDBRANCH   5   6
ENDBRANCH   1   5
TORSDOF 5
ENDMDL
MODEL 5
REMARK VINA RESULT:    -3.485     16.942     18.009
REMARK INTER + INTRA:          -4.560
REMARK INTER:                  -4.387
REMARK INTRA:                  -0.173
REMARK UNBOUND:                -0.056
REMARK SMILES CCCCCCC=O
REMARK SMILES IDX 4 1 3 2 2 3 1 4 5 5 6 6 7 7 8 8
REMARK H PARENT
REMARK Flexibility Score: inf
ROOT
ATOM      1  C   UNL     1      17.842  45.175  -0.776  1.00  0.00     0.000 C 
ENDROOT
BRANCH   1   2
ATOM      2  C   UNL     1      16.695  44.211  -0.405  1.00  0.00    -0.000 C 
BRANCH   2   3
ATOM      3  C   UNL     1      15.397  44.928   0.004  1.00  0.00    -0.003 C 
ATOM      4  C   UNL     1      14.968  44.618   1.436  1.00  0.00     0.004 C 
ENDBRANCH   2   3
ENDBRANCH   1   2
BRANCH   1   5
ATOM      5  C   UNL     1      19.214  44.644  -0.335  1.00  0.00     0.008 C 
BRANCH   5   6
ATOM      6  C   UNL     1      19.082  43.275   0.341  1.00  0.00     0.072 C 
BRANCH   6   7
ATOM      7  C   UNL     1      20.421  42.759   0.774  1.00  0.00     0.224 C 
ATOM      8  O   UNL     1      21.042  41.980   0.067  1.00  0.00    -0.303 OA
ENDBRANCH   6   7
ENDBRANCH   5   6
ENDBRANCH   1   5
TORSDOF 5
ENDMDL
MODEL 6
REMARK VINA RESULT:    -3.320     17.462     18.858
REMARK INTER + INTRA:          -4.346
REMARK INTER:                  -3.993
REMARK INTRA:                  -0.354
REMARK UNBOUND:                -0.056
REMARK SMILES CCCCCCC=O
REMARK SMILES IDX 4 1 3 2 2 3 1 4 5 5 6 6 7 7 8 8
REMARK H PARENT
REMARK Flexibility Score: inf
ROOT
ATOM      1  C   UNL     1      17.834  44.196  -0.330  1.00  0.00     0.000 C 
ENDROOT
BRANCH   1   2
ATOM      2  C   UNL     1      19.306  44.499   0.023  1.00  0.00    -0.000 C 
BRANCH   2   3
ATOM      3  C   UNL     1      19.897  43.541   1.071  1.00  0.00    -0.003 C 
ATOM      4  C   UNL     1      20.698  42.398   0.453  1.00  0.00     0.004 C 
ENDBRANCH   2   3
ENDBRANCH   1   2
BRANCH   1   5
ATOM      5  C   UNL     1      17.123  43.399   0.773  1.00  0.00     0.008 C 
BRANCH   5   6
ATOM      6  C   UNL     1      16.562  42.082   0.225  1.00  0.00     0.072 C 
BRANCH   6   7
ATOM      7  C   UNL     1      17.104  41.795  -1.143  1.00  0.00     0.224 C 
ATOM      8  O   UNL     1      17.925  40.907  -1.309  1.00  0.00    -0.303 OA
ENDBRANCH   6   7
ENDBRANCH   5   6
ENDBRANCH   1   5
TORSDOF 5
ENDMDL
MODEL 7
REMARK VINA RESULT:    -3.316     17.171     18.418
REMARK INTER + INTRA:          -4.341
REMARK INTER:                  -4.180
REMARK INTRA:                  -0.161
REMARK UNBOUND:                -0.056
REMARK SMILES CCCCCCC=O
REMARK SMILES IDX 4 1 3 2 2 3 1 4 5 5 6 6 7 7 8 8
REMARK H PARENT
REMARK Flexibility Score: inf
ROOT
ATOM      1  C   UNL     1      17.941  45.195  -0.757  1.00  0.00     0.000 C 
ENDROOT
BRANCH   1   2
ATOM      2  C   UNL     1      19.373  44.773  -0.364  1.00  0.00    -0.000 C 
BRANCH   2   3
ATOM      3  C   UNL     1      19.429  43.874   0.883  1.00  0.00    -0.003 C 
ATOM      4  C   UNL     1      20.449  42.745   0.761  1.00  0.00     0.004 C 
ENDBRANCH   2   3
ENDBRANCH   1   2
BRANCH   1   5
ATOM      5  C   UNL     1      16.893  44.153  -0.341  1.00  0.00     0.008 C 
BRANCH   5   6
ATOM      6  C   UNL     1      15.532  44.812  -0.089  1.00  0.00     0.072 C 
BRANCH   6   7
ATOM      7  C   UNL     1      15.065  44.560   1.313  1.00  0.00     0.224 C 
ATOM      8  O   UNL     1      13.975  44.966   1.685  1.00  0.00    -0.303 OA
ENDBRANCH   6   7
ENDBRANCH   5   6
ENDBRANCH   1   5
TORSDOF 5
ENDMDL
MODEL 8
REMARK VINA RESULT:    -3.295     15.756     17.120
REMARK INTER + INTRA:          -4.314
REMARK INTER:                  -4.131
REMARK INTRA:                  -0.183
REMARK UNBOUND:                -0.056
REMARK SMILES CCCCCCC=O
REMARK SMILES IDX 4 1 3 2 2 3 1 4 5 5 6 6 7 7 8 8
REMARK H PARENT
REMARK Flexibility Score: inf
ROOT
ATOM      1  C   UNL     1      32.109  44.796   1.597  1.00  0.00     0.000 C 
ENDROOT
BRANCH   1   2
ATOM      2  C   UNL     1      32.897  46.080   1.933  1.00  0.00    -0.000 C 
BRANCH   2   3
ATOM      3  C   UNL     1      32.779  46.507   3.406  1.00  0.00    -0.003 C 
ATOM      4  C   UNL     1      31.721  47.584   3.634  1.00  0.00     0.004 C 
ENDBRANCH   2   3
ENDBRANCH   1   2
BRANCH   1   5
ATOM      5  C   UNL     1      31.214  44.968   0.362  1.00  0.00     0.008 C 
BRANCH   5   6
ATOM      6  C   UNL     1      29.743  45.121   0.765  1.00  0.00     0.072 C 
BRANCH   6   7
ATOM      7  C   UNL     1      28.835  44.742  -0.365  1.00  0.00     0.224 C 
ATOM      8  O   UNL     1      28.052  45.556  -0.830  1.00  0.00    -0.303 OA
ENDBRANCH   6   7
ENDBRANCH   5   6
ENDBRANCH   1   5
TORSDOF 5
ENDMDL
MODEL 9
REMARK VINA RESULT:    -3.254     16.368     18.253
REMARK INTER + INTRA:          -4.260
REMARK INTER:                  -3.939
REMARK INTRA:                  -0.321
REMARK UNBOUND:                -0.056
REMARK SMILES CCCCCCC=O
REMARK SMILES IDX 4 1 3 2 2 3 1 4 5 5 6 6 7 7 8 8
REMARK H PARENT
REMARK Flexibility Score: inf
ROOT
ATOM      1  C   UNL     1      17.399  42.399   0.800  1.00  0.00     0.000 C 
ENDROOT
BRANCH   1   2
ATOM      2  C   UNL     1      15.897  42.755   0.755  1.00  0.00    -0.000 C 
BRANCH   2   3
ATOM      3  C   UNL     1      15.588  44.180   1.242  1.00  0.00    -0.003 C 
ATOM      4  C   UNL     1      14.825  45.012   0.214  1.00  0.00     0.004 C 
ENDBRANCH   2   3
ENDBRANCH   1   2
BRANCH   1   5
ATOM      5  C   UNL     1      18.262  43.580   1.268  1.00  0.00     0.008 C 
BRANCH   5   6
ATOM      6  C   UNL     1      19.466  43.783   0.340  1.00  0.00     0.072 C 
BRANCH   6   7
ATOM      7  C   UNL     1      19.293  45.011  -0.502  1.00  0.00     0.224 C 
ATOM      8  O   UNL     1      18.187  45.331  -0.909  1.00  0.00    -0.303 OA
ENDBRANCH   6   7
ENDBRANCH   5   6
ENDBRANCH   1   5
TORSDOF 5
ENDMDL
