MODEL 1
REMARK VINA RESULT:    -6.478      0.000      0.000
REMARK INTER + INTRA:         -10.437
REMARK INTER:                  -8.750
REMARK INTRA:                  -1.686
REMARK UNBOUND:                -1.686
REMARK SMILES CC[C@H](CC[C@@H](C)[C@@H]1CC[C@@H]2[C@H]3CC(=O)C4=CC(=O)CC[C@@]4(C)[C@@H]3CC[C@]21C)C(C)C
REMARK SMILES IDX 4 1 3 2 2 3 1 4 29 5 30 6 31 7 5 8 6 9 7 10 8 11 9 12 27 13
REMARK SMILES IDX 10 14 11 15 26 16 28 17 12 18 25 19 24 20 13 21 22 22 14 23
REMARK SMILES IDX 16 24 21 25 23 26 15 27 17 28 20 29 18 30 19 31
REMARK H PARENT
REMARK Flexibility Score: inf
ROOT
ATOM      1  C   UNL     1       6.144  28.244  17.089  1.00  0.00     0.004 C 
ENDROOT
BRANCH   1   2
ATOM      2  C   UNL     1       5.004  29.271  17.370  1.00  0.00    -0.009 C 
BRANCH   2   3
ATOM      3  C   UNL     1       5.603  30.708  17.437  1.00  0.00     0.000 C 
ATOM      4  C   UNL     1       7.082  30.760  17.820  1.00  0.00     0.004 C 
ENDBRANCH   2   3
BRANCH   2   5
ATOM      5  C   UNL     1       3.840  29.084  16.334  1.00  0.00    -0.014 C 
ATOM      6  C   UNL     1       3.533  30.346  15.515  1.00  0.00     0.007 C 
ATOM      7  C   UNL     1       2.555  28.509  16.953  1.00  0.00     0.007 C 
ENDBRANCH   2   5
ENDBRANCH   1   2
BRANCH   1   8
ATOM      8  C   UNL     1       5.952  27.455  15.776  1.00  0.00     0.004 C 
BRANCH   8   9
ATOM      9  C   UNL     1       7.002  27.834  14.686  1.00  0.00    -0.011 C 
ATOM     10  C   UNL     1       6.480  28.981  13.807  1.00  0.00     0.008 C 
BRANCH   9  11
ATOM     11  C   UNL     1       8.471  28.087  15.175  1.00  0.00    -0.002 C 
ATOM     12  C   UNL     1       8.915  29.573  15.091  1.00  0.00     0.005 C 
ATOM     13  C   UNL     1       9.675  27.269  14.611  1.00  0.00    -0.026 C 
ATOM     14  C   UNL     1      10.432  29.566  14.854  1.00  0.00     0.005 C 
ATOM     15  C   UNL     1      10.843  28.127  15.132  1.00  0.00    -0.001 C 
ATOM     16  C   UNL     1       9.861  25.858  15.222  1.00  0.00     0.007 C 
ATOM     17  C   UNL     1       9.628  27.179  13.057  1.00  0.00     0.012 C 
ATOM     18  C   UNL     1      12.228  27.644  14.647  1.00  0.00     0.004 C 
ATOM     19  C   UNL     1      11.231  25.246  14.849  1.00  0.00     0.005 C 
ATOM     20  C   UNL     1      12.451  26.178  15.153  1.00  0.00     0.003 C 
ATOM     21  C   UNL     1      13.333  28.568  15.188  1.00  0.00     0.085 C 
ATOM     22  C   UNL     1      13.837  25.580  14.681  1.00  0.00    -0.000 C 
ATOM     23  C   UNL     1      14.697  28.027  14.903  1.00  0.00     0.159 C 
ATOM     24  C   UNL     1      14.962  26.573  15.002  1.00  0.00     0.005 C 
ATOM     25  C   UNL     1      14.100  24.237  15.435  1.00  0.00     0.020 C 
ATOM     26  C   UNL     1      13.859  25.319  13.151  1.00  0.00     0.017 C 
ATOM     27  O   UNL     1      15.635  28.834  14.657  1.00  0.00    -0.295 OA
ATOM     28  C   UNL     1      16.212  26.153  15.274  1.00  0.00     0.055 C 
ATOM     29  C   UNL     1      15.506  23.673  15.194  1.00  0.00     0.081 C 
ATOM     30  C   UNL     1      16.548  24.727  15.391  1.00  0.00     0.156 C 
ATOM     31  O   UNL     1      17.738  24.388  15.626  1.00  0.00    -0.295 OA
ENDBRANCH   9  11
ENDBRANCH   8   9
ENDBRANCH   1   8
TORSDOF 6
ENDMDL
MODEL 2
REMARK VINA RESULT:    -5.771      2.068      3.444
REMARK INTER + INTRA:          -9.482
REMARK INTER:                  -7.698
REMARK INTRA:                  -1.783
REMARK UNBOUND:                -1.686
REMARK SMILES CC[C@H](CC[C@@H](C)[C@@H]1CC[C@@H]2[C@H]3CC(=O)C4=CC(=O)CC[C@@]4(C)[C@@H]3CC[C@]21C)C(C)C
REMARK SMILES IDX 4 1 3 2 2 3 1 4 29 5 30 6 31 7 5 8 6 9 7 10 8 11 9 12 27 13
REMARK SMILES IDX 10 14 11 15 26 16 28 17 12 18 25 19 24 20 13 21 22 22 14 23
REMARK SMILES IDX 16 24 21 25 23 26 15 27 17 28 20 29 18 30 19 31
REMARK H PARENT
REMARK Flexibility Score: inf
ROOT
ATOM      1  C   UNL     1       3.144  26.716  16.421  1.00  0.00     0.004 C 
ENDROOT
BRANCH   1   2
ATOM      2  C   UNL     1       3.858  25.348  16.653  1.00  0.00    -0.009 C 
BRANCH   2   3
ATOM      3  C   UNL     1       2.836  24.317  17.220  1.00  0.00     0.000 C 
ATOM      4  C   UNL     1       3.232  23.705  18.563  1.00  0.00     0.004 C 
ENDBRANCH   2   3
BRANCH   2   5
ATOM      5  C   UNL     1       4.602  24.898  15.348  1.00  0.00    -0.014 C 
ATOM      6  C   UNL     1       3.882  25.307  14.054  1.00  0.00     0.007 C 
ATOM      7  C   UNL     1       4.953  23.401  15.327  1.00  0.00     0.007 C 
ENDBRANCH   2   5
ENDBRANCH   1   2
BRANCH   1   8
ATOM      8  C   UNL     1       3.985  27.931  16.868  1.00  0.00     0.004 C 
BRANCH   8   9
ATOM      9  C   UNL     1       4.800  28.564  15.697  1.00  0.00    -0.011 C 
ATOM     10  C   UNL     1       4.140  29.866  15.219  1.00  0.00     0.008 C 
BRANCH   9  11
ATOM     11  C   UNL     1       6.345  28.733  15.920  1.00  0.00    -0.002 C 
ATOM     12  C   UNL     1       6.884  30.139  15.542  1.00  0.00     0.005 C 
ATOM     13  C   UNL     1       7.374  27.726  15.319  1.00  0.00    -0.026 C 
ATOM     14  C   UNL     1       8.339  29.945  15.090  1.00  0.00     0.005 C 
ATOM     15  C   UNL     1       8.674  28.526  15.523  1.00  0.00    -0.001 C 
ATOM     16  C   UNL     1       7.544  26.404  16.107  1.00  0.00     0.007 C 
ATOM     17  C   UNL     1       7.072  27.423  13.822  1.00  0.00     0.012 C 
ATOM     18  C   UNL     1       9.921  27.841  14.921  1.00  0.00     0.004 C 
ATOM     19  C   UNL     1       8.785  25.609  15.636  1.00  0.00     0.005 C 
ATOM     20  C   UNL     1      10.107  26.445  15.610  1.00  0.00     0.003 C 
ATOM     21  C   UNL     1      11.168  28.715  15.144  1.00  0.00     0.085 C 
ATOM     22  C   UNL     1      11.347  25.649  15.038  1.00  0.00    -0.000 C 
ATOM     23  C   UNL     1      12.422  28.004  14.749  1.00  0.00     0.159 C 
ATOM     24  C   UNL     1      12.584  26.559  15.032  1.00  0.00     0.005 C 
ATOM     25  C   UNL     1      11.622  24.406  15.944  1.00  0.00     0.020 C 
ATOM     26  C   UNL     1      11.103  25.175  13.580  1.00  0.00     0.017 C 
ATOM     27  O   UNL     1      13.369  28.668  14.246  1.00  0.00    -0.295 OA
ATOM     28  C   UNL     1      13.824  26.056  15.180  1.00  0.00     0.055 C 
ATOM     29  C   UNL     1      12.923  23.674  15.590  1.00  0.00     0.081 C 
ATOM     30  C   UNL     1      14.063  24.635  15.466  1.00  0.00     0.156 C 
ATOM     31  O   UNL     1      15.244  24.213  15.572  1.00  0.00    -0.295 OA
ENDBRANCH   9  11
ENDBRANCH   8   9
ENDBRANCH   1   8
TORSDOF 6
ENDMDL
MODEL 3
REMARK VINA RESULT:    -5.598      1.418      2.098
REMARK INTER + INTRA:          -9.248
REMARK INTER:                  -7.950
REMARK INTRA:                  -1.298
REMARK UNBOUND:                -1.686
REMARK SMILES CC[C@H](CC[C@@H](C)[C@@H]1CC[C@@H]2[C@H]3CC(=O)C4=CC(=O)CC[C@@]4(C)[C@@H]3CC[C@]21C)C(C)C
REMARK SMILES IDX 4 1 3 2 2 3 1 4 29 5 30 6 31 7 5 8 6 9 7 10 8 11 9 12 27 13
REMARK SMILES IDX 10 14 11 15 26 16 28 17 12 18 25 19 24 20 13 21 22 22 14 23
REMARK SMILES IDX 16 24 21 25 23 26 15 27 17 28 20 29 18 30 19 31
REMARK H PARENT
REMARK Flexibility Score: inf
ROOT
ATOM      1  C   UNL     1       5.523  26.765  16.709  1.00  0.00     0.004 C 
ENDROOT
BRANCH   1   2
ATOM      2  C   UNL     1       4.111  26.129  16.521  1.00  0.00    -0.009 C 
BRANCH   2   3
ATOM      3  C   UNL     1       3.074  27.248  16.207  1.00  0.00     0.000 C 
ATOM      4  C   UNL     1       3.287  28.546  16.986  1.00  0.00     0.004 C 
ENDBRANCH   2   3
BRANCH   2   5
ATOM      5  C   UNL     1       4.177  24.968  15.469  1.00  0.00    -0.014 C 
ATOM      6  C   UNL     1       3.255  25.179  14.258  1.00  0.00     0.007 C 
ATOM      7  C   UNL     1       3.964  23.573  16.080  1.00  0.00     0.007 C 
ENDBRANCH   2   5
ENDBRANCH   1   2
BRANCH   1   8
ATOM      8  C   UNL     1       6.600  26.156  15.787  1.00  0.00     0.004 C 
BRANCH   8   9
ATOM      9  C   UNL     1       7.332  27.229  14.921  1.00  0.00    -0.011 C 
ATOM     10  C   UNL     1       6.442  28.466  14.728  1.00  0.00     0.008 C 
BRANCH   9  11
ATOM     11  C   UNL     1       8.791  27.612  15.353  1.00  0.00    -0.002 C 
ATOM     12  C   UNL     1       9.104  29.129  15.234  1.00  0.00     0.005 C 
ATOM     13  C   UNL     1      10.039  26.890  14.756  1.00  0.00    -0.026 C 
ATOM     14  C   UNL     1      10.607  29.245  14.942  1.00  0.00     0.005 C 
ATOM     15  C   UNL     1      11.148  27.851  15.223  1.00  0.00    -0.001 C 
ATOM     16  C   UNL     1      10.365  25.509  15.377  1.00  0.00     0.007 C 
ATOM     17  C   UNL     1       9.945  26.771  13.206  1.00  0.00     0.012 C 
ATOM     18  C   UNL     1      12.551  27.479  14.693  1.00  0.00     0.004 C 
ATOM     19  C   UNL     1      11.768  25.008  14.963  1.00  0.00     0.005 C 
ATOM     20  C   UNL     1      12.915  26.044  15.210  1.00  0.00     0.003 C 
ATOM     21  C   UNL     1      13.592  28.500  15.182  1.00  0.00     0.085 C 
ATOM     22  C   UNL     1      14.328  25.558  14.695  1.00  0.00    -0.000 C 
ATOM     23  C   UNL     1      14.986  28.072  14.855  1.00  0.00     0.159 C 
ATOM     24  C   UNL     1      15.376  26.647  14.962  1.00  0.00     0.005 C 
ATOM     25  C   UNL     1      14.731  24.254  15.456  1.00  0.00     0.020 C 
ATOM     26  C   UNL     1      14.318  25.276  13.169  1.00  0.00     0.017 C 
ATOM     27  O   UNL     1      15.843  28.951  14.564  1.00  0.00    -0.295 OA
ATOM     28  C   UNL     1      16.666  26.338  15.193  1.00  0.00     0.055 C 
ATOM     29  C   UNL     1      16.170  23.807  15.171  1.00  0.00     0.081 C 
ATOM     30  C   UNL     1      17.126  24.948  15.317  1.00  0.00     0.156 C 
ATOM     31  O   UNL     1      18.348  24.714  15.512  1.00  0.00    -0.295 OA
ENDBRANCH   9  11
ENDBRANCH   8   9
ENDBRANCH   1   8
TORSDOF 6
ENDMDL
MODEL 4
REMARK VINA RESULT:    -5.429      4.697      9.631
REMARK INTER + INTRA:          -9.020
REMARK INTER:                  -7.757
REMARK INTRA:                  -1.263
REMARK UNBOUND:                -1.686
REMARK SMILES CC[C@H](CC[C@@H](C)[C@@H]1CC[C@@H]2[C@H]3CC(=O)C4=CC(=O)CC[C@@]4(C)[C@@H]3CC[C@]21C)C(C)C
REMARK SMILES IDX 4 1 3 2 2 3 1 4 29 5 30 6 31 7 5 8 6 9 7 10 8 11 9 12 27 13
REMARK SMILES IDX 10 14 11 15 26 16 28 17 12 18 25 19 24 20 13 21 22 22 14 23
REMARK SMILES IDX 16 24 21 25 23 26 15 27 17 28 20 29 18 30 19 31
REMARK H PARENT
REMARK Flexibility Score: inf
ROOT
ATOM      1  C   UNL     1      11.700  28.572  15.087  1.00  0.00     0.004 C 
ENDROOT
BRANCH   1   2
ATOM      2  C   UNL     1      12.065  27.076  15.341  1.00  0.00    -0.009 C 
BRANCH   2   3
ATOM      3  C   UNL     1      11.211  26.167  14.407  1.00  0.00     0.000 C 
ATOM      4  C   UNL     1      10.600  24.948  15.097  1.00  0.00     0.004 C 
ENDBRANCH   2   3
BRANCH   2   5
ATOM      5  C   UNL     1      13.617  26.872  15.230  1.00  0.00    -0.014 C 
ATOM      6  C   UNL     1      14.193  25.933  16.299  1.00  0.00     0.007 C 
ATOM      7  C   UNL     1      14.406  28.191  15.179  1.00  0.00     0.007 C 
ENDBRANCH   2   5
ENDBRANCH   1   2
BRANCH   1   8
ATOM      8  C   UNL     1      10.254  28.776  14.584  1.00  0.00     0.004 C 
BRANCH   8   9
ATOM      9  C   UNL     1       9.290  29.275  15.705  1.00  0.00    -0.011 C 
ATOM     10  C   UNL     1       9.672  30.692  16.157  1.00  0.00     0.008 C 
BRANCH   9  11
ATOM     11  C   UNL     1       7.751  29.139  15.427  1.00  0.00    -0.002 C 
ATOM     12  C   UNL     1       6.924  30.384  15.849  1.00  0.00     0.005 C 
ATOM     13  C   UNL     1       6.931  27.913  15.936  1.00  0.00    -0.026 C 
ATOM     14  C   UNL     1       5.527  29.874  16.231  1.00  0.00     0.005 C 
ATOM     15  C   UNL     1       5.502  28.442  15.716  1.00  0.00    -0.001 C 
ATOM     16  C   UNL     1       7.060  26.629  15.079  1.00  0.00     0.007 C 
ATOM     17  C   UNL     1       7.243  27.595  17.428  1.00  0.00     0.012 C 
ATOM     18  C   UNL     1       4.403  27.487  16.233  1.00  0.00     0.004 C 
ATOM     19  C   UNL     1       5.994  25.574  15.459  1.00  0.00     0.005 C 
ATOM     20  C   UNL     1       4.528  26.123  15.471  1.00  0.00     0.003 C 
ATOM     21  C   UNL     1       3.012  28.101  16.000  1.00  0.00     0.085 C 
ATOM     22  C   UNL     1       3.460  25.061  15.953  1.00  0.00    -0.000 C 
ATOM     23  C   UNL     1       1.919  27.130  16.309  1.00  0.00     0.159 C 
ATOM     24  C   UNL     1       2.064  25.700  15.951  1.00  0.00     0.005 C 
ATOM     25  C   UNL     1       3.473  23.840  14.978  1.00  0.00     0.020 C 
ATOM     26  C   UNL     1       3.751  24.567  17.395  1.00  0.00     0.017 C 
ATOM     27  O   UNL     1       0.840  27.560  16.803  1.00  0.00    -0.295 OA
ATOM     28  C   UNL     1       0.958  24.965  15.728  1.00  0.00     0.055 C 
ATOM     29  C   UNL     1       2.340  22.842  15.242  1.00  0.00     0.081 C 
ATOM     30  C   UNL     1       1.024  23.543  15.365  1.00  0.00     0.156 C 
ATOM     31  O   UNL     1      -0.042  22.897  15.189  1.00  0.00    -0.295 OA
ENDBRANCH   9  11
ENDBRANCH   8   9
ENDBRANCH   1   8
TORSDOF 6
ENDMDL
MODEL 5
REMARK VINA RESULT:    -5.424      1.728      3.313
REMARK INTER + INTRA:          -9.013
REMARK INTER:                  -7.318
REMARK INTRA:                  -1.696
REMARK UNBOUND:                -1.686
REMARK SMILES CC[C@H](CC[C@@H](C)[C@@H]1CC[C@@H]2[C@H]3CC(=O)C4=CC(=O)CC[C@@]4(C)[C@@H]3CC[C@]21C)C(C)C
REMARK SMILES IDX 4 1 3 2 2 3 1 4 29 5 30 6 31 7 5 8 6 9 7 10 8 11 9 12 27 13
REMARK SMILES IDX 10 14 11 15 26 16 28 17 12 18 25 19 24 20 13 21 22 22 14 23
REMARK SMILES IDX 16 24 21 25 23 26 15 27 17 28 20 29 18 30 19 31
REMARK H PARENT
REMARK Flexibility Score: inf
ROOT
ATOM      1  C   UNL     1       5.510  28.682  15.039  1.00  0.00     0.004 C 
ENDROOT
BRANCH   1   2
ATOM      2  C   UNL     1       6.294  29.899  15.622  1.00  0.00    -0.009 C 
BRANCH   2   3
ATOM      3  C   UNL     1       5.339  31.125  15.736  1.00  0.00     0.000 C 
ATOM      4  C   UNL     1       4.402  31.088  16.943  1.00  0.00     0.004 C 
ENDBRANCH   2   3
BRANCH   2   5
ATOM      5  C   UNL     1       7.015  29.490  16.954  1.00  0.00    -0.014 C 
ATOM      6  C   UNL     1       8.519  29.799  16.961  1.00  0.00     0.007 C 
ATOM      7  C   UNL     1       6.754  28.033  17.370  1.00  0.00     0.007 C 
ENDBRANCH   2   5
ENDBRANCH   1   2
BRANCH   1   8
ATOM      8  C   UNL     1       6.193  28.042  13.811  1.00  0.00     0.004 C 
BRANCH   8   9
ATOM      9  C   UNL     1       6.609  26.558  14.057  1.00  0.00    -0.011 C 
ATOM     10  C   UNL     1       5.488  25.602  13.624  1.00  0.00     0.008 C 
BRANCH   9  11
ATOM     11  C   UNL     1       8.010  26.115  13.503  1.00  0.00    -0.002 C 
ATOM     12  C   UNL     1       8.058  24.637  13.027  1.00  0.00     0.005 C 
ATOM     13  C   UNL     1       9.319  26.321  14.326  1.00  0.00    -0.026 C 
ATOM     14  C   UNL     1       9.499  24.153  13.244  1.00  0.00     0.005 C 
ATOM     15  C   UNL     1      10.280  25.429  13.520  1.00  0.00    -0.001 C 
ATOM     16  C   UNL     1       9.909  27.752  14.283  1.00  0.00     0.007 C 
ATOM     17  C   UNL     1       9.147  25.856  15.803  1.00  0.00     0.012 C 
ATOM     18  C   UNL     1      11.689  25.316  14.144  1.00  0.00     0.004 C 
ATOM     19  C   UNL     1      11.347  27.800  14.852  1.00  0.00     0.005 C 
ATOM     20  C   UNL     1      12.319  26.749  14.218  1.00  0.00     0.003 C 
ATOM     21  C   UNL     1      12.575  24.389  13.294  1.00  0.00     0.085 C 
ATOM     22  C   UNL     1      13.758  26.744  14.874  1.00  0.00    -0.000 C 
ATOM     23  C   UNL     1      13.997  24.405  13.754  1.00  0.00     0.159 C 
ATOM     24  C   UNL     1      14.624  25.669  14.203  1.00  0.00     0.005 C 
ATOM     25  C   UNL     1      14.419  28.145  14.673  1.00  0.00     0.020 C 
ATOM     26  C   UNL     1      13.697  26.421  16.391  1.00  0.00     0.017 C 
ATOM     27  O   UNL     1      14.676  23.344  13.679  1.00  0.00    -0.295 OA
ATOM     28  C   UNL     1      15.960  25.809  14.102  1.00  0.00     0.055 C 
ATOM     29  C   UNL     1      15.892  28.186  15.100  1.00  0.00     0.081 C 
ATOM     30  C   UNL     1      16.652  27.035  14.521  1.00  0.00     0.156 C 
ATOM     31  O   UNL     1      17.905  27.104  14.425  1.00  0.00    -0.295 OA
ENDBRANCH   9  11
ENDBRANCH   8   9
ENDBRANCH   1   8
TORSDOF 6
ENDMDL
MODEL 6
REMARK VINA RESULT:    -5.358      5.555      8.678
REMARK INTER + INTRA:          -8.923
REMARK INTER:                  -7.787
REMARK INTRA:                  -1.136
REMARK UNBOUND:                -1.686
REMARK SMILES CC[C@H](CC[C@@H](C)[C@@H]1CC[C@@H]2[C@H]3CC(=O)C4=CC(=O)CC[C@@]4(C)[C@@H]3CC[C@]21C)C(C)C
REMARK SMILES IDX 4 1 3 2 2 3 1 4 29 5 30 6 31 7 5 8 6 9 7 10 8 11 9 12 27 13
REMARK SMILES IDX 10 14 11 15 26 16 28 17 12 18 25 19 24 20 13 21 22 22 14 23
REMARK SMILES IDX 16 24 21 25 23 26 15 27 17 28 20 29 18 30 19 31
REMARK H PARENT
REMARK Flexibility Score: inf
ROOT
ATOM      1  C   UNL     1       5.919  19.716  14.802  1.00  0.00     0.004 C 
ENDROOT
BRANCH   1   2
ATOM      2  C   UNL     1       6.509  18.293  14.558  1.00  0.00    -0.009 C 
BRANCH   2   3
ATOM      3  C   UNL     1       8.054  18.329  14.756  1.00  0.00     0.000 C 
ATOM      4  C   UNL     1       8.515  19.088  16.000  1.00  0.00     0.004 C 
ENDBRANCH   2   3
BRANCH   2   5
ATOM      5  C   UNL     1       5.750  17.235  15.434  1.00  0.00    -0.014 C 
ATOM      6  C   UNL     1       6.191  15.787  15.174  1.00  0.00     0.007 C 
ATOM      7  C   UNL     1       4.220  17.362  15.359  1.00  0.00     0.007 C 
ENDBRANCH   2   5
ENDBRANCH   1   2
BRANCH   1   8
ATOM      8  C   UNL     1       5.529  20.452  13.502  1.00  0.00     0.004 C 
BRANCH   8   9
ATOM      9  C   UNL     1       4.539  21.632  13.750  1.00  0.00    -0.011 C 
ATOM     10  C   UNL     1       3.120  21.104  14.009  1.00  0.00     0.008 C 
BRANCH   9  11
ATOM     11  C   UNL     1       4.971  22.708  14.808  1.00  0.00    -0.002 C 
ATOM     12  C   UNL     1       3.886  23.007  15.878  1.00  0.00     0.005 C 
ATOM     13  C   UNL     1       5.518  24.105  14.380  1.00  0.00    -0.026 C 
ATOM     14  C   UNL     1       4.085  24.468  16.309  1.00  0.00     0.005 C 
ATOM     15  C   UNL     1       5.441  24.842  15.730  1.00  0.00    -0.001 C 
ATOM     16  C   UNL     1       7.006  24.130  13.951  1.00  0.00     0.007 C 
ATOM     17  C   UNL     1       4.631  24.754  13.277  1.00  0.00     0.012 C 
ATOM     18  C   UNL     1       5.822  26.337  15.639  1.00  0.00     0.004 C 
ATOM     19  C   UNL     1       7.550  25.574  13.846  1.00  0.00     0.005 C 
ATOM     20  C   UNL     1       7.297  26.446  15.120  1.00  0.00     0.003 C 
ATOM     21  C   UNL     1       5.693  27.003  17.020  1.00  0.00     0.085 C 
ATOM     22  C   UNL     1       7.773  27.946  14.964  1.00  0.00    -0.000 C 
ATOM     23  C   UNL     1       6.235  28.396  17.017  1.00  0.00     0.159 C 
ATOM     24  C   UNL     1       7.461  28.721  16.252  1.00  0.00     0.005 C 
ATOM     25  C   UNL     1       9.314  27.971  14.703  1.00  0.00     0.020 C 
ATOM     26  C   UNL     1       7.045  28.661  13.795  1.00  0.00     0.017 C 
ATOM     27  O   UNL     1       5.679  29.270  17.737  1.00  0.00    -0.295 OA
ATOM     28  C   UNL     1       8.225  29.756  16.649  1.00  0.00     0.055 C 
ATOM     29  C   UNL     1       9.909  29.384  14.731  1.00  0.00     0.081 C 
ATOM     30  C   UNL     1       9.457  30.134  15.944  1.00  0.00     0.156 C 
ATOM     31  O   UNL     1      10.123  31.125  16.345  1.00  0.00    -0.295 OA
ENDBRANCH   9  11
ENDBRANCH   8   9
ENDBRANCH   1   8
TORSDOF 6
ENDMDL
MODEL 7
REMARK VINA RESULT:    -5.345      1.712      2.578
REMARK INTER + INTRA:          -8.906
REMARK INTER:                  -7.180
REMARK INTRA:                  -1.726
REMARK UNBOUND:                -1.686
REMARK SMILES CC[C@H](CC[C@@H](C)[C@@H]1CC[C@@H]2[C@H]3CC(=O)C4=CC(=O)CC[C@@]4(C)[C@@H]3CC[C@]21C)C(C)C
REMARK SMILES IDX 4 1 3 2 2 3 1 4 29 5 30 6 31 7 5 8 6 9 7 10 8 11 9 12 27 13
REMARK SMILES IDX 10 14 11 15 26 16 28 17 12 18 25 19 24 20 13 21 22 22 14 23
REMARK SMILES IDX 16 24 21 25 23 26 15 27 17 28 20 29 18 30 19 31
REMARK H PARENT
REMARK Flexibility Score: inf
ROOT
ATOM      1  C   UNL     1       5.472  27.121  16.951  1.00  0.00     0.004 C 
ENDROOT
BRANCH   1   2
ATOM      2  C   UNL     1       4.433  26.583  15.918  1.00  0.00    -0.009 C 
BRANCH   2   3
ATOM      3  C   UNL     1       5.172  25.768  14.814  1.00  0.00     0.000 C 
ATOM      4  C   UNL     1       5.099  26.383  13.417  1.00  0.00     0.004 C 
ENDBRANCH   2   3
BRANCH   2   5
ATOM      5  C   UNL     1       3.284  25.812  16.657  1.00  0.00    -0.014 C 
ATOM      6  C   UNL     1       3.650  24.367  17.028  1.00  0.00     0.007 C 
ATOM      7  C   UNL     1       1.938  25.862  15.917  1.00  0.00     0.007 C 
ENDBRANCH   2   5
ENDBRANCH   1   2
BRANCH   1   8
ATOM      8  C   UNL     1       5.585  28.660  16.964  1.00  0.00     0.004 C 
BRANCH   8   9
ATOM      9  C   UNL     1       6.500  29.207  15.824  1.00  0.00    -0.011 C 
ATOM     10  C   UNL     1       6.129  30.658  15.481  1.00  0.00     0.008 C 
BRANCH   9  11
ATOM     11  C   UNL     1       8.048  29.022  16.008  1.00  0.00    -0.002 C 
ATOM     12  C   UNL     1       8.860  30.338  15.864  1.00  0.00     0.005 C 
ATOM     13  C   UNL     1       8.848  27.957  15.195  1.00  0.00    -0.026 C 
ATOM     14  C   UNL     1      10.243  29.943  15.324  1.00  0.00     0.005 C 
ATOM     15  C   UNL     1      10.285  28.431  15.483  1.00  0.00    -0.001 C 
ATOM     16  C   UNL     1       8.750  26.506  15.727  1.00  0.00     0.007 C 
ATOM     17  C   UNL     1       8.483  27.999  13.682  1.00  0.00     0.012 C 
ATOM     18  C   UNL     1      11.364  27.633  14.717  1.00  0.00     0.004 C 
ATOM     19  C   UNL     1       9.800  25.580  15.071  1.00  0.00     0.005 C 
ATOM     20  C   UNL     1      11.265  26.127  15.138  1.00  0.00     0.003 C 
ATOM     21  C   UNL     1      12.762  28.186  15.040  1.00  0.00     0.085 C 
ATOM     22  C   UNL     1      12.315  25.218  14.382  1.00  0.00    -0.000 C 
ATOM     23  C   UNL     1      13.844  27.324  14.472  1.00  0.00     0.159 C 
ATOM     24  C   UNL     1      13.710  25.849  14.486  1.00  0.00     0.005 C 
ATOM     25  C   UNL     1      12.336  23.801  15.040  1.00  0.00     0.020 C 
ATOM     26  C   UNL     1      11.972  25.077  12.875  1.00  0.00     0.017 C 
ATOM     27  O   UNL     1      14.904  27.867  14.056  1.00  0.00    -0.295 OA
ATOM     28  C   UNL     1      14.823  25.091  14.489  1.00  0.00     0.055 C 
ATOM     29  C   UNL     1      13.458  22.903  14.507  1.00  0.00     0.081 C 
ATOM     30  C   UNL     1      14.769  23.623  14.508  1.00  0.00     0.156 C 
ATOM     31  O   UNL     1      15.841  22.962  14.488  1.00  0.00    -0.295 OA
ENDBRANCH   9  11
ENDBRANCH   8   9
ENDBRANCH   1   8
TORSDOF 6
ENDMDL
MODEL 8
REMARK VINA RESULT:    -5.321      1.494      3.105
REMARK INTER + INTRA:          -8.873
REMARK INTER:                  -7.865
REMARK INTRA:                  -1.008
REMARK UNBOUND:                -1.686
REMARK SMILES CC[C@H](CC[C@@H](C)[C@@H]1CC[C@@H]2[C@H]3CC(=O)C4=CC(=O)CC[C@@]4(C)[C@@H]3CC[C@]21C)C(C)C
REMARK SMILES IDX 4 1 3 2 2 3 1 4 29 5 30 6 31 7 5 8 6 9 7 10 8 11 9 12 27 13
REMARK SMILES IDX 10 14 11 15 26 16 28 17 12 18 25 19 24 20 13 21 22 22 14 23
REMARK SMILES IDX 16 24 21 25 23 26 15 27 17 28 20 29 18 30 19 31
REMARK H PARENT
REMARK Flexibility Score: inf
ROOT
ATOM      1  C   UNL     1       5.487  30.406  14.964  1.00  0.00     0.004 C 
ENDROOT
BRANCH   1   2
ATOM      2  C   UNL     1       4.690  30.044  16.255  1.00  0.00    -0.009 C 
BRANCH   2   3
ATOM      3  C   UNL     1       3.687  28.894  15.942  1.00  0.00     0.000 C 
ATOM      4  C   UNL     1       2.596  28.700  16.995  1.00  0.00     0.004 C 
ENDBRANCH   2   3
BRANCH   2   5
ATOM      5  C   UNL     1       5.679  29.760  17.440  1.00  0.00    -0.014 C 
ATOM      6  C   UNL     1       6.752  30.844  17.621  1.00  0.00     0.007 C 
ATOM      7  C   UNL     1       6.317  28.363  17.383  1.00  0.00     0.007 C 
ENDBRANCH   2   5
ENDBRANCH   1   2
BRANCH   1   8
ATOM      8  C   UNL     1       5.689  29.210  14.009  1.00  0.00     0.004 C 
BRANCH   8   9
ATOM      9  C   UNL     1       7.089  29.215  13.322  1.00  0.00    -0.011 C 
ATOM     10  C   UNL     1       7.878  30.475  13.709  1.00  0.00     0.008 C 
BRANCH   9  11
ATOM     11  C   UNL     1       7.952  27.911  13.464  1.00  0.00    -0.002 C 
ATOM     12  C   UNL     1       7.204  26.733  14.144  1.00  0.00     0.005 C 
ATOM     13  C   UNL     1       9.366  27.932  14.125  1.00  0.00    -0.026 C 
ATOM     14  C   UNL     1       8.268  25.895  14.868  1.00  0.00     0.005 C 
ATOM     15  C   UNL     1       9.587  26.421  14.321  1.00  0.00    -0.001 C 
ATOM     16  C   UNL     1      10.515  28.430  13.214  1.00  0.00     0.007 C 
ATOM     17  C   UNL     1       9.360  28.728  15.464  1.00  0.00     0.012 C 
ATOM     18  C   UNL     1      10.892  26.081  15.077  1.00  0.00     0.004 C 
ATOM     19  C   UNL     1      11.904  28.129  13.825  1.00  0.00     0.005 C 
ATOM     20  C   UNL     1      12.104  26.637  14.254  1.00  0.00     0.003 C 
ATOM     21  C   UNL     1      11.022  24.559  15.253  1.00  0.00     0.085 C 
ATOM     22  C   UNL     1      13.491  26.364  14.963  1.00  0.00    -0.000 C 
ATOM     23  C   UNL     1      12.357  24.176  15.805  1.00  0.00     0.159 C 
ATOM     24  C   UNL     1      13.581  24.885  15.364  1.00  0.00     0.005 C 
ATOM     25  C   UNL     1      14.650  26.704  13.972  1.00  0.00     0.020 C 
ATOM     26  C   UNL     1      13.655  27.213  16.251  1.00  0.00     0.017 C 
ATOM     27  O   UNL     1      12.436  23.191  16.590  1.00  0.00    -0.295 OA
ATOM     28  C   UNL     1      14.764  24.244  15.418  1.00  0.00     0.055 C 
ATOM     29  C   UNL     1      16.032  26.290  14.492  1.00  0.00     0.081 C 
ATOM     30  C   UNL     1      16.018  24.881  14.993  1.00  0.00     0.156 C 
ATOM     31  O   UNL     1      17.100  24.244  15.086  1.00  0.00    -0.295 OA
ENDBRANCH   9  11
ENDBRANCH   8   9
ENDBRANCH   1   8
TORSDOF 6
ENDMDL
