MODEL 1
REMARK VINA RESULT:    -5.437      0.000      0.000
REMARK INTER + INTRA:          -5.596
REMARK INTER:                  -5.596
REMARK INTRA:                   0.000
REMARK UNBOUND:                 0.000
REMARK SMILES Nc1ncnc2nc[nH]c12
REMARK SMILES IDX 8 1 7 2 6 3 5 4 4 5 3 6 2 7 10 8 9 9 1 11
REMARK H PARENT 9 10 1 12 1 13
REMARK Flexibility Score: inf
ROOT
ATOM      1  C   UNL     1       7.305 -63.892 187.771  1.00  0.00     0.199 A 
ATOM      2  N   UNL     1       6.216 -63.076 187.740  1.00  0.00    -0.217 NA
ATOM      3  C   UNL     1       6.332 -62.403 188.898  1.00  0.00     0.182 A 
ATOM      4  N   UNL     1       5.491 -61.449 189.365  1.00  0.00    -0.215 NA
ATOM      5  C   UNL     1       5.776 -60.873 190.572  1.00  0.00     0.226 A 
ATOM      6  N   UNL     1       6.885 -61.255 191.281  1.00  0.00    -0.217 NA
ATOM      7  C   UNL     1       7.735 -62.217 190.812  1.00  0.00     0.152 A 
ATOM      8  C   UNL     1       7.431 -62.795 189.582  1.00  0.00     0.127 A 
ATOM      9  N   UNL     1       8.068 -63.743 188.884  1.00  0.00    -0.340 N 
ATOM     10  H   UNL     1       8.945 -64.254 189.128  1.00  0.00     0.168 HD
ENDROOT
BRANCH   7  11
ATOM     11  N   UNL     1       8.884 -62.599 191.569  1.00  0.00    -0.382 N 
ATOM     12  H   UNL     1       8.819 -62.801 192.591  1.00  0.00     0.158 HD
ATOM     13  H   UNL     1       9.813 -62.683 191.101  1.00  0.00     0.158 HD
ENDBRANCH   7  11
TORSDOF 1
ENDMDL
MODEL 2
REMARK VINA RESULT:    -5.371      1.100      2.996
REMARK INTER + INTRA:          -5.528
REMARK INTER:                  -5.528
REMARK INTRA:                   0.000
REMARK UNBOUND:                 0.000
REMARK SMILES Nc1ncnc2nc[nH]c12
REMARK SMILES IDX 8 1 7 2 6 3 5 4 4 5 3 6 2 7 10 8 9 9 1 11
REMARK H PARENT 9 10 1 12 1 13
REMARK Flexibility Score: inf
ROOT
ATOM      1  C   UNL     1       8.720 -62.257 190.956  1.00  0.00     0.199 A 
ATOM      2  N   UNL     1       7.513 -61.637 191.058  1.00  0.00    -0.217 NA
ATOM      3  C   UNL     1       6.849 -62.131 189.999  1.00  0.00     0.182 A 
ATOM      4  N   UNL     1       5.579 -61.834 189.633  1.00  0.00    -0.215 NA
ATOM      5  C   UNL     1       5.071 -62.441 188.517  1.00  0.00     0.226 A 
ATOM      6  N   UNL     1       5.834 -63.324 187.797  1.00  0.00    -0.217 NA
ATOM      7  C   UNL     1       7.115 -63.625 188.166  1.00  0.00     0.152 A 
ATOM      8  C   UNL     1       7.617 -62.999 189.303  1.00  0.00     0.127 A 
ATOM      9  N   UNL     1       8.815 -63.096 189.893  1.00  0.00    -0.340 N 
ATOM     10  H   UNL     1       9.636 -63.677 189.612  1.00  0.00     0.168 HD
ENDROOT
BRANCH   7  11
ATOM     11  N   UNL     1       7.890 -64.548 187.400  1.00  0.00    -0.382 N 
ATOM     12  H   UNL     1       8.484 -64.229 186.603  1.00  0.00     0.158 HD
ATOM     13  H   UNL     1       7.871 -65.565 187.633  1.00  0.00     0.158 HD
ENDBRANCH   7  11
TORSDOF 1
ENDMDL
MODEL 3
REMARK VINA RESULT:    -5.338      1.037      2.973
REMARK INTER + INTRA:          -5.494
REMARK INTER:                  -5.494
REMARK INTRA:                   0.000
REMARK UNBOUND:                 0.000
REMARK SMILES Nc1ncnc2nc[nH]c12
REMARK SMILES IDX 8 1 7 2 6 3 5 4 4 5 3 6 2 7 10 8 9 9 1 11
REMARK H PARENT 9 10 1 12 1 13
REMARK Flexibility Score: inf
ROOT
ATOM      1  C   UNL     1       5.967 -60.355 191.520  1.00  0.00     0.199 A 
ATOM      2  N   UNL     1       5.109 -60.685 190.516  1.00  0.00    -0.217 NA
ATOM      3  C   UNL     1       5.816 -61.593 189.823  1.00  0.00     0.182 A 
ATOM      4  N   UNL     1       5.415 -62.249 188.707  1.00  0.00    -0.215 NA
ATOM      5  C   UNL     1       6.280 -63.143 188.139  1.00  0.00     0.226 A 
ATOM      6  N   UNL     1       7.516 -63.363 188.691  1.00  0.00    -0.217 NA
ATOM      7  C   UNL     1       7.922 -62.703 189.817  1.00  0.00     0.152 A 
ATOM      8  C   UNL     1       7.030 -61.796 190.383  1.00  0.00     0.127 A 
ATOM      9  N   UNL     1       7.150 -61.018 191.466  1.00  0.00    -0.340 N 
ATOM     10  H   UNL     1       7.958 -60.933 192.122  1.00  0.00     0.168 HD
ENDROOT
BRANCH   7  11
ATOM     11  N   UNL     1       9.214 -62.949 190.374  1.00  0.00    -0.382 N 
ATOM     12  H   UNL     1      10.040 -62.369 190.107  1.00  0.00     0.158 HD
ATOM     13  H   UNL     1       9.347 -63.722 191.062  1.00  0.00     0.158 HD
ENDBRANCH   7  11
TORSDOF 1
ENDMDL
MODEL 4
REMARK VINA RESULT:    -4.820      1.026      2.866
REMARK INTER + INTRA:          -4.961
REMARK INTER:                  -4.961
REMARK INTRA:                   0.000
REMARK UNBOUND:                 0.000
REMARK SMILES Nc1ncnc2nc[nH]c12
REMARK SMILES IDX 8 1 7 2 6 3 5 4 4 5 3 6 2 7 10 8 9 9 1 11
REMARK H PARENT 9 10 1 12 1 13
REMARK Flexibility Score: inf
ROOT
ATOM      1  C   UNL     1       4.355 -60.833 189.998  1.00  0.00     0.199 A 
ATOM      2  N   UNL     1       4.283 -61.635 188.901  1.00  0.00    -0.217 NA
ATOM      3  C   UNL     1       5.496 -62.214 188.891  1.00  0.00     0.182 A 
ATOM      4  N   UNL     1       5.953 -63.116 187.990  1.00  0.00    -0.215 NA
ATOM      5  C   UNL     1       7.224 -63.597 188.146  1.00  0.00     0.226 A 
ATOM      6  N   UNL     1       8.006 -63.172 189.190  1.00  0.00    -0.217 NA
ATOM      7  C   UNL     1       7.546 -62.262 190.100  1.00  0.00     0.152 A 
ATOM      8  C   UNL     1       6.251 -61.782 189.927  1.00  0.00     0.127 A 
ATOM      9  N   UNL     1       5.545 -60.901 190.647  1.00  0.00    -0.340 N 
ATOM     10  H   UNL     1       5.832 -60.382 191.506  1.00  0.00     0.168 HD
ENDROOT
BRANCH   7  11
ATOM     11  N   UNL     1       8.379 -61.834 191.179  1.00  0.00    -0.382 N 
ATOM     12  H   UNL     1       9.095 -62.467 191.596  1.00  0.00     0.158 HD
ATOM     13  H   UNL     1       8.278 -60.870 191.565  1.00  0.00     0.158 HD
ENDBRANCH   7  11
TORSDOF 1
ENDMDL
MODEL 5
REMARK VINA RESULT:    -4.743      1.574      3.063
REMARK INTER + INTRA:          -4.881
REMARK INTER:                  -4.881
REMARK INTRA:                   0.000
REMARK UNBOUND:                 0.000
REMARK SMILES Nc1ncnc2nc[nH]c12
REMARK SMILES IDX 8 1 7 2 6 3 5 4 4 5 3 6 2 7 10 8 9 9 1 11
REMARK H PARENT 9 10 1 12 1 13
REMARK Flexibility Score: inf
ROOT
ATOM      1  C   UNL     1       3.602 -63.116 187.885  1.00  0.00     0.199 A 
ATOM      2  N   UNL     1       3.980 -62.146 188.763  1.00  0.00    -0.217 NA
ATOM      3  C   UNL     1       5.301 -62.364 188.876  1.00  0.00     0.182 A 
ATOM      4  N   UNL     1       6.172 -61.663 189.641  1.00  0.00    -0.215 NA
ATOM      5  C   UNL     1       7.488 -62.035 189.626  1.00  0.00     0.226 A 
ATOM      6  N   UNL     1       7.905 -63.089 188.854  1.00  0.00    -0.217 NA
ATOM      7  C   UNL     1       7.028 -63.797 188.080  1.00  0.00     0.152 A 
ATOM      8  C   UNL     1       5.692 -63.406 188.107  1.00  0.00     0.127 A 
ATOM      9  N   UNL     1       4.627 -63.902 187.466  1.00  0.00    -0.340 N 
ATOM     10  H   UNL     1       4.582 -64.704 186.799  1.00  0.00     0.168 HD
ENDROOT
BRANCH   7  11
ATOM     11  N   UNL     1       7.485 -64.891 187.284  1.00  0.00    -0.382 N 
ATOM     12  H   UNL     1       6.960 -65.204 186.439  1.00  0.00     0.158 HD
ATOM     13  H   UNL     1       8.361 -65.394 187.543  1.00  0.00     0.158 HD
ENDBRANCH   7  11
TORSDOF 1
ENDMDL
MODEL 6
REMARK VINA RESULT:    -4.643      1.069      3.879
REMARK INTER + INTRA:          -4.779
REMARK INTER:                  -4.779
REMARK INTRA:                   0.000
REMARK UNBOUND:                 0.000
REMARK SMILES Nc1ncnc2nc[nH]c12
REMARK SMILES IDX 8 1 7 2 6 3 5 4 4 5 3 6 2 7 10 8 9 9 1 11
REMARK H PARENT 9 10 1 12 1 13
REMARK Flexibility Score: inf
ROOT
ATOM      1  C   UNL     1       6.356 -60.859 191.419  1.00  0.00     0.199 A 
ATOM      2  N   UNL     1       7.490 -61.549 191.123  1.00  0.00    -0.217 NA
ATOM      3  C   UNL     1       7.141 -62.205 190.003  1.00  0.00     0.182 A 
ATOM      4  N   UNL     1       7.920 -63.048 189.285  1.00  0.00    -0.215 NA
ATOM      5  C   UNL     1       7.386 -63.625 188.166  1.00  0.00     0.226 A 
ATOM      6  N   UNL     1       6.096 -63.350 187.789  1.00  0.00    -0.217 NA
ATOM      7  C   UNL     1       5.308 -62.499 188.513  1.00  0.00     0.152 A 
ATOM      8  C   UNL     1       5.867 -61.921 189.650  1.00  0.00     0.127 A 
ATOM      9  N   UNL     1       5.345 -61.064 190.537  1.00  0.00    -0.340 N 
ATOM     10  H   UNL     1       4.388 -60.647 190.556  1.00  0.00     0.168 HD
ENDROOT
BRANCH   7  11
ATOM     11  N   UNL     1       3.968 -62.228 188.102  1.00  0.00    -0.382 N 
ATOM     12  H   UNL     1       3.187 -62.881 188.331  1.00  0.00     0.158 HD
ATOM     13  H   UNL     1       3.753 -61.362 187.560  1.00  0.00     0.158 HD
ENDBRANCH   7  11
TORSDOF 1
ENDMDL
MODEL 7
REMARK VINA RESULT:    -4.607      1.166      3.052
REMARK INTER + INTRA:          -4.741
REMARK INTER:                  -4.741
REMARK INTRA:                   0.000
REMARK UNBOUND:                 0.000
REMARK SMILES Nc1ncnc2nc[nH]c12
REMARK SMILES IDX 8 1 7 2 6 3 5 4 4 5 3 6 2 7 10 8 9 9 1 11
REMARK H PARENT 9 10 1 12 1 13
REMARK Flexibility Score: inf
ROOT
ATOM      1  C   UNL     1       8.688 -62.234 190.767  1.00  0.00     0.199 A 
ATOM      2  N   UNL     1       8.539 -63.050 189.688  1.00  0.00    -0.217 NA
ATOM      3  C   UNL     1       7.273 -62.798 189.313  1.00  0.00     0.182 A 
ATOM      4  N   UNL     1       6.613 -63.358 188.270  1.00  0.00    -0.215 NA
ATOM      5  C   UNL     1       5.321 -62.973 188.044  1.00  0.00     0.226 A 
ATOM      6  N   UNL     1       4.718 -62.045 188.854  1.00  0.00    -0.217 NA
ATOM      7  C   UNL     1       5.382 -61.479 189.906  1.00  0.00     0.152 A 
ATOM      8  C   UNL     1       6.698 -61.882 190.124  1.00  0.00     0.127 A 
ATOM      9  N   UNL     1       7.579 -61.507 191.059  1.00  0.00    -0.340 N 
ATOM     10  H   UNL     1       7.455 -60.819 191.834  1.00  0.00     0.168 HD
ENDROOT
BRANCH   7  11
ATOM     11  N   UNL     1       4.735 -60.515 190.737  1.00  0.00    -0.382 N 
ATOM     12  H   UNL     1       4.758 -59.497 190.507  1.00  0.00     0.158 HD
ATOM     13  H   UNL     1       4.224 -60.822 191.593  1.00  0.00     0.158 HD
ENDBRANCH   7  11
TORSDOF 1
ENDMDL
MODEL 8
REMARK VINA RESULT:    -4.547      1.135      2.741
REMARK INTER + INTRA:          -4.680
REMARK INTER:                  -4.680
REMARK INTRA:                   0.000
REMARK UNBOUND:                 0.000
REMARK SMILES Nc1ncnc2nc[nH]c12
REMARK SMILES IDX 8 1 7 2 6 3 5 4 4 5 3 6 2 7 10 8 9 9 1 11
REMARK H PARENT 9 10 1 12 1 13
REMARK Flexibility Score: inf
ROOT
ATOM      1  C   UNL     1       7.159 -63.300 188.137  1.00  0.00     0.199 A 
ATOM      2  N   UNL     1       7.850 -63.026 189.277  1.00  0.00    -0.217 NA
ATOM      3  C   UNL     1       7.045 -62.144 189.893  1.00  0.00     0.182 A 
ATOM      4  N   UNL     1       7.268 -61.545 191.088  1.00  0.00    -0.215 NA
ATOM      5  C   UNL     1       6.327 -60.670 191.556  1.00  0.00     0.226 A 
ATOM      6  N   UNL     1       5.192 -60.413 190.830  1.00  0.00    -0.217 NA
ATOM      7  C   UNL     1       4.965 -61.017 189.625  1.00  0.00     0.152 A 
ATOM      8  C   UNL     1       5.933 -61.905 189.162  1.00  0.00     0.127 A 
ATOM      9  N   UNL     1       5.982 -62.630 188.038  1.00  0.00    -0.340 N 
ATOM     10  H   UNL     1       5.286 -62.677 187.261  1.00  0.00     0.168 HD
ENDROOT
BRANCH   7  11
ATOM     11  N   UNL     1       3.776 -60.734 188.886  1.00  0.00    -0.382 N 
ATOM     12  H   UNL     1       2.832 -60.819 189.323  1.00  0.00     0.158 HD
ATOM     13  H   UNL     1       3.840 -60.435 187.889  1.00  0.00     0.158 HD
ENDBRANCH   7  11
TORSDOF 1
ENDMDL
MODEL 9
REMARK VINA RESULT:    -4.511      2.280      3.844
REMARK INTER + INTRA:          -4.643
REMARK INTER:                  -4.643
REMARK INTRA:                   0.000
REMARK UNBOUND:                 0.000
REMARK SMILES Nc1ncnc2nc[nH]c12
REMARK SMILES IDX 8 1 7 2 6 3 5 4 4 5 3 6 2 7 10 8 9 9 1 11
REMARK H PARENT 9 10 1 12 1 13
REMARK Flexibility Score: inf
ROOT
ATOM      1  C   UNL     1       7.136 -62.776 188.816  1.00  0.00     0.199 A 
ATOM      2  N   UNL     1       6.278 -61.825 189.275  1.00  0.00    -0.217 NA
ATOM      3  C   UNL     1       5.095 -62.261 188.811  1.00  0.00     0.182 A 
ATOM      4  N   UNL     1       3.889 -61.669 188.990  1.00  0.00    -0.215 NA
ATOM      5  C   UNL     1       2.789 -62.266 188.440  1.00  0.00     0.226 A 
ATOM      6  N   UNL     1       2.912 -63.433 187.729  1.00  0.00    -0.217 NA
ATOM      7  C   UNL     1       4.127 -64.032 187.548  1.00  0.00     0.152 A 
ATOM      8  C   UNL     1       5.238 -63.411 188.115  1.00  0.00     0.127 A 
ATOM      9  N   UNL     1       6.530 -63.760 188.103  1.00  0.00    -0.340 N 
ATOM     10  H   UNL     1       6.978 -64.590 187.655  1.00  0.00     0.168 HD
ENDROOT
BRANCH   7  11
ATOM     11  N   UNL     1       4.231 -65.247 186.805  1.00  0.00    -0.382 N 
ATOM     12  H   UNL     1       3.642 -66.077 187.035  1.00  0.00     0.158 HD
ATOM     13  H   UNL     1       4.907 -65.318 186.013  1.00  0.00     0.158 HD
ENDBRANCH   7  11
TORSDOF 1
ENDMDL
