MODEL 1
REMARK VINA RESULT:    -3.914      0.000      0.000
REMARK INTER + INTRA:          -5.258
REMARK INTER:                  -5.058
REMARK INTRA:                  -0.200
REMARK UNBOUND:                -0.200
REMARK SMILES CCCCCCC(=O)[O-]
REMARK SMILES IDX 5 1 6 2 7 3 8 4 9 5 4 6 3 7 2 8 1 9
REMARK H PARENT
REMARK Flexibility Score: inf
ROOT
ATOM      1  C   UNL     1      -7.800  14.918 -13.622  1.00  0.00     0.006 C 
ENDROOT
BRANCH   1   2
ATOM      2  C   UNL     1      -8.306  15.542 -12.315  1.00  0.00     0.053 C 
BRANCH   2   3
ATOM      3  C   UNL     1      -9.246  16.679 -12.568  1.00  0.00     0.041 C 
ATOM      4  O   UNL     1     -10.401  16.458 -13.019  1.00  0.00    -0.550 OA
ATOM      5  O   UNL     1      -8.859  17.981 -12.274  1.00  0.00    -0.550 OA
ENDBRANCH   2   3
ENDBRANCH   1   2
BRANCH   1   6
ATOM      6  C   UNL     1      -7.340  13.465 -13.435  1.00  0.00     0.000 C 
BRANCH   6   7
ATOM      7  C   UNL     1      -8.160  12.511 -14.318  1.00  0.00    -0.000 C 
BRANCH   7   8
ATOM      8  C   UNL     1      -9.202  13.248 -15.173  1.00  0.00    -0.003 C 
ATOM      9  C   UNL     1     -10.213  12.303 -15.821  1.00  0.00     0.004 C 
ENDBRANCH   7   8
ENDBRANCH   6   7
ENDBRANCH   1   6
TORSDOF 5
ENDMDL
MODEL 2
REMARK VINA RESULT:    -3.490      1.568      2.114
REMARK INTER + INTRA:          -4.710
REMARK INTER:                  -4.275
REMARK INTRA:                  -0.435
REMARK UNBOUND:                -0.200
REMARK SMILES CCCCCCC(=O)[O-]
REMARK SMILES IDX 5 1 6 2 7 3 8 4 9 5 4 6 3 7 2 8 1 9
REMARK H PARENT
REMARK Flexibility Score: inf
ROOT
ATOM      1  C   UNL     1      -8.366  16.505 -15.368  1.00  0.00     0.006 C 
ENDROOT
BRANCH   1   2
ATOM      2  C   UNL     1      -8.024  17.132 -14.011  1.00  0.00     0.053 C 
BRANCH   2   3
ATOM      3  C   UNL     1      -8.625  16.364 -12.875  1.00  0.00     0.041 C 
ATOM      4  O   UNL     1      -9.870  16.179 -12.824  1.00  0.00    -0.550 OA
ATOM      5  O   UNL     1      -7.808  15.821 -11.891  1.00  0.00    -0.550 OA
ENDBRANCH   2   3
ENDBRANCH   1   2
BRANCH   1   6
ATOM      6  C   UNL     1      -7.783  15.092 -15.520  1.00  0.00     0.000 C 
BRANCH   6   7
ATOM      7  C   UNL     1      -8.860  14.103 -15.993  1.00  0.00    -0.000 C 
BRANCH   7   8
ATOM      8  C   UNL     1      -9.086  12.956 -14.996  1.00  0.00    -0.003 C 
ATOM      9  C   UNL     1      -7.969  12.842 -13.959  1.00  0.00     0.004 C 
ENDBRANCH   7   8
ENDBRANCH   6   7
ENDBRANCH   1   6
TORSDOF 5
ENDMDL
MODEL 3
REMARK VINA RESULT:    -3.452      1.274      2.435
REMARK INTER + INTRA:          -4.661
REMARK INTER:                  -4.364
REMARK INTRA:                  -0.297
REMARK UNBOUND:                -0.200
REMARK SMILES CCCCCCC(=O)[O-]
REMARK SMILES IDX 5 1 6 2 7 3 8 4 9 5 4 6 3 7 2 8 1 9
REMARK H PARENT
REMARK Flexibility Score: inf
ROOT
ATOM      1  C   UNL     1      -7.734  15.816 -14.746  1.00  0.00     0.006 C 
ENDROOT
BRANCH   1   2
ATOM      2  C   UNL     1      -8.594  17.076 -14.582  1.00  0.00     0.053 C 
BRANCH   2   3
ATOM      3  C   UNL     1      -9.178  17.176 -13.206  1.00  0.00     0.041 C 
ATOM      4  O   UNL     1      -8.712  18.004 -12.379  1.00  0.00    -0.550 OA
ATOM      5  O   UNL     1     -10.259  16.379 -12.848  1.00  0.00    -0.550 OA
ENDBRANCH   2   3
ENDBRANCH   1   2
BRANCH   1   6
ATOM      6  C   UNL     1      -8.492  14.681 -15.450  1.00  0.00     0.000 C 
BRANCH   6   7
ATOM      7  C   UNL     1      -8.689  13.485 -14.506  1.00  0.00    -0.000 C 
BRANCH   7   8
ATOM      8  C   UNL     1      -7.639  13.438 -13.385  1.00  0.00    -0.003 C 
ATOM      9  C   UNL     1      -6.426  12.580 -13.744  1.00  0.00     0.004 C 
ENDBRANCH   7   8
ENDBRANCH   6   7
ENDBRANCH   1   6
TORSDOF 5
ENDMDL
MODEL 4
REMARK VINA RESULT:    -3.386      1.452      2.365
REMARK INTER + INTRA:          -4.575
REMARK INTER:                  -4.272
REMARK INTRA:                  -0.303
REMARK UNBOUND:                -0.200
REMARK SMILES CCCCCCC(=O)[O-]
REMARK SMILES IDX 5 1 6 2 7 3 8 4 9 5 4 6 3 7 2 8 1 9
REMARK H PARENT
REMARK Flexibility Score: inf
ROOT
ATOM      1  C   UNL     1      -9.389  16.308 -12.872  1.00  0.00     0.006 C 
ENDROOT
BRANCH   1   2
ATOM      2  C   UNL     1      -8.887  17.087 -14.095  1.00  0.00     0.053 C 
BRANCH   2   3
ATOM      3  C   UNL     1      -8.103  18.299 -13.700  1.00  0.00     0.041 C 
ATOM      4  O   UNL     1      -8.686  19.295 -13.194  1.00  0.00    -0.550 OA
ATOM      5  O   UNL     1      -6.722  18.318 -13.857  1.00  0.00    -0.550 OA
ENDBRANCH   2   3
ENDBRANCH   1   2
BRANCH   1   6
ATOM      6  C   UNL     1      -8.402  15.217 -12.432  1.00  0.00     0.000 C 
BRANCH   6   7
ATOM      7  C   UNL     1      -7.684  14.605 -13.644  1.00  0.00    -0.000 C 
BRANCH   7   8
ATOM      8  C   UNL     1      -8.011  13.116 -13.835  1.00  0.00    -0.003 C 
ATOM      9  C   UNL     1      -9.017  12.869 -14.959  1.00  0.00     0.004 C 
ENDBRANCH   7   8
ENDBRANCH   6   7
ENDBRANCH   1   6
TORSDOF 5
ENDMDL
MODEL 5
REMARK VINA RESULT:    -3.340      2.834      4.938
REMARK INTER + INTRA:          -4.516
REMARK INTER:                  -4.300
REMARK INTRA:                  -0.217
REMARK UNBOUND:                -0.200
REMARK SMILES CCCCCCC(=O)[O-]
REMARK SMILES IDX 5 1 6 2 7 3 8 4 9 5 4 6 3 7 2 8 1 9
REMARK H PARENT
REMARK Flexibility Score: inf
ROOT
ATOM      1  C   UNL     1      -9.198  16.348 -12.413  1.00  0.00     0.006 C 
ENDROOT
BRANCH   1   2
ATOM      2  C   UNL     1      -8.519  15.333 -13.342  1.00  0.00     0.053 C 
BRANCH   2   3
ATOM      3  C   UNL     1      -7.684  14.352 -12.579  1.00  0.00     0.041 C 
ATOM      4  O   UNL     1      -7.754  14.303 -11.322  1.00  0.00    -0.550 OA
ATOM      5  O   UNL     1      -6.854  13.467 -13.257  1.00  0.00    -0.550 OA
ENDBRANCH   2   3
ENDBRANCH   1   2
BRANCH   1   6
ATOM      6  C   UNL     1      -9.098  17.785 -12.948  1.00  0.00     0.000 C 
BRANCH   6   7
ATOM      7  C   UNL     1      -8.154  17.856 -14.158  1.00  0.00    -0.000 C 
BRANCH   7   8
ATOM      8  C   UNL     1      -7.538  19.251 -14.345  1.00  0.00    -0.003 C 
ATOM      9  C   UNL     1      -7.723  20.150 -13.123  1.00  0.00     0.004 C 
ENDBRANCH   7   8
ENDBRANCH   6   7
ENDBRANCH   1   6
TORSDOF 5
ENDMDL
MODEL 6
REMARK VINA RESULT:    -3.324      3.066      5.377
REMARK INTER + INTRA:          -4.496
REMARK INTER:                  -4.292
REMARK INTRA:                  -0.204
REMARK UNBOUND:                -0.200
REMARK SMILES CCCCCCC(=O)[O-]
REMARK SMILES IDX 5 1 6 2 7 3 8 4 9 5 4 6 3 7 2 8 1 9
REMARK H PARENT
REMARK Flexibility Score: inf
ROOT
ATOM      1  C   UNL     1      -8.944  18.102 -12.884  1.00  0.00     0.006 C 
ENDROOT
BRANCH   1   2
ATOM      2  C   UNL     1      -9.597  16.728 -12.690  1.00  0.00     0.053 C 
BRANCH   2   3
ATOM      3  C   UNL     1      -8.579  15.632 -12.629  1.00  0.00     0.041 C 
ATOM      4  O   UNL     1      -8.605  14.695 -13.471  1.00  0.00    -0.550 OA
ATOM      5  O   UNL     1      -7.580  15.661 -11.664  1.00  0.00    -0.550 OA
ENDBRANCH   2   3
ENDBRANCH   1   2
BRANCH   1   6
ATOM      6  C   UNL     1      -8.246  18.229 -14.247  1.00  0.00     0.000 C 
BRANCH   6   7
ATOM      7  C   UNL     1      -7.766  19.668 -14.486  1.00  0.00    -0.000 C 
BRANCH   7   8
ATOM      8  C   UNL     1      -6.396  19.947 -13.848  1.00  0.00    -0.003 C 
ATOM      9  C   UNL     1      -6.457  21.020 -12.760  1.00  0.00     0.004 C 
ENDBRANCH   7   8
ENDBRANCH   6   7
ENDBRANCH   1   6
TORSDOF 5
ENDMDL
MODEL 7
REMARK VINA RESULT:    -3.193      1.757      2.494
REMARK INTER + INTRA:          -4.327
REMARK INTER:                  -4.104
REMARK INTRA:                  -0.222
REMARK UNBOUND:                -0.200
REMARK SMILES CCCCCCC(=O)[O-]
REMARK SMILES IDX 5 1 6 2 7 3 8 4 9 5 4 6 3 7 2 8 1 9
REMARK H PARENT
REMARK Flexibility Score: inf
ROOT
ATOM      1  C   UNL     1      -8.993  16.156 -12.322  1.00  0.00     0.006 C 
ENDROOT
BRANCH   1   2
ATOM      2  C   UNL     1      -9.297  17.053 -13.529  1.00  0.00     0.053 C 
BRANCH   2   3
ATOM      3  C   UNL     1      -8.204  18.046 -13.773  1.00  0.00     0.041 C 
ATOM      4  O   UNL     1      -7.433  17.910 -14.760  1.00  0.00    -0.550 OA
ATOM      5  O   UNL     1      -8.058  19.143 -12.932  1.00  0.00    -0.550 OA
ENDBRANCH   2   3
ENDBRANCH   1   2
BRANCH   1   6
ATOM      6  C   UNL     1      -8.146  14.933 -12.704  1.00  0.00     0.000 C 
BRANCH   6   7
ATOM      7  C   UNL     1      -8.664  14.290 -14.000  1.00  0.00    -0.000 C 
BRANCH   7   8
ATOM      8  C   UNL     1      -8.147  12.856 -14.195  1.00  0.00    -0.003 C 
ATOM      9  C   UNL     1      -6.679  12.696 -13.799  1.00  0.00     0.004 C 
ENDBRANCH   7   8
ENDBRANCH   6   7
ENDBRANCH   1   6
TORSDOF 5
ENDMDL
MODEL 8
REMARK VINA RESULT:    -3.190      2.314      4.158
REMARK INTER + INTRA:          -4.323
REMARK INTER:                  -3.913
REMARK INTRA:                  -0.409
REMARK UNBOUND:                -0.200
REMARK SMILES CCCCCCC(=O)[O-]
REMARK SMILES IDX 5 1 6 2 7 3 8 4 9 5 4 6 3 7 2 8 1 9
REMARK H PARENT
REMARK Flexibility Score: inf
ROOT
ATOM      1  C   UNL     1      -8.477  15.379 -15.273  1.00  0.00     0.006 C 
ENDROOT
BRANCH   1   2
ATOM      2  C   UNL     1      -8.451  14.669 -13.913  1.00  0.00     0.053 C 
BRANCH   2   3
ATOM      3  C   UNL     1      -8.711  15.618 -12.785  1.00  0.00     0.041 C 
ATOM      4  O   UNL     1      -7.826  15.824 -11.913  1.00  0.00    -0.550 OA
ATOM      5  O   UNL     1      -9.918  16.304 -12.714  1.00  0.00    -0.550 OA
ENDBRANCH   2   3
ENDBRANCH   1   2
BRANCH   1   6
ATOM      6  C   UNL     1      -7.310  16.364 -15.438  1.00  0.00     0.000 C 
BRANCH   6   7
ATOM      7  C   UNL     1      -7.817  17.814 -15.472  1.00  0.00    -0.000 C 
BRANCH   7   8
ATOM      8  C   UNL     1      -7.213  18.677 -14.353  1.00  0.00    -0.003 C 
ATOM      9  C   UNL     1      -8.276  19.355 -13.489  1.00  0.00     0.004 C 
ENDBRANCH   7   8
ENDBRANCH   6   7
ENDBRANCH   1   6
TORSDOF 5
ENDMDL
MODEL 9
REMARK VINA RESULT:    -3.175      2.715      4.917
REMARK INTER + INTRA:          -4.302
REMARK INTER:                  -4.003
REMARK INTRA:                  -0.300
REMARK UNBOUND:                -0.200
REMARK SMILES CCCCCCC(=O)[O-]
REMARK SMILES IDX 5 1 6 2 7 3 8 4 9 5 4 6 3 7 2 8 1 9
REMARK H PARENT
REMARK Flexibility Score: inf
ROOT
ATOM      1  C   UNL     1      -8.279  16.615 -15.279  1.00  0.00     0.006 C 
ENDROOT
BRANCH   1   2
ATOM      2  C   UNL     1      -8.284  15.471 -14.258  1.00  0.00     0.053 C 
BRANCH   2   3
ATOM      3  C   UNL     1      -8.705  15.938 -12.900  1.00  0.00     0.041 C 
ATOM      4  O   UNL     1      -7.892  15.909 -11.939  1.00  0.00    -0.550 OA
ATOM      5  O   UNL     1      -9.987  16.440 -12.702  1.00  0.00    -0.550 OA
ENDBRANCH   2   3
ENDBRANCH   1   2
BRANCH   1   6
ATOM      6  C   UNL     1      -7.251  17.702 -14.931  1.00  0.00     0.000 C 
BRANCH   6   7
ATOM      7  C   UNL     1      -7.919  19.083 -14.847  1.00  0.00    -0.000 C 
BRANCH   7   8
ATOM      8  C   UNL     1      -8.136  19.546 -13.398  1.00  0.00    -0.003 C 
ATOM      9  C   UNL     1      -7.263  20.742 -13.020  1.00  0.00     0.004 C 
ENDBRANCH   7   8
ENDBRANCH   6   7
ENDBRANCH   1   6
TORSDOF 5
ENDMDL
