MODEL 1
REMARK VINA RESULT:    -3.212      0.000      0.000
REMARK INTER + INTRA:          -3.306
REMARK INTER:                  -3.306
REMARK INTRA:                   0.000
REMARK UNBOUND:                 0.000
REMARK SMILES CC1(C)[C@@H]2CC[C@@]1(C)[C@H](O)C2
REMARK SMILES IDX 1 1 2 2 4 3 5 4 6 5 7 6 9 7 11 8 8 9 3 10 10 11
REMARK H PARENT 10 12
REMARK Flexibility Score: inf
ROOT
ATOM      1  C   UNL     1     110.577 110.890 105.307  1.00  0.00     0.012 C 
ATOM      2  C   UNL     1     111.469 109.687 104.865  1.00  0.00    -0.025 C 
ATOM      3  C   UNL     1     110.718 108.623 104.048  1.00  0.00    -0.002 C 
ATOM      4  C   UNL     1     109.665 108.085 105.048  1.00  0.00     0.005 C 
ATOM      5  C   UNL     1     110.419 108.126 106.393  1.00  0.00     0.010 C 
ATOM      6  C   UNL     1     111.814 108.674 105.983  1.00  0.00    -0.001 C 
ATOM      7  C   UNL     1     112.516 107.505 105.229  1.00  0.00     0.121 C 
ATOM      8  C   UNL     1     111.766 107.494 103.875  1.00  0.00     0.036 C 
ATOM      9  C   UNL     1     112.610 109.229 107.174  1.00  0.00     0.015 C 
ATOM     10  C   UNL     1     112.680 110.318 104.112  1.00  0.00     0.012 C 
ENDROOT
BRANCH   7  11
ATOM     11  O   UNL     1     113.891 107.738 105.062  1.00  0.00    -0.393 OA
ATOM     12  H   UNL     1     114.244 107.990 105.955  1.00  0.00     0.210 HD
ENDBRANCH   7  11
TORSDOF 1
ENDMDL
MODEL 2
REMARK VINA RESULT:    -3.131      2.580      3.608
REMARK INTER + INTRA:          -3.222
REMARK INTER:                  -3.222
REMARK INTRA:                   0.000
REMARK UNBOUND:                 0.000
REMARK SMILES CC1(C)[C@@H]2CC[C@@]1(C)[C@H](O)C2
REMARK SMILES IDX 1 1 2 2 4 3 5 4 6 5 7 6 9 7 11 8 8 9 3 10 10 11
REMARK H PARENT 10 12
REMARK Flexibility Score: inf
ROOT
ATOM      1  C   UNL     1     110.907 109.904 105.468  1.00  0.00     0.012 C 
ATOM      2  C   UNL     1     109.746 109.004 104.939  1.00  0.00    -0.025 C 
ATOM      3  C   UNL     1     108.679 109.770 104.143  1.00  0.00    -0.002 C 
ATOM      4  C   UNL     1     108.081 110.741 105.193  1.00  0.00     0.005 C 
ATOM      5  C   UNL     1     108.114 109.905 106.488  1.00  0.00     0.010 C 
ATOM      6  C   UNL     1     108.719 108.556 106.007  1.00  0.00    -0.001 C 
ATOM      7  C   UNL     1     107.592 107.867 105.179  1.00  0.00     0.121 C 
ATOM      8  C   UNL     1     107.590 108.700 103.875  1.00  0.00     0.036 C 
ATOM      9  C   UNL     1     109.270 107.705 107.160  1.00  0.00     0.015 C 
ATOM     10  C   UNL     1     110.435 107.863 104.129  1.00  0.00     0.012 C 
ENDROOT
BRANCH   7  11
ATOM     11  O   UNL     1     107.875 106.513 104.933  1.00  0.00    -0.393 OA
ATOM     12  H   UNL     1     108.439 106.202 105.689  1.00  0.00     0.210 HD
ENDBRANCH   7  11
TORSDOF 1
ENDMDL
MODEL 3
REMARK VINA RESULT:    -3.101      2.195      3.671
REMARK INTER + INTRA:          -3.192
REMARK INTER:                  -3.192
REMARK INTRA:                   0.000
REMARK UNBOUND:                 0.000
REMARK SMILES CC1(C)[C@@H]2CC[C@@]1(C)[C@H](O)C2
REMARK SMILES IDX 1 1 2 2 4 3 5 4 6 5 7 6 9 7 11 8 8 9 3 10 10 11
REMARK H PARENT 10 12
REMARK Flexibility Score: inf
ROOT
ATOM      1  C   UNL     1     111.184 112.613 107.004  1.00  0.00     0.012 C 
ATOM      2  C   UNL     1     111.559 111.528 105.947  1.00  0.00    -0.025 C 
ATOM      3  C   UNL     1     112.532 112.023 104.865  1.00  0.00    -0.002 C 
ATOM      4  C   UNL     1     111.722 113.127 104.139  1.00  0.00     0.005 C 
ATOM      5  C   UNL     1     110.284 112.572 104.170  1.00  0.00     0.010 C 
ATOM      6  C   UNL     1     110.460 111.213 104.903  1.00  0.00    -0.001 C 
ATOM      7  C   UNL     1     111.169 110.277 103.879  1.00  0.00     0.121 C 
ATOM      8  C   UNL     1     112.615 110.830 103.879  1.00  0.00     0.036 C 
ATOM      9  C   UNL     1     109.139 110.660 105.459  1.00  0.00     0.015 C 
ATOM     10  C   UNL     1     112.096 110.313 106.765  1.00  0.00     0.012 C 
ENDROOT
BRANCH   7  11
ATOM     11  O   UNL     1     111.126 108.931 104.280  1.00  0.00    -0.393 OA
ATOM     12  H   UNL     1     111.419 108.395 103.498  1.00  0.00     0.210 HD
ENDBRANCH   7  11
TORSDOF 1
ENDMDL
MODEL 4
REMARK VINA RESULT:    -3.096      2.869      4.235
REMARK INTER + INTRA:          -3.186
REMARK INTER:                  -3.186
REMARK INTRA:                   0.000
REMARK UNBOUND:                 0.000
REMARK SMILES CC1(C)[C@@H]2CC[C@@]1(C)[C@H](O)C2
REMARK SMILES IDX 1 1 2 2 4 3 5 4 6 5 7 6 9 7 11 8 8 9 3 10 10 11
REMARK H PARENT 10 12
REMARK Flexibility Score: inf
ROOT
ATOM      1  C   UNL     1     107.373 111.453 106.953  1.00  0.00     0.012 C 
ATOM      2  C   UNL     1     108.569 111.569 105.957  1.00  0.00    -0.025 C 
ATOM      3  C   UNL     1     108.302 112.509 104.771  1.00  0.00    -0.002 C 
ATOM      4  C   UNL     1     107.134 111.815 104.025  1.00  0.00     0.005 C 
ATOM      5  C   UNL     1     107.456 110.317 104.206  1.00  0.00     0.010 C 
ATOM      6  C   UNL     1     108.776 110.350 105.026  1.00  0.00    -0.001 C 
ATOM      7  C   UNL     1     109.874 110.821 104.026  1.00  0.00     0.121 C 
ATOM      8  C   UNL     1     109.555 112.327 103.876  1.00  0.00     0.036 C 
ATOM      9  C   UNL     1     109.079 109.014 105.720  1.00  0.00     0.015 C 
ATOM     10  C   UNL     1     109.797 111.986 106.823  1.00  0.00     0.012 C 
ENDROOT
BRANCH   7  11
ATOM     11  O   UNL     1     111.169 110.610 104.532  1.00  0.00    -0.393 OA
ATOM     12  H   UNL     1     111.723 110.305 103.767  1.00  0.00     0.210 HD
ENDBRANCH   7  11
TORSDOF 1
ENDMDL
MODEL 5
REMARK VINA RESULT:    -3.093      2.577      3.848
REMARK INTER + INTRA:          -3.183
REMARK INTER:                  -3.183
REMARK INTRA:                   0.000
REMARK UNBOUND:                 0.000
REMARK SMILES CC1(C)[C@@H]2CC[C@@]1(C)[C@H](O)C2
REMARK SMILES IDX 1 1 2 2 4 3 5 4 6 5 7 6 9 7 11 8 8 9 3 10 10 11
REMARK H PARENT 10 12
REMARK Flexibility Score: inf
ROOT
ATOM      1  C   UNL     1     109.154 107.702 107.055  1.00  0.00     0.012 C 
ATOM      2  C   UNL     1     108.680 108.724 105.974  1.00  0.00    -0.025 C 
ATOM      3  C   UNL     1     107.752 108.118 104.909  1.00  0.00    -0.002 C 
ATOM      4  C   UNL     1     108.654 107.073 104.205  1.00  0.00     0.005 C 
ATOM      5  C   UNL     1     110.038 107.754 104.216  1.00  0.00     0.010 C 
ATOM      6  C   UNL     1     109.744 109.110 104.918  1.00  0.00    -0.001 C 
ATOM      7  C   UNL     1     108.951 109.954 103.875  1.00  0.00     0.121 C 
ATOM      8  C   UNL     1     107.560 109.276 103.896  1.00  0.00     0.036 C 
ATOM      9  C   UNL     1     111.012 109.791 105.454  1.00  0.00     0.015 C 
ATOM     10  C   UNL     1     108.040 109.905 106.766  1.00  0.00     0.012 C 
ENDROOT
BRANCH   7  11
ATOM     11  O   UNL     1     108.876 111.308 104.245  1.00  0.00    -0.393 OA
ATOM     12  H   UNL     1     108.592 111.806 103.434  1.00  0.00     0.210 HD
ENDBRANCH   7  11
TORSDOF 1
ENDMDL
MODEL 6
REMARK VINA RESULT:    -3.044      3.548      5.058
REMARK INTER + INTRA:          -3.133
REMARK INTER:                  -3.133
REMARK INTRA:                   0.000
REMARK UNBOUND:                 0.000
REMARK SMILES CC1(C)[C@@H]2CC[C@@]1(C)[C@H](O)C2
REMARK SMILES IDX 1 1 2 2 4 3 5 4 6 5 7 6 9 7 11 8 8 9 3 10 10 11
REMARK H PARENT 10 12
REMARK Flexibility Score: inf
ROOT
ATOM      1  C   UNL     1     109.736 109.264 106.177  1.00  0.00     0.012 C 
ATOM      2  C   UNL     1     108.914 110.327 105.382  1.00  0.00    -0.025 C 
ATOM      3  C   UNL     1     109.773 111.237 104.490  1.00  0.00    -0.002 C 
ATOM      4  C   UNL     1     110.662 111.995 105.508  1.00  0.00     0.005 C 
ATOM      5  C   UNL     1     109.716 112.189 106.711  1.00  0.00     0.010 C 
ATOM      6  C   UNL     1     108.400 111.525 106.217  1.00  0.00    -0.001 C 
ATOM      7  C   UNL     1     107.814 112.501 105.154  1.00  0.00     0.121 C 
ATOM      8  C   UNL     1     108.757 112.275 103.948  1.00  0.00     0.036 C 
ATOM      9  C   UNL     1     107.438 111.184 107.365  1.00  0.00     0.015 C 
ATOM     10  C   UNL     1     107.832 109.521 104.600  1.00  0.00     0.012 C 
ENDROOT
BRANCH   7  11
ATOM     11  O   UNL     1     106.480 112.193 104.838  1.00  0.00    -0.393 OA
ATOM     12  H   UNL     1     106.321 112.540 103.921  1.00  0.00     0.210 HD
ENDBRANCH   7  11
TORSDOF 1
ENDMDL
MODEL 7
REMARK VINA RESULT:    -3.013      1.802      3.176
REMARK INTER + INTRA:          -3.101
REMARK INTER:                  -3.101
REMARK INTRA:                   0.000
REMARK UNBOUND:                 0.000
REMARK SMILES CC1(C)[C@@H]2CC[C@@]1(C)[C@H](O)C2
REMARK SMILES IDX 1 1 2 2 4 3 5 4 6 5 7 6 9 7 11 8 8 9 3 10 10 11
REMARK H PARENT 10 12
REMARK Flexibility Score: inf
ROOT
ATOM      1  C   UNL     1     112.621 108.803 106.879  1.00  0.00     0.012 C 
ATOM      2  C   UNL     1     111.415 108.706 105.892  1.00  0.00    -0.025 C 
ATOM      3  C   UNL     1     111.601 107.658 104.784  1.00  0.00    -0.002 C 
ATOM      4  C   UNL     1     112.817 108.196 103.988  1.00  0.00     0.005 C 
ATOM      5  C   UNL     1     112.618 109.724 104.051  1.00  0.00     0.010 C 
ATOM      6  C   UNL     1     111.303 109.861 104.869  1.00  0.00    -0.001 C 
ATOM      7  C   UNL     1     110.165 109.404 103.907  1.00  0.00     0.121 C 
ATOM      8  C   UNL     1     110.362 107.870 103.875  1.00  0.00     0.036 C 
ATOM      9  C   UNL     1     111.110 111.267 105.456  1.00  0.00     0.015 C 
ATOM     10  C   UNL     1     110.161 108.458 106.786  1.00  0.00     0.012 C 
ENDROOT
BRANCH   7  11
ATOM     11  O   UNL     1     108.894 109.757 104.392  1.00  0.00    -0.393 OA
ATOM     12  H   UNL     1     108.532 108.950 104.842  1.00  0.00     0.210 HD
ENDBRANCH   7  11
TORSDOF 1
ENDMDL
MODEL 8
REMARK VINA RESULT:    -2.984      1.750      2.898
REMARK INTER + INTRA:          -3.071
REMARK INTER:                  -3.071
REMARK INTRA:                   0.000
REMARK UNBOUND:                 0.000
REMARK SMILES CC1(C)[C@@H]2CC[C@@]1(C)[C@H](O)C2
REMARK SMILES IDX 1 1 2 2 4 3 5 4 6 5 7 6 9 7 11 8 8 9 3 10 10 11
REMARK H PARENT 10 12
REMARK Flexibility Score: inf
ROOT
ATOM      1  C   UNL     1     110.095 107.567 103.877  1.00  0.00     0.012 C 
ATOM      2  C   UNL     1     110.605 108.871 104.567  1.00  0.00    -0.025 C 
ATOM      3  C   UNL     1     111.825 109.503 103.880  1.00  0.00    -0.002 C 
ATOM      4  C   UNL     1     112.924 108.423 104.044  1.00  0.00     0.005 C 
ATOM      5  C   UNL     1     112.614 107.830 105.434  1.00  0.00     0.010 C 
ATOM      6  C   UNL     1     111.381 108.659 105.889  1.00  0.00    -0.001 C 
ATOM      7  C   UNL     1     111.935 110.074 106.233  1.00  0.00     0.121 C 
ATOM      8  C   UNL     1     112.215 110.664 104.830  1.00  0.00     0.036 C 
ATOM      9  C   UNL     1     110.601 107.988 107.030  1.00  0.00     0.015 C 
ATOM     10  C   UNL     1     109.367 109.817 104.643  1.00  0.00     0.012 C 
ENDROOT
BRANCH   7  11
ATOM     11  O   UNL     1     111.000 110.844 106.946  1.00  0.00    -0.393 OA
ATOM     12  H   UNL     1     110.106 110.599 106.592  1.00  0.00     0.210 HD
ENDBRANCH   7  11
TORSDOF 1
ENDMDL
