MODEL 1
REMARK VINA RESULT:    -3.745      0.000      0.000
REMARK INTER + INTRA:          -4.494
REMARK INTER:                  -4.401
REMARK INTRA:                  -0.093
REMARK UNBOUND:                -0.093
REMARK SMILES O=C([O-])CCC(=O)[O-]
REMARK SMILES IDX 4 1 2 2 1 3 3 4 5 5 6 6 7 7 8 8
REMARK H PARENT
REMARK Flexibility Score: inf
ROOT
ATOM      1  C   UNL     1       7.272 -13.501  36.576  1.00  0.00     0.059 C 
ENDROOT
BRANCH   1   2
ATOM      2  C   UNL     1       8.021 -13.227  37.845  1.00  0.00     0.042 C 
ATOM      3  O   UNL     1       7.815 -13.932  38.867  1.00  0.00    -0.550 OA
ATOM      4  O   UNL     1       8.916 -12.166  37.908  1.00  0.00    -0.550 OA
ENDBRANCH   1   2
BRANCH   1   5
ATOM      5  C   UNL     1       7.357 -12.319  35.604  1.00  0.00     0.059 C 
BRANCH   5   6
ATOM      6  C   UNL     1       8.141 -12.671  34.377  1.00  0.00     0.042 C 
ATOM      7  O   UNL     1       7.673 -13.481  33.536  1.00  0.00    -0.550 OA
ATOM      8  O   UNL     1       9.407 -12.132  34.184  1.00  0.00    -0.550 OA
ENDBRANCH   5   6
ENDBRANCH   1   5
TORSDOF 3
ENDMDL
MODEL 2
REMARK VINA RESULT:    -3.738      0.086      3.793
REMARK INTER + INTRA:          -4.487
REMARK INTER:                  -4.397
REMARK INTRA:                  -0.089
REMARK UNBOUND:                -0.093
REMARK SMILES O=C([O-])CCC(=O)[O-]
REMARK SMILES IDX 4 1 2 2 1 3 3 4 5 5 6 6 7 7 8 8
REMARK H PARENT
REMARK Flexibility Score: inf
ROOT
ATOM      1  C   UNL     1       7.301 -12.349  35.622  1.00  0.00     0.059 C 
ENDROOT
BRANCH   1   2
ATOM      2  C   UNL     1       8.088 -12.673  34.389  1.00  0.00     0.042 C 
ATOM      3  O   UNL     1       7.635 -13.489  33.544  1.00  0.00    -0.550 OA
ATOM      4  O   UNL     1       9.341 -12.104  34.195  1.00  0.00    -0.550 OA
ENDBRANCH   1   2
BRANCH   1   5
ATOM      5  C   UNL     1       7.214 -13.552  36.568  1.00  0.00     0.059 C 
BRANCH   5   6
ATOM      6  C   UNL     1       7.944 -13.298  37.851  1.00  0.00     0.042 C 
ATOM      7  O   UNL     1       7.728 -14.021  38.858  1.00  0.00    -0.550 OA
ATOM      8  O   UNL     1       8.835 -12.236  37.945  1.00  0.00    -0.550 OA
ENDBRANCH   5   6
ENDBRANCH   1   5
TORSDOF 3
ENDMDL
MODEL 3
REMARK VINA RESULT:    -3.722      4.997      6.679
REMARK INTER + INTRA:          -4.467
REMARK INTER:                  -4.416
REMARK INTRA:                  -0.051
REMARK UNBOUND:                -0.093
REMARK SMILES O=C([O-])CCC(=O)[O-]
REMARK SMILES IDX 4 1 2 2 1 3 3 4 5 5 6 6 7 7 8 8
REMARK H PARENT
REMARK Flexibility Score: inf
ROOT
ATOM      1  C   UNL     1      13.691 -10.511  36.686  1.00  0.00     0.059 C 
ENDROOT
BRANCH   1   2
ATOM      2  C   UNL     1      13.372 -10.842  35.260  1.00  0.00     0.042 C 
ATOM      3  O   UNL     1      14.299 -11.084  34.443  1.00  0.00    -0.550 OA
ATOM      4  O   UNL     1      12.052 -10.842  34.825  1.00  0.00    -0.550 OA
ENDBRANCH   1   2
BRANCH   1   5
ATOM      5  C   UNL     1      12.543  -9.752  37.360  1.00  0.00     0.059 C 
BRANCH   5   6
ATOM      6  C   UNL     1      12.241 -10.303  38.720  1.00  0.00     0.042 C 
ATOM      7  O   UNL     1      11.142 -10.872  38.945  1.00  0.00    -0.550 OA
ATOM      8  O   UNL     1      13.161 -10.151  39.750  1.00  0.00    -0.550 OA
ENDBRANCH   5   6
ENDBRANCH   1   5
TORSDOF 3
ENDMDL
MODEL 4
REMARK VINA RESULT:    -3.709      4.909      5.514
REMARK INTER + INTRA:          -4.452
REMARK INTER:                  -4.376
REMARK INTRA:                  -0.076
REMARK UNBOUND:                -0.093
REMARK SMILES O=C([O-])CCC(=O)[O-]
REMARK SMILES IDX 4 1 2 2 1 3 3 4 5 5 6 6 7 7 8 8
REMARK H PARENT
REMARK Flexibility Score: inf
ROOT
ATOM      1  C   UNL     1      12.452  -9.753  37.220  1.00  0.00     0.059 C 
ENDROOT
BRANCH   1   2
ATOM      2  C   UNL     1      12.256 -10.366  38.572  1.00  0.00     0.042 C 
ATOM      3  O   UNL     1      11.202 -11.005  38.832  1.00  0.00    -0.550 OA
ATOM      4  O   UNL     1      13.220 -10.197  39.559  1.00  0.00    -0.550 OA
ENDBRANCH   1   2
BRANCH   1   5
ATOM      5  C   UNL     1      13.670 -10.346  36.502  1.00  0.00     0.059 C 
BRANCH   5   6
ATOM      6  C   UNL     1      13.284 -11.000  35.211  1.00  0.00     0.042 C 
ATOM      7  O   UNL     1      14.110 -11.071  34.264  1.00  0.00    -0.550 OA
ATOM      8  O   UNL     1      11.998 -11.497  35.042  1.00  0.00    -0.550 OA
ENDBRANCH   5   6
ENDBRANCH   1   5
TORSDOF 3
ENDMDL
MODEL 5
REMARK VINA RESULT:    -3.679      4.674      5.893
REMARK INTER + INTRA:          -4.416
REMARK INTER:                  -4.248
REMARK INTRA:                  -0.168
REMARK UNBOUND:                -0.093
REMARK SMILES O=C([O-])CCC(=O)[O-]
REMARK SMILES IDX 4 1 2 2 1 3 3 4 5 5 6 6 7 7 8 8
REMARK H PARENT
REMARK Flexibility Score: inf
ROOT
ATOM      1  C   UNL     1      13.260 -10.881  35.219  1.00  0.00     0.059 C 
ENDROOT
BRANCH   1   2
ATOM      2  C   UNL     1      12.212 -11.951  35.219  1.00  0.00     0.042 C 
ATOM      3  O   UNL     1      12.497 -13.118  35.599  1.00  0.00    -0.550 OA
ATOM      4  O   UNL     1      10.931 -11.670  34.760  1.00  0.00    -0.550 OA
ENDBRANCH   1   2
BRANCH   1   5
ATOM      5  C   UNL     1      13.601 -10.425  36.642  1.00  0.00     0.059 C 
BRANCH   5   6
ATOM      6  C   UNL     1      12.481  -9.639  37.252  1.00  0.00     0.042 C 
ATOM      7  O   UNL     1      12.096  -9.887  38.424  1.00  0.00    -0.550 OA
ATOM      8  O   UNL     1      11.837  -8.657  36.509  1.00  0.00    -0.550 OA
ENDBRANCH   5   6
ENDBRANCH   1   5
TORSDOF 3
ENDMDL
MODEL 6
REMARK VINA RESULT:    -3.667      1.553      3.485
REMARK INTER + INTRA:          -4.403
REMARK INTER:                  -4.249
REMARK INTRA:                  -0.153
REMARK UNBOUND:                -0.093
REMARK SMILES O=C([O-])CCC(=O)[O-]
REMARK SMILES IDX 4 1 2 2 1 3 3 4 5 5 6 6 7 7 8 8
REMARK H PARENT
REMARK Flexibility Score: inf
ROOT
ATOM      1  C   UNL     1       7.366 -13.501  36.789  1.00  0.00     0.059 C 
ENDROOT
BRANCH   1   2
ATOM      2  C   UNL     1       7.363 -12.232  35.994  1.00  0.00     0.042 C 
ATOM      3  O   UNL     1       7.577 -12.260  34.753  1.00  0.00    -0.550 OA
ATOM      4  O   UNL     1       7.165 -11.013  36.631  1.00  0.00    -0.550 OA
ENDBRANCH   1   2
BRANCH   1   5
ATOM      5  C   UNL     1       8.010 -13.303  38.165  1.00  0.00     0.059 C 
BRANCH   5   6
ATOM      6  C   UNL     1       9.503 -13.231  38.070  1.00  0.00     0.042 C 
ATOM      7  O   UNL     1      10.168 -14.248  37.743  1.00  0.00    -0.550 OA
ATOM      8  O   UNL     1      10.162 -12.048  38.381  1.00  0.00    -0.550 OA
ENDBRANCH   5   6
ENDBRANCH   1   5
TORSDOF 3
ENDMDL
MODEL 7
REMARK VINA RESULT:    -3.666      1.531      2.054
REMARK INTER + INTRA:          -4.402
REMARK INTER:                  -4.264
REMARK INTRA:                  -0.137
REMARK UNBOUND:                -0.093
REMARK SMILES O=C([O-])CCC(=O)[O-]
REMARK SMILES IDX 4 1 2 2 1 3 3 4 5 5 6 6 7 7 8 8
REMARK H PARENT
REMARK Flexibility Score: inf
ROOT
ATOM      1  C   UNL     1       7.947 -13.405  38.108  1.00  0.00     0.059 C 
ENDROOT
BRANCH   1   2
ATOM      2  C   UNL     1       9.439 -13.543  38.120  1.00  0.00     0.042 C 
ATOM      3  O   UNL     1       9.970 -14.685  38.115  1.00  0.00    -0.550 OA
ATOM      4  O   UNL     1      10.242 -12.410  38.179  1.00  0.00    -0.550 OA
ENDBRANCH   1   2
BRANCH   1   5
ATOM      5  C   UNL     1       7.381 -13.521  36.688  1.00  0.00     0.059 C 
BRANCH   5   6
ATOM      6  C   UNL     1       7.413 -12.206  35.973  1.00  0.00     0.042 C 
ATOM      7  O   UNL     1       7.590 -12.164  34.727  1.00  0.00    -0.550 OA
ATOM      8  O   UNL     1       7.286 -11.022  36.690  1.00  0.00    -0.550 OA
ENDBRANCH   5   6
ENDBRANCH   1   5
TORSDOF 3
ENDMDL
MODEL 8
REMARK VINA RESULT:    -3.656      3.014      4.360
REMARK INTER + INTRA:          -4.389
REMARK INTER:                  -4.267
REMARK INTRA:                  -0.123
REMARK UNBOUND:                -0.093
REMARK SMILES O=C([O-])CCC(=O)[O-]
REMARK SMILES IDX 4 1 2 2 1 3 3 4 5 5 6 6 7 7 8 8
REMARK H PARENT
REMARK Flexibility Score: inf
ROOT
ATOM      1  C   UNL     1      10.715 -15.074  36.823  1.00  0.00     0.059 C 
ENDROOT
BRANCH   1   2
ATOM      2  C   UNL     1      11.934 -14.219  36.662  1.00  0.00     0.042 C 
ATOM      3  O   UNL     1      11.955 -13.299  35.804  1.00  0.00    -0.550 OA
ATOM      4  O   UNL     1      13.064 -14.467  37.433  1.00  0.00    -0.550 OA
ENDBRANCH   1   2
BRANCH   1   5
ATOM      5  C   UNL     1      10.014 -14.811  38.160  1.00  0.00     0.059 C 
BRANCH   5   6
ATOM      6  C   UNL     1       9.079 -13.644  38.072  1.00  0.00     0.042 C 
ATOM      7  O   UNL     1       7.900 -13.805  37.663  1.00  0.00    -0.550 OA
ATOM      8  O   UNL     1       9.525 -12.371  38.405  1.00  0.00    -0.550 OA
ENDBRANCH   5   6
ENDBRANCH   1   5
TORSDOF 3
ENDMDL
MODEL 9
REMARK VINA RESULT:    -3.648      4.597      5.223
REMARK INTER + INTRA:          -4.380
REMARK INTER:                  -4.199
REMARK INTRA:                  -0.182
REMARK UNBOUND:                -0.093
REMARK SMILES O=C([O-])CCC(=O)[O-]
REMARK SMILES IDX 4 1 2 2 1 3 3 4 5 5 6 6 7 7 8 8
REMARK H PARENT
REMARK Flexibility Score: inf
ROOT
ATOM      1  C   UNL     1      13.621 -10.433  36.407  1.00  0.00     0.059 C 
ENDROOT
BRANCH   1   2
ATOM      2  C   UNL     1      12.558  -9.723  37.189  1.00  0.00     0.042 C 
ATOM      3  O   UNL     1      12.290 -10.081  38.365  1.00  0.00    -0.550 OA
ATOM      4  O   UNL     1      11.835  -8.691  36.601  1.00  0.00    -0.550 OA
ENDBRANCH   1   2
BRANCH   1   5
ATOM      5  C   UNL     1      13.095 -10.917  35.051  1.00  0.00     0.059 C 
BRANCH   5   6
ATOM      6  C   UNL     1      11.979 -11.902  35.214  1.00  0.00     0.042 C 
ATOM      7  O   UNL     1      10.829 -11.636  34.775  1.00  0.00    -0.550 OA
ATOM      8  O   UNL     1      12.199 -13.098  35.886  1.00  0.00    -0.550 OA
ENDBRANCH   5   6
ENDBRANCH   1   5
TORSDOF 3
ENDMDL
