MODEL 1
REMARK VINA RESULT:    -1.161      0.000      0.000
REMARK INTER + INTRA:          -4.053
REMARK INTER:                  -1.976
REMARK INTRA:                  -2.077
REMARK UNBOUND:                -2.077
REMARK SMILES CCCCCCCCCCCCCC(=O)[O-]
REMARK SMILES IDX 8 1 9 2 10 3 11 4 12 5 13 6 14 7 15 8 16 9 7 10 6 11 5 12
REMARK SMILES IDX 4 13 3 14 2 15 1 16
REMARK H PARENT
REMARK Flexibility Score: inf
ROOT
ATOM      1  C   UNL     1      29.071  -6.315  18.155  1.00  0.00     0.000 C 
ENDROOT
BRANCH   1   2
ATOM      2  C   UNL     1      28.288  -7.166  19.171  1.00  0.00     0.000 C 
BRANCH   2   3
ATOM      3  C   UNL     1      29.080  -7.439  20.459  1.00  0.00     0.000 C 
BRANCH   3   4
ATOM      4  C   UNL     1      30.562  -7.698  20.145  1.00  0.00     0.000 C 
BRANCH   4   5
ATOM      5  C   UNL     1      31.118  -8.924  20.888  1.00  0.00     0.006 C 
BRANCH   5   6
ATOM      6  C   UNL     1      30.088  -9.561  21.829  1.00  0.00     0.053 C 
BRANCH   6   7
ATOM      7  C   UNL     1      30.572  -9.509  23.243  1.00  0.00     0.041 C 
ATOM      8  O   UNL     1      31.125 -10.515  23.762  1.00  0.00    -0.550 OA
ATOM      9  O   UNL     1      30.459  -8.334  23.975  1.00  0.00    -0.550 OA
ENDBRANCH   6   7
ENDBRANCH   5   6
ENDBRANCH   4   5
ENDBRANCH   3   4
ENDBRANCH   2   3
ENDBRANCH   1   2
BRANCH   1  10
ATOM     10  C   UNL     1      29.217  -6.945  16.756  1.00  0.00     0.000 C 
BRANCH  10  11
ATOM     11  C   UNL     1      30.618  -7.500  16.433  1.00  0.00    -0.000 C 
BRANCH  11  12
ATOM     12  C   UNL     1      30.665  -9.005  16.100  1.00  0.00    -0.000 C 
BRANCH  12  13
ATOM     13  C   UNL     1      31.010  -9.922  17.287  1.00  0.00    -0.000 C 
BRANCH  13  14
ATOM     14  C   UNL     1      29.982 -11.044  17.494  1.00  0.00    -0.000 C 
BRANCH  14  15
ATOM     15  C   UNL     1      28.586 -10.466  17.756  1.00  0.00    -0.003 C 
ATOM     16  C   UNL     1      28.034 -10.945  19.095  1.00  0.00     0.004 C 
ENDBRANCH  14  15
ENDBRANCH  13  14
ENDBRANCH  12  13
ENDBRANCH  11  12
ENDBRANCH  10  11
ENDBRANCH   1  10
TORSDOF 12
ENDMDL
MODEL 2
REMARK VINA RESULT:    -1.158      4.573      6.157
REMARK INTER + INTRA:          -4.046
REMARK INTER:                  -2.049
REMARK INTRA:                  -1.997
REMARK UNBOUND:                -2.077
REMARK SMILES CCCCCCCCCCCCCC(=O)[O-]
REMARK SMILES IDX 8 1 9 2 10 3 11 4 12 5 13 6 14 7 15 8 16 9 7 10 6 11 5 12
REMARK SMILES IDX 4 13 3 14 2 15 1 16
REMARK H PARENT
REMARK Flexibility Score: inf
ROOT
ATOM      1  C   UNL     1      27.920  -7.375  16.121  1.00  0.00     0.000 C 
ENDROOT
BRANCH   1   2
ATOM      2  C   UNL     1      26.965  -8.548  16.403  1.00  0.00     0.000 C 
BRANCH   2   3
ATOM      3  C   UNL     1      27.268  -9.785  15.543  1.00  0.00     0.000 C 
BRANCH   3   4
ATOM      4  C   UNL     1      28.469  -9.529  14.619  1.00  0.00     0.000 C 
BRANCH   4   5
ATOM      5  C   UNL     1      29.354 -10.773  14.441  1.00  0.00     0.006 C 
BRANCH   5   6
ATOM      6  C   UNL     1      30.807 -10.417  14.097  1.00  0.00     0.053 C 
BRANCH   6   7
ATOM      7  C   UNL     1      30.876  -9.753  12.758  1.00  0.00     0.041 C 
ATOM      8  O   UNL     1      31.122  -8.520  12.674  1.00  0.00    -0.550 OA
ATOM      9  O   UNL     1      30.718 -10.503  11.600  1.00  0.00    -0.550 OA
ENDBRANCH   6   7
ENDBRANCH   5   6
ENDBRANCH   4   5
ENDBRANCH   3   4
ENDBRANCH   2   3
ENDBRANCH   1   2
BRANCH   1  10
ATOM     10  C   UNL     1      28.892  -7.036  17.269  1.00  0.00     0.000 C 
BRANCH  10  11
ATOM     11  C   UNL     1      30.305  -7.632  17.125  1.00  0.00    -0.000 C 
BRANCH  11  12
ATOM     12  C   UNL     1      31.030  -7.924  18.454  1.00  0.00    -0.000 C 
BRANCH  12  13
ATOM     13  C   UNL     1      30.880  -9.365  18.973  1.00  0.00    -0.000 C 
BRANCH  13  14
ATOM     14  C   UNL     1      30.430 -10.349  17.883  1.00  0.00    -0.000 C 
BRANCH  14  15
ATOM     15  C   UNL     1      29.158 -11.092  18.306  1.00  0.00    -0.003 C 
ATOM     16  C   UNL     1      28.393 -10.313  19.372  1.00  0.00     0.004 C 
ENDBRANCH  14  15
ENDBRANCH  13  14
ENDBRANCH  12  13
ENDBRANCH  11  12
ENDBRANCH  10  11
ENDBRANCH   1  10
TORSDOF 12
ENDMDL
MODEL 3
REMARK VINA RESULT:    -1.111      4.259      5.795
REMARK INTER + INTRA:          -3.968
REMARK INTER:                  -2.037
REMARK INTRA:                  -1.931
REMARK UNBOUND:                -2.077
REMARK SMILES CCCCCCCCCCCCCC(=O)[O-]
REMARK SMILES IDX 8 1 9 2 10 3 11 4 12 5 13 6 14 7 15 8 16 9 7 10 6 11 5 12
REMARK SMILES IDX 4 13 3 14 2 15 1 16
REMARK H PARENT
REMARK Flexibility Score: inf
ROOT
ATOM      1  C   UNL     1      29.498  -8.368  19.932  1.00  0.00     0.000 C 
ENDROOT
BRANCH   1   2
ATOM      2  C   UNL     1      29.926  -9.777  19.484  1.00  0.00     0.000 C 
BRANCH   2   3
ATOM      3  C   UNL     1      30.941  -9.754  18.331  1.00  0.00     0.000 C 
BRANCH   3   4
ATOM      4  C   UNL     1      30.578 -10.795  17.260  1.00  0.00     0.000 C 
BRANCH   4   5
ATOM      5  C   UNL     1      30.711 -10.246  15.831  1.00  0.00     0.006 C 
BRANCH   5   6
ATOM      6  C   UNL     1      29.997 -11.123  14.794  1.00  0.00     0.053 C 
BRANCH   6   7
ATOM      7  C   UNL     1      29.794 -10.363  13.522  1.00  0.00     0.041 C 
ATOM      8  O   UNL     1      28.675  -9.845  13.264  1.00  0.00    -0.550 OA
ATOM      9  O   UNL     1      30.853 -10.185  12.641  1.00  0.00    -0.550 OA
ENDBRANCH   6   7
ENDBRANCH   5   6
ENDBRANCH   4   5
ENDBRANCH   3   4
ENDBRANCH   2   3
ENDBRANCH   1   2
BRANCH   1  10
ATOM     10  C   UNL     1      29.797  -7.245  18.920  1.00  0.00     0.000 C 
BRANCH  10  11
ATOM     11  C   UNL     1      28.559  -6.648  18.222  1.00  0.00    -0.000 C 
BRANCH  11  12
ATOM     12  C   UNL     1      27.470  -7.670  17.839  1.00  0.00    -0.000 C 
BRANCH  12  13
ATOM     13  C   UNL     1      27.713  -8.413  16.513  1.00  0.00    -0.000 C 
BRANCH  13  14
ATOM     14  C   UNL     1      26.914  -9.721  16.406  1.00  0.00    -0.000 C 
BRANCH  14  15
ATOM     15  C   UNL     1      26.880 -10.454  17.752  1.00  0.00    -0.003 C 
ATOM     16  C   UNL     1      25.497 -11.036  18.029  1.00  0.00     0.004 C 
ENDBRANCH  14  15
ENDBRANCH  13  14
ENDBRANCH  12  13
ENDBRANCH  11  12
ENDBRANCH  10  11
ENDBRANCH   1  10
TORSDOF 12
ENDMDL
MODEL 4
REMARK VINA RESULT:    -1.054      5.456      7.506
REMARK INTER + INTRA:          -3.870
REMARK INTER:                  -2.320
REMARK INTRA:                  -1.549
REMARK UNBOUND:                -2.077
REMARK SMILES CCCCCCCCCCCCCC(=O)[O-]
REMARK SMILES IDX 8 1 9 2 10 3 11 4 12 5 13 6 14 7 15 8 16 9 7 10 6 11 5 12
REMARK SMILES IDX 4 13 3 14 2 15 1 16
REMARK H PARENT
REMARK Flexibility Score: inf
ROOT
ATOM      1  C   UNL     1      26.824  -8.746  16.333  1.00  0.00     0.000 C 
ENDROOT
BRANCH   1   2
ATOM      2  C   UNL     1      27.820  -8.378  15.219  1.00  0.00     0.000 C 
BRANCH   2   3
ATOM      3  C   UNL     1      28.186  -9.573  14.326  1.00  0.00     0.000 C 
BRANCH   3   4
ATOM      4  C   UNL     1      29.707  -9.793  14.303  1.00  0.00     0.000 C 
BRANCH   4   5
ATOM      5  C   UNL     1      30.157 -10.695  13.143  1.00  0.00     0.006 C 
BRANCH   5   6
ATOM      6  C   UNL     1      30.848  -9.910  12.020  1.00  0.00     0.053 C 
BRANCH   6   7
ATOM      7  C   UNL     1      30.327 -10.341  10.686  1.00  0.00     0.041 C 
ATOM      8  O   UNL     1      31.125 -10.606   9.748  1.00  0.00    -0.550 OA
ATOM      9  O   UNL     1      28.960 -10.498  10.491  1.00  0.00    -0.550 OA
ENDBRANCH   6   7
ENDBRANCH   5   6
ENDBRANCH   4   5
ENDBRANCH   3   4
ENDBRANCH   2   3
ENDBRANCH   1   2
BRANCH   1  10
ATOM     10  C   UNL     1      26.945 -10.189  16.863  1.00  0.00     0.000 C 
BRANCH  10  11
ATOM     11  C   UNL     1      27.154 -10.309  18.385  1.00  0.00    -0.000 C 
BRANCH  11  12
ATOM     12  C   UNL     1      28.508 -10.912  18.813  1.00  0.00    -0.000 C 
BRANCH  12  13
ATOM     13  C   UNL     1      29.554 -11.024  17.688  1.00  0.00    -0.000 C 
BRANCH  13  14
ATOM     14  C   UNL     1      30.776 -10.123  17.918  1.00  0.00    -0.000 C 
BRANCH  14  15
ATOM     15  C   UNL     1      30.400  -8.643  17.776  1.00  0.00    -0.003 C 
ATOM     16  C   UNL     1      30.667  -7.880  19.070  1.00  0.00     0.004 C 
ENDBRANCH  14  15
ENDBRANCH  13  14
ENDBRANCH  12  13
ENDBRANCH  11  12
ENDBRANCH  10  11
ENDBRANCH   1  10
TORSDOF 12
ENDMDL
MODEL 5
REMARK VINA RESULT:    -0.953      2.990      4.563
REMARK INTER + INTRA:          -3.698
REMARK INTER:                  -1.698
REMARK INTRA:                  -2.000
REMARK UNBOUND:                -2.077
REMARK SMILES CCCCCCCCCCCCCC(=O)[O-]
REMARK SMILES IDX 8 1 9 2 10 3 11 4 12 5 13 6 14 7 15 8 16 9 7 10 6 11 5 12
REMARK SMILES IDX 4 13 3 14 2 15 1 16
REMARK H PARENT
REMARK Flexibility Score: inf
ROOT
ATOM      1  C   UNL     1      27.501  -8.884  13.448  1.00  0.00     0.000 C 
ENDROOT
BRANCH   1   2
ATOM      2  C   UNL     1      26.426  -8.575  14.506  1.00  0.00     0.000 C 
BRANCH   2   3
ATOM      3  C   UNL     1      26.658  -9.321  15.829  1.00  0.00     0.000 C 
BRANCH   3   4
ATOM      4  C   UNL     1      27.468  -8.459  16.809  1.00  0.00     0.000 C 
BRANCH   4   5
ATOM      5  C   UNL     1      28.609  -9.240  17.482  1.00  0.00     0.006 C 
BRANCH   5   6
ATOM      6  C   UNL     1      29.330  -8.419  18.559  1.00  0.00     0.053 C 
BRANCH   6   7
ATOM      7  C   UNL     1      30.172  -9.311  19.416  1.00  0.00     0.041 C 
ATOM      8  O   UNL     1      31.125  -9.961  18.910  1.00  0.00    -0.550 OA
ATOM      9  O   UNL     1      29.936  -9.388  20.783  1.00  0.00    -0.550 OA
ENDBRANCH   6   7
ENDBRANCH   5   6
ENDBRANCH   4   5
ENDBRANCH   3   4
ENDBRANCH   2   3
ENDBRANCH   1   2
BRANCH   1  10
ATOM     10  C   UNL     1      27.745 -10.384  13.188  1.00  0.00     0.000 C 
BRANCH  10  11
ATOM     11  C   UNL     1      29.226 -10.812  13.185  1.00  0.00    -0.000 C 
BRANCH  11  12
ATOM     12  C   UNL     1      29.821 -11.118  14.574  1.00  0.00    -0.000 C 
BRANCH  12  13
ATOM     13  C   UNL     1      31.023 -10.243  14.974  1.00  0.00    -0.000 C 
BRANCH  13  14
ATOM     14  C   UNL     1      31.113  -8.945  14.158  1.00  0.00    -0.000 C 
BRANCH  14  15
ATOM     15  C   UNL     1      31.123  -7.719  15.079  1.00  0.00    -0.003 C 
ATOM     16  C   UNL     1      30.006  -6.746  14.714  1.00  0.00     0.004 C 
ENDBRANCH  14  15
ENDBRANCH  13  14
ENDBRANCH  12  13
ENDBRANCH  11  12
ENDBRANCH  10  11
ENDBRANCH   1  10
TORSDOF 12
ENDMDL
MODEL 6
REMARK VINA RESULT:    -0.899      1.684      2.479
REMARK INTER + INTRA:          -3.605
REMARK INTER:                  -1.638
REMARK INTRA:                  -1.968
REMARK UNBOUND:                -2.077
REMARK SMILES CCCCCCCCCCCCCC(=O)[O-]
REMARK SMILES IDX 8 1 9 2 10 3 11 4 12 5 13 6 14 7 15 8 16 9 7 10 6 11 5 12
REMARK SMILES IDX 4 13 3 14 2 15 1 16
REMARK H PARENT
REMARK Flexibility Score: inf
ROOT
ATOM      1  C   UNL     1      26.961  -7.288  18.805  1.00  0.00     0.000 C 
ENDROOT
BRANCH   1   2
ATOM      2  C   UNL     1      26.209  -8.524  19.330  1.00  0.00     0.000 C 
BRANCH   2   3
ATOM      3  C   UNL     1      26.430  -8.764  20.831  1.00  0.00     0.000 C 
BRANCH   3   4
ATOM      4  C   UNL     1      27.206  -7.599  21.464  1.00  0.00     0.000 C 
BRANCH   4   5
ATOM      5  C   UNL     1      28.507  -8.053  22.144  1.00  0.00     0.006 C 
BRANCH   5   6
ATOM      6  C   UNL     1      28.690  -9.576  22.110  1.00  0.00     0.053 C 
BRANCH   6   7
ATOM      7  C   UNL     1      30.125  -9.933  22.337  1.00  0.00     0.041 C 
ATOM      8  O   UNL     1      30.450 -11.125  22.584  1.00  0.00    -0.550 OA
ATOM      9  O   UNL     1      31.110  -8.960  22.229  1.00  0.00    -0.550 OA
ENDBRANCH   6   7
ENDBRANCH   5   6
ENDBRANCH   4   5
ENDBRANCH   3   4
ENDBRANCH   2   3
ENDBRANCH   1   2
BRANCH   1  10
ATOM     10  C   UNL     1      28.126  -7.597  17.842  1.00  0.00     0.000 C 
BRANCH  10  11
ATOM     11  C   UNL     1      29.533  -7.376  18.430  1.00  0.00    -0.000 C 
BRANCH  11  12
ATOM     12  C   UNL     1      30.294  -8.663  18.805  1.00  0.00    -0.000 C 
BRANCH  12  13
ATOM     13  C   UNL     1      29.558  -9.974  18.470  1.00  0.00    -0.000 C 
BRANCH  13  14
ATOM     14  C   UNL     1      30.270 -10.798  17.387  1.00  0.00    -0.000 C 
BRANCH  14  15
ATOM     15  C   UNL     1      29.591 -10.614  16.024  1.00  0.00    -0.003 C 
ATOM     16  C   UNL     1      30.365  -9.631  15.151  1.00  0.00     0.004 C 
ENDBRANCH  14  15
ENDBRANCH  13  14
ENDBRANCH  12  13
ENDBRANCH  11  12
ENDBRANCH  10  11
ENDBRANCH   1  10
TORSDOF 12
ENDMDL
MODEL 7
REMARK VINA RESULT:    -0.857      2.421      4.005
REMARK INTER + INTRA:          -3.535
REMARK INTER:                  -2.004
REMARK INTRA:                  -1.531
REMARK UNBOUND:                -2.077
REMARK SMILES CCCCCCCCCCCCCC(=O)[O-]
REMARK SMILES IDX 8 1 9 2 10 3 11 4 12 5 13 6 14 7 15 8 16 9 7 10 6 11 5 12
REMARK SMILES IDX 4 13 3 14 2 15 1 16
REMARK H PARENT
REMARK Flexibility Score: inf
ROOT
ATOM      1  C   UNL     1      30.193  -9.239  13.663  1.00  0.00     0.000 C 
ENDROOT
BRANCH   1   2
ATOM      2  C   UNL     1      29.843 -10.393  14.620  1.00  0.00     0.000 C 
BRANCH   2   3
ATOM      3  C   UNL     1      30.924 -10.635  15.685  1.00  0.00     0.000 C 
BRANCH   3   4
ATOM      4  C   UNL     1      30.298 -11.125  16.999  1.00  0.00     0.000 C 
BRANCH   4   5
ATOM      5  C   UNL     1      30.203 -10.017  18.060  1.00  0.00     0.006 C 
BRANCH   5   6
ATOM      6  C   UNL     1      29.255 -10.381  19.210  1.00  0.00     0.053 C 
BRANCH   6   7
ATOM      7  C   UNL     1      29.837  -9.951  20.520  1.00  0.00     0.041 C 
ATOM      8  O   UNL     1      30.949  -9.361  20.557  1.00  0.00    -0.550 OA
ATOM      9  O   UNL     1      29.128 -10.156  21.697  1.00  0.00    -0.550 OA
ENDBRANCH   6   7
ENDBRANCH   5   6
ENDBRANCH   4   5
ENDBRANCH   3   4
ENDBRANCH   2   3
ENDBRANCH   1   2
BRANCH   1  10
ATOM     10  C   UNL     1      29.090  -8.175  13.497  1.00  0.00     0.000 C 
BRANCH  10  11
ATOM     11  C   UNL     1      27.796  -8.448  14.288  1.00  0.00    -0.000 C 
BRANCH  11  12
ATOM     12  C   UNL     1      27.600  -7.573  15.542  1.00  0.00    -0.000 C 
BRANCH  12  13
ATOM     13  C   UNL     1      27.013  -8.307  16.762  1.00  0.00    -0.000 C 
BRANCH  13  14
ATOM     14  C   UNL     1      26.810  -9.809  16.514  1.00  0.00    -0.000 C 
BRANCH  14  15
ATOM     15  C   UNL     1      25.415 -10.256  16.967  1.00  0.00    -0.003 C 
ATOM     16  C   UNL     1      25.458 -10.859  18.368  1.00  0.00     0.004 C 
ENDBRANCH  14  15
ENDBRANCH  13  14
ENDBRANCH  12  13
ENDBRANCH  11  12
ENDBRANCH  10  11
ENDBRANCH   1  10
TORSDOF 12
ENDMDL
