MODEL 1
REMARK VINA RESULT:    -4.671      0.000      0.000
REMARK INTER + INTRA:          -6.642
REMARK INTER:                  -6.037
REMARK INTRA:                  -0.606
REMARK UNBOUND:                -0.606
REMARK SMILES C=CC(=O)CCCCC
REMARK SMILES IDX 6 1 7 2 8 3 9 4 5 5 3 6 4 7 2 8 1 9
REMARK H PARENT
REMARK Flexibility Score: inf
ROOT
ATOM      1  C   UNL     1      70.833  61.596  28.991  1.00  0.00     0.008 C 
ENDROOT
BRANCH   1   2
ATOM      2  C   UNL     1      72.188  61.416  28.290  1.00  0.00     0.000 C 
BRANCH   2   3
ATOM      3  C   UNL     1      72.359  62.356  27.087  1.00  0.00    -0.003 C 
ATOM      4  C   UNL     1      71.367  63.518  27.098  1.00  0.00     0.004 C 
ENDBRANCH   2   3
ENDBRANCH   1   2
BRANCH   1   5
ATOM      5  C   UNL     1      69.893  60.429  28.673  1.00  0.00     0.080 C 
BRANCH   5   6
ATOM      6  C   UNL     1      68.871  60.838  27.654  1.00  0.00     0.155 C 
ATOM      7  O   UNL     1      68.028  61.730  27.947  1.00  0.00    -0.295 OA
BRANCH   6   8
ATOM      8  C   UNL     1      68.886  60.233  26.308  1.00  0.00     0.039 C 
ATOM      9  C   UNL     1      70.012  59.861  25.702  1.00  0.00     0.012 C 
ENDBRANCH   6   8
ENDBRANCH   5   6
ENDBRANCH   1   5
TORSDOF 5
ENDMDL
MODEL 2
REMARK VINA RESULT:    -4.637      2.076      3.723
REMARK INTER + INTRA:          -6.599
REMARK INTER:                  -6.153
REMARK INTRA:                  -0.445
REMARK UNBOUND:                -0.606
REMARK SMILES C=CC(=O)CCCCC
REMARK SMILES IDX 6 1 7 2 8 3 9 4 5 5 3 6 4 7 2 8 1 9
REMARK H PARENT
REMARK Flexibility Score: inf
ROOT
ATOM      1  C   UNL     1      70.048  61.337  29.044  1.00  0.00     0.008 C 
ENDROOT
BRANCH   1   2
ATOM      2  C   UNL     1      68.625  61.391  28.465  1.00  0.00     0.000 C 
BRANCH   2   3
ATOM      3  C   UNL     1      68.567  60.929  27.001  1.00  0.00    -0.003 C 
ATOM      4  C   UNL     1      67.202  60.365  26.611  1.00  0.00     0.004 C 
ENDBRANCH   2   3
ENDBRANCH   1   2
BRANCH   1   5
ATOM      5  C   UNL     1      70.985  60.551  28.122  1.00  0.00     0.080 C 
BRANCH   5   6
ATOM      6  C   UNL     1      72.209  61.357  27.804  1.00  0.00     0.155 C 
ATOM      7  O   UNL     1      73.328  60.988  28.257  1.00  0.00    -0.295 OA
BRANCH   6   8
ATOM      8  C   UNL     1      72.107  62.544  26.933  1.00  0.00     0.039 C 
ATOM      9  C   UNL     1      71.674  62.474  25.676  1.00  0.00     0.012 C 
ENDBRANCH   6   8
ENDBRANCH   5   6
ENDBRANCH   1   5
TORSDOF 5
ENDMDL
MODEL 3
REMARK VINA RESULT:    -4.634      2.040      3.953
REMARK INTER + INTRA:          -6.595
REMARK INTER:                  -6.040
REMARK INTRA:                  -0.555
REMARK UNBOUND:                -0.606
REMARK SMILES C=CC(=O)CCCCC
REMARK SMILES IDX 6 1 7 2 8 3 9 4 5 5 3 6 4 7 2 8 1 9
REMARK H PARENT
REMARK Flexibility Score: inf
ROOT
ATOM      1  C   UNL     1      69.902  60.215  26.684  1.00  0.00     0.008 C 
ENDROOT
BRANCH   1   2
ATOM      2  C   UNL     1      68.403  60.540  26.597  1.00  0.00     0.000 C 
BRANCH   2   3
ATOM      3  C   UNL     1      67.910  61.374  27.789  1.00  0.00    -0.003 C 
ATOM      4  C   UNL     1      68.893  61.372  28.959  1.00  0.00     0.004 C 
ENDBRANCH   2   3
ENDBRANCH   1   2
BRANCH   1   5
ATOM      5  C   UNL     1      70.610  60.537  25.364  1.00  0.00     0.080 C 
BRANCH   5   6
ATOM      6  C   UNL     1      71.282  61.876  25.440  1.00  0.00     0.155 C 
ATOM      7  O   UNL     1      71.432  62.554  24.386  1.00  0.00    -0.295 OA
BRANCH   6   8
ATOM      8  C   UNL     1      71.721  62.410  26.744  1.00  0.00     0.039 C 
ATOM      9  C   UNL     1      71.324  63.596  27.201  1.00  0.00     0.012 C 
ENDBRANCH   6   8
ENDBRANCH   5   6
ENDBRANCH   1   5
TORSDOF 5
ENDMDL
MODEL 4
REMARK VINA RESULT:    -4.616      1.603      2.075
REMARK INTER + INTRA:          -6.571
REMARK INTER:                  -6.022
REMARK INTRA:                  -0.550
REMARK UNBOUND:                -0.606
REMARK SMILES C=CC(=O)CCCCC
REMARK SMILES IDX 6 1 7 2 8 3 9 4 5 5 3 6 4 7 2 8 1 9
REMARK H PARENT
REMARK Flexibility Score: inf
ROOT
ATOM      1  C   UNL     1      71.411  60.810  27.985  1.00  0.00     0.008 C 
ENDROOT
BRANCH   1   2
ATOM      2  C   UNL     1      70.874  62.140  28.535  1.00  0.00     0.000 C 
BRANCH   2   3
ATOM      3  C   UNL     1      70.994  63.289  27.523  1.00  0.00    -0.003 C 
ATOM      4  C   UNL     1      71.751  62.887  26.258  1.00  0.00     0.004 C 
ENDBRANCH   2   3
ENDBRANCH   1   2
BRANCH   1   5
ATOM      5  C   UNL     1      70.279  59.793  27.812  1.00  0.00     0.080 C 
BRANCH   5   6
ATOM      6  C   UNL     1      69.605  59.975  26.484  1.00  0.00     0.155 C 
ATOM      7  O   UNL     1      70.199  59.605  25.434  1.00  0.00    -0.295 OA
BRANCH   6   8
ATOM      8  C   UNL     1      68.243  60.538  26.417  1.00  0.00     0.039 C 
ATOM      9  C   UNL     1      67.584  60.949  27.499  1.00  0.00     0.012 C 
ENDBRANCH   6   8
ENDBRANCH   5   6
ENDBRANCH   1   5
TORSDOF 5
ENDMDL
MODEL 5
REMARK VINA RESULT:    -4.601      1.476      3.658
REMARK INTER + INTRA:          -6.552
REMARK INTER:                  -6.182
REMARK INTRA:                  -0.370
REMARK UNBOUND:                -0.606
REMARK SMILES C=CC(=O)CCCCC
REMARK SMILES IDX 6 1 7 2 8 3 9 4 5 5 3 6 4 7 2 8 1 9
REMARK H PARENT
REMARK Flexibility Score: inf
ROOT
ATOM      1  C   UNL     1      69.545  60.654  28.962  1.00  0.00     0.008 C 
ENDROOT
BRANCH   1   2
ATOM      2  C   UNL     1      68.227  61.282  28.484  1.00  0.00     0.000 C 
BRANCH   2   3
ATOM      3  C   UNL     1      67.766  60.727  27.128  1.00  0.00    -0.003 C 
ATOM      4  C   UNL     1      68.930  60.273  26.248  1.00  0.00     0.004 C 
ENDBRANCH   2   3
ENDBRANCH   1   2
BRANCH   1   5
ATOM      5  C   UNL     1      70.564  61.735  29.335  1.00  0.00     0.080 C 
BRANCH   5   6
ATOM      6  C   UNL     1      71.357  62.150  28.131  1.00  0.00     0.155 C 
ATOM      7  O   UNL     1      71.034  63.200  27.510  1.00  0.00    -0.295 OA
BRANCH   6   8
ATOM      8  C   UNL     1      72.529  61.359  27.709  1.00  0.00     0.039 C 
ATOM      9  C   UNL     1      73.622  61.242  28.461  1.00  0.00     0.012 C 
ENDBRANCH   6   8
ENDBRANCH   5   6
ENDBRANCH   1   5
TORSDOF 5
ENDMDL
MODEL 6
REMARK VINA RESULT:    -4.547      1.022      1.486
REMARK INTER + INTRA:          -6.482
REMARK INTER:                  -6.010
REMARK INTRA:                  -0.472
REMARK UNBOUND:                -0.606
REMARK SMILES C=CC(=O)CCCCC
REMARK SMILES IDX 6 1 7 2 8 3 9 4 5 5 3 6 4 7 2 8 1 9
REMARK H PARENT
REMARK Flexibility Score: inf
ROOT
ATOM      1  C   UNL     1      69.663  60.719  29.042  1.00  0.00     0.008 C 
ENDROOT
BRANCH   1   2
ATOM      2  C   UNL     1      70.830  61.707  29.194  1.00  0.00     0.000 C 
BRANCH   2   3
ATOM      3  C   UNL     1      72.078  61.270  28.412  1.00  0.00    -0.003 C 
ATOM      4  C   UNL     1      72.379  62.179  27.222  1.00  0.00     0.004 C 
ENDBRANCH   2   3
ENDBRANCH   1   2
BRANCH   1   5
ATOM      5  C   UNL     1      68.490  61.368  28.301  1.00  0.00     0.080 C 
BRANCH   5   6
ATOM      6  C   UNL     1      68.287  60.718  26.965  1.00  0.00     0.155 C 
ATOM      7  O   UNL     1      67.168  60.204  26.690  1.00  0.00    -0.295 OA
BRANCH   6   8
ATOM      8  C   UNL     1      69.375  60.723  25.967  1.00  0.00     0.039 C 
ATOM      9  C   UNL     1      70.039  59.620  25.626  1.00  0.00     0.012 C 
ENDBRANCH   6   8
ENDBRANCH   5   6
ENDBRANCH   1   5
TORSDOF 5
ENDMDL
MODEL 7
REMARK VINA RESULT:    -4.532      0.901      2.410
REMARK INTER + INTRA:          -6.463
REMARK INTER:                  -5.843
REMARK INTRA:                  -0.619
REMARK UNBOUND:                -0.606
REMARK SMILES C=CC(=O)CCCCC
REMARK SMILES IDX 6 1 7 2 8 3 9 4 5 5 3 6 4 7 2 8 1 9
REMARK H PARENT
REMARK Flexibility Score: inf
ROOT
ATOM      1  C   UNL     1      70.528  60.352  25.965  1.00  0.00     0.008 C 
ENDROOT
BRANCH   1   2
ATOM      2  C   UNL     1      70.995  61.742  25.507  1.00  0.00     0.000 C 
BRANCH   2   3
ATOM      3  C   UNL     1      71.944  62.408  26.515  1.00  0.00    -0.003 C 
ATOM      4  C   UNL     1      71.359  63.679  27.128  1.00  0.00     0.004 C 
ENDBRANCH   2   3
ENDBRANCH   1   2
BRANCH   1   5
ATOM      5  C   UNL     1      69.023  60.345  26.247  1.00  0.00     0.080 C 
BRANCH   5   6
ATOM      6  C   UNL     1      68.736  60.940  27.594  1.00  0.00     0.155 C 
ATOM      7  O   UNL     1      67.785  61.759  27.719  1.00  0.00    -0.295 OA
BRANCH   6   8
ATOM      8  C   UNL     1      69.534  60.532  28.767  1.00  0.00     0.039 C 
ATOM      9  C   UNL     1      69.939  61.399  29.693  1.00  0.00     0.012 C 
ENDBRANCH   6   8
ENDBRANCH   5   6
ENDBRANCH   1   5
TORSDOF 5
ENDMDL
MODEL 8
REMARK VINA RESULT:    -4.514      1.342      2.580
REMARK INTER + INTRA:          -6.439
REMARK INTER:                  -6.015
REMARK INTRA:                  -0.424
REMARK UNBOUND:                -0.606
REMARK SMILES C=CC(=O)CCCCC
REMARK SMILES IDX 6 1 7 2 8 3 9 4 5 5 3 6 4 7 2 8 1 9
REMARK H PARENT
REMARK Flexibility Score: inf
ROOT
ATOM      1  C   UNL     1      71.065  61.713  26.139  1.00  0.00     0.008 C 
ENDROOT
BRANCH   1   2
ATOM      2  C   UNL     1      72.279  62.132  26.983  1.00  0.00     0.000 C 
BRANCH   2   3
ATOM      3  C   UNL     1      72.489  61.225  28.204  1.00  0.00    -0.003 C 
ATOM      4  C   UNL     1      73.966  60.994  28.523  1.00  0.00     0.004 C 
ENDBRANCH   2   3
ENDBRANCH   1   2
BRANCH   1   5
ATOM      5  C   UNL     1      70.316  60.550  26.798  1.00  0.00     0.080 C 
BRANCH   5   6
ATOM      6  C   UNL     1      68.892  60.931  27.077  1.00  0.00     0.155 C 
ATOM      7  O   UNL     1      67.989  60.590  26.264  1.00  0.00    -0.295 OA
BRANCH   6   8
ATOM      8  C   UNL     1      68.550  61.658  28.315  1.00  0.00     0.039 C 
ATOM      9  C   UNL     1      69.143  61.405  29.481  1.00  0.00     0.012 C 
ENDBRANCH   6   8
ENDBRANCH   5   6
ENDBRANCH   1   5
TORSDOF 5
ENDMDL
MODEL 9
REMARK VINA RESULT:    -4.483      1.580      1.970
REMARK INTER + INTRA:          -6.399
REMARK INTER:                  -5.971
REMARK INTRA:                  -0.428
REMARK UNBOUND:                -0.606
REMARK SMILES C=CC(=O)CCCCC
REMARK SMILES IDX 6 1 7 2 8 3 9 4 5 5 3 6 4 7 2 8 1 9
REMARK H PARENT
REMARK Flexibility Score: inf
ROOT
ATOM      1  C   UNL     1      71.656  60.852  28.026  1.00  0.00     0.008 C 
ENDROOT
BRANCH   1   2
ATOM      2  C   UNL     1      71.697  61.990  26.994  1.00  0.00     0.000 C 
BRANCH   2   3
ATOM      3  C   UNL     1      71.142  61.565  25.626  1.00  0.00    -0.003 C 
ATOM      4  C   UNL     1      71.522  62.532  24.506  1.00  0.00     0.004 C 
ENDBRANCH   2   3
ENDBRANCH   1   2
BRANCH   1   5
ATOM      5  C   UNL     1      70.331  60.088  27.947  1.00  0.00     0.080 C 
BRANCH   5   6
ATOM      6  C   UNL     1      69.233  60.870  28.605  1.00  0.00     0.155 C 
ATOM      7  O   UNL     1      69.394  61.292  29.783  1.00  0.00    -0.295 OA
BRANCH   6   8
ATOM      8  C   UNL     1      67.996  61.178  27.861  1.00  0.00     0.039 C 
ATOM      9  C   UNL     1      67.645  60.526  26.754  1.00  0.00     0.012 C 
ENDBRANCH   6   8
ENDBRANCH   5   6
ENDBRANCH   1   5
TORSDOF 5
ENDMDL
