MODEL 1
REMARK VINA RESULT:    -1.845      0.000      0.000
REMARK INTER + INTRA:          -6.991
REMARK INTER:                  -4.866
REMARK INTRA:                  -2.125
REMARK UNBOUND:                -2.125
REMARK SMILES CCCCCCCCCCCCCCCCCCCCCCCCCCCCCC(=O)[O-]
REMARK SMILES IDX 16 1 17 2 18 3 19 4 20 5 21 6 22 7 23 8 24 9 25 10 26 11
REMARK SMILES IDX 27 12 28 13 29 14 30 15 31 16 32 17 15 18 14 19 13 20 12 21
REMARK SMILES IDX 11 22 10 23 9 24 8 25 7 26 6 27 5 28 4 29 3 30 2 31 1 32
REMARK H PARENT
REMARK Flexibility Score: inf
ROOT
ATOM      1  C   UNL     1      17.743  26.548  -1.156  1.00  0.00     0.000 C 
ENDROOT
BRANCH   1   2
ATOM      2  C   UNL     1      16.736  25.385  -1.193  1.00  0.00     0.000 C 
BRANCH   2   3
ATOM      3  C   UNL     1      17.342  24.059  -0.702  1.00  0.00     0.000 C 
BRANCH   3   4
ATOM      4  C   UNL     1      18.855  23.955  -0.968  1.00  0.00     0.000 C 
BRANCH   4   5
ATOM      5  C   UNL     1      19.742  23.886   0.292  1.00  0.00     0.000 C 
BRANCH   5   6
ATOM      6  C   UNL     1      19.034  24.246   1.614  1.00  0.00     0.000 C 
BRANCH   6   7
ATOM      7  C   UNL     1      19.938  24.885   2.683  1.00  0.00     0.000 C 
BRANCH   7   8
ATOM      8  C   UNL     1      19.825  24.187   4.049  1.00  0.00     0.000 C 
BRANCH   8   9
ATOM      9  C   UNL     1      18.531  24.552   4.796  1.00  0.00     0.000 C 
BRANCH   9  10
ATOM     10  C   UNL     1      17.953  23.371   5.592  1.00  0.00     0.000 C 
BRANCH  10  11
ATOM     11  C   UNL     1      16.426  23.288   5.429  1.00  0.00     0.000 C 
BRANCH  11  12
ATOM     12  C   UNL     1      15.897  21.850   5.543  1.00  0.00     0.000 C 
BRANCH  12  13
ATOM     13  C   UNL     1      14.360  21.785   5.589  1.00  0.00     0.006 C 
BRANCH  13  14
ATOM     14  C   UNL     1      13.710  23.086   5.103  1.00  0.00     0.053 C 
BRANCH  14  15
ATOM     15  C   UNL     1      12.732  22.842   3.994  1.00  0.00     0.041 C 
ATOM     16  O   UNL     1      11.713  23.573   3.873  1.00  0.00    -0.550 OA
ATOM     17  O   UNL     1      12.925  21.781   3.119  1.00  0.00    -0.550 OA
ENDBRANCH  14  15
ENDBRANCH  13  14
ENDBRANCH  12  13
ENDBRANCH  11  12
ENDBRANCH  10  11
ENDBRANCH   9  10
ENDBRANCH   8   9
ENDBRANCH   7   8
ENDBRANCH   6   7
ENDBRANCH   5   6
ENDBRANCH   4   5
ENDBRANCH   3   4
ENDBRANCH   2   3
ENDBRANCH   1   2
BRANCH   1  18
ATOM     18  C   UNL     1      17.831  27.292   0.191  1.00  0.00     0.000 C 
BRANCH  18  19
ATOM     19  C   UNL     1      19.211  27.897   0.518  1.00  0.00     0.000 C 
BRANCH  19  20
ATOM     20  C   UNL     1      19.427  29.341   0.026  1.00  0.00     0.000 C 
BRANCH  20  21
ATOM     21  C   UNL     1      20.580  30.052   0.754  1.00  0.00     0.000 C 
BRANCH  21  22
ATOM     22  C   UNL     1      20.246  31.509   1.122  1.00  0.00     0.000 C 
BRANCH  22  23
ATOM     23  C   UNL     1      21.043  32.590   0.360  1.00  0.00     0.000 C 
BRANCH  23  24
ATOM     24  C   UNL     1      20.284  33.903   0.081  1.00  0.00    -0.000 C 
BRANCH  24  25
ATOM     25  C   UNL     1      20.329  34.366  -1.394  1.00  0.00    -0.000 C 
BRANCH  25  26
ATOM     26  C   UNL     1      20.226  35.892  -1.566  1.00  0.00    -0.000 C 
BRANCH  26  27
ATOM     27  C   UNL     1      20.902  36.445  -2.834  1.00  0.00    -0.000 C 
BRANCH  27  28
ATOM     28  C   UNL     1      19.992  37.303  -3.736  1.00  0.00    -0.000 C 
BRANCH  28  29
ATOM     29  C   UNL     1      18.785  37.944  -3.023  1.00  0.00    -0.000 C 
BRANCH  29  30
ATOM     30  C   UNL     1      17.472  37.948  -3.833  1.00  0.00    -0.000 C 
BRANCH  30  31
ATOM     31  C   UNL     1      16.221  37.533  -3.038  1.00  0.00    -0.003 C 
ATOM     32  C   UNL     1      16.517  36.487  -1.964  1.00  0.00     0.004 C 
ENDBRANCH  30  31
ENDBRANCH  29  30
ENDBRANCH  28  29
ENDBRANCH  27  28
ENDBRANCH  26  27
ENDBRANCH  25  26
ENDBRANCH  24  25
ENDBRANCH  23  24
ENDBRANCH  22  23
ENDBRANCH  21  22
ENDBRANCH  20  21
ENDBRANCH  19  20
ENDBRANCH  18  19
ENDBRANCH   1  18
TORSDOF 28
ENDMDL
MODEL 2
REMARK VINA RESULT:    -1.688      6.392     11.705
REMARK INTER + INTRA:          -6.577
REMARK INTER:                  -4.580
REMARK INTRA:                  -1.997
REMARK UNBOUND:                -2.125
REMARK SMILES CCCCCCCCCCCCCCCCCCCCCCCCCCCCCC(=O)[O-]
REMARK SMILES IDX 16 1 17 2 18 3 19 4 20 5 21 6 22 7 23 8 24 9 25 10 26 11
REMARK SMILES IDX 27 12 28 13 29 14 30 15 31 16 32 17 15 18 14 19 13 20 12 21
REMARK SMILES IDX 11 22 10 23 9 24 8 25 7 26 6 27 5 28 4 29 3 30 2 31 1 32
REMARK H PARENT
REMARK Flexibility Score: inf
ROOT
ATOM      1  C   UNL     1      13.839  24.785   5.438  1.00  0.00     0.000 C 
ENDROOT
BRANCH   1   2
ATOM      2  C   UNL     1      12.954  23.852   4.592  1.00  0.00     0.000 C 
BRANCH   2   3
ATOM      3  C   UNL     1      13.551  22.442   4.444  1.00  0.00     0.000 C 
BRANCH   3   4
ATOM      4  C   UNL     1      14.459  22.046   5.622  1.00  0.00     0.000 C 
BRANCH   4   5
ATOM      5  C   UNL     1      15.914  21.696   5.244  1.00  0.00     0.000 C 
BRANCH   5   6
ATOM      6  C   UNL     1      16.960  22.774   5.593  1.00  0.00     0.000 C 
BRANCH   6   7
ATOM      7  C   UNL     1      18.002  23.050   4.494  1.00  0.00     0.000 C 
BRANCH   7   8
ATOM      8  C   UNL     1      18.597  24.465   4.584  1.00  0.00     0.000 C 
BRANCH   8   9
ATOM      9  C   UNL     1      19.739  24.693   3.579  1.00  0.00     0.000 C 
BRANCH   9  10
ATOM     10  C   UNL     1      19.341  25.636   2.433  1.00  0.00     0.000 C 
BRANCH  10  11
ATOM     11  C   UNL     1      18.876  24.843   1.201  1.00  0.00     0.000 C 
BRANCH  11  12
ATOM     12  C   UNL     1      18.787  25.714  -0.063  1.00  0.00     0.000 C 
BRANCH  12  13
ATOM     13  C   UNL     1      17.335  25.980  -0.500  1.00  0.00     0.006 C 
BRANCH  13  14
ATOM     14  C   UNL     1      17.016  25.350  -1.863  1.00  0.00     0.053 C 
BRANCH  14  15
ATOM     15  C   UNL     1      15.540  25.231  -2.091  1.00  0.00     0.041 C 
ATOM     16  O   UNL     1      14.792  24.770  -1.188  1.00  0.00    -0.550 OA
ATOM     17  O   UNL     1      14.996  25.594  -3.316  1.00  0.00    -0.550 OA
ENDBRANCH  14  15
ENDBRANCH  13  14
ENDBRANCH  12  13
ENDBRANCH  11  12
ENDBRANCH  10  11
ENDBRANCH   9  10
ENDBRANCH   8   9
ENDBRANCH   7   8
ENDBRANCH   6   7
ENDBRANCH   5   6
ENDBRANCH   4   5
ENDBRANCH   3   4
ENDBRANCH   2   3
ENDBRANCH   1   2
BRANCH   1  18
ATOM     18  C   UNL     1      13.460  26.278   5.372  1.00  0.00     0.000 C 
BRANCH  18  19
ATOM     19  C   UNL     1      14.206  27.189   6.368  1.00  0.00     0.000 C 
BRANCH  19  20
ATOM     20  C   UNL     1      13.338  27.771   7.500  1.00  0.00     0.000 C 
BRANCH  20  21
ATOM     21  C   UNL     1      14.133  28.678   8.454  1.00  0.00     0.000 C 
BRANCH  21  22
ATOM     22  C   UNL     1      14.737  27.911   9.643  1.00  0.00     0.000 C 
BRANCH  22  23
ATOM     23  C   UNL     1      15.727  28.710  10.519  1.00  0.00     0.000 C 
BRANCH  23  24
ATOM     24  C   UNL     1      16.153  28.027  11.834  1.00  0.00    -0.000 C 
BRANCH  24  25
ATOM     25  C   UNL     1      16.362  26.499  11.724  1.00  0.00    -0.000 C 
BRANCH  25  26
ATOM     26  C   UNL     1      16.391  25.779  13.084  1.00  0.00    -0.000 C 
BRANCH  26  27
ATOM     27  C   UNL     1      16.408  24.241  12.999  1.00  0.00    -0.000 C 
BRANCH  27  28
ATOM     28  C   UNL     1      17.669  23.639  12.347  1.00  0.00    -0.000 C 
BRANCH  28  29
ATOM     29  C   UNL     1      17.491  23.173  10.889  1.00  0.00    -0.000 C 
BRANCH  29  30
ATOM     30  C   UNL     1      18.644  23.548   9.936  1.00  0.00    -0.000 C 
BRANCH  30  31
ATOM     31  C   UNL     1      19.527  24.713  10.417  1.00  0.00    -0.003 C 
ATOM     32  C   UNL     1      20.957  24.282  10.741  1.00  0.00     0.004 C 
ENDBRANCH  30  31
ENDBRANCH  29  30
ENDBRANCH  28  29
ENDBRANCH  27  28
ENDBRANCH  26  27
ENDBRANCH  25  26
ENDBRANCH  24  25
ENDBRANCH  23  24
ENDBRANCH  22  23
ENDBRANCH  21  22
ENDBRANCH  20  21
ENDBRANCH  19  20
ENDBRANCH  18  19
ENDBRANCH   1  18
TORSDOF 28
ENDMDL
MODEL 3
REMARK VINA RESULT:    -1.574      4.097     12.249
REMARK INTER + INTRA:          -6.274
REMARK INTER:                  -4.977
REMARK INTRA:                  -1.297
REMARK UNBOUND:                -2.125
REMARK SMILES CCCCCCCCCCCCCCCCCCCCCCCCCCCCCC(=O)[O-]
REMARK SMILES IDX 16 1 17 2 18 3 19 4 20 5 21 6 22 7 23 8 24 9 25 10 26 11
REMARK SMILES IDX 27 12 28 13 29 14 30 15 31 16 32 17 15 18 14 19 13 20 12 21
REMARK SMILES IDX 11 22 10 23 9 24 8 25 7 26 6 27 5 28 4 29 3 30 2 31 1 32
REMARK H PARENT
REMARK Flexibility Score: inf
ROOT
ATOM      1  C   UNL     1      18.870  24.909  -1.441  1.00  0.00     0.000 C 
ENDROOT
BRANCH   1   2
ATOM      2  C   UNL     1      17.366  25.226  -1.519  1.00  0.00     0.000 C 
BRANCH   2   3
ATOM      3  C   UNL     1      16.979  26.469  -0.700  1.00  0.00     0.000 C 
BRANCH   3   4
ATOM      4  C   UNL     1      18.096  26.936   0.250  1.00  0.00     0.000 C 
BRANCH   4   5
ATOM      5  C   UNL     1      18.884  28.176  -0.219  1.00  0.00     0.000 C 
BRANCH   5   6
ATOM      6  C   UNL     1      19.563  28.987   0.905  1.00  0.00     0.000 C 
BRANCH   6   7
ATOM      7  C   UNL     1      20.247  30.287   0.447  1.00  0.00     0.000 C 
BRANCH   7   8
ATOM      8  C   UNL     1      20.213  31.385   1.524  1.00  0.00     0.000 C 
BRANCH   8   9
ATOM      9  C   UNL     1      20.918  32.677   1.076  1.00  0.00     0.000 C 
BRANCH   9  10
ATOM     10  C   UNL     1      20.649  33.018  -0.398  1.00  0.00     0.000 C 
BRANCH  10  11
ATOM     11  C   UNL     1      20.330  34.511  -0.571  1.00  0.00     0.000 C 
BRANCH  11  12
ATOM     12  C   UNL     1      20.549  34.999  -2.013  1.00  0.00     0.000 C 
BRANCH  12  13
ATOM     13  C   UNL     1      20.162  36.476  -2.205  1.00  0.00     0.006 C 
BRANCH  13  14
ATOM     14  C   UNL     1      18.882  36.844  -1.442  1.00  0.00     0.053 C 
BRANCH  14  15
ATOM     15  C   UNL     1      17.684  36.874  -2.342  1.00  0.00     0.041 C 
ATOM     16  O   UNL     1      17.649  37.658  -3.327  1.00  0.00    -0.550 OA
ATOM     17  O   UNL     1      16.590  36.063  -2.069  1.00  0.00    -0.550 OA
ENDBRANCH  14  15
ENDBRANCH  13  14
ENDBRANCH  12  13
ENDBRANCH  11  12
ENDBRANCH  10  11
ENDBRANCH   9  10
ENDBRANCH   8   9
ENDBRANCH   7   8
ENDBRANCH   6   7
ENDBRANCH   5   6
ENDBRANCH   4   5
ENDBRANCH   3   4
ENDBRANCH   2   3
ENDBRANCH   1   2
BRANCH   1  18
ATOM     18  C   UNL     1      19.252  23.800  -0.440  1.00  0.00     0.000 C 
BRANCH  18  19
ATOM     19  C   UNL     1      19.482  24.274   1.009  1.00  0.00     0.000 C 
BRANCH  19  20
ATOM     20  C   UNL     1      20.712  23.668   1.710  1.00  0.00     0.000 C 
BRANCH  20  21
ATOM     21  C   UNL     1      20.727  23.935   3.224  1.00  0.00     0.000 C 
BRANCH  21  22
ATOM     22  C   UNL     1      19.656  24.949   3.663  1.00  0.00     0.000 C 
BRANCH  22  23
ATOM     23  C   UNL     1      18.757  24.505   4.837  1.00  0.00     0.000 C 
BRANCH  23  24
ATOM     24  C   UNL     1      17.934  23.223   4.596  1.00  0.00    -0.000 C 
BRANCH  24  25
ATOM     25  C   UNL     1      16.708  23.066   5.525  1.00  0.00    -0.000 C 
BRANCH  25  26
ATOM     26  C   UNL     1      15.941  21.747   5.320  1.00  0.00    -0.000 C 
BRANCH  26  27
ATOM     27  C   UNL     1      14.407  21.884   5.338  1.00  0.00    -0.000 C 
BRANCH  27  28
ATOM     28  C   UNL     1      13.882  23.333   5.289  1.00  0.00    -0.000 C 
BRANCH  28  29
ATOM     29  C   UNL     1      12.710  23.570   4.317  1.00  0.00    -0.000 C 
BRANCH  29  30
ATOM     30  C   UNL     1      12.695  22.658   3.074  1.00  0.00    -0.000 C 
BRANCH  30  31
ATOM     31  C   UNL     1      11.395  21.859   2.873  1.00  0.00    -0.003 C 
ATOM     32  C   UNL     1      10.647  22.248   1.598  1.00  0.00     0.004 C 
ENDBRANCH  30  31
ENDBRANCH  29  30
ENDBRANCH  28  29
ENDBRANCH  27  28
ENDBRANCH  26  27
ENDBRANCH  25  26
ENDBRANCH  24  25
ENDBRANCH  23  24
ENDBRANCH  22  23
ENDBRANCH  21  22
ENDBRANCH  20  21
ENDBRANCH  19  20
ENDBRANCH  18  19
ENDBRANCH   1  18
TORSDOF 28
ENDMDL
MODEL 4
REMARK VINA RESULT:    -1.547      4.951     12.915
REMARK INTER + INTRA:          -6.204
REMARK INTER:                  -4.606
REMARK INTRA:                  -1.598
REMARK UNBOUND:                -2.125
REMARK SMILES CCCCCCCCCCCCCCCCCCCCCCCCCCCCCC(=O)[O-]
REMARK SMILES IDX 16 1 17 2 18 3 19 4 20 5 21 6 22 7 23 8 24 9 25 10 26 11
REMARK SMILES IDX 27 12 28 13 29 14 30 15 31 16 32 17 15 18 14 19 13 20 12 21
REMARK SMILES IDX 11 22 10 23 9 24 8 25 7 26 6 27 5 28 4 29 3 30 2 31 1 32
REMARK H PARENT
REMARK Flexibility Score: inf
ROOT
ATOM      1  C   UNL     1      18.960  23.902   4.514  1.00  0.00     0.000 C 
ENDROOT
BRANCH   1   2
ATOM      2  C   UNL     1      19.012  25.388   4.118  1.00  0.00     0.000 C 
BRANCH   2   3
ATOM      3  C   UNL     1      19.475  25.600   2.667  1.00  0.00     0.000 C 
BRANCH   3   4
ATOM      4  C   UNL     1      19.769  24.280   1.930  1.00  0.00     0.000 C 
BRANCH   4   5
ATOM      5  C   UNL     1      18.757  23.901   0.829  1.00  0.00     0.000 C 
BRANCH   5   6
ATOM      6  C   UNL     1      19.326  23.873  -0.604  1.00  0.00     0.000 C 
BRANCH   6   7
ATOM      7  C   UNL     1      18.752  24.940  -1.553  1.00  0.00     0.000 C 
BRANCH   7   8
ATOM      8  C   UNL     1      17.373  25.452  -1.103  1.00  0.00     0.000 C 
BRANCH   8   9
ATOM      9  C   UNL     1      17.431  26.869  -0.507  1.00  0.00     0.000 C 
BRANCH   9  10
ATOM     10  C   UNL     1      18.860  27.301  -0.144  1.00  0.00     0.000 C 
BRANCH  10  11
ATOM     11  C   UNL     1      18.853  28.598   0.681  1.00  0.00     0.000 C 
BRANCH  11  12
ATOM     12  C   UNL     1      19.791  29.670   0.105  1.00  0.00     0.000 C 
BRANCH  12  13
ATOM     13  C   UNL     1      20.387  30.584   1.191  1.00  0.00     0.006 C 
BRANCH  13  14
ATOM     14  C   UNL     1      21.404  31.579   0.617  1.00  0.00     0.053 C 
BRANCH  14  15
ATOM     15  C   UNL     1      22.777  30.984   0.523  1.00  0.00     0.041 C 
ATOM     16  O   UNL     1      23.784  31.652   0.877  1.00  0.00    -0.550 OA
ATOM     17  O   UNL     1      22.945  29.706   0.008  1.00  0.00    -0.550 OA
ENDBRANCH  14  15
ENDBRANCH  13  14
ENDBRANCH  12  13
ENDBRANCH  11  12
ENDBRANCH  10  11
ENDBRANCH   9  10
ENDBRANCH   8   9
ENDBRANCH   7   8
ENDBRANCH   6   7
ENDBRANCH   5   6
ENDBRANCH   4   5
ENDBRANCH   3   4
ENDBRANCH   2   3
ENDBRANCH   1   2
BRANCH   1  18
ATOM     18  C   UNL     1      17.741  23.495   5.365  1.00  0.00     0.000 C 
BRANCH  18  19
ATOM     19  C   UNL     1      16.850  22.395   4.753  1.00  0.00     0.000 C 
BRANCH  19  20
ATOM     20  C   UNL     1      15.621  22.002   5.593  1.00  0.00     0.000 C 
BRANCH  20  21
ATOM     21  C   UNL     1      15.888  20.799   6.514  1.00  0.00     0.000 C 
BRANCH  21  22
ATOM     22  C   UNL     1      15.953  21.188   8.001  1.00  0.00     0.000 C 
BRANCH  22  23
ATOM     23  C   UNL     1      17.371  21.401   8.574  1.00  0.00     0.000 C 
BRANCH  23  24
ATOM     24  C   UNL     1      17.465  21.465  10.112  1.00  0.00    -0.000 C 
BRANCH  24  25
ATOM     25  C   UNL     1      16.132  21.190  10.846  1.00  0.00    -0.000 C 
BRANCH  25  26
ATOM     26  C   UNL     1      15.577  22.415  11.597  1.00  0.00    -0.000 C 
BRANCH  26  27
ATOM     27  C   UNL     1      16.407  22.853  12.818  1.00  0.00    -0.000 C 
BRANCH  27  28
ATOM     28  C   UNL     1      16.802  24.344  12.835  1.00  0.00    -0.000 C 
BRANCH  28  29
ATOM     29  C   UNL     1      17.314  24.898  11.491  1.00  0.00    -0.000 C 
BRANCH  29  30
ATOM     30  C   UNL     1      18.506  24.135  10.878  1.00  0.00    -0.000 C 
BRANCH  30  31
ATOM     31  C   UNL     1      19.722  25.009  10.526  1.00  0.00    -0.003 C 
ATOM     32  C   UNL     1      21.055  24.317  10.808  1.00  0.00     0.004 C 
ENDBRANCH  30  31
ENDBRANCH  29  30
ENDBRANCH  28  29
ENDBRANCH  27  28
ENDBRANCH  26  27
ENDBRANCH  25  26
ENDBRANCH  24  25
ENDBRANCH  23  24
ENDBRANCH  22  23
ENDBRANCH  21  22
ENDBRANCH  20  21
ENDBRANCH  19  20
ENDBRANCH  18  19
ENDBRANCH   1  18
TORSDOF 28
ENDMDL
MODEL 5
REMARK VINA RESULT:    -1.547      4.695      8.118
REMARK INTER + INTRA:          -6.203
REMARK INTER:                  -4.321
REMARK INTRA:                  -1.881
REMARK UNBOUND:                -2.125
REMARK SMILES CCCCCCCCCCCCCCCCCCCCCCCCCCCCCC(=O)[O-]
REMARK SMILES IDX 16 1 17 2 18 3 19 4 20 5 21 6 22 7 23 8 24 9 25 10 26 11
REMARK SMILES IDX 27 12 28 13 29 14 30 15 31 16 32 17 15 18 14 19 13 20 12 21
REMARK SMILES IDX 11 22 10 23 9 24 8 25 7 26 6 27 5 28 4 29 3 30 2 31 1 32
REMARK H PARENT
REMARK Flexibility Score: inf
ROOT
ATOM      1  C   UNL     1      18.863  23.917   4.839  1.00  0.00     0.000 C 
ENDROOT
BRANCH   1   2
ATOM      2  C   UNL     1      17.572  23.577   5.605  1.00  0.00     0.000 C 
BRANCH   2   3
ATOM      3  C   UNL     1      16.683  22.572   4.854  1.00  0.00     0.000 C 
BRANCH   3   4
ATOM      4  C   UNL     1      15.382  22.239   5.606  1.00  0.00     0.000 C 
BRANCH   4   5
ATOM      5  C   UNL     1      15.433  20.970   6.481  1.00  0.00     0.000 C 
BRANCH   5   6
ATOM      6  C   UNL     1      16.638  20.880   7.440  1.00  0.00     0.000 C 
BRANCH   6   7
ATOM      7  C   UNL     1      16.312  21.144   8.920  1.00  0.00     0.000 C 
BRANCH   7   8
ATOM      8  C   UNL     1      17.530  21.646   9.714  1.00  0.00     0.000 C 
BRANCH   8   9
ATOM      9  C   UNL     1      18.272  22.789   9.002  1.00  0.00     0.000 C 
BRANCH   9  10
ATOM     10  C   UNL     1      19.433  23.354   9.836  1.00  0.00     0.000 C 
BRANCH  10  11
ATOM     11  C   UNL     1      19.057  24.706  10.463  1.00  0.00     0.000 C 
BRANCH  11  12
ATOM     12  C   UNL     1      17.735  24.648  11.245  1.00  0.00     0.000 C 
BRANCH  12  13
ATOM     13  C   UNL     1      17.724  23.537  12.310  1.00  0.00     0.006 C 
BRANCH  13  14
ATOM     14  C   UNL     1      16.420  23.524  13.120  1.00  0.00     0.053 C 
BRANCH  14  15
ATOM     15  C   UNL     1      16.406  24.590  14.174  1.00  0.00     0.041 C 
ATOM     16  O   UNL     1      16.757  24.321  15.354  1.00  0.00    -0.550 OA
ATOM     17  O   UNL     1      15.968  25.869  13.861  1.00  0.00    -0.550 OA
ENDBRANCH  14  15
ENDBRANCH  13  14
ENDBRANCH  12  13
ENDBRANCH  11  12
ENDBRANCH  10  11
ENDBRANCH   9  10
ENDBRANCH   8   9
ENDBRANCH   7   8
ENDBRANCH   6   7
ENDBRANCH   5   6
ENDBRANCH   4   5
ENDBRANCH   3   4
ENDBRANCH   2   3
ENDBRANCH   1   2
BRANCH   1  18
ATOM     18  C   UNL     1      18.876  25.303   4.166  1.00  0.00     0.000 C 
BRANCH  18  19
ATOM     19  C   UNL     1      19.627  25.373   2.821  1.00  0.00     0.000 C 
BRANCH  19  20
ATOM     20  C   UNL     1      20.713  24.299   2.620  1.00  0.00     0.000 C 
BRANCH  20  21
ATOM     21  C   UNL     1      20.502  23.470   1.342  1.00  0.00     0.000 C 
BRANCH  21  22
ATOM     22  C   UNL     1      19.249  23.893   0.555  1.00  0.00     0.000 C 
BRANCH  22  23
ATOM     23  C   UNL     1      19.372  23.825  -0.983  1.00  0.00     0.000 C 
BRANCH  23  24
ATOM     24  C   UNL     1      18.667  24.957  -1.757  1.00  0.00    -0.000 C 
BRANCH  24  25
ATOM     25  C   UNL     1      17.329  25.420  -1.137  1.00  0.00    -0.000 C 
BRANCH  25  26
ATOM     26  C   UNL     1      17.423  26.768  -0.398  1.00  0.00    -0.000 C 
BRANCH  26  27
ATOM     27  C   UNL     1      18.854  27.311  -0.230  1.00  0.00    -0.000 C 
BRANCH  27  28
ATOM     28  C   UNL     1      18.982  28.526   0.712  1.00  0.00    -0.000 C 
BRANCH  28  29
ATOM     29  C   UNL     1      20.123  29.503   0.366  1.00  0.00    -0.000 C 
BRANCH  29  30
ATOM     30  C   UNL     1      20.072  30.857   1.102  1.00  0.00    -0.000 C 
BRANCH  30  31
ATOM     31  C   UNL     1      21.373  31.677   1.039  1.00  0.00    -0.003 C 
ATOM     32  C   UNL     1      22.524  30.920   0.377  1.00  0.00     0.004 C 
ENDBRANCH  30  31
ENDBRANCH  29  30
ENDBRANCH  28  29
ENDBRANCH  27  28
ENDBRANCH  26  27
ENDBRANCH  25  26
ENDBRANCH  24  25
ENDBRANCH  23  24
ENDBRANCH  22  23
ENDBRANCH  21  22
ENDBRANCH  20  21
ENDBRANCH  19  20
ENDBRANCH  18  19
ENDBRANCH   1  18
TORSDOF 28
ENDMDL
MODEL 6
REMARK VINA RESULT:    -1.326      9.641     12.221
REMARK INTER + INTRA:          -5.621
REMARK INTER:                  -3.667
REMARK INTRA:                  -1.954
REMARK UNBOUND:                -2.125
REMARK SMILES CCCCCCCCCCCCCCCCCCCCCCCCCCCCCC(=O)[O-]
REMARK SMILES IDX 16 1 17 2 18 3 19 4 20 5 21 6 22 7 23 8 24 9 25 10 26 11
REMARK SMILES IDX 27 12 28 13 29 14 30 15 31 16 32 17 15 18 14 19 13 20 12 21
REMARK SMILES IDX 11 22 10 23 9 24 8 25 7 26 6 27 5 28 4 29 3 30 2 31 1 32
REMARK H PARENT
REMARK Flexibility Score: inf
ROOT
ATOM      1  C   UNL     1      17.085  30.609  10.459  1.00  0.00     0.000 C 
ENDROOT
BRANCH   1   2
ATOM      2  C   UNL     1      15.810  29.882  10.924  1.00  0.00     0.000 C 
BRANCH   2   3
ATOM      3  C   UNL     1      15.781  28.404  10.501  1.00  0.00     0.000 C 
BRANCH   3   4
ATOM      4  C   UNL     1      16.138  27.443  11.648  1.00  0.00     0.000 C 
BRANCH   4   5
ATOM      5  C   UNL     1      17.004  26.230  11.248  1.00  0.00     0.000 C 
BRANCH   5   6
ATOM      6  C   UNL     1      16.721  24.933  12.033  1.00  0.00     0.000 C 
BRANCH   6   7
ATOM      7  C   UNL     1      17.553  23.714  11.598  1.00  0.00     0.000 C 
BRANCH   7   8
ATOM      8  C   UNL     1      18.809  24.108  10.802  1.00  0.00     0.000 C 
BRANCH   8   9
ATOM      9  C   UNL     1      18.926  23.354   9.467  1.00  0.00     0.000 C 
BRANCH   9  10
ATOM     10  C   UNL     1      17.790  22.341   9.256  1.00  0.00     0.000 C 
BRANCH  10  11
ATOM     11  C   UNL     1      17.629  21.990   7.768  1.00  0.00     0.000 C 
BRANCH  11  12
ATOM     12  C   UNL     1      16.335  21.212   7.481  1.00  0.00     0.000 C 
BRANCH  12  13
ATOM     13  C   UNL     1      15.804  21.448   6.056  1.00  0.00     0.006 C 
BRANCH  13  14
ATOM     14  C   UNL     1      14.278  21.602   6.025  1.00  0.00     0.053 C 
BRANCH  14  15
ATOM     15  C   UNL     1      13.837  22.582   4.980  1.00  0.00     0.041 C 
ATOM     16  O   UNL     1      13.637  23.788   5.285  1.00  0.00    -0.550 OA
ATOM     17  O   UNL     1      13.609  22.154   3.679  1.00  0.00    -0.550 OA
ENDBRANCH  14  15
ENDBRANCH  13  14
ENDBRANCH  12  13
ENDBRANCH  11  12
ENDBRANCH  10  11
ENDBRANCH   9  10
ENDBRANCH   8   9
ENDBRANCH   7   8
ENDBRANCH   6   7
ENDBRANCH   5   6
ENDBRANCH   4   5
ENDBRANCH   3   4
ENDBRANCH   2   3
ENDBRANCH   1   2
BRANCH   1  18
ATOM     18  C   UNL     1      17.007  32.148  10.489  1.00  0.00     0.000 C 
BRANCH  18  19
ATOM     19  C   UNL     1      18.347  32.878  10.267  1.00  0.00     0.000 C 
BRANCH  19  20
ATOM     20  C   UNL     1      18.565  34.127  11.140  1.00  0.00     0.000 C 
BRANCH  20  21
ATOM     21  C   UNL     1      20.005  34.240  11.670  1.00  0.00     0.000 C 
BRANCH  21  22
ATOM     22  C   UNL     1      20.071  34.354  13.203  1.00  0.00     0.000 C 
BRANCH  22  23
ATOM     23  C   UNL     1      21.277  35.137  13.763  1.00  0.00     0.000 C 
BRANCH  23  24
ATOM     24  C   UNL     1      22.233  34.332  14.667  1.00  0.00    -0.000 C 
BRANCH  24  25
ATOM     25  C   UNL     1      22.376  32.842  14.279  1.00  0.00    -0.000 C 
BRANCH  25  26
ATOM     26  C   UNL     1      23.833  32.401  14.046  1.00  0.00    -0.000 C 
BRANCH  26  27
ATOM     27  C   UNL     1      24.883  33.198  14.843  1.00  0.00    -0.000 C 
BRANCH  27  28
ATOM     28  C   UNL     1      25.936  33.927  13.984  1.00  0.00    -0.000 C 
BRANCH  28  29
ATOM     29  C   UNL     1      25.372  34.696  12.773  1.00  0.00    -0.000 C 
BRANCH  29  30
ATOM     30  C   UNL     1      25.648  36.213  12.774  1.00  0.00    -0.000 C 
BRANCH  30  31
ATOM     31  C   UNL     1      25.720  36.857  14.169  1.00  0.00    -0.003 C 
ATOM     32  C   UNL     1      24.361  37.338  14.675  1.00  0.00     0.004 C 
ENDBRANCH  30  31
ENDBRANCH  29  30
ENDBRANCH  28  29
ENDBRANCH  27  28
ENDBRANCH  26  27
ENDBRANCH  25  26
ENDBRANCH  24  25
ENDBRANCH  23  24
ENDBRANCH  22  23
ENDBRANCH  21  22
ENDBRANCH  20  21
ENDBRANCH  19  20
ENDBRANCH  18  19
ENDBRANCH   1  18
TORSDOF 28
ENDMDL
MODEL 7
REMARK VINA RESULT:    -1.293      7.909     11.511
REMARK INTER + INTRA:          -5.535
REMARK INTER:                  -4.432
REMARK INTRA:                  -1.103
REMARK UNBOUND:                -2.125
REMARK SMILES CCCCCCCCCCCCCCCCCCCCCCCCCCCCCC(=O)[O-]
REMARK SMILES IDX 16 1 17 2 18 3 19 4 20 5 21 6 22 7 23 8 24 9 25 10 26 11
REMARK SMILES IDX 27 12 28 13 29 14 30 15 31 16 32 17 15 18 14 19 13 20 12 21
REMARK SMILES IDX 11 22 10 23 9 24 8 25 7 26 6 27 5 28 4 29 3 30 2 31 1 32
REMARK H PARENT
REMARK Flexibility Score: inf
ROOT
ATOM      1  C   UNL     1      16.742  24.893  12.130  1.00  0.00     0.000 C 
ENDROOT
BRANCH   1   2
ATOM      2  C   UNL     1      17.407  23.593  11.642  1.00  0.00     0.000 C 
BRANCH   2   3
ATOM      3  C   UNL     1      18.466  23.840  10.555  1.00  0.00     0.000 C 
BRANCH   3   4
ATOM      4  C   UNL     1      18.311  22.907   9.341  1.00  0.00     0.000 C 
BRANCH   4   5
ATOM      5  C   UNL     1      18.633  23.544   7.973  1.00  0.00     0.000 C 
BRANCH   5   6
ATOM      6  C   UNL     1      17.819  22.995   6.784  1.00  0.00     0.000 C 
BRANCH   6   7
ATOM      7  C   UNL     1      17.707  23.944   5.578  1.00  0.00     0.000 C 
BRANCH   7   8
ATOM      8  C   UNL     1      18.851  23.753   4.567  1.00  0.00     0.000 C 
BRANCH   8   9
ATOM      9  C   UNL     1      19.212  25.053   3.828  1.00  0.00     0.000 C 
BRANCH   9  10
ATOM     10  C   UNL     1      19.883  24.797   2.471  1.00  0.00     0.000 C 
BRANCH  10  11
ATOM     11  C   UNL     1      18.870  24.913   1.321  1.00  0.00     0.000 C 
BRANCH  11  12
ATOM     12  C   UNL     1      18.776  26.340   0.757  1.00  0.00     0.000 C 
BRANCH  12  13
ATOM     13  C   UNL     1      17.947  26.413  -0.537  1.00  0.00     0.006 C 
BRANCH  13  14
ATOM     14  C   UNL     1      17.206  25.101  -0.826  1.00  0.00     0.053 C 
BRANCH  14  15
ATOM     15  C   UNL     1      15.955  25.328  -1.620  1.00  0.00     0.041 C 
ATOM     16  O   UNL     1      16.024  25.595  -2.850  1.00  0.00    -0.550 OA
ATOM     17  O   UNL     1      14.717  25.284  -0.993  1.00  0.00    -0.550 OA
ENDBRANCH  14  15
ENDBRANCH  13  14
ENDBRANCH  12  13
ENDBRANCH  11  12
ENDBRANCH  10  11
ENDBRANCH   9  10
ENDBRANCH   8   9
ENDBRANCH   7   8
ENDBRANCH   6   7
ENDBRANCH   5   6
ENDBRANCH   4   5
ENDBRANCH   3   4
ENDBRANCH   2   3
ENDBRANCH   1   2
BRANCH   1  18
ATOM     18  C   UNL     1      17.004  26.130  11.248  1.00  0.00     0.000 C 
BRANCH  18  19
ATOM     19  C   UNL     1      16.246  27.406  11.667  1.00  0.00     0.000 C 
BRANCH  19  20
ATOM     20  C   UNL     1      15.869  28.353  10.512  1.00  0.00     0.000 C 
BRANCH  20  21
ATOM     21  C   UNL     1      15.844  29.831  10.938  1.00  0.00     0.000 C 
BRANCH  21  22
ATOM     22  C   UNL     1      16.992  30.650  10.324  1.00  0.00     0.000 C 
BRANCH  22  23
ATOM     23  C   UNL     1      16.974  32.163  10.633  1.00  0.00     0.000 C 
BRANCH  23  24
ATOM     24  C   UNL     1      18.264  32.930  10.283  1.00  0.00    -0.000 C 
BRANCH  24  25
ATOM     25  C   UNL     1      18.664  34.013  11.311  1.00  0.00    -0.000 C 
BRANCH  25  26
ATOM     26  C   UNL     1      20.185  34.143  11.513  1.00  0.00    -0.000 C 
BRANCH  26  27
ATOM     27  C   UNL     1      20.606  34.743  12.867  1.00  0.00    -0.000 C 
BRANCH  27  28
ATOM     28  C   UNL     1      22.109  34.625  13.193  1.00  0.00    -0.000 C 
BRANCH  28  29
ATOM     29  C   UNL     1      22.722  33.232  12.946  1.00  0.00    -0.000 C 
BRANCH  29  30
ATOM     30  C   UNL     1      23.393  32.585  14.175  1.00  0.00    -0.000 C 
BRANCH  30  31
ATOM     31  C   UNL     1      24.164  33.561  15.080  1.00  0.00    -0.003 C 
ATOM     32  C   UNL     1      25.675  33.514  14.856  1.00  0.00     0.004 C 
ENDBRANCH  30  31
ENDBRANCH  29  30
ENDBRANCH  28  29
ENDBRANCH  27  28
ENDBRANCH  26  27
ENDBRANCH  25  26
ENDBRANCH  24  25
ENDBRANCH  23  24
ENDBRANCH  22  23
ENDBRANCH  21  22
ENDBRANCH  20  21
ENDBRANCH  19  20
ENDBRANCH  18  19
ENDBRANCH   1  18
TORSDOF 28
ENDMDL
MODEL 8
REMARK VINA RESULT:    -1.250      8.873     11.675
REMARK INTER + INTRA:          -5.420
REMARK INTER:                  -3.805
REMARK INTRA:                  -1.615
REMARK UNBOUND:                -2.125
REMARK SMILES CCCCCCCCCCCCCCCCCCCCCCCCCCCCCC(=O)[O-]
REMARK SMILES IDX 16 1 17 2 18 3 19 4 20 5 21 6 22 7 23 8 24 9 25 10 26 11
REMARK SMILES IDX 27 12 28 13 29 14 30 15 31 16 32 17 15 18 14 19 13 20 12 21
REMARK SMILES IDX 11 22 10 23 9 24 8 25 7 26 6 27 5 28 4 29 3 30 2 31 1 32
REMARK H PARENT
REMARK Flexibility Score: inf
ROOT
ATOM      1  C   UNL     1      15.874  28.059  11.331  1.00  0.00     0.000 C 
ENDROOT
BRANCH   1   2
ATOM      2  C   UNL     1      16.697  26.811  10.963  1.00  0.00     0.000 C 
BRANCH   2   3
ATOM      3  C   UNL     1      16.617  25.710  12.033  1.00  0.00     0.000 C 
BRANCH   3   4
ATOM      4  C   UNL     1      17.305  24.403  11.604  1.00  0.00     0.000 C 
BRANCH   4   5
ATOM      5  C   UNL     1      18.675  24.574  10.914  1.00  0.00     0.000 C 
BRANCH   5   6
ATOM      6  C   UNL     1      19.016  23.504   9.857  1.00  0.00     0.000 C 
BRANCH   6   7
ATOM      7  C   UNL     1      17.937  22.426   9.651  1.00  0.00     0.000 C 
BRANCH   7   8
ATOM      8  C   UNL     1      17.706  22.095   8.167  1.00  0.00     0.000 C 
BRANCH   8   9
ATOM      9  C   UNL     1      16.452  21.234   7.940  1.00  0.00     0.000 C 
BRANCH   9  10
ATOM     10  C   UNL     1      16.235  20.882   6.460  1.00  0.00     0.000 C 
BRANCH  10  11
ATOM     11  C   UNL     1      14.823  21.276   5.998  1.00  0.00     0.000 C 
BRANCH  11  12
ATOM     12  C   UNL     1      14.761  22.707   5.440  1.00  0.00     0.000 C 
BRANCH  12  13
ATOM     13  C   UNL     1      13.398  23.040   4.810  1.00  0.00     0.006 C 
BRANCH  13  14
ATOM     14  C   UNL     1      13.073  22.131   3.617  1.00  0.00     0.053 C 
BRANCH  14  15
ATOM     15  C   UNL     1      11.779  22.509   2.961  1.00  0.00     0.041 C 
ATOM     16  O   UNL     1      11.480  22.041   1.831  1.00  0.00    -0.550 OA
ATOM     17  O   UNL     1      10.924  23.409   3.583  1.00  0.00    -0.550 OA
ENDBRANCH  14  15
ENDBRANCH  13  14
ENDBRANCH  12  13
ENDBRANCH  11  12
ENDBRANCH  10  11
ENDBRANCH   9  10
ENDBRANCH   8   9
ENDBRANCH   7   8
ENDBRANCH   6   7
ENDBRANCH   5   6
ENDBRANCH   4   5
ENDBRANCH   3   4
ENDBRANCH   2   3
ENDBRANCH   1   2
BRANCH   1  18
ATOM     18  C   UNL     1      16.013  29.244  10.355  1.00  0.00     0.000 C 
BRANCH  18  19
ATOM     19  C   UNL     1      16.440  30.578  10.998  1.00  0.00     0.000 C 
BRANCH  19  20
ATOM     20  C   UNL     1      17.358  31.461  10.131  1.00  0.00     0.000 C 
BRANCH  20  21
ATOM     21  C   UNL     1      17.217  32.959  10.449  1.00  0.00     0.000 C 
BRANCH  21  22
ATOM     22  C   UNL     1      18.564  33.704  10.425  1.00  0.00     0.000 C 
BRANCH  22  23
ATOM     23  C   UNL     1      19.172  34.028  11.807  1.00  0.00     0.000 C 
BRANCH  23  24
ATOM     24  C   UNL     1      20.661  34.426  11.802  1.00  0.00    -0.000 C 
BRANCH  24  25
ATOM     25  C   UNL     1      21.187  34.954  13.157  1.00  0.00    -0.000 C 
BRANCH  25  26
ATOM     26  C   UNL     1      20.790  34.077  14.358  1.00  0.00    -0.000 C 
BRANCH  26  27
ATOM     27  C   UNL     1      21.975  33.494  15.150  1.00  0.00    -0.000 C 
BRANCH  27  28
ATOM     28  C   UNL     1      22.923  32.592  14.334  1.00  0.00    -0.000 C 
BRANCH  28  29
ATOM     29  C   UNL     1      24.414  32.704  14.709  1.00  0.00    -0.000 C 
BRANCH  29  30
ATOM     30  C   UNL     1      25.090  34.032  14.314  1.00  0.00    -0.000 C 
BRANCH  30  31
ATOM     31  C   UNL     1      24.915  34.434  12.839  1.00  0.00    -0.003 C 
ATOM     32  C   UNL     1      25.257  35.900  12.577  1.00  0.00     0.004 C 
ENDBRANCH  30  31
ENDBRANCH  29  30
ENDBRANCH  28  29
ENDBRANCH  27  28
ENDBRANCH  26  27
ENDBRANCH  25  26
ENDBRANCH  24  25
ENDBRANCH  23  24
ENDBRANCH  22  23
ENDBRANCH  21  22
ENDBRANCH  20  21
ENDBRANCH  19  20
ENDBRANCH  18  19
ENDBRANCH   1  18
TORSDOF 28
ENDMDL
MODEL 9
REMARK VINA RESULT:    -1.249     10.704     16.334
REMARK INTER + INTRA:          -5.419
REMARK INTER:                  -3.841
REMARK INTRA:                  -1.577
REMARK UNBOUND:                -2.125
REMARK SMILES CCCCCCCCCCCCCCCCCCCCCCCCCCCCCC(=O)[O-]
REMARK SMILES IDX 16 1 17 2 18 3 19 4 20 5 21 6 22 7 23 8 24 9 25 10 26 11
REMARK SMILES IDX 27 12 28 13 29 14 30 15 31 16 32 17 15 18 14 19 13 20 12 21
REMARK SMILES IDX 11 22 10 23 9 24 8 25 7 26 6 27 5 28 4 29 3 30 2 31 1 32
REMARK H PARENT
REMARK Flexibility Score: inf
ROOT
ATOM      1  C   UNL     1      16.970  30.570  10.256  1.00  0.00     0.000 C 
ENDROOT
BRANCH   1   2
ATOM      2  C   UNL     1      16.897  32.084  10.521  1.00  0.00     0.000 C 
BRANCH   2   3
ATOM      3  C   UNL     1      18.191  32.818  10.131  1.00  0.00     0.000 C 
BRANCH   3   4
ATOM      4  C   UNL     1      18.496  34.023  11.039  1.00  0.00     0.000 C 
BRANCH   4   5
ATOM      5  C   UNL     1      19.980  34.199  11.423  1.00  0.00     0.000 C 
BRANCH   5   6
ATOM      6  C   UNL     1      20.246  34.435  12.924  1.00  0.00     0.000 C 
BRANCH   6   7
ATOM      7  C   UNL     1      21.728  34.598  13.305  1.00  0.00     0.000 C 
BRANCH   7   8
ATOM      8  C   UNL     1      22.021  34.152  14.748  1.00  0.00     0.000 C 
BRANCH   8   9
ATOM      9  C   UNL     1      23.213  34.900  15.368  1.00  0.00     0.000 C 
BRANCH   9  10
ATOM     10  C   UNL     1      23.560  36.193  14.615  1.00  0.00     0.000 C 
BRANCH  10  11
ATOM     11  C   UNL     1      24.809  36.863  15.209  1.00  0.00     0.000 C 
BRANCH  11  12
ATOM     12  C   UNL     1      25.832  35.844  15.737  1.00  0.00     0.000 C 
BRANCH  12  13
ATOM     13  C   UNL     1      26.897  35.476  14.689  1.00  0.00     0.006 C 
BRANCH  13  14
ATOM     14  C   UNL     1      26.697  34.061  14.131  1.00  0.00     0.053 C 
BRANCH  14  15
ATOM     15  C   UNL     1      25.834  34.060  12.905  1.00  0.00     0.041 C 
ATOM     16  O   UNL     1      25.869  35.031  12.103  1.00  0.00    -0.550 OA
ATOM     17  O   UNL     1      24.963  33.005  12.671  1.00  0.00    -0.550 OA
ENDBRANCH  14  15
ENDBRANCH  13  14
ENDBRANCH  12  13
ENDBRANCH  11  12
ENDBRANCH  10  11
ENDBRANCH   9  10
ENDBRANCH   8   9
ENDBRANCH   7   8
ENDBRANCH   6   7
ENDBRANCH   5   6
ENDBRANCH   4   5
ENDBRANCH   3   4
ENDBRANCH   2   3
ENDBRANCH   1   2
BRANCH   1  18
ATOM     18  C   UNL     1      15.922  29.725  11.007  1.00  0.00     0.000 C 
BRANCH  18  19
ATOM     19  C   UNL     1      15.861  28.239  10.598  1.00  0.00     0.000 C 
BRANCH  19  20
ATOM     20  C   UNL     1      16.218  27.237  11.712  1.00  0.00     0.000 C 
BRANCH  20  21
ATOM     21  C   UNL     1      17.044  26.046  11.199  1.00  0.00     0.000 C 
BRANCH  21  22
ATOM     22  C   UNL     1      16.798  24.758  12.004  1.00  0.00     0.000 C 
BRANCH  22  23
ATOM     23  C   UNL     1      17.562  23.508  11.515  1.00  0.00     0.000 C 
BRANCH  23  24
ATOM     24  C   UNL     1      18.651  23.767  10.454  1.00  0.00    -0.000 C 
BRANCH  24  25
ATOM     25  C   UNL     1      18.636  22.776   9.267  1.00  0.00    -0.000 C 
BRANCH  25  26
ATOM     26  C   UNL     1      17.316  21.997   9.129  1.00  0.00    -0.000 C 
BRANCH  26  27
ATOM     27  C   UNL     1      17.178  21.187   7.826  1.00  0.00    -0.000 C 
BRANCH  27  28
ATOM     28  C   UNL     1      15.746  21.100   7.262  1.00  0.00    -0.000 C 
BRANCH  28  29
ATOM     29  C   UNL     1      15.594  21.544   5.794  1.00  0.00    -0.000 C 
BRANCH  29  30
ATOM     30  C   UNL     1      14.485  22.583   5.535  1.00  0.00    -0.000 C 
BRANCH  30  31
ATOM     31  C   UNL     1      13.581  22.278   4.327  1.00  0.00    -0.003 C 
ATOM     32  C   UNL     1      12.561  23.383   4.052  1.00  0.00     0.004 C 
ENDBRANCH  30  31
ENDBRANCH  29  30
ENDBRANCH  28  29
ENDBRANCH  27  28
ENDBRANCH  26  27
ENDBRANCH  25  26
ENDBRANCH  24  25
ENDBRANCH  23  24
ENDBRANCH  22  23
ENDBRANCH  21  22
ENDBRANCH  20  21
ENDBRANCH  19  20
ENDBRANCH  18  19
ENDBRANCH   1  18
TORSDOF 28
ENDMDL
