MODEL 1
REMARK VINA RESULT:    -3.559      0.000      0.000
REMARK INTER + INTRA:          -4.893
REMARK INTER:                  -4.599
REMARK INTRA:                  -0.294
REMARK UNBOUND:                -0.294
REMARK SMILES CCCCCCC(=O)[O-]
REMARK SMILES IDX 5 1 6 2 7 3 8 4 9 5 4 6 3 7 2 8 1 9
REMARK H PARENT
REMARK Flexibility Score: inf
ROOT
ATOM      1  C   UNL     1      29.296   4.959 -26.194  1.00  0.00     0.006 C 
ENDROOT
BRANCH   1   2
ATOM      2  C   UNL     1      29.407   3.875 -27.275  1.00  0.00     0.053 C 
BRANCH   2   3
ATOM      3  C   UNL     1      30.652   4.068 -28.081  1.00  0.00     0.041 C 
ATOM      4  O   UNL     1      31.781   4.017 -27.525  1.00  0.00    -0.550 OA
ATOM      5  O   UNL     1      30.569   4.256 -29.455  1.00  0.00    -0.550 OA
ENDBRANCH   2   3
ENDBRANCH   1   2
BRANCH   1   6
ATOM      6  C   UNL     1      29.662   4.438 -24.795  1.00  0.00     0.000 C 
BRANCH   6   7
ATOM      7  C   UNL     1      30.755   5.279 -24.118  1.00  0.00    -0.000 C 
BRANCH   7   8
ATOM      8  C   UNL     1      31.101   6.512 -24.962  1.00  0.00    -0.003 C 
ATOM      9  C   UNL     1      31.782   7.584 -24.117  1.00  0.00     0.004 C 
ENDBRANCH   7   8
ENDBRANCH   6   7
ENDBRANCH   1   6
TORSDOF 5
ENDMDL
MODEL 2
REMARK VINA RESULT:    -3.500     25.075     25.767
REMARK INTER + INTRA:          -4.817
REMARK INTER:                  -4.711
REMARK INTRA:                  -0.106
REMARK UNBOUND:                -0.294
REMARK SMILES CCCCCCC(=O)[O-]
REMARK SMILES IDX 5 1 6 2 7 3 8 4 9 5 4 6 3 7 2 8 1 9
REMARK H PARENT
REMARK Flexibility Score: inf
ROOT
ATOM      1  C   UNL     1      12.918  23.021 -21.092  1.00  0.00     0.006 C 
ENDROOT
BRANCH   1   2
ATOM      2  C   UNL     1      11.992  22.962 -19.869  1.00  0.00     0.053 C 
BRANCH   2   3
ATOM      3  C   UNL     1      12.596  22.110 -18.798  1.00  0.00     0.041 C 
ATOM      4  O   UNL     1      11.961  21.885 -17.734  1.00  0.00    -0.550 OA
ATOM      5  O   UNL     1      13.840  21.523 -18.995  1.00  0.00    -0.550 OA
ENDBRANCH   2   3
ENDBRANCH   1   2
BRANCH   1   6
ATOM      6  C   UNL     1      12.275  22.416 -22.350  1.00  0.00     0.000 C 
BRANCH   6   7
ATOM      7  C   UNL     1      12.614  23.203 -23.624  1.00  0.00    -0.000 C 
BRANCH   7   8
ATOM      8  C   UNL     1      13.777  22.549 -24.380  1.00  0.00    -0.003 C 
ATOM      9  C   UNL     1      13.495  22.482 -25.877  1.00  0.00     0.004 C 
ENDBRANCH   7   8
ENDBRANCH   6   7
ENDBRANCH   1   6
TORSDOF 5
ENDMDL
MODEL 3
REMARK VINA RESULT:    -3.463     24.719     25.413
REMARK INTER + INTRA:          -4.769
REMARK INTER:                  -4.537
REMARK INTRA:                  -0.233
REMARK UNBOUND:                -0.294
REMARK SMILES CCCCCCC(=O)[O-]
REMARK SMILES IDX 5 1 6 2 7 3 8 4 9 5 4 6 3 7 2 8 1 9
REMARK H PARENT
REMARK Flexibility Score: inf
ROOT
ATOM      1  C   UNL     1      12.218  22.676 -22.942  1.00  0.00     0.006 C 
ENDROOT
BRANCH   1   2
ATOM      2  C   UNL     1      13.412  22.218 -22.094  1.00  0.00     0.053 C 
BRANCH   2   3
ATOM      3  C   UNL     1      13.365  22.854 -20.740  1.00  0.00     0.041 C 
ATOM      4  O   UNL     1      12.259  23.180 -20.232  1.00  0.00    -0.550 OA
ATOM      5  O   UNL     1      14.537  23.041 -20.018  1.00  0.00    -0.550 OA
ENDBRANCH   2   3
ENDBRANCH   1   2
BRANCH   1   6
ATOM      6  C   UNL     1      12.647  23.474 -24.183  1.00  0.00     0.000 C 
BRANCH   6   7
ATOM      7  C   UNL     1      13.811  22.816 -24.938  1.00  0.00    -0.000 C 
BRANCH   7   8
ATOM      8  C   UNL     1      13.391  22.420 -26.358  1.00  0.00    -0.003 C 
ATOM      9  C   UNL     1      12.627  21.100 -26.360  1.00  0.00     0.004 C 
ENDBRANCH   7   8
ENDBRANCH   6   7
ENDBRANCH   1   6
TORSDOF 5
ENDMDL
MODEL 4
REMARK VINA RESULT:    -3.444      1.575      1.974
REMARK INTER + INTRA:          -4.745
REMARK INTER:                  -4.449
REMARK INTRA:                  -0.295
REMARK UNBOUND:                -0.294
REMARK SMILES CCCCCCC(=O)[O-]
REMARK SMILES IDX 5 1 6 2 7 3 8 4 9 5 4 6 3 7 2 8 1 9
REMARK H PARENT
REMARK Flexibility Score: inf
ROOT
ATOM      1  C   UNL     1      30.814   4.146 -24.737  1.00  0.00     0.006 C 
ENDROOT
BRANCH   1   2
ATOM      2  C   UNL     1      31.798   3.977 -25.902  1.00  0.00     0.053 C 
BRANCH   2   3
ATOM      3  C   UNL     1      31.292   4.685 -27.119  1.00  0.00     0.041 C 
ATOM      4  O   UNL     1      30.927   4.026 -28.129  1.00  0.00    -0.550 OA
ATOM      5  O   UNL     1      31.176   6.069 -27.122  1.00  0.00    -0.550 OA
ENDBRANCH   2   3
ENDBRANCH   1   2
BRANCH   1   6
ATOM      6  C   UNL     1      31.504   4.083 -23.366  1.00  0.00     0.000 C 
BRANCH   6   7
ATOM      7  C   UNL     1      31.689   5.469 -22.732  1.00  0.00    -0.000 C 
BRANCH   7   8
ATOM      8  C   UNL     1      30.966   6.547 -23.548  1.00  0.00    -0.003 C 
ATOM      9  C   UNL     1      31.933   7.636 -24.004  1.00  0.00     0.004 C 
ENDBRANCH   7   8
ENDBRANCH   6   7
ENDBRANCH   1   6
TORSDOF 5
ENDMDL
MODEL 5
REMARK VINA RESULT:    -3.419      1.393      2.203
REMARK INTER + INTRA:          -4.713
REMARK INTER:                  -4.482
REMARK INTRA:                  -0.230
REMARK UNBOUND:                -0.294
REMARK SMILES CCCCCCC(=O)[O-]
REMARK SMILES IDX 5 1 6 2 7 3 8 4 9 5 4 6 3 7 2 8 1 9
REMARK H PARENT
REMARK Flexibility Score: inf
ROOT
ATOM      1  C   UNL     1      31.656   5.602 -26.578  1.00  0.00     0.006 C 
ENDROOT
BRANCH   1   2
ATOM      2  C   UNL     1      31.482   4.174 -27.114  1.00  0.00     0.053 C 
BRANCH   2   3
ATOM      3  C   UNL     1      30.709   4.188 -28.395  1.00  0.00     0.041 C 
ATOM      4  O   UNL     1      31.291   4.441 -29.483  1.00  0.00    -0.550 OA
ATOM      5  O   UNL     1      29.356   3.875 -28.395  1.00  0.00    -0.550 OA
ENDBRANCH   2   3
ENDBRANCH   1   2
BRANCH   1   6
ATOM      6  C   UNL     1      30.885   5.841 -25.271  1.00  0.00     0.000 C 
BRANCH   6   7
ATOM      7  C   UNL     1      29.879   4.723 -24.964  1.00  0.00    -0.000 C 
BRANCH   7   8
ATOM      8  C   UNL     1      29.667   4.575 -23.453  1.00  0.00    -0.003 C 
ATOM      9  C   UNL     1      30.998   4.438 -22.720  1.00  0.00     0.004 C 
ENDBRANCH   7   8
ENDBRANCH   6   7
ENDBRANCH   1   6
TORSDOF 5
ENDMDL
MODEL 6
REMARK VINA RESULT:    -3.401      3.469      4.653
REMARK INTER + INTRA:          -4.690
REMARK INTER:                  -4.339
REMARK INTRA:                  -0.350
REMARK UNBOUND:                -0.294
REMARK SMILES CCCCCCC(=O)[O-]
REMARK SMILES IDX 5 1 6 2 7 3 8 4 9 5 4 6 3 7 2 8 1 9
REMARK H PARENT
REMARK Flexibility Score: inf
ROOT
ATOM      1  C   UNL     1      29.664   4.598 -23.402  1.00  0.00     0.006 C 
ENDROOT
BRANCH   1   2
ATOM      2  C   UNL     1      31.007   4.145 -22.813  1.00  0.00     0.053 C 
BRANCH   2   3
ATOM      3  C   UNL     1      31.564   5.201 -21.912  1.00  0.00     0.041 C 
ATOM      4  O   UNL     1      31.860   6.336 -22.372  1.00  0.00    -0.550 OA
ATOM      5  O   UNL     1      31.710   4.950 -20.553  1.00  0.00    -0.550 OA
ENDBRANCH   2   3
ENDBRANCH   1   2
BRANCH   1   6
ATOM      6  C   UNL     1      29.555   4.321 -24.909  1.00  0.00     0.000 C 
BRANCH   6   7
ATOM      7  C   UNL     1      30.922   4.314 -25.610  1.00  0.00    -0.000 C 
BRANCH   7   8
ATOM      8  C   UNL     1      31.057   5.510 -26.560  1.00  0.00    -0.003 C 
ATOM      9  C   UNL     1      31.931   6.603 -25.952  1.00  0.00     0.004 C 
ENDBRANCH   7   8
ENDBRANCH   6   7
ENDBRANCH   1   6
TORSDOF 5
ENDMDL
MODEL 7
REMARK VINA RESULT:    -3.373      1.571      2.540
REMARK INTER + INTRA:          -4.654
REMARK INTER:                  -4.336
REMARK INTRA:                  -0.317
REMARK UNBOUND:                -0.294
REMARK SMILES CCCCCCC(=O)[O-]
REMARK SMILES IDX 5 1 6 2 7 3 8 4 9 5 4 6 3 7 2 8 1 9
REMARK H PARENT
REMARK Flexibility Score: inf
ROOT
ATOM      1  C   UNL     1      30.642   6.516 -25.307  1.00  0.00     0.006 C 
ENDROOT
BRANCH   1   2
ATOM      2  C   UNL     1      31.433   6.131 -26.564  1.00  0.00     0.053 C 
BRANCH   2   3
ATOM      3  C   UNL     1      30.806   4.949 -27.233  1.00  0.00     0.041 C 
ATOM      4  O   UNL     1      31.424   4.335 -28.143  1.00  0.00    -0.550 OA
ATOM      5  O   UNL     1      29.560   4.495 -26.820  1.00  0.00    -0.550 OA
ENDBRANCH   2   3
ENDBRANCH   1   2
BRANCH   1   6
ATOM      6  C   UNL     1      31.405   6.207 -24.010  1.00  0.00     0.000 C 
BRANCH   6   7
ATOM      7  C   UNL     1      31.154   4.780 -23.500  1.00  0.00    -0.000 C 
BRANCH   7   8
ATOM      8  C   UNL     1      29.660   4.541 -23.253  1.00  0.00    -0.003 C 
ATOM      9  C   UNL     1      29.192   5.242 -21.982  1.00  0.00     0.004 C 
ENDBRANCH   7   8
ENDBRANCH   6   7
ENDBRANCH   1   6
TORSDOF 5
ENDMDL
MODEL 8
REMARK VINA RESULT:    -3.325     24.540     25.162
REMARK INTER + INTRA:          -4.592
REMARK INTER:                  -4.431
REMARK INTRA:                  -0.160
REMARK UNBOUND:                -0.294
REMARK SMILES CCCCCCC(=O)[O-]
REMARK SMILES IDX 5 1 6 2 7 3 8 4 9 5 4 6 3 7 2 8 1 9
REMARK H PARENT
REMARK Flexibility Score: inf
ROOT
ATOM      1  C   UNL     1      12.304  22.305 -22.107  1.00  0.00     0.006 C 
ENDROOT
BRANCH   1   2
ATOM      2  C   UNL     1      12.654  23.142 -23.345  1.00  0.00     0.053 C 
BRANCH   2   3
ATOM      3  C   UNL     1      13.405  22.314 -24.339  1.00  0.00     0.041 C 
ATOM      4  O   UNL     1      13.347  21.057 -24.288  1.00  0.00    -0.550 OA
ATOM      5  O   UNL     1      14.129  22.930 -25.352  1.00  0.00    -0.550 OA
ENDBRANCH   2   3
ENDBRANCH   1   2
BRANCH   1   6
ATOM      6  C   UNL     1      12.963  22.840 -20.826  1.00  0.00     0.000 C 
BRANCH   6   7
ATOM      7  C   UNL     1      11.968  22.989 -19.666  1.00  0.00    -0.000 C 
BRANCH   7   8
ATOM      8  C   UNL     1      12.272  21.984 -18.549  1.00  0.00    -0.003 C 
ATOM      9  C   UNL     1      13.690  21.435 -18.672  1.00  0.00     0.004 C 
ENDBRANCH   7   8
ENDBRANCH   6   7
ENDBRANCH   1   6
TORSDOF 5
ENDMDL
MODEL 9
REMARK VINA RESULT:    -3.321      4.408      5.435
REMARK INTER + INTRA:          -4.586
REMARK INTER:                  -4.372
REMARK INTRA:                  -0.214
REMARK UNBOUND:                -0.294
REMARK SMILES CCCCCCC(=O)[O-]
REMARK SMILES IDX 5 1 6 2 7 3 8 4 9 5 4 6 3 7 2 8 1 9
REMARK H PARENT
REMARK Flexibility Score: inf
ROOT
ATOM      1  C   UNL     1      30.452   4.224 -22.320  1.00  0.00     0.006 C 
ENDROOT
BRANCH   1   2
ATOM      2  C   UNL     1      29.359   5.288 -22.493  1.00  0.00     0.053 C 
BRANCH   2   3
ATOM      3  C   UNL     1      28.875   5.760 -21.159  1.00  0.00     0.041 C 
ATOM      4  O   UNL     1      27.650   5.701 -20.872  1.00  0.00    -0.550 OA
ATOM      5  O   UNL     1      29.782   6.221 -20.213  1.00  0.00    -0.550 OA
ENDBRANCH   2   3
ENDBRANCH   1   2
BRANCH   1   6
ATOM      6  C   UNL     1      31.482   4.244 -23.460  1.00  0.00     0.000 C 
BRANCH   6   7
ATOM      7  C   UNL     1      30.833   4.123 -24.847  1.00  0.00    -0.000 C 
BRANCH   7   8
ATOM      8  C   UNL     1      31.729   4.740 -25.927  1.00  0.00    -0.003 C 
ATOM      9  C   UNL     1      31.756   6.262 -25.819  1.00  0.00     0.004 C 
ENDBRANCH   7   8
ENDBRANCH   6   7
ENDBRANCH   1   6
TORSDOF 5
ENDMDL
