MODEL 1
REMARK VINA RESULT:    -3.342      0.000      0.000
REMARK INTER + INTRA:          -3.956
REMARK INTER:                  -3.928
REMARK INTRA:                  -0.028
REMARK UNBOUND:                -0.028
REMARK SMILES O=C([O-])CCC(=O)[O-]
REMARK SMILES IDX 4 1 2 2 1 3 3 4 5 5 6 6 7 7 8 8
REMARK H PARENT
REMARK Flexibility Score: inf
ROOT
ATOM      1  C   UNL     1     -52.975  24.046 -13.734  1.00  0.00     0.059 C 
ENDROOT
BRANCH   1   2
ATOM      2  C   UNL     1     -51.806  24.022 -14.666  1.00  0.00     0.042 C 
ATOM      3  O   UNL     1     -51.298  25.100 -15.073  1.00  0.00    -0.550 OA
ATOM      4  O   UNL     1     -51.308  22.811 -15.126  1.00  0.00    -0.550 OA
ENDBRANCH   1   2
BRANCH   1   5
ATOM      5  C   UNL     1     -52.731  23.116 -12.544  1.00  0.00     0.059 C 
BRANCH   5   6
ATOM      6  C   UNL     1     -53.762  23.340 -11.483  1.00  0.00     0.042 C 
ATOM      7  O   UNL     1     -54.974  23.090 -11.713  1.00  0.00    -0.550 OA
ATOM      8  O   UNL     1     -53.378  23.779 -10.223  1.00  0.00    -0.550 OA
ENDBRANCH   5   6
ENDBRANCH   1   5
TORSDOF 3
ENDMDL
MODEL 2
REMARK VINA RESULT:    -3.337      2.856      5.815
REMARK INTER + INTRA:          -3.950
REMARK INTER:                  -3.907
REMARK INTRA:                  -0.042
REMARK UNBOUND:                -0.028
REMARK SMILES O=C([O-])CCC(=O)[O-]
REMARK SMILES IDX 4 1 2 2 1 3 3 4 5 5 6 6 7 7 8 8
REMARK H PARENT
REMARK Flexibility Score: inf
ROOT
ATOM      1  C   UNL     1     -50.323  24.998 -15.088  1.00  0.00     0.059 C 
ENDROOT
BRANCH   1   2
ATOM      2  C   UNL     1     -51.339  23.941 -14.790  1.00  0.00     0.042 C 
ATOM      3  O   UNL     1     -51.188  22.774 -15.236  1.00  0.00    -0.550 OA
ATOM      4  O   UNL     1     -52.478  24.258 -14.061  1.00  0.00    -0.550 OA
ENDBRANCH   1   2
BRANCH   1   5
ATOM      5  C   UNL     1     -49.029  24.367 -15.606  1.00  0.00     0.059 C 
BRANCH   5   6
ATOM      6  C   UNL     1     -48.313  25.312 -16.518  1.00  0.00     0.042 C 
ATOM      7  O   UNL     1     -48.150  26.515 -16.183  1.00  0.00    -0.550 OA
ATOM      8  O   UNL     1     -47.783  24.854 -17.716  1.00  0.00    -0.550 OA
ENDBRANCH   5   6
ENDBRANCH   1   5
TORSDOF 3
ENDMDL
MODEL 3
REMARK VINA RESULT:    -3.299      2.285      4.274
REMARK INTER + INTRA:          -3.905
REMARK INTER:                  -3.770
REMARK INTRA:                  -0.135
REMARK UNBOUND:                -0.028
REMARK SMILES O=C([O-])CCC(=O)[O-]
REMARK SMILES IDX 4 1 2 2 1 3 3 4 5 5 6 6 7 7 8 8
REMARK H PARENT
REMARK Flexibility Score: inf
ROOT
ATOM      1  C   UNL     1     -52.529  24.902 -14.308  1.00  0.00     0.059 C 
ENDROOT
BRANCH   1   2
ATOM      2  C   UNL     1     -51.857  23.584 -14.089  1.00  0.00     0.042 C 
ATOM      3  O   UNL     1     -51.770  23.101 -12.929  1.00  0.00    -0.550 OA
ATOM      4  O   UNL     1     -51.283  22.910 -15.159  1.00  0.00    -0.550 OA
ENDBRANCH   1   2
BRANCH   1   5
ATOM      5  C   UNL     1     -51.868  25.655 -15.465  1.00  0.00     0.059 C 
BRANCH   5   6
ATOM      6  C   UNL     1     -50.701  26.450 -14.973  1.00  0.00     0.042 C 
ATOM      7  O   UNL     1     -49.527  26.034 -15.157  1.00  0.00    -0.550 OA
ATOM      8  O   UNL     1     -50.906  27.677 -14.357  1.00  0.00    -0.550 OA
ENDBRANCH   5   6
ENDBRANCH   1   5
TORSDOF 3
ENDMDL
MODEL 4
REMARK VINA RESULT:    -3.299      1.521      4.328
REMARK INTER + INTRA:          -3.905
REMARK INTER:                  -3.843
REMARK INTRA:                  -0.062
REMARK UNBOUND:                -0.028
REMARK SMILES O=C([O-])CCC(=O)[O-]
REMARK SMILES IDX 4 1 2 2 1 3 3 4 5 5 6 6 7 7 8 8
REMARK H PARENT
REMARK Flexibility Score: inf
ROOT
ATOM      1  C   UNL     1     -52.642  24.247 -14.201  1.00  0.00     0.059 C 
ENDROOT
BRANCH   1   2
ATOM      2  C   UNL     1     -53.192  23.670 -12.936  1.00  0.00     0.042 C 
ATOM      3  O   UNL     1     -54.384  23.899 -12.600  1.00  0.00    -0.550 OA
ATOM      4  O   UNL     1     -52.375  22.919 -12.101  1.00  0.00    -0.550 OA
ENDBRANCH   1   2
BRANCH   1   5
ATOM      5  C   UNL     1     -51.364  23.514 -14.614  1.00  0.00     0.059 C 
BRANCH   5   6
ATOM      6  C   UNL     1     -50.343  24.483 -15.118  1.00  0.00     0.042 C 
ATOM      7  O   UNL     1     -50.573  25.721 -15.085  1.00  0.00    -0.550 OA
ATOM      8  O   UNL     1     -49.116  24.024 -15.577  1.00  0.00    -0.550 OA
ENDBRANCH   5   6
ENDBRANCH   1   5
TORSDOF 3
ENDMDL
MODEL 5
REMARK VINA RESULT:    -3.275      8.128     10.734
REMARK INTER + INTRA:          -3.877
REMARK INTER:                  -3.759
REMARK INTRA:                  -0.118
REMARK UNBOUND:                -0.028
REMARK SMILES O=C([O-])CCC(=O)[O-]
REMARK SMILES IDX 4 1 2 2 1 3 3 4 5 5 6 6 7 7 8 8
REMARK H PARENT
REMARK Flexibility Score: inf
ROOT
ATOM      1  C   UNL     1     -45.227  26.319 -17.855  1.00  0.00     0.059 C 
ENDROOT
BRANCH   1   2
ATOM      2  C   UNL     1     -46.711  26.423 -18.013  1.00  0.00     0.042 C 
ATOM      3  O   UNL     1     -47.247  27.537 -18.246  1.00  0.00    -0.550 OA
ATOM      4  O   UNL     1     -47.507  25.297 -17.853  1.00  0.00    -0.550 OA
ENDBRANCH   1   2
BRANCH   1   5
ATOM      5  C   UNL     1     -44.559  26.076 -19.210  1.00  0.00     0.059 C 
BRANCH   5   6
ATOM      6  C   UNL     1     -43.808  27.292 -19.650  1.00  0.00     0.042 C 
ATOM      7  O   UNL     1     -43.878  28.357 -18.981  1.00  0.00    -0.550 OA
ATOM      8  O   UNL     1     -42.991  27.237 -20.771  1.00  0.00    -0.550 OA
ENDBRANCH   5   6
ENDBRANCH   1   5
TORSDOF 3
ENDMDL
MODEL 6
REMARK VINA RESULT:    -3.268      8.049     10.040
REMARK INTER + INTRA:          -3.869
REMARK INTER:                  -3.753
REMARK INTRA:                  -0.116
REMARK UNBOUND:                -0.028
REMARK SMILES O=C([O-])CCC(=O)[O-]
REMARK SMILES IDX 4 1 2 2 1 3 3 4 5 5 6 6 7 7 8 8
REMARK H PARENT
REMARK Flexibility Score: inf
ROOT
ATOM      1  C   UNL     1     -44.622  26.086 -19.116  1.00  0.00     0.059 C 
ENDROOT
BRANCH   1   2
ATOM      2  C   UNL     1     -43.838  27.279 -19.564  1.00  0.00     0.042 C 
ATOM      3  O   UNL     1     -43.865  28.344 -18.892  1.00  0.00    -0.550 OA
ATOM      4  O   UNL     1     -43.119  27.233 -20.750  1.00  0.00    -0.550 OA
ENDBRANCH   1   2
BRANCH   1   5
ATOM      5  C   UNL     1     -45.260  26.346 -17.750  1.00  0.00     0.059 C 
BRANCH   5   6
ATOM      6  C   UNL     1     -46.747  26.450 -17.877  1.00  0.00     0.042 C 
ATOM      7  O   UNL     1     -47.286  27.562 -18.121  1.00  0.00    -0.550 OA
ATOM      8  O   UNL     1     -47.535  25.312 -17.776  1.00  0.00    -0.550 OA
ENDBRANCH   5   6
ENDBRANCH   1   5
TORSDOF 3
ENDMDL
MODEL 7
REMARK VINA RESULT:    -3.262      6.895      9.408
REMARK INTER + INTRA:          -3.862
REMARK INTER:                  -3.748
REMARK INTRA:                  -0.114
REMARK UNBOUND:                -0.028
REMARK SMILES O=C([O-])CCC(=O)[O-]
REMARK SMILES IDX 4 1 2 2 1 3 3 4 5 5 6 6 7 7 8 8
REMARK H PARENT
REMARK Flexibility Score: inf
ROOT
ATOM      1  C   UNL     1     -46.747  27.134 -17.832  1.00  0.00     0.059 C 
ENDROOT
BRANCH   1   2
ATOM      2  C   UNL     1     -47.741  26.285 -17.106  1.00  0.00     0.042 C 
ATOM      3  O   UNL     1     -48.100  25.178 -17.586  1.00  0.00    -0.550 OA
ATOM      4  O   UNL     1     -48.309  26.738 -15.923  1.00  0.00    -0.550 OA
ENDBRANCH   1   2
BRANCH   1   5
ATOM      5  C   UNL     1     -45.323  26.643 -17.562  1.00  0.00     0.059 C 
BRANCH   5   6
ATOM      6  C   UNL     1     -44.763  25.966 -18.772  1.00  0.00     0.042 C 
ATOM      7  O   UNL     1     -45.190  24.834 -19.120  1.00  0.00    -0.550 OA
ATOM      8  O   UNL     1     -43.804  26.607 -19.546  1.00  0.00    -0.550 OA
ENDBRANCH   5   6
ENDBRANCH   1   5
TORSDOF 3
ENDMDL
MODEL 8
REMARK VINA RESULT:    -3.259      5.789      7.636
REMARK INTER + INTRA:          -3.858
REMARK INTER:                  -3.793
REMARK INTRA:                  -0.065
REMARK UNBOUND:                -0.028
REMARK SMILES O=C([O-])CCC(=O)[O-]
REMARK SMILES IDX 4 1 2 2 1 3 3 4 5 5 6 6 7 7 8 8
REMARK H PARENT
REMARK Flexibility Score: inf
ROOT
ATOM      1  C   UNL     1     -46.894  26.543 -17.900  1.00  0.00     0.059 C 
ENDROOT
BRANCH   1   2
ATOM      2  C   UNL     1     -45.564  26.012 -18.331  1.00  0.00     0.042 C 
ATOM      3  O   UNL     1     -45.491  24.927 -18.966  1.00  0.00    -0.550 OA
ATOM      4  O   UNL     1     -44.402  26.688 -17.989  1.00  0.00    -0.550 OA
ENDBRANCH   1   2
BRANCH   1   5
ATOM      5  C   UNL     1     -47.889  25.398 -17.697  1.00  0.00     0.059 C 
BRANCH   5   6
ATOM      6  C   UNL     1     -48.318  25.323 -16.266  1.00  0.00     0.042 C 
ATOM      7  O   UNL     1     -48.700  24.228 -15.775  1.00  0.00    -0.550 OA
ATOM      8  O   UNL     1     -48.250  26.451 -15.461  1.00  0.00    -0.550 OA
ENDBRANCH   5   6
ENDBRANCH   1   5
TORSDOF 3
ENDMDL
MODEL 9
REMARK VINA RESULT:    -3.237      5.809      8.450
REMARK INTER + INTRA:          -3.833
REMARK INTER:                  -3.747
REMARK INTRA:                  -0.086
REMARK UNBOUND:                -0.028
REMARK SMILES O=C([O-])CCC(=O)[O-]
REMARK SMILES IDX 4 1 2 2 1 3 3 4 5 5 6 6 7 7 8 8
REMARK H PARENT
REMARK Flexibility Score: inf
ROOT
ATOM      1  C   UNL     1     -47.975  25.554 -17.755  1.00  0.00     0.059 C 
ENDROOT
BRANCH   1   2
ATOM      2  C   UNL     1     -48.333  25.419 -16.309  1.00  0.00     0.042 C 
ATOM      3  O   UNL     1     -48.250  26.413 -15.540  1.00  0.00    -0.550 OA
ATOM      4  O   UNL     1     -48.711  24.185 -15.798  1.00  0.00    -0.550 OA
ENDBRANCH   1   2
BRANCH   1   5
ATOM      5  C   UNL     1     -46.979  26.698 -17.956  1.00  0.00     0.059 C 
BRANCH   5   6
ATOM      6  C   UNL     1     -45.599  26.161 -18.163  1.00  0.00     0.042 C 
ATOM      7  O   UNL     1     -44.620  26.682 -17.567  1.00  0.00    -0.550 OA
ATOM      8  O   UNL     1     -45.398  25.053 -18.976  1.00  0.00    -0.550 OA
ENDBRANCH   5   6
ENDBRANCH   1   5
TORSDOF 3
ENDMDL
