MODEL 1
REMARK VINA RESULT:    -5.757      0.000      0.000
REMARK INTER + INTRA:          -7.349
REMARK INTER:                  -6.934
REMARK INTRA:                  -0.415
REMARK UNBOUND:                -0.415
REMARK SMILES O=c1c(O)c(-c2ccc(O)cc2O)oc2cc(O)cc(O)c12
REMARK SMILES IDX 5 1 3 2 2 3 1 4 22 5 20 6 19 7 17 8 16 9 15 10 14 11 6 12
REMARK SMILES IDX 8 13 7 14 9 15 11 16 12 17 10 18 13 20 4 22 21 24 18 26
REMARK H PARENT 10 19 13 21 4 23 21 25 18 27
REMARK Flexibility Score: inf
ROOT
ATOM      1  C   UNL     1       6.877  -8.665   6.444  1.00  0.00     0.184 A 
ATOM      2  C   UNL     1       7.302  -9.621   7.384  1.00  0.00     0.208 A 
ATOM      3  C   UNL     1       8.524 -10.278   7.179  1.00  0.00     0.238 A 
ATOM      4  O   UNL     1       8.909 -11.145   8.009  1.00  0.00    -0.285 OA
ATOM      5  C   UNL     1       9.307  -9.956   6.050  1.00  0.00     0.111 A 
ATOM      6  C   UNL     1      10.552 -10.568   5.771  1.00  0.00     0.134 A 
ATOM      7  C   UNL     1      11.276 -10.186   4.632  1.00  0.00     0.093 A 
ATOM      8  C   UNL     1      10.779  -9.202   3.769  1.00  0.00     0.123 A 
ATOM      9  C   UNL     1       9.552  -8.595   4.040  1.00  0.00     0.094 A 
ATOM     10  C   UNL     1       8.814  -8.964   5.168  1.00  0.00     0.146 A 
ATOM     11  O   UNL     1       7.647  -8.373   5.399  1.00  0.00    -0.451 OA
ENDROOT
BRANCH   1  12
ATOM     12  C   UNL     1       5.597  -7.944   6.594  1.00  0.00     0.063 A 
ATOM     13  C   UNL     1       3.174  -7.949   6.391  1.00  0.00     0.047 A 
ATOM     14  C   UNL     1       4.403  -8.600   6.256  1.00  0.00     0.020 A 
ATOM     15  C   UNL     1       3.123  -6.638   6.880  1.00  0.00     0.119 A 
ATOM     16  C   UNL     1       4.304  -5.985   7.241  1.00  0.00     0.093 A 
ATOM     17  C   UNL     1       5.542  -6.634   7.114  1.00  0.00     0.130 A 
BRANCH  15  18
ATOM     18  O   UNL     1       1.903  -5.978   7.014  1.00  0.00    -0.508 OA
ATOM     19  H   UNL     1       1.033  -6.488   7.114  1.00  0.00     0.293 HD
ENDBRANCH  15  18
BRANCH  17  20
ATOM     20  O   UNL     1       6.709  -5.988   7.524  1.00  0.00    -0.507 OA
ATOM     21  H   UNL     1       7.304  -5.498   6.866  1.00  0.00     0.293 HD
ENDBRANCH  17  20
ENDBRANCH   1  12
BRANCH   2  22
ATOM     22  O   UNL     1       6.524  -9.885   8.515  1.00  0.00    -0.502 OA
ATOM     23  H   UNL     1       6.247  -9.159   9.163  1.00  0.00     0.293 HD
ENDBRANCH   2  22
BRANCH   6  24
ATOM     24  O   UNL     1      11.073 -11.551   6.613  1.00  0.00    -0.507 OA
ATOM     25  H   UNL     1      10.691 -11.720   7.536  1.00  0.00     0.293 HD
ENDBRANCH   6  24
BRANCH   8  26
ATOM     26  O   UNL     1      11.499  -8.821   2.638  1.00  0.00    -0.508 OA
ATOM     27  H   UNL     1      11.181  -8.072   2.035  1.00  0.00     0.293 HD
ENDBRANCH   8  26
TORSDOF 6
ENDMDL
MODEL 2
REMARK VINA RESULT:    -5.668     14.241     16.514
REMARK INTER + INTRA:          -7.242
REMARK INTER:                  -6.919
REMARK INTRA:                  -0.323
REMARK UNBOUND:                -0.415
REMARK SMILES O=c1c(O)c(-c2ccc(O)cc2O)oc2cc(O)cc(O)c12
REMARK SMILES IDX 5 1 3 2 2 3 1 4 22 5 20 6 19 7 17 8 16 9 15 10 14 11 6 12
REMARK SMILES IDX 8 13 7 14 9 15 11 16 12 17 10 18 13 20 4 22 21 24 18 26
REMARK H PARENT 10 19 13 21 4 23 21 25 18 27
REMARK Flexibility Score: inf
ROOT
ATOM      1  C   UNL     1       6.494 -20.504  -4.247  1.00  0.00     0.184 A 
ATOM      2  C   UNL     1       5.771 -19.995  -5.342  1.00  0.00     0.208 A 
ATOM      3  C   UNL     1       5.249 -18.695  -5.265  1.00  0.00     0.238 A 
ATOM      4  O   UNL     1       4.590 -18.233  -6.236  1.00  0.00    -0.285 OA
ATOM      5  C   UNL     1       5.474 -17.922  -4.107  1.00  0.00     0.111 A 
ATOM      6  C   UNL     1       4.986 -16.602  -3.950  1.00  0.00     0.134 A 
ATOM      7  C   UNL     1       5.261 -15.894  -2.771  1.00  0.00     0.093 A 
ATOM      8  C   UNL     1       6.015 -16.480  -1.747  1.00  0.00     0.123 A 
ATOM      9  C   UNL     1       6.497 -17.781  -1.897  1.00  0.00     0.094 A 
ATOM     10  C   UNL     1       6.233 -18.504  -3.063  1.00  0.00     0.146 A 
ATOM     11  O   UNL     1       6.701 -19.742  -3.177  1.00  0.00    -0.451 OA
ENDROOT
BRANCH   1  12
ATOM     12  C   UNL     1       7.061 -21.867  -4.258  1.00  0.00     0.063 A 
ATOM     13  C   UNL     1       6.704 -24.264  -4.456  1.00  0.00     0.047 A 
ATOM     14  C   UNL     1       6.200 -22.961  -4.435  1.00  0.00     0.020 A 
ATOM     15  C   UNL     1       8.078 -24.488  -4.313  1.00  0.00     0.119 A 
ATOM     16  C   UNL     1       8.946 -23.404  -4.159  1.00  0.00     0.093 A 
ATOM     17  C   UNL     1       8.449 -22.092  -4.144  1.00  0.00     0.130 A 
BRANCH  15  18
ATOM     18  O   UNL     1       8.591 -25.783  -4.327  1.00  0.00    -0.508 OA
ATOM     19  H   UNL     1       9.167 -26.118  -5.093  1.00  0.00     0.293 HD
ENDBRANCH  15  18
BRANCH  17  20
ATOM     20  O   UNL     1       9.331 -21.016  -4.038  1.00  0.00    -0.507 OA
ATOM     21  H   UNL     1      10.334 -21.142  -4.114  1.00  0.00     0.293 HD
ENDBRANCH  17  20
ENDBRANCH   1  12
BRANCH   2  22
ATOM     22  O   UNL     1       5.603 -20.771  -6.492  1.00  0.00    -0.502 OA
ATOM     23  H   UNL     1       5.636 -20.373  -7.423  1.00  0.00     0.293 HD
ENDBRANCH   2  22
BRANCH   6  24
ATOM     24  O   UNL     1       4.233 -15.991  -4.954  1.00  0.00    -0.507 OA
ATOM     25  H   UNL     1       3.385 -16.412  -5.314  1.00  0.00     0.293 HD
ENDBRANCH   6  24
BRANCH   8  26
ATOM     26  O   UNL     1       6.289 -15.776  -0.576  1.00  0.00    -0.508 OA
ATOM     27  H   UNL     1       6.011 -16.130   0.332  1.00  0.00     0.293 HD
ENDBRANCH   8  26
TORSDOF 6
ENDMDL
MODEL 3
REMARK VINA RESULT:    -5.590     13.844     17.179
REMARK INTER + INTRA:          -7.148
REMARK INTER:                  -6.766
REMARK INTRA:                  -0.382
REMARK UNBOUND:                -0.415
REMARK SMILES O=c1c(O)c(-c2ccc(O)cc2O)oc2cc(O)cc(O)c12
REMARK SMILES IDX 5 1 3 2 2 3 1 4 22 5 20 6 19 7 17 8 16 9 15 10 14 11 6 12
REMARK SMILES IDX 8 13 7 14 9 15 11 16 12 17 10 18 13 20 4 22 21 24 18 26
REMARK H PARENT 10 19 13 21 4 23 21 25 18 27
REMARK Flexibility Score: inf
ROOT
ATOM      1  C   UNL     1      17.585 -17.524  -3.201  1.00  0.00     0.184 A 
ATOM      2  C   UNL     1      18.382 -17.466  -2.043  1.00  0.00     0.208 A 
ATOM      3  C   UNL     1      19.247 -18.533  -1.761  1.00  0.00     0.238 A 
ATOM      4  O   UNL     1      19.958 -18.497  -0.720  1.00  0.00    -0.285 OA
ATOM      5  C   UNL     1      19.316 -19.628  -2.649  1.00  0.00     0.111 A 
ATOM      6  C   UNL     1      20.164 -20.741  -2.441  1.00  0.00     0.134 A 
ATOM      7  C   UNL     1      20.182 -21.786  -3.376  1.00  0.00     0.093 A 
ATOM      8  C   UNL     1      19.370 -21.738  -4.515  1.00  0.00     0.123 A 
ATOM      9  C   UNL     1      18.531 -20.643  -4.724  1.00  0.00     0.094 A 
ATOM     10  C   UNL     1      18.496 -19.591  -3.803  1.00  0.00     0.146 A 
ATOM     11  O   UNL     1      17.686 -18.564  -4.025  1.00  0.00    -0.451 OA
ENDROOT
BRANCH   1  12
ATOM     12  C   UNL     1      16.645 -16.441  -3.551  1.00  0.00     0.063 A 
ATOM     13  C   UNL     1      14.643 -15.172  -3.011  1.00  0.00     0.047 A 
ATOM     14  C   UNL     1      15.548 -16.193  -2.711  1.00  0.00     0.020 A 
ATOM     15  C   UNL     1      14.831 -14.376  -4.146  1.00  0.00     0.119 A 
ATOM     16  C   UNL     1      15.932 -14.599  -4.976  1.00  0.00     0.093 A 
ATOM     17  C   UNL     1      16.851 -15.619  -4.680  1.00  0.00     0.130 A 
BRANCH  15  18
ATOM     18  O   UNL     1      13.932 -13.358  -4.457  1.00  0.00    -0.508 OA
ATOM     19  H   UNL     1      13.135 -13.155  -3.863  1.00  0.00     0.293 HD
ENDBRANCH  15  18
BRANCH  17  20
ATOM     20  O   UNL     1      17.972 -15.800  -5.489  1.00  0.00    -0.507 OA
ATOM     21  H   UNL     1      18.908 -15.830  -5.101  1.00  0.00     0.293 HD
ENDBRANCH  17  20
ENDBRANCH   1  12
BRANCH   2  22
ATOM     22  O   UNL     1      18.323 -16.348  -1.207  1.00  0.00    -0.502 OA
ATOM     23  H   UNL     1      17.812 -15.510  -1.459  1.00  0.00     0.293 HD
ENDBRANCH   2  22
BRANCH   6  24
ATOM     24  O   UNL     1      20.987 -20.817  -1.316  1.00  0.00    -0.507 OA
ATOM     25  H   UNL     1      21.993 -20.901  -1.397  1.00  0.00     0.293 HD
ENDBRANCH   6  24
BRANCH   8  26
ATOM     26  O   UNL     1      19.388 -22.777  -5.444  1.00  0.00    -0.508 OA
ATOM     27  H   UNL     1      18.542 -23.268  -5.707  1.00  0.00     0.293 HD
ENDBRANCH   8  26
TORSDOF 6
ENDMDL
MODEL 4
REMARK VINA RESULT:    -5.560     16.391     20.368
REMARK INTER + INTRA:          -7.112
REMARK INTER:                  -6.707
REMARK INTRA:                  -0.405
REMARK UNBOUND:                -0.415
REMARK SMILES O=c1c(O)c(-c2ccc(O)cc2O)oc2cc(O)cc(O)c12
REMARK SMILES IDX 5 1 3 2 2 3 1 4 22 5 20 6 19 7 17 8 16 9 15 10 14 11 6 12
REMARK SMILES IDX 8 13 7 14 9 15 11 16 12 17 10 18 13 20 4 22 21 24 18 26
REMARK H PARENT 10 19 13 21 4 23 21 25 18 27
REMARK Flexibility Score: inf
ROOT
ATOM      1  C   UNL     1      18.868 -20.816  -3.948  1.00  0.00     0.184 A 
ATOM      2  C   UNL     1      19.681 -20.887  -5.094  1.00  0.00     0.208 A 
ATOM      3  C   UNL     1      19.570 -22.003  -5.935  1.00  0.00     0.238 A 
ATOM      4  O   UNL     1      20.301 -22.083  -6.959  1.00  0.00    -0.285 OA
ATOM      5  C   UNL     1      18.637 -23.017  -5.629  1.00  0.00     0.111 A 
ATOM      6  C   UNL     1      18.460 -24.173  -6.426  1.00  0.00     0.134 A 
ATOM      7  C   UNL     1      17.504 -25.131  -6.059  1.00  0.00     0.093 A 
ATOM      8  C   UNL     1      16.723 -24.955  -4.912  1.00  0.00     0.123 A 
ATOM      9  C   UNL     1      16.895 -23.818  -4.122  1.00  0.00     0.094 A 
ATOM     10  C   UNL     1      17.843 -22.851  -4.469  1.00  0.00     0.146 A 
ATOM     11  O   UNL     1      17.988 -21.781  -3.697  1.00  0.00    -0.451 OA
ENDROOT
BRANCH   1  12
ATOM     12  C   UNL     1      18.942 -19.674  -3.014  1.00  0.00     0.063 A 
ATOM     13  C   UNL     1      18.183 -17.452  -2.385  1.00  0.00     0.047 A 
ATOM     14  C   UNL     1      18.141 -18.546  -3.252  1.00  0.00     0.020 A 
ATOM     15  C   UNL     1      19.015 -17.477  -1.260  1.00  0.00     0.119 A 
ATOM     16  C   UNL     1      19.798 -18.605  -1.001  1.00  0.00     0.093 A 
ATOM     17  C   UNL     1      19.758 -19.712  -1.863  1.00  0.00     0.130 A 
BRANCH  15  18
ATOM     18  O   UNL     1      19.068 -16.389  -0.391  1.00  0.00    -0.508 OA
ATOM     19  H   UNL     1      18.238 -15.855  -0.160  1.00  0.00     0.293 HD
ENDBRANCH  15  18
BRANCH  17  20
ATOM     20  O   UNL     1      20.508 -20.850  -1.567  1.00  0.00    -0.507 OA
ATOM     21  H   UNL     1      21.310 -20.812  -0.950  1.00  0.00     0.293 HD
ENDBRANCH  17  20
ENDBRANCH   1  12
BRANCH   2  22
ATOM     22  O   UNL     1      20.563 -19.845  -5.393  1.00  0.00    -0.502 OA
ATOM     23  H   UNL     1      20.415 -18.899  -5.063  1.00  0.00     0.293 HD
ENDBRANCH   2  22
BRANCH   6  24
ATOM     24  O   UNL     1      19.223 -24.375  -7.577  1.00  0.00    -0.507 OA
ATOM     25  H   UNL     1      20.015 -23.785  -7.802  1.00  0.00     0.293 HD
ENDBRANCH   6  24
BRANCH   8  26
ATOM     26  O   UNL     1      15.772 -25.908  -4.547  1.00  0.00    -0.508 OA
ATOM     27  H   UNL     1      14.904 -25.645  -4.095  1.00  0.00     0.293 HD
ENDBRANCH   8  26
TORSDOF 6
ENDMDL
MODEL 5
REMARK VINA RESULT:    -5.521     12.695     17.479
REMARK INTER + INTRA:          -7.065
REMARK INTER:                  -6.686
REMARK INTRA:                  -0.380
REMARK UNBOUND:                -0.415
REMARK SMILES O=c1c(O)c(-c2ccc(O)cc2O)oc2cc(O)cc(O)c12
REMARK SMILES IDX 5 1 3 2 2 3 1 4 22 5 20 6 19 7 17 8 16 9 15 10 14 11 6 12
REMARK SMILES IDX 8 13 7 14 9 15 11 16 12 17 10 18 13 20 4 22 21 24 18 26
REMARK H PARENT 10 19 13 21 4 23 21 25 18 27
REMARK Flexibility Score: inf
ROOT
ATOM      1  C   UNL     1      18.010 -17.371  -3.404  1.00  0.00     0.184 A 
ATOM      2  C   UNL     1      18.267 -16.777  -4.653  1.00  0.00     0.208 A 
ATOM      3  C   UNL     1      17.410 -15.767  -5.113  1.00  0.00     0.238 A 
ATOM      4  O   UNL     1      17.624 -15.234  -6.236  1.00  0.00    -0.285 OA
ATOM      5  C   UNL     1      16.325 -15.355  -4.310  1.00  0.00     0.111 A 
ATOM      6  C   UNL     1      15.416 -14.342  -4.697  1.00  0.00     0.134 A 
ATOM      7  C   UNL     1      14.367 -13.982  -3.838  1.00  0.00     0.093 A 
ATOM      8  C   UNL     1      14.211 -14.616  -2.600  1.00  0.00     0.123 A 
ATOM      9  C   UNL     1      15.104 -15.616  -2.214  1.00  0.00     0.094 A 
ATOM     10  C   UNL     1      16.155 -15.991  -3.056  1.00  0.00     0.146 A 
ATOM     11  O   UNL     1      16.987 -16.948  -2.666  1.00  0.00    -0.451 OA
ENDROOT
BRANCH   1  12
ATOM     12  C   UNL     1      18.866 -18.447  -2.866  1.00  0.00     0.063 A 
ATOM     13  C   UNL     1      19.720 -20.715  -3.058  1.00  0.00     0.047 A 
ATOM     14  C   UNL     1      18.915 -19.678  -3.538  1.00  0.00     0.020 A 
ATOM     15  C   UNL     1      20.496 -20.529  -1.908  1.00  0.00     0.119 A 
ATOM     16  C   UNL     1      20.471 -19.300  -1.246  1.00  0.00     0.093 A 
ATOM     17  C   UNL     1      19.671 -18.250  -1.724  1.00  0.00     0.130 A 
BRANCH  15  18
ATOM     18  O   UNL     1      21.297 -21.559  -1.419  1.00  0.00    -0.508 OA
ATOM     19  H   UNL     1      22.246 -21.694  -1.749  1.00  0.00     0.293 HD
ENDBRANCH  15  18
BRANCH  17  20
ATOM     20  O   UNL     1      19.693 -17.012  -1.081  1.00  0.00    -0.507 OA
ATOM     21  H   UNL     1      20.320 -16.827  -0.306  1.00  0.00     0.293 HD
ENDBRANCH  17  20
ENDBRANCH   1  12
BRANCH   2  22
ATOM     22  O   UNL     1      19.376 -17.176  -5.404  1.00  0.00    -0.502 OA
ATOM     23  H   UNL     1      19.285 -17.648  -6.295  1.00  0.00     0.293 HD
ENDBRANCH   2  22
BRANCH   6  24
ATOM     24  O   UNL     1      15.546 -13.691  -5.925  1.00  0.00    -0.507 OA
ATOM     25  H   UNL     1      15.145 -14.070  -6.774  1.00  0.00     0.293 HD
ENDBRANCH   6  24
BRANCH   8  26
ATOM     26  O   UNL     1      13.170 -14.258  -1.746  1.00  0.00    -0.508 OA
ATOM     27  H   UNL     1      12.755 -14.926  -1.106  1.00  0.00     0.293 HD
ENDBRANCH   8  26
TORSDOF 6
ENDMDL
MODEL 6
REMARK VINA RESULT:    -5.422     15.378     16.709
REMARK INTER + INTRA:          -6.946
REMARK INTER:                  -6.550
REMARK INTRA:                  -0.396
REMARK UNBOUND:                -0.415
REMARK SMILES O=c1c(O)c(-c2ccc(O)cc2O)oc2cc(O)cc(O)c12
REMARK SMILES IDX 5 1 3 2 2 3 1 4 22 5 20 6 19 7 17 8 16 9 15 10 14 11 6 12
REMARK SMILES IDX 8 13 7 14 9 15 11 16 12 17 10 18 13 20 4 22 21 24 18 26
REMARK H PARENT 10 19 13 21 4 23 21 25 18 27
REMARK Flexibility Score: inf
ROOT
ATOM      1  C   UNL     1       6.495 -20.685  -4.083  1.00  0.00     0.184 A 
ATOM      2  C   UNL     1       7.883 -20.827  -3.899  1.00  0.00     0.208 A 
ATOM      3  C   UNL     1       8.489 -22.048  -4.227  1.00  0.00     0.238 A 
ATOM      4  O   UNL     1       9.730 -22.191  -4.056  1.00  0.00    -0.285 OA
ATOM      5  C   UNL     1       7.703 -23.098  -4.748  1.00  0.00     0.111 A 
ATOM      6  C   UNL     1       8.235 -24.359  -5.107  1.00  0.00     0.134 A 
ATOM      7  C   UNL     1       7.389 -25.349  -5.628  1.00  0.00     0.093 A 
ATOM      8  C   UNL     1       6.023 -25.101  -5.799  1.00  0.00     0.123 A 
ATOM      9  C   UNL     1       5.493 -23.859  -5.446  1.00  0.00     0.094 A 
ATOM     10  C   UNL     1       6.318 -22.860  -4.923  1.00  0.00     0.146 A 
ATOM     11  O   UNL     1       5.786 -21.689  -4.592  1.00  0.00    -0.451 OA
ENDROOT
BRANCH   1  12
ATOM     12  C   UNL     1       5.792 -19.430  -3.749  1.00  0.00     0.063 A 
ATOM     13  C   UNL     1       4.549 -18.114  -2.126  1.00  0.00     0.047 A 
ATOM     14  C   UNL     1       5.216 -19.290  -2.477  1.00  0.00     0.020 A 
ATOM     15  C   UNL     1       4.462 -17.056  -3.039  1.00  0.00     0.119 A 
ATOM     16  C   UNL     1       5.052 -17.177  -4.299  1.00  0.00     0.093 A 
ATOM     17  C   UNL     1       5.730 -18.352  -4.658  1.00  0.00     0.130 A 
BRANCH  15  18
ATOM     18  O   UNL     1       3.795 -15.880  -2.701  1.00  0.00    -0.508 OA
ATOM     19  H   UNL     1       2.826 -15.888  -2.403  1.00  0.00     0.293 HD
ENDBRANCH  15  18
BRANCH  17  20
ATOM     20  O   UNL     1       6.357 -18.441  -5.900  1.00  0.00    -0.507 OA
ATOM     21  H   UNL     1       6.772 -19.306  -6.226  1.00  0.00     0.293 HD
ENDBRANCH  17  20
ENDBRANCH   1  12
BRANCH   2  22
ATOM     22  O   UNL     1       8.640 -19.753  -3.423  1.00  0.00    -0.502 OA
ATOM     23  H   UNL     1       8.594 -19.444  -2.459  1.00  0.00     0.293 HD
ENDBRANCH   2  22
BRANCH   6  24
ATOM     24  O   UNL     1       9.594 -24.636  -4.950  1.00  0.00    -0.507 OA
ATOM     25  H   UNL     1       9.949 -25.585  -4.955  1.00  0.00     0.293 HD
ENDBRANCH   6  24
BRANCH   8  26
ATOM     26  O   UNL     1       5.182 -26.084  -6.318  1.00  0.00    -0.508 OA
ATOM     27  H   UNL     1       4.181 -26.063  -6.161  1.00  0.00     0.293 HD
ENDBRANCH   8  26
TORSDOF 6
ENDMDL
MODEL 7
REMARK VINA RESULT:    -5.367     12.335     16.372
REMARK INTER + INTRA:          -6.880
REMARK INTER:                  -6.489
REMARK INTRA:                  -0.391
REMARK UNBOUND:                -0.415
REMARK SMILES O=c1c(O)c(-c2ccc(O)cc2O)oc2cc(O)cc(O)c12
REMARK SMILES IDX 5 1 3 2 2 3 1 4 22 5 20 6 19 7 17 8 16 9 15 10 14 11 6 12
REMARK SMILES IDX 8 13 7 14 9 15 11 16 12 17 10 18 13 20 4 22 21 24 18 26
REMARK H PARENT 10 19 13 21 4 23 21 25 18 27
REMARK Flexibility Score: inf
ROOT
ATOM      1  C   UNL     1      15.711 -14.344  -5.697  1.00  0.00     0.184 A 
ATOM      2  C   UNL     1      15.035 -14.694  -6.880  1.00  0.00     0.208 A 
ATOM      3  C   UNL     1      15.621 -14.376  -8.114  1.00  0.00     0.238 A 
ATOM      4  O   UNL     1      15.020 -14.675  -9.182  1.00  0.00    -0.285 OA
ATOM      5  C   UNL     1      16.877 -13.734  -8.144  1.00  0.00     0.111 A 
ATOM      6  C   UNL     1      17.539 -13.382  -9.345  1.00  0.00     0.134 A 
ATOM      7  C   UNL     1      18.791 -12.753  -9.291  1.00  0.00     0.093 A 
ATOM      8  C   UNL     1      19.394 -12.471  -8.061  1.00  0.00     0.123 A 
ATOM      9  C   UNL     1      18.746 -12.815  -6.874  1.00  0.00     0.094 A 
ATOM     10  C   UNL     1      17.496 -13.440  -6.905  1.00  0.00     0.146 A 
ATOM     11  O   UNL     1      16.900 -13.753  -5.761  1.00  0.00    -0.451 OA
ENDROOT
BRANCH   1  12
ATOM     12  C   UNL     1      15.145 -14.639  -4.365  1.00  0.00     0.063 A 
ATOM     13  C   UNL     1      15.110 -16.057  -2.390  1.00  0.00     0.047 A 
ATOM     14  C   UNL     1      15.619 -15.753  -3.655  1.00  0.00     0.020 A 
ATOM     15  C   UNL     1      14.130 -15.242  -1.812  1.00  0.00     0.119 A 
ATOM     16  C   UNL     1      13.668 -14.117  -2.501  1.00  0.00     0.093 A 
ATOM     17  C   UNL     1      14.179 -13.800  -3.769  1.00  0.00     0.130 A 
BRANCH  15  18
ATOM     18  O   UNL     1      13.611 -15.538  -0.554  1.00  0.00    -0.508 OA
ATOM     19  H   UNL     1      14.155 -16.040   0.139  1.00  0.00     0.293 HD
ENDBRANCH  15  18
BRANCH  17  20
ATOM     20  O   UNL     1      13.745 -12.648  -4.425  1.00  0.00    -0.507 OA
ATOM     21  H   UNL     1      14.341 -12.152  -5.077  1.00  0.00     0.293 HD
ENDBRANCH  17  20
ENDBRANCH   1  12
BRANCH   2  22
ATOM     22  O   UNL     1      13.814 -15.369  -6.817  1.00  0.00    -0.502 OA
ATOM     23  H   UNL     1      13.011 -14.992  -6.328  1.00  0.00     0.293 HD
ENDBRANCH   2  22
BRANCH   6  24
ATOM     24  O   UNL     1      16.963 -13.651 -10.588  1.00  0.00    -0.507 OA
ATOM     25  H   UNL     1      16.095 -13.216 -10.879  1.00  0.00     0.293 HD
ENDBRANCH   6  24
BRANCH   8  26
ATOM     26  O   UNL     1      20.640 -11.847  -8.007  1.00  0.00    -0.508 OA
ATOM     27  H   UNL     1      20.918 -11.160  -8.699  1.00  0.00     0.293 HD
ENDBRANCH   8  26
TORSDOF 6
ENDMDL
MODEL 8
REMARK VINA RESULT:    -5.247     16.725     19.491
REMARK INTER + INTRA:          -6.736
REMARK INTER:                  -6.306
REMARK INTRA:                  -0.430
REMARK UNBOUND:                -0.415
REMARK SMILES O=c1c(O)c(-c2ccc(O)cc2O)oc2cc(O)cc(O)c12
REMARK SMILES IDX 5 1 3 2 2 3 1 4 22 5 20 6 19 7 17 8 16 9 15 10 14 11 6 12
REMARK SMILES IDX 8 13 7 14 9 15 11 16 12 17 10 18 13 20 4 22 21 24 18 26
REMARK H PARENT 10 19 13 21 4 23 21 25 18 27
REMARK Flexibility Score: inf
ROOT
ATOM      1  C   UNL     1      18.890 -19.953  -4.061  1.00  0.00     0.184 A 
ATOM      2  C   UNL     1      19.207 -18.841  -4.862  1.00  0.00     0.208 A 
ATOM      3  C   UNL     1      19.610 -17.650  -4.240  1.00  0.00     0.238 A 
ATOM      4  O   UNL     1      19.887 -16.644  -4.947  1.00  0.00    -0.285 OA
ATOM      5  C   UNL     1      19.706 -17.597  -2.833  1.00  0.00     0.111 A 
ATOM      6  C   UNL     1      20.107 -16.437  -2.128  1.00  0.00     0.134 A 
ATOM      7  C   UNL     1      20.187 -16.467  -0.728  1.00  0.00     0.093 A 
ATOM      8  C   UNL     1      19.875 -17.633  -0.021  1.00  0.00     0.123 A 
ATOM      9  C   UNL     1      19.478 -18.779  -0.712  1.00  0.00     0.094 A 
ATOM     10  C   UNL     1      19.390 -18.770  -2.107  1.00  0.00     0.146 A 
ATOM     11  O   UNL     1      19.006 -19.873  -2.738  1.00  0.00    -0.451 OA
ENDROOT
BRANCH   1  12
ATOM     12  C   UNL     1      18.449 -21.233  -4.650  1.00  0.00     0.063 A 
ATOM     13  C   UNL     1      19.016 -23.282  -5.830  1.00  0.00     0.047 A 
ATOM     14  C   UNL     1      19.399 -22.061  -5.267  1.00  0.00     0.020 A 
ATOM     15  C   UNL     1      17.681 -23.696  -5.768  1.00  0.00     0.119 A 
ATOM     16  C   UNL     1      16.732 -22.890  -5.135  1.00  0.00     0.093 A 
ATOM     17  C   UNL     1      17.108 -21.665  -4.562  1.00  0.00     0.130 A 
BRANCH  15  18
ATOM     18  O   UNL     1      17.287 -24.909  -6.330  1.00  0.00    -0.508 OA
ATOM     19  H   UNL     1      16.359 -25.287  -6.179  1.00  0.00     0.293 HD
ENDBRANCH  15  18
BRANCH  17  20
ATOM     20  O   UNL     1      16.161 -20.892  -3.890  1.00  0.00    -0.507 OA
ATOM     21  H   UNL     1      16.410 -20.324  -3.089  1.00  0.00     0.293 HD
ENDBRANCH  17  20
ENDBRANCH   1  12
BRANCH   2  22
ATOM     22  O   UNL     1      19.145 -18.940  -6.254  1.00  0.00    -0.502 OA
ATOM     23  H   UNL     1      18.565 -18.327  -6.815  1.00  0.00     0.293 HD
ENDBRANCH   2  22
BRANCH   6  24
ATOM     24  O   UNL     1      20.425 -15.259  -2.805  1.00  0.00    -0.507 OA
ATOM     25  H   UNL     1      21.380 -14.929  -2.881  1.00  0.00     0.293 HD
ENDBRANCH   6  24
BRANCH   8  26
ATOM     26  O   UNL     1      19.956 -17.663   1.370  1.00  0.00    -0.508 OA
ATOM     27  H   UNL     1      20.581 -17.048   1.878  1.00  0.00     0.293 HD
ENDBRANCH   8  26
TORSDOF 6
ENDMDL
MODEL 9
REMARK VINA RESULT:    -5.240     14.154     16.151
REMARK INTER + INTRA:          -6.727
REMARK INTER:                  -6.385
REMARK INTRA:                  -0.342
REMARK UNBOUND:                -0.415
REMARK SMILES O=c1c(O)c(-c2ccc(O)cc2O)oc2cc(O)cc(O)c12
REMARK SMILES IDX 5 1 3 2 2 3 1 4 22 5 20 6 19 7 17 8 16 9 15 10 14 11 6 12
REMARK SMILES IDX 8 13 7 14 9 15 11 16 12 17 10 18 13 20 4 22 21 24 18 26
REMARK H PARENT 10 19 13 21 4 23 21 25 18 27
REMARK Flexibility Score: inf
ROOT
ATOM      1  C   UNL     1      17.612 -19.953   7.018  1.00  0.00     0.184 A 
ATOM      2  C   UNL     1      17.754 -20.537   5.746  1.00  0.00     0.208 A 
ATOM      3  C   UNL     1      16.902 -21.590   5.384  1.00  0.00     0.238 A 
ATOM      4  O   UNL     1      17.027 -22.128   4.251  1.00  0.00    -0.285 OA
ATOM      5  C   UNL     1      15.911 -22.027   6.289  1.00  0.00     0.111 A 
ATOM      6  C   UNL     1      15.009 -23.079   6.001  1.00  0.00     0.134 A 
ATOM      7  C   UNL     1      14.046 -23.449   6.951  1.00  0.00     0.093 A 
ATOM      8  C   UNL     1      13.967 -22.787   8.181  1.00  0.00     0.123 A 
ATOM      9  C   UNL     1      14.855 -21.749   8.470  1.00  0.00     0.094 A 
ATOM     10  C   UNL     1      15.824 -21.367   7.538  1.00  0.00     0.146 A 
ATOM     11  O   UNL     1      16.658 -20.379   7.841  1.00  0.00    -0.451 OA
ENDROOT
BRANCH   1  12
ATOM     12  C   UNL     1      18.484 -18.849   7.467  1.00  0.00     0.063 A 
ATOM     13  C   UNL     1      20.423 -18.119   8.738  1.00  0.00     0.047 A 
ATOM     14  C   UNL     1      19.576 -19.139   8.300  1.00  0.00     0.020 A 
ATOM     15  C   UNL     1      20.198 -16.796   8.337  1.00  0.00     0.119 A 
ATOM     16  C   UNL     1      19.128 -16.501   7.489  1.00  0.00     0.093 A 
ATOM     17  C   UNL     1      18.275 -17.521   7.039  1.00  0.00     0.130 A 
BRANCH  15  18
ATOM     18  O   UNL     1      21.034 -15.770   8.772  1.00  0.00    -0.508 OA
ATOM     19  H   UNL     1      21.449 -15.112   8.121  1.00  0.00     0.293 HD
ENDBRANCH  15  18
BRANCH  17  20
ATOM     20  O   UNL     1      17.239 -17.220   6.154  1.00  0.00    -0.507 OA
ATOM     21  H   UNL     1      16.383 -17.761   6.134  1.00  0.00     0.293 HD
ENDBRANCH  17  20
ENDBRANCH   1  12
BRANCH   2  22
ATOM     22  O   UNL     1      18.716 -20.052   4.856  1.00  0.00    -0.502 OA
ATOM     23  H   UNL     1      19.453 -20.637   4.483  1.00  0.00     0.293 HD
ENDBRANCH   2  22
BRANCH   6  24
ATOM     24  O   UNL     1      15.063 -23.758   4.783  1.00  0.00    -0.507 OA
ATOM     25  H   UNL     1      15.880 -24.285   4.502  1.00  0.00     0.293 HD
ENDBRANCH   6  24
BRANCH   8  26
ATOM     26  O   UNL     1      13.009 -23.154   9.125  1.00  0.00    -0.508 OA
ATOM     27  H   UNL     1      12.108 -23.527   8.848  1.00  0.00     0.293 HD
ENDBRANCH   8  26
TORSDOF 6
ENDMDL
