MODEL 1
REMARK VINA RESULT:    -5.630      0.000      0.000
REMARK INTER + INTRA:          -7.801
REMARK INTER:                  -6.782
REMARK INTRA:                  -1.019
REMARK UNBOUND:                -1.019
REMARK SMILES C=C(C)[C@@H]1CC[C@@]2(C(=O)[O-])CC[C@@]3(C)[C@H](CC[C@@H]4[C@@]5(C)[C@@H](C=O)[C@@H](O)C(C)(C)[C@@H]5CC[C@]43C)[C@@H]12
REMARK SMILES IDX 7 1 6 2 34 3 11 4 5 5 15 6 4 7 12 8 16 9 13 10 17 11 32 12
REMARK SMILES IDX 14 13 18 14 31 15 33 16 19 17 30 18 29 19 21 20 20 21 26 22
REMARK SMILES IDX 24 23 27 24 28 25 8 26 9 27 10 28 2 29 3 30 1 31 22 32 23 33
REMARK SMILES IDX 25 34
REMARK H PARENT 25 35
REMARK Flexibility Score: inf
ROOT
ATOM      1  C   UNL     1    -114.141 -11.014  34.312  1.00  0.00     0.014 C 
ATOM      2  C   UNL     1    -114.696 -12.384  34.826  1.00  0.00     0.014 C 
ATOM      3  C   UNL     1    -113.361 -10.422  35.534  1.00  0.00     0.012 C 
ATOM      4  C   UNL     1    -115.324 -10.151  33.781  1.00  0.00     0.014 C 
ATOM      5  C   UNL     1    -114.023 -12.662  36.167  1.00  0.00     0.009 C 
ATOM      6  C   UNL     1    -113.394  -8.870  35.765  1.00  0.00     0.000 C 
ATOM      7  C   UNL     1    -113.755 -11.275  36.757  1.00  0.00     0.018 C 
ATOM      8  C   UNL     1    -115.107  -8.639  33.896  1.00  0.00     0.008 C 
ATOM      9  C   UNL     1    -112.135  -8.259  35.077  1.00  0.00     0.005 C 
ATOM     10  C   UNL     1    -114.746  -8.141  35.345  1.00  0.00    -0.024 C 
ATOM     11  C   UNL     1    -112.029  -6.751  35.227  1.00  0.00     0.005 C 
ATOM     12  C   UNL     1    -114.581  -6.513  35.425  1.00  0.00    -0.024 C 
ATOM     13  C   UNL     1    -115.905  -8.559  36.302  1.00  0.00     0.012 C 
ATOM     14  C   UNL     1    -113.275  -6.090  34.627  1.00  0.00     0.002 C 
ATOM     15  C   UNL     1    -115.838  -5.747  34.829  1.00  0.00     0.008 C 
ATOM     16  C   UNL     1    -114.470  -6.086  36.934  1.00  0.00     0.012 C 
ATOM     17  C   UNL     1    -113.101  -4.547  34.290  1.00  0.00    -0.014 C 
ATOM     18  C   UNL     1    -115.617  -4.247  34.554  1.00  0.00     0.005 C 
ATOM     19  C   UNL     1    -114.410  -4.097  33.622  1.00  0.00     0.004 C 
ATOM     20  C   UNL     1    -112.074  -4.192  33.174  1.00  0.00     0.088 C 
ATOM     21  C   UNL     1    -112.682  -3.694  35.541  1.00  0.00     0.013 C 
ATOM     22  C   UNL     1    -114.140  -2.760  32.884  1.00  0.00    -0.005 C 
ATOM     23  C   UNL     1    -112.589  -2.827  32.607  1.00  0.00     0.131 C 
ATOM     24  C   UNL     1    -114.522  -1.532  33.749  1.00  0.00     0.014 C 
ATOM     25  C   UNL     1    -114.972  -2.692  31.571  1.00  0.00     0.014 C 
ENDROOT
BRANCH   1  26
ATOM     26  C   UNL     1    -113.129 -11.259  33.186  1.00  0.00     0.048 C 
ATOM     27  O   UNL     1    -113.467 -11.150  31.971  1.00  0.00    -0.550 OA
ATOM     28  O   UNL     1    -111.791 -11.512  33.478  1.00  0.00    -0.550 OA
ENDBRANCH   1  26
BRANCH   7  29
ATOM     29  C   UNL     1    -112.723 -11.327  37.881  1.00  0.00    -0.077 C 
ATOM     30  C   UNL     1    -113.105 -10.771  39.238  1.00  0.00     0.039 C 
ATOM     31  C   UNL     1    -111.503 -11.872  37.718  1.00  0.00     0.008 C 
ENDBRANCH   7  29
BRANCH  20  32
ATOM     32  C   UNL     1    -111.884  -5.282  32.125  1.00  0.00     0.230 C 
ATOM     33  O   UNL     1    -111.144  -5.130  31.166  1.00  0.00    -0.303 OA
ENDBRANCH  20  32
BRANCH  23  34
ATOM     34  O   UNL     1    -112.266  -2.660  31.242  1.00  0.00    -0.392 OA
ATOM     35  H   UNL     1    -113.042  -2.216  30.808  1.00  0.00     0.211 HD
ENDBRANCH  23  34
TORSDOF 4
ENDMDL
MODEL 2
REMARK VINA RESULT:    -5.209      1.708      7.617
REMARK INTER + INTRA:          -7.294
REMARK INTER:                  -6.262
REMARK INTRA:                  -1.032
REMARK UNBOUND:                -1.019
REMARK SMILES C=C(C)[C@@H]1CC[C@@]2(C(=O)[O-])CC[C@@]3(C)[C@H](CC[C@@H]4[C@@]5(C)[C@@H](C=O)[C@@H](O)C(C)(C)[C@@H]5CC[C@]43C)[C@@H]12
REMARK SMILES IDX 7 1 6 2 34 3 11 4 5 5 15 6 4 7 12 8 16 9 13 10 17 11 32 12
REMARK SMILES IDX 14 13 18 14 31 15 33 16 19 17 30 18 29 19 21 20 20 21 26 22
REMARK SMILES IDX 24 23 27 24 28 25 8 26 9 27 10 28 2 29 3 30 1 31 22 32 23 33
REMARK SMILES IDX 25 34
REMARK H PARENT 25 35
REMARK Flexibility Score: inf
ROOT
ATOM      1  C   UNL     1    -112.554  -4.218  30.635  1.00  0.00     0.014 C 
ATOM      2  C   UNL     1    -111.996  -2.924  29.956  1.00  0.00     0.014 C 
ATOM      3  C   UNL     1    -113.804  -3.733  31.442  1.00  0.00     0.012 C 
ATOM      4  C   UNL     1    -111.422  -4.883  31.474  1.00  0.00     0.014 C 
ATOM      5  C   UNL     1    -113.044  -1.832  30.151  1.00  0.00     0.009 C 
ATOM      6  C   UNL     1    -114.117  -4.410  32.822  1.00  0.00     0.000 C 
ATOM      7  C   UNL     1    -113.733  -2.191  31.470  1.00  0.00     0.018 C 
ATOM      8  C   UNL     1    -111.917  -5.684  32.683  1.00  0.00     0.008 C 
ATOM      9  C   UNL     1    -115.133  -5.566  32.567  1.00  0.00     0.005 C 
ATOM     10  C   UNL     1    -112.847  -4.876  33.663  1.00  0.00    -0.024 C 
ATOM     11  C   UNL     1    -115.538  -6.312  33.826  1.00  0.00     0.005 C 
ATOM     12  C   UNL     1    -113.301  -5.758  34.966  1.00  0.00    -0.024 C 
ATOM     13  C   UNL     1    -112.051  -3.634  34.170  1.00  0.00     0.012 C 
ATOM     14  C   UNL     1    -114.289  -6.906  34.490  1.00  0.00     0.002 C 
ATOM     15  C   UNL     1    -112.061  -6.406  35.721  1.00  0.00     0.008 C 
ATOM     16  C   UNL     1    -114.011  -4.811  36.001  1.00  0.00     0.012 C 
ATOM     17  C   UNL     1    -114.589  -8.077  35.521  1.00  0.00    -0.014 C 
ATOM     18  C   UNL     1    -112.419  -7.513  36.731  1.00  0.00     0.005 C 
ATOM     19  C   UNL     1    -113.224  -8.594  36.001  1.00  0.00     0.004 C 
ATOM     20  C   UNL     1    -115.197  -9.383  34.930  1.00  0.00     0.088 C 
ATOM     21  C   UNL     1    -115.561  -7.639  36.674  1.00  0.00     0.013 C 
ATOM     22  C   UNL     1    -113.434  -9.991  36.641  1.00  0.00    -0.005 C 
ATOM     23  C   UNL     1    -114.751 -10.497  35.936  1.00  0.00     0.131 C 
ATOM     24  C   UNL     1    -113.596  -9.907  38.179  1.00  0.00     0.014 C 
ATOM     25  C   UNL     1    -112.215 -10.909  36.342  1.00  0.00     0.014 C 
ENDROOT
BRANCH   1  26
ATOM     26  C   UNL     1    -113.044  -5.194  29.557  1.00  0.00     0.048 C 
ATOM     27  O   UNL     1    -114.221  -5.120  29.098  1.00  0.00    -0.550 OA
ATOM     28  O   UNL     1    -112.173  -6.121  28.992  1.00  0.00    -0.550 OA
ENDBRANCH   1  26
BRANCH   7  29
ATOM     29  C   UNL     1    -115.073  -1.475  31.624  1.00  0.00    -0.077 C 
ATOM     30  C   UNL     1    -115.507  -1.047  33.011  1.00  0.00     0.039 C 
ATOM     31  C   UNL     1    -115.863  -1.186  30.573  1.00  0.00     0.008 C 
ENDBRANCH   7  29
BRANCH  20  32
ATOM     32  C   UNL     1    -114.816  -9.653  33.478  1.00  0.00     0.230 C 
ATOM     33  O   UNL     1    -113.807 -10.271  33.181  1.00  0.00    -0.303 OA
ENDBRANCH  20  32
BRANCH  23  34
ATOM     34  O   UNL     1    -114.592 -11.751  35.307  1.00  0.00    -0.392 OA
ATOM     35  H   UNL     1    -114.297 -11.577  34.374  1.00  0.00     0.211 HD
ENDBRANCH  23  34
TORSDOF 4
ENDMDL
MODEL 3
REMARK VINA RESULT:    -4.863      1.565      7.533
REMARK INTER + INTRA:          -6.878
REMARK INTER:                  -6.185
REMARK INTRA:                  -0.693
REMARK UNBOUND:                -1.019
REMARK SMILES C=C(C)[C@@H]1CC[C@@]2(C(=O)[O-])CC[C@@]3(C)[C@H](CC[C@@H]4[C@@]5(C)[C@@H](C=O)[C@@H](O)C(C)(C)[C@@H]5CC[C@]43C)[C@@H]12
REMARK SMILES IDX 7 1 6 2 34 3 11 4 5 5 15 6 4 7 12 8 16 9 13 10 17 11 32 12
REMARK SMILES IDX 14 13 18 14 31 15 33 16 19 17 30 18 29 19 21 20 20 21 26 22
REMARK SMILES IDX 24 23 27 24 28 25 8 26 9 27 10 28 2 29 3 30 1 31 22 32 23 33
REMARK SMILES IDX 25 34
REMARK H PARENT 25 35
REMARK Flexibility Score: inf
ROOT
ATOM      1  C   UNL     1    -113.180  -4.283  32.025  1.00  0.00     0.014 C 
ATOM      2  C   UNL     1    -112.651  -2.830  31.787  1.00  0.00     0.014 C 
ATOM      3  C   UNL     1    -114.195  -4.144  33.209  1.00  0.00     0.012 C 
ATOM      4  C   UNL     1    -111.969  -5.231  32.278  1.00  0.00     0.014 C 
ATOM      5  C   UNL     1    -113.535  -1.895  32.606  1.00  0.00     0.009 C 
ATOM      6  C   UNL     1    -114.288  -5.307  34.258  1.00  0.00     0.000 C 
ATOM      7  C   UNL     1    -113.979  -2.738  33.805  1.00  0.00     0.018 C 
ATOM      8  C   UNL     1    -112.285  -6.438  33.167  1.00  0.00     0.008 C 
ATOM      9  C   UNL     1    -115.436  -6.263  33.811  1.00  0.00     0.005 C 
ATOM     10  C   UNL     1    -112.924  -6.073  34.559  1.00  0.00    -0.024 C 
ATOM     11  C   UNL     1    -115.648  -7.441  34.746  1.00  0.00     0.005 C 
ATOM     12  C   UNL     1    -113.189  -7.392  35.493  1.00  0.00    -0.024 C 
ATOM     13  C   UNL     1    -111.933  -5.134  35.314  1.00  0.00     0.012 C 
ATOM     14  C   UNL     1    -114.353  -8.255  34.844  1.00  0.00     0.002 C 
ATOM     15  C   UNL     1    -111.889  -8.291  35.653  1.00  0.00     0.008 C 
ATOM     16  C   UNL     1    -113.589  -6.921  36.939  1.00  0.00     0.012 C 
ATOM     17  C   UNL     1    -114.547  -9.734  35.389  1.00  0.00    -0.014 C 
ATOM     18  C   UNL     1    -112.139  -9.703  36.217  1.00  0.00     0.005 C 
ATOM     19  C   UNL     1    -113.167 -10.407  35.326  1.00  0.00     0.004 C 
ATOM     20  C   UNL     1    -115.377 -10.700  34.493  1.00  0.00     0.088 C 
ATOM     21  C   UNL     1    -115.227  -9.777  36.805  1.00  0.00     0.013 C 
ATOM     22  C   UNL     1    -113.373 -11.941  35.414  1.00  0.00    -0.005 C 
ATOM     23  C   UNL     1    -114.845 -12.122  34.875  1.00  0.00     0.131 C 
ATOM     24  C   UNL     1    -113.218 -12.466  36.863  1.00  0.00     0.014 C 
ATOM     25  C   UNL     1    -112.327 -12.677  34.529  1.00  0.00     0.014 C 
ENDROOT
BRANCH   1  26
ATOM     26  C   UNL     1    -113.961  -4.755  30.792  1.00  0.00     0.048 C 
ATOM     27  O   UNL     1    -115.160  -4.396  30.603  1.00  0.00    -0.550 OA
ATOM     28  O   UNL     1    -113.336  -5.512  29.805  1.00  0.00    -0.550 OA
ENDBRANCH   1  26
BRANCH   7  29
ATOM     29  C   UNL     1    -115.190  -2.131  34.509  1.00  0.00    -0.077 C 
ATOM     30  C   UNL     1    -115.394  -0.631  34.432  1.00  0.00     0.039 C 
ATOM     31  C   UNL     1    -116.094  -2.880  35.168  1.00  0.00     0.008 C 
ENDBRANCH   7  29
BRANCH  20  32
ATOM     32  C   UNL     1    -115.319 -10.383  33.003  1.00  0.00     0.230 C 
ATOM     33  O   UNL     1    -114.450 -10.843  32.280  1.00  0.00    -0.303 OA
ENDBRANCH  20  32
BRANCH  23  34
ATOM     34  O   UNL     1    -114.929 -13.031  33.798  1.00  0.00    -0.392 OA
ATOM     35  H   UNL     1    -114.059 -13.000  33.318  1.00  0.00     0.211 HD
ENDBRANCH  23  34
TORSDOF 4
ENDMDL
MODEL 4
REMARK VINA RESULT:    -4.432      1.493      7.571
REMARK INTER + INTRA:          -6.358
REMARK INTER:                  -5.677
REMARK INTRA:                  -0.682
REMARK UNBOUND:                -1.019
REMARK SMILES C=C(C)[C@@H]1CC[C@@]2(C(=O)[O-])CC[C@@]3(C)[C@H](CC[C@@H]4[C@@]5(C)[C@@H](C=O)[C@@H](O)C(C)(C)[C@@H]5CC[C@]43C)[C@@H]12
REMARK SMILES IDX 7 1 6 2 34 3 11 4 5 5 15 6 4 7 12 8 16 9 13 10 17 11 32 12
REMARK SMILES IDX 14 13 18 14 31 15 33 16 19 17 30 18 29 19 21 20 20 21 26 22
REMARK SMILES IDX 24 23 27 24 28 25 8 26 9 27 10 28 2 29 3 30 1 31 22 32 23 33
REMARK SMILES IDX 25 34
REMARK H PARENT 25 35
REMARK Flexibility Score: inf
ROOT
ATOM      1  C   UNL     1    -112.687  -3.915  33.821  1.00  0.00     0.014 C 
ATOM      2  C   UNL     1    -113.067  -2.399  33.744  1.00  0.00     0.014 C 
ATOM      3  C   UNL     1    -113.786  -4.641  32.976  1.00  0.00     0.012 C 
ATOM      4  C   UNL     1    -112.590  -4.341  35.316  1.00  0.00     0.014 C 
ATOM      5  C   UNL     1    -114.155  -2.266  32.682  1.00  0.00     0.009 C 
ATOM      6  C   UNL     1    -114.282  -6.054  33.443  1.00  0.00     0.000 C 
ATOM      7  C   UNL     1    -114.900  -3.603  32.727  1.00  0.00     0.018 C 
ATOM      8  C   UNL     1    -112.913  -5.816  35.576  1.00  0.00     0.008 C 
ATOM      9  C   UNL     1    -113.445  -7.129  32.684  1.00  0.00     0.005 C 
ATOM     10  C   UNL     1    -114.308  -6.286  35.019  1.00  0.00    -0.024 C 
ATOM     11  C   UNL     1    -113.826  -8.557  33.034  1.00  0.00     0.005 C 
ATOM     12  C   UNL     1    -114.628  -7.853  35.373  1.00  0.00    -0.024 C 
ATOM     13  C   UNL     1    -115.413  -5.403  35.677  1.00  0.00     0.012 C 
ATOM     14  C   UNL     1    -113.643  -8.779  34.540  1.00  0.00     0.002 C 
ATOM     15  C   UNL     1    -114.470  -8.169  36.922  1.00  0.00     0.008 C 
ATOM     16  C   UNL     1    -116.125  -8.163  35.003  1.00  0.00     0.012 C 
ATOM     17  C   UNL     1    -113.547 -10.305  34.972  1.00  0.00    -0.014 C 
ATOM     18  C   UNL     1    -114.415  -9.666  37.280  1.00  0.00     0.005 C 
ATOM     19  C   UNL     1    -113.277 -10.314  36.484  1.00  0.00     0.004 C 
ATOM     20  C   UNL     1    -112.308 -11.095  34.455  1.00  0.00     0.088 C 
ATOM     21  C   UNL     1    -114.800 -11.143  34.530  1.00  0.00     0.013 C 
ATOM     22  C   UNL     1    -112.739 -11.716  36.870  1.00  0.00    -0.005 C 
ATOM     23  C   UNL     1    -112.114 -12.230  35.517  1.00  0.00     0.131 C 
ATOM     24  C   UNL     1    -113.866 -12.650  37.380  1.00  0.00     0.014 C 
ATOM     25  C   UNL     1    -111.678 -11.594  38.001  1.00  0.00     0.014 C 
ENDROOT
BRANCH   1  26
ATOM     26  C   UNL     1    -111.337  -4.142  33.128  1.00  0.00     0.048 C 
ATOM     27  O   UNL     1    -110.251  -4.054  33.771  1.00  0.00    -0.550 OA
ATOM     28  O   UNL     1    -111.283  -4.545  31.796  1.00  0.00    -0.550 OA
ENDBRANCH   1  26
BRANCH   7  29
ATOM     29  C   UNL     1    -115.739  -3.829  31.471  1.00  0.00    -0.077 C 
ATOM     30  C   UNL     1    -116.125  -2.625  30.635  1.00  0.00     0.039 C 
ATOM     31  C   UNL     1    -116.119  -5.055  31.067  1.00  0.00     0.008 C 
ENDBRANCH   7  29
BRANCH  20  32
ATOM     32  C   UNL     1    -111.071 -10.237  34.214  1.00  0.00     0.230 C 
ATOM     33  O   UNL     1    -110.280 -10.485  33.319  1.00  0.00    -0.303 OA
ENDBRANCH  20  32
BRANCH  23  34
ATOM     34  O   UNL     1    -110.762 -12.615  35.645  1.00  0.00    -0.392 OA
ATOM     35  H   UNL     1    -110.576 -12.713  36.616  1.00  0.00     0.211 HD
ENDBRANCH  23  34
TORSDOF 4
ENDMDL
MODEL 5
REMARK VINA RESULT:    -4.361      2.490      7.766
REMARK INTER + INTRA:          -6.273
REMARK INTER:                  -5.605
REMARK INTRA:                  -0.668
REMARK UNBOUND:                -1.019
REMARK SMILES C=C(C)[C@@H]1CC[C@@]2(C(=O)[O-])CC[C@@]3(C)[C@H](CC[C@@H]4[C@@]5(C)[C@@H](C=O)[C@@H](O)C(C)(C)[C@@H]5CC[C@]43C)[C@@H]12
REMARK SMILES IDX 7 1 6 2 34 3 11 4 5 5 15 6 4 7 12 8 16 9 13 10 17 11 32 12
REMARK SMILES IDX 14 13 18 14 31 15 33 16 19 17 30 18 29 19 21 20 20 21 26 22
REMARK SMILES IDX 24 23 27 24 28 25 8 26 9 27 10 28 2 29 3 30 1 31 22 32 23 33
REMARK SMILES IDX 25 34
REMARK H PARENT 25 35
REMARK Flexibility Score: inf
ROOT
ATOM      1  C   UNL     1    -114.351  -3.113  32.213  1.00  0.00     0.014 C 
ATOM      2  C   UNL     1    -114.664  -2.123  31.042  1.00  0.00     0.014 C 
ATOM      3  C   UNL     1    -113.129  -3.949  31.706  1.00  0.00     0.012 C 
ATOM      4  C   UNL     1    -115.636  -3.927  32.549  1.00  0.00     0.014 C 
ATOM      5  C   UNL     1    -113.501  -2.216  30.058  1.00  0.00     0.009 C 
ATOM      6  C   UNL     1    -113.042  -5.466  32.099  1.00  0.00     0.000 C 
ATOM      7  C   UNL     1    -112.994  -3.654  30.197  1.00  0.00     0.018 C 
ATOM      8  C   UNL     1    -115.370  -5.324  33.118  1.00  0.00     0.008 C 
ATOM      9  C   UNL     1    -112.171  -5.575  33.388  1.00  0.00     0.005 C 
ATOM     10  C   UNL     1    -114.437  -6.224  32.226  1.00  0.00    -0.024 C 
ATOM     11  C   UNL     1    -111.991  -7.000  33.884  1.00  0.00     0.005 C 
ATOM     12  C   UNL     1    -114.231  -7.725  32.850  1.00  0.00    -0.024 C 
ATOM     13  C   UNL     1    -115.102  -6.369  30.823  1.00  0.00     0.012 C 
ATOM     14  C   UNL     1    -113.365  -7.615  34.177  1.00  0.00     0.002 C 
ATOM     15  C   UNL     1    -115.611  -8.440  33.176  1.00  0.00     0.008 C 
ATOM     16  C   UNL     1    -113.500  -8.623  31.786  1.00  0.00     0.012 C 
ATOM     17  C   UNL     1    -113.325  -8.891  35.122  1.00  0.00    -0.014 C 
ATOM     18  C   UNL     1    -115.503  -9.690  34.071  1.00  0.00     0.005 C 
ATOM     19  C   UNL     1    -114.786  -9.298  35.367  1.00  0.00     0.004 C 
ATOM     20  C   UNL     1    -112.845  -8.655  36.585  1.00  0.00     0.088 C 
ATOM     21  C   UNL     1    -112.415 -10.040  34.556  1.00  0.00     0.013 C 
ATOM     22  C   UNL     1    -114.827 -10.229  36.606  1.00  0.00    -0.005 C 
ATOM     23  C   UNL     1    -113.529  -9.806  37.397  1.00  0.00     0.131 C 
ATOM     24  C   UNL     1    -114.801 -11.726  36.209  1.00  0.00     0.014 C 
ATOM     25  C   UNL     1    -116.125  -9.978  37.426  1.00  0.00     0.014 C 
ENDROOT
BRANCH   1  26
ATOM     26  C   UNL     1    -113.898  -2.323  33.447  1.00  0.00     0.048 C 
ATOM     27  O   UNL     1    -112.674  -2.254  33.763  1.00  0.00    -0.550 OA
ATOM     28  O   UNL     1    -114.814  -1.586  34.193  1.00  0.00    -0.550 OA
ENDBRANCH   1  26
BRANCH   7  29
ATOM     29  C   UNL     1    -111.591  -3.820  29.619  1.00  0.00    -0.077 C 
ATOM     30  C   UNL     1    -110.857  -5.122  29.867  1.00  0.00     0.039 C 
ATOM     31  C   UNL     1    -110.999  -2.867  28.875  1.00  0.00     0.008 C 
ENDBRANCH   7  29
BRANCH  20  32
ATOM     32  C   UNL     1    -113.120  -7.254  37.119  1.00  0.00     0.230 C 
ATOM     33  O   UNL     1    -114.161  -6.975  37.691  1.00  0.00    -0.303 OA
ENDBRANCH  20  32
BRANCH  23  34
ATOM     34  O   UNL     1    -113.796  -9.431  38.732  1.00  0.00    -0.392 OA
ATOM     35  H   UNL     1    -114.536  -8.768  38.709  1.00  0.00     0.211 HD
ENDBRANCH  23  34
TORSDOF 4
ENDMDL
MODEL 6
REMARK VINA RESULT:    -4.308      1.625      2.083
REMARK INTER + INTRA:          -6.208
REMARK INTER:                  -5.437
REMARK INTRA:                  -0.771
REMARK UNBOUND:                -1.019
REMARK SMILES C=C(C)[C@@H]1CC[C@@]2(C(=O)[O-])CC[C@@]3(C)[C@H](CC[C@@H]4[C@@]5(C)[C@@H](C=O)[C@@H](O)C(C)(C)[C@@H]5CC[C@]43C)[C@@H]12
REMARK SMILES IDX 7 1 6 2 34 3 11 4 5 5 15 6 4 7 12 8 16 9 13 10 17 11 32 12
REMARK SMILES IDX 14 13 18 14 31 15 33 16 19 17 30 18 29 19 21 20 20 21 26 22
REMARK SMILES IDX 24 23 27 24 28 25 8 26 9 27 10 28 2 29 3 30 1 31 22 32 23 33
REMARK SMILES IDX 25 34
REMARK H PARENT 25 35
REMARK Flexibility Score: inf
ROOT
ATOM      1  C   UNL     1    -115.300 -10.925  35.858  1.00  0.00     0.014 C 
ATOM      2  C   UNL     1    -115.691 -11.918  37.002  1.00  0.00     0.014 C 
ATOM      3  C   UNL     1    -113.747 -10.772  35.983  1.00  0.00     0.012 C 
ATOM      4  C   UNL     1    -116.125  -9.613  36.018  1.00  0.00     0.014 C 
ATOM      5  C   UNL     1    -114.392 -12.501  37.550  1.00  0.00     0.009 C 
ATOM      6  C   UNL     1    -113.103  -9.375  35.679  1.00  0.00     0.000 C 
ATOM      7  C   UNL     1    -113.356 -11.393  37.340  1.00  0.00     0.018 C 
ATOM      8  C   UNL     1    -115.429  -8.358  35.481  1.00  0.00     0.008 C 
ATOM      9  C   UNL     1    -112.660  -9.369  34.183  1.00  0.00     0.005 C 
ATOM     10  C   UNL     1    -113.990  -8.109  36.068  1.00  0.00    -0.024 C 
ATOM     11  C   UNL     1    -112.006  -8.069  33.746  1.00  0.00     0.005 C 
ATOM     12  C   UNL     1    -113.314  -6.727  35.506  1.00  0.00    -0.024 C 
ATOM     13  C   UNL     1    -114.114  -7.994  37.619  1.00  0.00     0.012 C 
ATOM     14  C   UNL     1    -112.983  -6.908  33.963  1.00  0.00     0.002 C 
ATOM     15  C   UNL     1    -114.261  -5.467  35.701  1.00  0.00     0.008 C 
ATOM     16  C   UNL     1    -112.002  -6.433  36.322  1.00  0.00     0.012 C 
ATOM     17  C   UNL     1    -112.636  -5.595  33.139  1.00  0.00    -0.014 C 
ATOM     18  C   UNL     1    -113.854  -4.215  34.900  1.00  0.00     0.005 C 
ATOM     19  C   UNL     1    -113.767  -4.594  33.418  1.00  0.00     0.004 C 
ATOM     20  C   UNL     1    -112.727  -5.705  31.588  1.00  0.00     0.088 C 
ATOM     21  C   UNL     1    -111.194  -5.049  33.443  1.00  0.00     0.013 C 
ATOM     22  C   UNL     1    -113.722  -3.497  32.322  1.00  0.00    -0.005 C 
ATOM     23  C   UNL     1    -113.018  -4.239  31.122  1.00  0.00     0.131 C 
ATOM     24  C   UNL     1    -112.925  -2.250  32.781  1.00  0.00     0.014 C 
ATOM     25  C   UNL     1    -115.163  -3.033  31.964  1.00  0.00     0.014 C 
ENDROOT
BRANCH   1  26
ATOM     26  C   UNL     1    -115.599 -11.565  34.497  1.00  0.00     0.048 C 
ATOM     27  O   UNL     1    -116.106 -12.722  34.418  1.00  0.00    -0.550 OA
ATOM     28  O   UNL     1    -115.408 -10.847  33.319  1.00  0.00    -0.550 OA
ENDBRANCH   1  26
BRANCH   7  29
ATOM     29  C   UNL     1    -111.928 -11.926  37.431  1.00  0.00    -0.077 C 
ATOM     30  C   UNL     1    -111.275 -12.014  38.796  1.00  0.00     0.039 C 
ATOM     31  C   UNL     1    -111.244 -12.347  36.351  1.00  0.00     0.008 C 
ENDBRANCH   7  29
BRANCH  20  32
ATOM     32  C   UNL     1    -113.730  -6.738  31.089  1.00  0.00     0.230 C 
ATOM     33  O   UNL     1    -113.685  -7.184  29.954  1.00  0.00    -0.303 OA
ENDBRANCH  20  32
BRANCH  23  34
ATOM     34  O   UNL     1    -113.773  -4.199  29.929  1.00  0.00    -0.392 OA
ATOM     35  H   UNL     1    -114.705  -4.453  30.163  1.00  0.00     0.211 HD
ENDBRANCH  23  34
TORSDOF 4
ENDMDL
MODEL 7
REMARK VINA RESULT:    -4.200      2.184      7.802
REMARK INTER + INTRA:          -6.079
REMARK INTER:                  -5.228
REMARK INTRA:                  -0.851
REMARK UNBOUND:                -1.019
REMARK SMILES C=C(C)[C@@H]1CC[C@@]2(C(=O)[O-])CC[C@@]3(C)[C@H](CC[C@@H]4[C@@]5(C)[C@@H](C=O)[C@@H](O)C(C)(C)[C@@H]5CC[C@]43C)[C@@H]12
REMARK SMILES IDX 7 1 6 2 34 3 11 4 5 5 15 6 4 7 12 8 16 9 13 10 17 11 32 12
REMARK SMILES IDX 14 13 18 14 31 15 33 16 19 17 30 18 29 19 21 20 20 21 26 22
REMARK SMILES IDX 24 23 27 24 28 25 8 26 9 27 10 28 2 29 3 30 1 31 22 32 23 33
REMARK SMILES IDX 25 34
REMARK H PARENT 25 35
REMARK Flexibility Score: inf
ROOT
ATOM      1  C   UNL     1    -113.168  -3.948  34.145  1.00  0.00     0.014 C 
ATOM      2  C   UNL     1    -113.573  -2.440  34.241  1.00  0.00     0.014 C 
ATOM      3  C   UNL     1    -113.162  -4.258  32.611  1.00  0.00     0.012 C 
ATOM      4  C   UNL     1    -114.153  -4.796  35.004  1.00  0.00     0.014 C 
ATOM      5  C   UNL     1    -113.520  -1.874  32.825  1.00  0.00     0.009 C 
ATOM      6  C   UNL     1    -113.636  -5.674  32.129  1.00  0.00     0.000 C 
ATOM      7  C   UNL     1    -113.855  -3.064  31.923  1.00  0.00     0.018 C 
ATOM      8  C   UNL     1    -114.350  -6.232  34.508  1.00  0.00     0.008 C 
ATOM      9  C   UNL     1    -112.374  -6.578  31.989  1.00  0.00     0.005 C 
ATOM     10  C   UNL     1    -114.788  -6.346  33.001  1.00  0.00    -0.024 C 
ATOM     11  C   UNL     1    -112.683  -7.989  31.518  1.00  0.00     0.005 C 
ATOM     12  C   UNL     1    -115.041  -7.897  32.537  1.00  0.00    -0.024 C 
ATOM     13  C   UNL     1    -116.125  -5.562  32.825  1.00  0.00     0.012 C 
ATOM     14  C   UNL     1    -113.647  -8.657  32.505  1.00  0.00     0.002 C 
ATOM     15  C   UNL     1    -116.040  -8.663  33.505  1.00  0.00     0.008 C 
ATOM     16  C   UNL     1    -115.707  -7.901  31.112  1.00  0.00     0.012 C 
ATOM     17  C   UNL     1    -113.689 -10.242  32.409  1.00  0.00    -0.014 C 
ATOM     18  C   UNL     1    -116.059 -10.195  33.343  1.00  0.00     0.005 C 
ATOM     19  C   UNL     1    -114.631 -10.720  33.525  1.00  0.00     0.004 C 
ATOM     20  C   UNL     1    -112.383 -10.995  32.796  1.00  0.00     0.088 C 
ATOM     21  C   UNL     1    -114.068 -10.756  30.974  1.00  0.00     0.013 C 
ATOM     22  C   UNL     1    -114.368 -12.229  33.766  1.00  0.00    -0.005 C 
ATOM     23  C   UNL     1    -112.882 -12.403  33.265  1.00  0.00     0.131 C 
ATOM     24  C   UNL     1    -115.355 -13.125  32.975  1.00  0.00     0.014 C 
ATOM     25  C   UNL     1    -114.525 -12.570  35.275  1.00  0.00     0.014 C 
ENDROOT
BRANCH   1  26
ATOM     26  C   UNL     1    -111.736  -4.130  34.665  1.00  0.00     0.048 C 
ATOM     27  O   UNL     1    -110.810  -3.343  34.312  1.00  0.00    -0.550 OA
ATOM     28  O   UNL     1    -111.444  -5.108  35.612  1.00  0.00    -0.550 OA
ENDBRANCH   1  26
BRANCH   7  29
ATOM     29  C   UNL     1    -113.444  -2.813  30.474  1.00  0.00    -0.077 C 
ATOM     30  C   UNL     1    -112.062  -3.246  30.030  1.00  0.00     0.039 C 
ATOM     31  C   UNL     1    -114.273  -2.249  29.575  1.00  0.00     0.008 C 
ENDBRANCH   7  29
BRANCH  20  32
ATOM     32  C   UNL     1    -111.512 -10.263  33.811  1.00  0.00     0.230 C 
ATOM     33  O   UNL     1    -111.725 -10.331  35.011  1.00  0.00    -0.303 OA
ENDBRANCH  20  32
BRANCH  23  34
ATOM     34  O   UNL     1    -112.035 -12.972  34.241  1.00  0.00    -0.392 OA
ATOM     35  H   UNL     1    -111.608 -12.222  34.733  1.00  0.00     0.211 HD
ENDBRANCH  23  34
TORSDOF 4
ENDMDL
MODEL 8
REMARK VINA RESULT:    -3.784      2.218      4.002
REMARK INTER + INTRA:          -5.577
REMARK INTER:                  -4.794
REMARK INTRA:                  -0.784
REMARK UNBOUND:                -1.019
REMARK SMILES C=C(C)[C@@H]1CC[C@@]2(C(=O)[O-])CC[C@@]3(C)[C@H](CC[C@@H]4[C@@]5(C)[C@@H](C=O)[C@@H](O)C(C)(C)[C@@H]5CC[C@]43C)[C@@H]12
REMARK SMILES IDX 7 1 6 2 34 3 11 4 5 5 15 6 4 7 12 8 16 9 13 10 17 11 32 12
REMARK SMILES IDX 14 13 18 14 31 15 33 16 19 17 30 18 29 19 21 20 20 21 26 22
REMARK SMILES IDX 24 23 27 24 28 25 8 26 9 27 10 28 2 29 3 30 1 31 22 32 23 33
REMARK SMILES IDX 25 34
REMARK H PARENT 25 35
REMARK Flexibility Score: inf
ROOT
ATOM      1  C   UNL     1    -112.329 -10.734  34.922  1.00  0.00     0.014 C 
ATOM      2  C   UNL     1    -111.801 -12.206  34.857  1.00  0.00     0.014 C 
ATOM      3  C   UNL     1    -113.774 -10.807  34.323  1.00  0.00     0.012 C 
ATOM      4  C   UNL     1    -111.331  -9.801  34.173  1.00  0.00     0.014 C 
ATOM      5  C   UNL     1    -112.992 -13.091  34.502  1.00  0.00     0.009 C 
ATOM      6  C   UNL     1    -114.290  -9.603  33.460  1.00  0.00     0.000 C 
ATOM      7  C   UNL     1    -113.900 -12.193  33.657  1.00  0.00     0.018 C 
ATOM      8  C   UNL     1    -111.972  -8.554  33.555  1.00  0.00     0.008 C 
ATOM      9  C   UNL     1    -115.078  -8.643  34.403  1.00  0.00     0.005 C 
ATOM     10  C   UNL     1    -113.183  -8.852  32.594  1.00  0.00    -0.024 C 
ATOM     11  C   UNL     1    -115.649  -7.426  33.696  1.00  0.00     0.005 C 
ATOM     12  C   UNL     1    -113.795  -7.492  31.916  1.00  0.00    -0.024 C 
ATOM     13  C   UNL     1    -112.674  -9.780  31.448  1.00  0.00     0.012 C 
ATOM     14  C   UNL     1    -114.509  -6.633  33.044  1.00  0.00     0.002 C 
ATOM     15  C   UNL     1    -112.677  -6.613  31.208  1.00  0.00     0.008 C 
ATOM     16  C   UNL     1    -114.822  -7.899  30.796  1.00  0.00     0.012 C 
ATOM     17  C   UNL     1    -114.878  -5.130  32.685  1.00  0.00    -0.014 C 
ATOM     18  C   UNL     1    -113.105  -5.176  30.856  1.00  0.00     0.005 C 
ATOM     19  C   UNL     1    -113.595  -4.488  32.134  1.00  0.00     0.004 C 
ATOM     20  C   UNL     1    -115.179  -4.184  33.884  1.00  0.00     0.088 C 
ATOM     21  C   UNL     1    -116.122  -5.019  31.732  1.00  0.00     0.013 C 
ATOM     22  C   UNL     1    -113.765  -2.947  32.189  1.00  0.00    -0.005 C 
ATOM     23  C   UNL     1    -114.827  -2.759  33.339  1.00  0.00     0.131 C 
ATOM     24  C   UNL     1    -114.263  -2.369  30.840  1.00  0.00     0.014 C 
ATOM     25  C   UNL     1    -112.407  -2.267  32.523  1.00  0.00     0.014 C 
ENDROOT
BRANCH   1  26
ATOM     26  C   UNL     1    -112.452 -10.295  36.387  1.00  0.00     0.048 C 
ATOM     27  O   UNL     1    -112.319 -11.129  37.330  1.00  0.00    -0.550 OA
ATOM     28  O   UNL     1    -112.618  -8.952  36.713  1.00  0.00    -0.550 OA
ENDBRANCH   1  26
BRANCH   7  29
ATOM     29  C   UNL     1    -115.319 -12.749  33.561  1.00  0.00    -0.077 C 
ATOM     30  C   UNL     1    -115.860 -13.115  32.194  1.00  0.00     0.039 C 
ATOM     31  C   UNL     1    -116.090 -12.952  34.646  1.00  0.00     0.008 C 
ENDBRANCH   7  29
BRANCH  20  32
ATOM     32  C   UNL     1    -114.465  -4.561  35.177  1.00  0.00     0.230 C 
ATOM     33  O   UNL     1    -113.412  -4.040  35.507  1.00  0.00    -0.303 OA
ENDBRANCH  20  32
BRANCH  23  34
ATOM     34  O   UNL     1    -114.384  -1.891  34.362  1.00  0.00    -0.392 OA
ATOM     35  H   UNL     1    -113.442  -1.651  34.155  1.00  0.00     0.211 HD
ENDBRANCH  23  34
TORSDOF 4
ENDMDL
MODEL 9
REMARK VINA RESULT:    -3.724      2.448      4.125
REMARK INTER + INTRA:          -5.505
REMARK INTER:                  -4.633
REMARK INTRA:                  -0.872
REMARK UNBOUND:                -1.019
REMARK SMILES C=C(C)[C@@H]1CC[C@@]2(C(=O)[O-])CC[C@@]3(C)[C@H](CC[C@@H]4[C@@]5(C)[C@@H](C=O)[C@@H](O)C(C)(C)[C@@H]5CC[C@]43C)[C@@H]12
REMARK SMILES IDX 7 1 6 2 34 3 11 4 5 5 15 6 4 7 12 8 16 9 13 10 17 11 32 12
REMARK SMILES IDX 14 13 18 14 31 15 33 16 19 17 30 18 29 19 21 20 20 21 26 22
REMARK SMILES IDX 24 23 27 24 28 25 8 26 9 27 10 28 2 29 3 30 1 31 22 32 23 33
REMARK SMILES IDX 25 34
REMARK H PARENT 25 35
REMARK Flexibility Score: inf
ROOT
ATOM      1  C   UNL     1    -112.894  -9.279  36.270  1.00  0.00     0.014 C 
ATOM      2  C   UNL     1    -112.284 -10.625  36.788  1.00  0.00     0.014 C 
ATOM      3  C   UNL     1    -114.130  -9.711  35.413  1.00  0.00     0.012 C 
ATOM      4  C   UNL     1    -111.792  -8.478  35.514  1.00  0.00     0.014 C 
ATOM      5  C   UNL     1    -113.293 -11.723  36.466  1.00  0.00     0.009 C 
ATOM      6  C   UNL     1    -114.476  -8.885  34.125  1.00  0.00     0.000 C 
ATOM      7  C   UNL     1    -114.004 -11.234  35.201  1.00  0.00     0.018 C 
ATOM      8  C   UNL     1    -112.323  -7.558  34.411  1.00  0.00     0.008 C 
ATOM      9  C   UNL     1    -115.532  -7.806  34.519  1.00  0.00     0.005 C 
ATOM     10  C   UNL     1    -113.229  -8.276  33.343  1.00  0.00    -0.024 C 
ATOM     11  C   UNL     1    -115.971  -6.930  33.358  1.00  0.00     0.005 C 
ATOM     12  C   UNL     1    -113.723  -7.261  32.156  1.00  0.00    -0.024 C 
ATOM     13  C   UNL     1    -112.392  -9.418  32.689  1.00  0.00     0.012 C 
ATOM     14  C   UNL     1    -114.749  -6.216  32.768  1.00  0.00     0.002 C 
ATOM     15  C   UNL     1    -112.513  -6.484  31.482  1.00  0.00     0.008 C 
ATOM     16  C   UNL     1    -114.405  -8.104  31.016  1.00  0.00     0.012 C 
ATOM     17  C   UNL     1    -115.097  -4.941  31.885  1.00  0.00    -0.014 C 
ATOM     18  C   UNL     1    -112.917  -5.277  30.612  1.00  0.00     0.005 C 
ATOM     19  C   UNL     1    -113.755  -4.321  31.467  1.00  0.00     0.004 C 
ATOM     20  C   UNL     1    -115.748  -3.739  32.630  1.00  0.00     0.088 C 
ATOM     21  C   UNL     1    -116.061  -5.273  30.690  1.00  0.00     0.013 C 
ATOM     22  C   UNL     1    -114.020  -2.867  31.000  1.00  0.00    -0.005 C 
ATOM     23  C   UNL     1    -115.350  -2.497  31.763  1.00  0.00     0.131 C 
ATOM     24  C   UNL     1    -114.189  -2.772  29.463  1.00  0.00     0.014 C 
ATOM     25  C   UNL     1    -112.833  -1.946  31.404  1.00  0.00     0.014 C 
ENDROOT
BRANCH   1  26
ATOM     26  C   UNL     1    -113.411  -8.458  37.458  1.00  0.00     0.048 C 
ATOM     27  O   UNL     1    -113.762  -9.021  38.536  1.00  0.00    -0.550 OA
ATOM     28  O   UNL     1    -113.416  -7.067  37.409  1.00  0.00    -0.550 OA
ENDBRANCH   1  26
BRANCH   7  29
ATOM     29  C   UNL     1    -115.318 -11.975  34.965  1.00  0.00    -0.077 C 
ATOM     30  C   UNL     1    -115.706 -12.320  33.542  1.00  0.00     0.039 C 
ATOM     31  C   UNL     1    -116.123 -12.357  35.974  1.00  0.00     0.008 C 
ENDBRANCH   7  29
BRANCH  20  32
ATOM     32  C   UNL     1    -115.368  -3.630  34.102  1.00  0.00     0.230 C 
ATOM     33  O   UNL     1    -114.362  -3.044  34.467  1.00  0.00    -0.303 OA
ENDBRANCH  20  32
BRANCH  23  34
ATOM     34  O   UNL     1    -115.232  -1.322  32.537  1.00  0.00    -0.392 OA
ATOM     35  H   UNL     1    -115.698  -1.490  33.399  1.00  0.00     0.211 HD
ENDBRANCH  23  34
TORSDOF 4
ENDMDL
