MODEL 1
REMARK VINA RESULT:    -5.161      0.000      0.000
REMARK INTER + INTRA:          -6.563
REMARK INTER:                  -6.368
REMARK INTRA:                  -0.195
REMARK UNBOUND:                -0.195
REMARK SMILES C=CC[C@@H](C)C(=O)CC
REMARK SMILES IDX 4 1 5 2 6 3 7 4 8 5 9 6 3 7 2 8 1 9
REMARK H PARENT
REMARK Flexibility Score: inf
ROOT
ATOM      1  C   UNL     1     -12.218 -15.223  28.836  1.00  0.00     0.057 C 
ATOM      2  C   UNL     1     -12.621 -15.603  30.265  1.00  0.00     0.016 C 
ENDROOT
BRANCH   1   3
ATOM      3  C   UNL     1     -12.049 -16.473  27.995  1.00  0.00     0.135 C 
ATOM      4  O   UNL     1     -11.753 -17.530  28.534  1.00  0.00    -0.299 OA
BRANCH   3   5
ATOM      5  C   UNL     1     -12.257 -16.441  26.504  1.00  0.00     0.072 C 
ATOM      6  C   UNL     1     -10.986 -16.858  25.773  1.00  0.00     0.012 C 
ENDBRANCH   3   5
ENDBRANCH   1   3
BRANCH   1   7
ATOM      7  C   UNL     1     -13.257 -14.268  28.215  1.00  0.00     0.038 C 
BRANCH   7   8
ATOM      8  C   UNL     1     -14.019 -13.499  29.263  1.00  0.00    -0.034 C 
ATOM      9  C   UNL     1     -14.614 -12.335  28.988  1.00  0.00     0.004 C 
ENDBRANCH   7   8
ENDBRANCH   1   7
TORSDOF 4
ENDMDL
MODEL 2
REMARK VINA RESULT:    -4.968      0.867      1.041
REMARK INTER + INTRA:          -6.325
REMARK INTER:                  -6.135
REMARK INTRA:                  -0.191
REMARK UNBOUND:                -0.195
REMARK SMILES C=CC[C@@H](C)C(=O)CC
REMARK SMILES IDX 4 1 5 2 6 3 7 4 8 5 9 6 3 7 2 8 1 9
REMARK H PARENT
REMARK Flexibility Score: inf
ROOT
ATOM      1  C   UNL     1     -11.551 -15.380  28.586  1.00  0.00     0.057 C 
ATOM      2  C   UNL     1     -10.418 -15.594  29.596  1.00  0.00     0.016 C 
ENDROOT
BRANCH   1   3
ATOM      3  C   UNL     1     -11.795 -16.656  27.804  1.00  0.00     0.135 C 
ATOM      4  O   UNL     1     -11.959 -17.710  28.402  1.00  0.00    -0.299 OA
BRANCH   3   5
ATOM      5  C   UNL     1     -11.859 -16.646  26.300  1.00  0.00     0.072 C 
ATOM      6  C   UNL     1     -10.603 -17.272  25.703  1.00  0.00     0.012 C 
ENDBRANCH   3   5
ENDBRANCH   1   3
BRANCH   1   7
ATOM      7  C   UNL     1     -12.833 -14.909  29.300  1.00  0.00     0.038 C 
BRANCH   7   8
ATOM      8  C   UNL     1     -13.575 -13.865  28.506  1.00  0.00    -0.034 C 
ATOM      9  C   UNL     1     -14.340 -12.943  29.096  1.00  0.00     0.004 C 
ENDBRANCH   7   8
ENDBRANCH   1   7
TORSDOF 4
ENDMDL
MODEL 3
REMARK VINA RESULT:    -4.680      1.627      4.059
REMARK INTER + INTRA:          -5.970
REMARK INTER:                  -5.779
REMARK INTRA:                  -0.191
REMARK UNBOUND:                -0.195
REMARK SMILES C=CC[C@@H](C)C(=O)CC
REMARK SMILES IDX 4 1 5 2 6 3 7 4 8 5 9 6 3 7 2 8 1 9
REMARK H PARENT
REMARK Flexibility Score: inf
ROOT
ATOM      1  C   UNL     1     -12.244 -15.941  29.440  1.00  0.00     0.057 C 
ATOM      2  C   UNL     1     -11.351 -16.073  30.678  1.00  0.00     0.016 C 
ENDROOT
BRANCH   1   3
ATOM      3  C   UNL     1     -13.221 -14.797  29.626  1.00  0.00     0.135 C 
ATOM      4  O   UNL     1     -13.765 -14.635  30.709  1.00  0.00    -0.299 OA
BRANCH   3   5
ATOM      5  C   UNL     1     -13.523 -13.841  28.503  1.00  0.00     0.072 C 
ATOM      6  C   UNL     1     -14.365 -12.672  29.000  1.00  0.00     0.012 C 
ENDBRANCH   3   5
ENDBRANCH   1   3
BRANCH   1   7
ATOM      7  C   UNL     1     -11.388 -15.743  28.173  1.00  0.00     0.038 C 
BRANCH   7   8
ATOM      8  C   UNL     1     -11.713 -16.756  27.105  1.00  0.00    -0.034 C 
ATOM      9  C   UNL     1     -10.927 -16.932  26.039  1.00  0.00     0.004 C 
ENDBRANCH   7   8
ENDBRANCH   1   7
TORSDOF 4
ENDMDL
MODEL 4
REMARK VINA RESULT:    -4.589      2.265      4.166
REMARK INTER + INTRA:          -5.858
REMARK INTER:                  -5.510
REMARK INTRA:                  -0.349
REMARK UNBOUND:                -0.195
REMARK SMILES C=CC[C@@H](C)C(=O)CC
REMARK SMILES IDX 4 1 5 2 6 3 7 4 8 5 9 6 3 7 2 8 1 9
REMARK H PARENT
REMARK Flexibility Score: inf
ROOT
ATOM      1  C   UNL     1     -12.530 -16.568  30.362  1.00  0.00     0.057 C 
ATOM      2  C   UNL     1     -12.065 -17.985  30.011  1.00  0.00     0.016 C 
ENDROOT
BRANCH   1   3
ATOM      3  C   UNL     1     -12.433 -16.347  31.859  1.00  0.00     0.135 C 
ATOM      4  O   UNL     1     -11.334 -16.253  32.388  1.00  0.00    -0.299 OA
BRANCH   3   5
ATOM      5  C   UNL     1     -13.669 -16.223  32.709  1.00  0.00     0.072 C 
ATOM      6  C   UNL     1     -14.445 -14.959  32.353  1.00  0.00     0.012 C 
ENDBRANCH   3   5
ENDBRANCH   1   3
BRANCH   1   7
ATOM      7  C   UNL     1     -11.705 -15.519  29.590  1.00  0.00     0.038 C 
BRANCH   7   8
ATOM      8  C   UNL     1     -12.498 -14.879  28.479  1.00  0.00    -0.034 C 
ATOM      9  C   UNL     1     -13.405 -13.928  28.719  1.00  0.00     0.004 C 
ENDBRANCH   7   8
ENDBRANCH   1   7
TORSDOF 4
ENDMDL
MODEL 5
REMARK VINA RESULT:    -4.582      1.489      4.356
REMARK INTER + INTRA:          -5.849
REMARK INTER:                  -5.664
REMARK INTRA:                  -0.185
REMARK UNBOUND:                -0.195
REMARK SMILES C=CC[C@@H](C)C(=O)CC
REMARK SMILES IDX 4 1 5 2 6 3 7 4 8 5 9 6 3 7 2 8 1 9
REMARK H PARENT
REMARK Flexibility Score: inf
ROOT
ATOM      1  C   UNL     1     -12.234 -14.969  29.153  1.00  0.00     0.057 C 
ATOM      2  C   UNL     1     -13.232 -14.275  28.219  1.00  0.00     0.016 C 
ENDROOT
BRANCH   1   3
ATOM      3  C   UNL     1     -12.947 -15.465  30.396  1.00  0.00     0.135 C 
ATOM      4  O   UNL     1     -12.651 -16.553  30.870  1.00  0.00    -0.299 OA
BRANCH   3   5
ATOM      5  C   UNL     1     -14.003 -14.632  31.072  1.00  0.00     0.072 C 
ATOM      6  C   UNL     1     -14.159 -15.039  32.533  1.00  0.00     0.012 C 
ENDBRANCH   3   5
ENDBRANCH   1   3
BRANCH   1   7
ATOM      7  C   UNL     1     -11.519 -16.123  28.422  1.00  0.00     0.038 C 
BRANCH   7   8
ATOM      8  C   UNL     1     -12.056 -16.332  27.030  1.00  0.00    -0.034 C 
ATOM      9  C   UNL     1     -11.296 -16.831  26.050  1.00  0.00     0.004 C 
ENDBRANCH   7   8
ENDBRANCH   1   7
TORSDOF 4
ENDMDL
MODEL 6
REMARK VINA RESULT:    -4.582      1.835      3.405
REMARK INTER + INTRA:          -5.848
REMARK INTER:                  -5.472
REMARK INTRA:                  -0.376
REMARK UNBOUND:                -0.195
REMARK SMILES C=CC[C@@H](C)C(=O)CC
REMARK SMILES IDX 4 1 5 2 6 3 7 4 8 5 9 6 3 7 2 8 1 9
REMARK H PARENT
REMARK Flexibility Score: inf
ROOT
ATOM      1  C   UNL     1     -12.001 -15.968  31.012  1.00  0.00     0.057 C 
ATOM      2  C   UNL     1     -10.517 -16.121  31.358  1.00  0.00     0.016 C 
ENDROOT
BRANCH   1   3
ATOM      3  C   UNL     1     -12.212 -16.181  29.526  1.00  0.00     0.135 C 
ATOM      4  O   UNL     1     -12.393 -17.312  29.096  1.00  0.00    -0.299 OA
BRANCH   3   5
ATOM      5  C   UNL     1     -12.221 -15.021  28.566  1.00  0.00     0.072 C 
ATOM      6  C   UNL     1     -13.384 -14.082  28.865  1.00  0.00     0.012 C 
ENDBRANCH   3   5
ENDBRANCH   1   3
BRANCH   1   7
ATOM      7  C   UNL     1     -12.856 -16.946  31.842  1.00  0.00     0.038 C 
BRANCH   7   8
ATOM      8  C   UNL     1     -13.758 -16.228  32.813  1.00  0.00    -0.034 C 
ATOM      9  C   UNL     1     -14.465 -15.153  32.454  1.00  0.00     0.004 C 
ENDBRANCH   7   8
ENDBRANCH   1   7
TORSDOF 4
ENDMDL
MODEL 7
REMARK VINA RESULT:    -4.538      1.724      2.797
REMARK INTER + INTRA:          -5.795
REMARK INTER:                  -5.640
REMARK INTRA:                  -0.155
REMARK UNBOUND:                -0.195
REMARK SMILES C=CC[C@@H](C)C(=O)CC
REMARK SMILES IDX 4 1 5 2 6 3 7 4 8 5 9 6 3 7 2 8 1 9
REMARK H PARENT
REMARK Flexibility Score: inf
ROOT
ATOM      1  C   UNL     1     -11.864 -15.955  28.836  1.00  0.00     0.057 C 
ATOM      2  C   UNL     1     -10.421 -15.459  28.975  1.00  0.00     0.016 C 
ENDROOT
BRANCH   1   3
ATOM      3  C   UNL     1     -11.983 -17.364  29.382  1.00  0.00     0.135 C 
ATOM      4  O   UNL     1     -11.897 -18.318  28.621  1.00  0.00    -0.299 OA
BRANCH   3   5
ATOM      5  C   UNL     1     -12.186 -17.614  30.853  1.00  0.00     0.072 C 
ATOM      6  C   UNL     1     -12.184 -19.109  31.152  1.00  0.00     0.012 C 
ENDBRANCH   3   5
ENDBRANCH   1   3
BRANCH   1   7
ATOM      7  C   UNL     1     -12.839 -14.997  29.549  1.00  0.00     0.038 C 
BRANCH   7   8
ATOM      8  C   UNL     1     -13.365 -13.930  28.624  1.00  0.00    -0.034 C 
ATOM      9  C   UNL     1     -14.309 -13.067  29.009  1.00  0.00     0.004 C 
ENDBRANCH   7   8
ENDBRANCH   1   7
TORSDOF 4
ENDMDL
MODEL 8
REMARK VINA RESULT:    -4.523      1.522      4.199
REMARK INTER + INTRA:          -5.776
REMARK INTER:                  -5.530
REMARK INTRA:                  -0.245
REMARK UNBOUND:                -0.195
REMARK SMILES C=CC[C@@H](C)C(=O)CC
REMARK SMILES IDX 4 1 5 2 6 3 7 4 8 5 9 6 3 7 2 8 1 9
REMARK H PARENT
REMARK Flexibility Score: inf
ROOT
ATOM      1  C   UNL     1     -11.818 -15.262  28.513  1.00  0.00     0.057 C 
ATOM      2  C   UNL     1     -12.979 -14.280  28.701  1.00  0.00     0.016 C 
ENDROOT
BRANCH   1   3
ATOM      3  C   UNL     1     -11.486 -15.931  29.833  1.00  0.00     0.135 C 
ATOM      4  O   UNL     1     -10.421 -15.689  30.383  1.00  0.00    -0.299 OA
BRANCH   3   5
ATOM      5  C   UNL     1     -12.454 -16.878  30.490  1.00  0.00     0.072 C 
ATOM      6  C   UNL     1     -12.471 -16.670  32.001  1.00  0.00     0.012 C 
ENDBRANCH   3   5
ENDBRANCH   1   3
BRANCH   1   7
ATOM      7  C   UNL     1     -12.160 -16.305  27.430  1.00  0.00     0.038 C 
BRANCH   7   8
ATOM      8  C   UNL     1     -10.952 -17.101  27.008  1.00  0.00    -0.034 C 
ATOM      9  C   UNL     1     -10.649 -17.292  25.721  1.00  0.00     0.004 C 
ENDBRANCH   7   8
ENDBRANCH   1   7
TORSDOF 4
ENDMDL
MODEL 9
REMARK VINA RESULT:    -4.517      1.849      2.610
REMARK INTER + INTRA:          -5.769
REMARK INTER:                  -5.509
REMARK INTRA:                  -0.260
REMARK UNBOUND:                -0.195
REMARK SMILES C=CC[C@@H](C)C(=O)CC
REMARK SMILES IDX 4 1 5 2 6 3 7 4 8 5 9 6 3 7 2 8 1 9
REMARK H PARENT
REMARK Flexibility Score: inf
ROOT
ATOM      1  C   UNL     1     -11.773 -15.092  28.619  1.00  0.00     0.057 C 
ATOM      2  C   UNL     1     -10.360 -15.409  29.120  1.00  0.00     0.016 C 
ENDROOT
BRANCH   1   3
ATOM      3  C   UNL     1     -12.132 -16.009  27.466  1.00  0.00     0.135 C 
ATOM      4  O   UNL     1     -13.050 -15.708  26.716  1.00  0.00    -0.299 OA
BRANCH   3   5
ATOM      5  C   UNL     1     -11.366 -17.280  27.215  1.00  0.00     0.072 C 
ATOM      6  C   UNL     1     -10.704 -17.250  25.842  1.00  0.00     0.012 C 
ENDBRANCH   3   5
ENDBRANCH   1   3
BRANCH   1   7
ATOM      7  C   UNL     1     -12.796 -15.212  29.767  1.00  0.00     0.038 C 
BRANCH   7   8
ATOM      8  C   UNL     1     -12.377 -16.230  30.795  1.00  0.00    -0.034 C 
ATOM      9  C   UNL     1     -12.958 -16.299  31.996  1.00  0.00     0.004 C 
ENDBRANCH   7   8
ENDBRANCH   1   7
TORSDOF 4
ENDMDL
