MODEL 1
REMARK VINA RESULT:    -5.815      0.000      0.000
REMARK INTER + INTRA:          -8.865
REMARK INTER:                  -7.855
REMARK INTRA:                  -1.010
REMARK UNBOUND:                -1.010
REMARK SMILES O=c1c(-c2ccc(O)cc2)coc2c([C@@H]3O[C@@H](CO)[C@@H](O)[C@H](O)[C@H]3O)c(O)ccc12
REMARK SMILES IDX 3 1 11 2 12 3 13 4 30 5 2 6 1 7 29 8 28 9 26 10 14 11 4 12
REMARK SMILES IDX 5 13 6 14 7 15 10 16 9 17 8 18 15 20 24 21 16 22 22 23 17 24
REMARK SMILES IDX 20 25 25 26 23 28 18 30 19 31 21 33 27 35
REMARK H PARENT 8 19 25 27 23 29 19 32 21 34 27 36
REMARK Flexibility Score: inf
ROOT
ATOM      1  C   UNL     1      42.903  18.294  -2.604  1.00  0.00     0.065 A 
ATOM      2  C   UNL     1      43.281  17.049  -2.082  1.00  0.00     0.208 A 
ATOM      3  O   UNL     1      44.227  16.323  -2.666  1.00  0.00    -0.463 OA
ATOM      4  C   UNL     1      44.869  16.712  -3.764  1.00  0.00     0.147 A 
ATOM      5  C   UNL     1      44.543  17.951  -4.365  1.00  0.00     0.066 A 
ATOM      6  C   UNL     1      43.543  18.744  -3.774  1.00  0.00     0.200 A 
ATOM      7  O   UNL     1      43.207  19.842  -4.299  1.00  0.00    -0.288 OA
ATOM      8  C   UNL     1      45.209  18.351  -5.533  1.00  0.00     0.020 A 
ATOM      9  C   UNL     1      46.180  17.533  -6.103  1.00  0.00     0.047 A 
ATOM     10  C   UNL     1      46.510  16.304  -5.519  1.00  0.00     0.125 A 
ATOM     11  C   UNL     1      45.870  15.886  -4.330  1.00  0.00     0.069 A 
ENDROOT
BRANCH   1  12
ATOM     12  C   UNL     1      41.849  19.091  -1.928  1.00  0.00    -0.011 A 
ATOM     13  C   UNL     1      40.488  18.809  -2.144  1.00  0.00     0.013 A 
ATOM     14  C   UNL     1      39.499  19.569  -1.511  1.00  0.00     0.047 A 
ATOM     15  C   UNL     1      39.857  20.621  -0.659  1.00  0.00     0.115 A 
ATOM     16  C   UNL     1      42.199  20.154  -1.076  1.00  0.00     0.013 A 
ATOM     17  C   UNL     1      41.208  20.910  -0.444  1.00  0.00     0.047 A 
BRANCH  15  18
ATOM     18  O   UNL     1      38.881  21.384  -0.022  1.00  0.00    -0.508 OA
ATOM     19  H   UNL     1      37.971  21.535  -0.441  1.00  0.00     0.293 HD
ENDBRANCH  15  18
ENDBRANCH   1  12
BRANCH  11  20
ATOM     20  C   UNL     1      46.208  14.541  -3.700  1.00  0.00     0.188 C 
ATOM     21  C   UNL     1      45.811  13.396  -4.657  1.00  0.00     0.179 C 
ATOM     22  O   UNL     1      47.596  14.511  -3.393  1.00  0.00    -0.362 OA
ATOM     23  C   UNL     1      46.188  12.044  -4.036  1.00  0.00     0.177 C 
ATOM     24  C   UNL     1      47.997  13.303  -2.760  1.00  0.00     0.176 C 
ATOM     25  C   UNL     1      47.666  12.058  -3.622  1.00  0.00     0.177 C 
BRANCH  21  26
ATOM     26  O   UNL     1      44.425  13.440  -4.888  1.00  0.00    -0.387 OA
ATOM     27  H   UNL     1      44.063  14.184  -4.339  1.00  0.00     0.211 HD
ENDBRANCH  21  26
BRANCH  23  28
ATOM     28  O   UNL     1      45.965  11.026  -4.977  1.00  0.00    -0.387 OA
ATOM     29  H   UNL     1      46.856  10.724  -5.294  1.00  0.00     0.211 HD
ENDBRANCH  23  28
BRANCH  24  30
ATOM     30  C   UNL     1      47.501  13.207  -1.298  1.00  0.00     0.191 C 
BRANCH  30  31
ATOM     31  O   UNL     1      48.225  12.232  -0.596  1.00  0.00    -0.394 OA
ATOM     32  H   UNL     1      48.295  11.444  -1.195  1.00  0.00     0.210 HD
ENDBRANCH  30  31
ENDBRANCH  24  30
BRANCH  25  33
ATOM     33  O   UNL     1      47.975  10.875  -2.932  1.00  0.00    -0.388 OA
ATOM     34  H   UNL     1      47.475  10.905  -2.075  1.00  0.00     0.211 HD
ENDBRANCH  25  33
ENDBRANCH  11  20
BRANCH  10  35
ATOM     35  O   UNL     1      47.474  15.495  -6.125  1.00  0.00    -0.507 OA
ATOM     36  H   UNL     1      47.227  14.634  -6.599  1.00  0.00     0.293 HD
ENDBRANCH  10  35
TORSDOF 9
ENDMDL
MODEL 2
REMARK VINA RESULT:    -5.541      1.944      8.346
REMARK INTER + INTRA:          -8.495
REMARK INTER:                  -7.583
REMARK INTRA:                  -0.912
REMARK UNBOUND:                -1.010
REMARK SMILES O=c1c(-c2ccc(O)cc2)coc2c([C@@H]3O[C@@H](CO)[C@@H](O)[C@H](O)[C@H]3O)c(O)ccc12
REMARK SMILES IDX 3 1 11 2 12 3 13 4 30 5 2 6 1 7 29 8 28 9 26 10 14 11 4 12
REMARK SMILES IDX 5 13 6 14 7 15 10 16 9 17 8 18 15 20 24 21 16 22 22 23 17 24
REMARK SMILES IDX 20 25 25 26 23 28 18 30 19 31 21 33 27 35
REMARK H PARENT 8 19 25 27 23 29 19 32 21 34 27 36
REMARK Flexibility Score: inf
ROOT
ATOM      1  C   UNL     1      46.120  15.978  -4.264  1.00  0.00     0.065 A 
ATOM      2  C   UNL     1      45.097  15.999  -3.304  1.00  0.00     0.208 A 
ATOM      3  O   UNL     1      44.198  16.976  -3.286  1.00  0.00    -0.463 OA
ATOM      4  C   UNL     1      44.201  17.984  -4.155  1.00  0.00     0.147 A 
ATOM      5  C   UNL     1      45.204  18.048  -5.151  1.00  0.00     0.066 A 
ATOM      6  C   UNL     1      46.174  17.031  -5.196  1.00  0.00     0.200 A 
ATOM      7  O   UNL     1      47.099  17.071  -6.054  1.00  0.00    -0.288 OA
ATOM      8  C   UNL     1      45.215  19.121  -6.055  1.00  0.00     0.020 A 
ATOM      9  C   UNL     1      44.251  20.121  -5.969  1.00  0.00     0.047 A 
ATOM     10  C   UNL     1      43.254  20.070  -4.986  1.00  0.00     0.125 A 
ATOM     11  C   UNL     1      43.207  18.989  -4.077  1.00  0.00     0.069 A 
ENDROOT
BRANCH   1  12
ATOM     12  C   UNL     1      47.108  14.870  -4.269  1.00  0.00    -0.011 A 
ATOM     13  C   UNL     1      48.302  14.972  -3.532  1.00  0.00     0.013 A 
ATOM     14  C   UNL     1      49.233  13.930  -3.547  1.00  0.00     0.047 A 
ATOM     15  C   UNL     1      48.985  12.775  -4.301  1.00  0.00     0.115 A 
ATOM     16  C   UNL     1      46.871  13.711  -5.028  1.00  0.00     0.013 A 
ATOM     17  C   UNL     1      47.803  12.670  -5.039  1.00  0.00     0.047 A 
BRANCH  15  18
ATOM     18  O   UNL     1      49.906  11.730  -4.322  1.00  0.00    -0.508 OA
ATOM     19  H   UNL     1      50.030  11.117  -3.525  1.00  0.00     0.293 HD
ENDBRANCH  15  18
ENDBRANCH   1  12
BRANCH  11  20
ATOM     20  C   UNL     1      42.139  18.937  -2.992  1.00  0.00     0.188 C 
ATOM     21  C   UNL     1      42.354  20.088  -1.986  1.00  0.00     0.179 C 
ATOM     22  O   UNL     1      40.857  19.005  -3.602  1.00  0.00    -0.362 OA
ATOM     23  C   UNL     1      41.254  20.055  -0.915  1.00  0.00     0.177 C 
ATOM     24  C   UNL     1      39.792  18.919  -2.664  1.00  0.00     0.176 C 
ATOM     25  C   UNL     1      39.875  20.034  -1.590  1.00  0.00     0.177 C 
BRANCH  21  26
ATOM     26  O   UNL     1      43.611  19.947  -1.375  1.00  0.00    -0.387 OA
ATOM     27  H   UNL     1      43.846  20.831  -0.987  1.00  0.00     0.211 HD
ENDBRANCH  21  26
BRANCH  23  28
ATOM     28  O   UNL     1      41.369  21.194  -0.101  1.00  0.00    -0.387 OA
ATOM     29  H   UNL     1      41.638  20.879   0.801  1.00  0.00     0.211 HD
ENDBRANCH  23  28
BRANCH  24  30
ATOM     30  C   UNL     1      39.625  17.495  -2.084  1.00  0.00     0.191 C 
BRANCH  30  31
ATOM     31  O   UNL     1      39.383  16.571  -3.110  1.00  0.00    -0.394 OA
ATOM     32  H   UNL     1      39.570  17.040  -3.964  1.00  0.00     0.210 HD
ENDBRANCH  30  31
ENDBRANCH  24  30
BRANCH  25  33
ATOM     33  O   UNL     1      38.876  19.866  -0.618  1.00  0.00    -0.388 OA
ATOM     34  H   UNL     1      38.139  19.360  -1.049  1.00  0.00     0.211 HD
ENDBRANCH  25  33
ENDBRANCH  11  20
BRANCH  10  35
ATOM     35  O   UNL     1      42.313  21.098  -4.912  1.00  0.00    -0.507 OA
ATOM     36  H   UNL     1      42.354  21.808  -4.191  1.00  0.00     0.293 HD
ENDBRANCH  10  35
TORSDOF 9
ENDMDL
MODEL 3
REMARK VINA RESULT:    -5.477      2.626      8.329
REMARK INTER + INTRA:          -8.409
REMARK INTER:                  -8.152
REMARK INTRA:                  -0.257
REMARK UNBOUND:                -1.010
REMARK SMILES O=c1c(-c2ccc(O)cc2)coc2c([C@@H]3O[C@@H](CO)[C@@H](O)[C@H](O)[C@H]3O)c(O)ccc12
REMARK SMILES IDX 3 1 11 2 12 3 13 4 30 5 2 6 1 7 29 8 28 9 26 10 14 11 4 12
REMARK SMILES IDX 5 13 6 14 7 15 10 16 9 17 8 18 15 20 24 21 16 22 22 23 17 24
REMARK SMILES IDX 20 25 25 26 23 28 18 30 19 31 21 33 27 35
REMARK H PARENT 8 19 25 27 23 29 19 32 21 34 27 36
REMARK Flexibility Score: inf
ROOT
ATOM      1  C   UNL     1      46.984  15.299  -4.416  1.00  0.00     0.065 A 
ATOM      2  C   UNL     1      46.342  16.486  -4.033  1.00  0.00     0.208 A 
ATOM      3  O   UNL     1      45.031  16.515  -3.823  1.00  0.00    -0.463 OA
ATOM      4  C   UNL     1      44.248  15.448  -3.959  1.00  0.00     0.147 A 
ATOM      5  C   UNL     1      44.811  14.212  -4.354  1.00  0.00     0.066 A 
ATOM      6  C   UNL     1      46.196  14.146  -4.587  1.00  0.00     0.200 A 
ATOM      7  O   UNL     1      46.727  13.065  -4.967  1.00  0.00    -0.288 OA
ATOM      8  C   UNL     1      43.981  13.092  -4.514  1.00  0.00     0.020 A 
ATOM      9  C   UNL     1      42.610  13.197  -4.293  1.00  0.00     0.047 A 
ATOM     10  C   UNL     1      42.041  14.416  -3.904  1.00  0.00     0.125 A 
ATOM     11  C   UNL     1      42.857  15.554  -3.715  1.00  0.00     0.069 A 
ENDROOT
BRANCH   1  12
ATOM     12  C   UNL     1      48.452  15.290  -4.636  1.00  0.00    -0.011 A 
ATOM     13  C   UNL     1      49.268  14.348  -3.984  1.00  0.00     0.013 A 
ATOM     14  C   UNL     1      50.651  14.349  -4.188  1.00  0.00     0.047 A 
ATOM     15  C   UNL     1      51.236  15.294  -5.041  1.00  0.00     0.115 A 
ATOM     16  C   UNL     1      49.049  16.238  -5.485  1.00  0.00     0.013 A 
ATOM     17  C   UNL     1      50.432  16.236  -5.688  1.00  0.00     0.047 A 
BRANCH  15  18
ATOM     18  O   UNL     1      52.613  15.303  -5.253  1.00  0.00    -0.508 OA
ATOM     19  H   UNL     1      53.009  15.148  -6.172  1.00  0.00     0.293 HD
ENDBRANCH  15  18
ENDBRANCH   1  12
BRANCH  11  20
ATOM     20  C   UNL     1      42.244  16.889  -3.313  1.00  0.00     0.188 C 
ATOM     21  C   UNL     1      42.292  17.050  -1.778  1.00  0.00     0.179 C 
ATOM     22  O   UNL     1      42.943  17.936  -3.972  1.00  0.00    -0.362 OA
ATOM     23  C   UNL     1      41.708  18.412  -1.379  1.00  0.00     0.177 C 
ATOM     24  C   UNL     1      42.410  19.223  -3.689  1.00  0.00     0.176 C 
ATOM     25  C   UNL     1      42.408  19.527  -2.168  1.00  0.00     0.177 C 
BRANCH  21  26
ATOM     26  O   UNL     1      41.546  16.022  -1.177  1.00  0.00    -0.387 OA
ATOM     27  H   UNL     1      41.096  15.523  -1.909  1.00  0.00     0.211 HD
ENDBRANCH  21  26
BRANCH  23  28
ATOM     28  O   UNL     1      41.899  18.610  -0.001  1.00  0.00    -0.387 OA
ATOM     29  H   UNL     1      42.850  18.404   0.192  1.00  0.00     0.211 HD
ENDBRANCH  23  28
BRANCH  24  30
ATOM     30  C   UNL     1      41.050  19.469  -4.383  1.00  0.00     0.191 C 
BRANCH  30  31
ATOM     31  O   UNL     1      40.954  20.797  -4.821  1.00  0.00    -0.394 OA
ATOM     32  H   UNL     1      40.302  21.247  -4.223  1.00  0.00     0.210 HD
ENDBRANCH  30  31
ENDBRANCH  24  30
BRANCH  25  33
ATOM     33  O   UNL     1      41.783  20.757  -1.906  1.00  0.00    -0.388 OA
ATOM     34  H   UNL     1      41.711  21.232  -2.774  1.00  0.00     0.211 HD
ENDBRANCH  25  33
ENDBRANCH  11  20
BRANCH  10  35
ATOM     35  O   UNL     1      40.661  14.496  -3.710  1.00  0.00    -0.507 OA
ATOM     36  H   UNL     1      40.225  15.316  -3.306  1.00  0.00     0.293 HD
ENDBRANCH  10  35
TORSDOF 9
ENDMDL
MODEL 4
REMARK VINA RESULT:    -5.380      2.057      3.107
REMARK INTER + INTRA:          -8.278
REMARK INTER:                  -7.217
REMARK INTRA:                  -1.061
REMARK UNBOUND:                -1.010
REMARK SMILES O=c1c(-c2ccc(O)cc2)coc2c([C@@H]3O[C@@H](CO)[C@@H](O)[C@H](O)[C@H]3O)c(O)ccc12
REMARK SMILES IDX 3 1 11 2 12 3 13 4 30 5 2 6 1 7 29 8 28 9 26 10 14 11 4 12
REMARK SMILES IDX 5 13 6 14 7 15 10 16 9 17 8 18 15 20 24 21 16 22 22 23 17 24
REMARK SMILES IDX 20 25 25 26 23 28 18 30 19 31 21 33 27 35
REMARK H PARENT 8 19 25 27 23 29 19 32 21 34 27 36
REMARK Flexibility Score: inf
ROOT
ATOM      1  C   UNL     1      43.450  17.547  -3.004  1.00  0.00     0.065 A 
ATOM      2  C   UNL     1      44.833  17.451  -2.788  1.00  0.00     0.208 A 
ATOM      3  O   UNL     1      45.547  16.489  -3.357  1.00  0.00    -0.463 OA
ATOM      4  C   UNL     1      45.018  15.564  -4.155  1.00  0.00     0.147 A 
ATOM      5  C   UNL     1      43.628  15.579  -4.419  1.00  0.00     0.066 A 
ATOM      6  C   UNL     1      42.841  16.584  -3.829  1.00  0.00     0.200 A 
ATOM      7  O   UNL     1      41.594  16.611  -4.021  1.00  0.00    -0.288 OA
ATOM      8  C   UNL     1      43.070  14.594  -5.247  1.00  0.00     0.020 A 
ATOM      9  C   UNL     1      43.876  13.602  -5.799  1.00  0.00     0.047 A 
ATOM     10  C   UNL     1      45.252  13.575  -5.543  1.00  0.00     0.125 A 
ATOM     11  C   UNL     1      45.844  14.568  -4.731  1.00  0.00     0.069 A 
ENDROOT
BRANCH   1  12
ATOM     12  C   UNL     1      42.675  18.639  -2.362  1.00  0.00    -0.011 A 
ATOM     13  C   UNL     1      42.734  19.951  -2.865  1.00  0.00     0.013 A 
ATOM     14  C   UNL     1      42.009  20.976  -2.252  1.00  0.00     0.047 A 
ATOM     15  C   UNL     1      41.219  20.705  -1.127  1.00  0.00     0.115 A 
ATOM     16  C   UNL     1      41.885  18.377  -1.229  1.00  0.00     0.013 A 
ATOM     17  C   UNL     1      41.160  19.404  -0.619  1.00  0.00     0.047 A 
BRANCH  15  18
ATOM     18  O   UNL     1      40.491  21.719  -0.509  1.00  0.00    -0.508 OA
ATOM     19  H   UNL     1      39.574  21.548  -0.114  1.00  0.00     0.293 HD
ENDBRANCH  15  18
ENDBRANCH   1  12
BRANCH  11  20
ATOM     20  C   UNL     1      47.337  14.535  -4.430  1.00  0.00     0.188 C 
ATOM     21  C   UNL     1      47.661  13.340  -3.508  1.00  0.00     0.179 C 
ATOM     22  O   UNL     1      48.053  14.461  -5.656  1.00  0.00    -0.362 OA
ATOM     23  C   UNL     1      49.171  13.286  -3.238  1.00  0.00     0.177 C 
ATOM     24  C   UNL     1      49.463  14.467  -5.475  1.00  0.00     0.176 C 
ATOM     25  C   UNL     1      49.936  13.302  -4.568  1.00  0.00     0.177 C 
BRANCH  21  26
ATOM     26  O   UNL     1      46.969  13.486  -2.293  1.00  0.00    -0.387 OA
ATOM     27  H   UNL     1      46.019  13.260  -2.472  1.00  0.00     0.211 HD
ENDBRANCH  21  26
BRANCH  23  28
ATOM     28  O   UNL     1      49.472  12.111  -2.528  1.00  0.00    -0.387 OA
ATOM     29  H   UNL     1      50.340  11.778  -2.875  1.00  0.00     0.211 HD
ENDBRANCH  23  28
BRANCH  24  30
ATOM     30  C   UNL     1      50.001  15.854  -5.052  1.00  0.00     0.191 C 
BRANCH  30  31
ATOM     31  O   UNL     1      51.336  16.007  -5.450  1.00  0.00    -0.394 OA
ATOM     32  H   UNL     1      51.873  16.088  -4.619  1.00  0.00     0.210 HD
ENDBRANCH  30  31
ENDBRANCH  24  30
BRANCH  25  33
ATOM     33  O   UNL     1      51.316  13.391  -4.320  1.00  0.00    -0.388 OA
ATOM     34  H   UNL     1      51.555  14.353  -4.374  1.00  0.00     0.211 HD
ENDBRANCH  25  33
ENDBRANCH  11  20
BRANCH  10  35
ATOM     35  O   UNL     1      46.031  12.556  -6.095  1.00  0.00    -0.507 OA
ATOM     36  H   UNL     1      46.986  12.394  -5.798  1.00  0.00     0.293 HD
ENDBRANCH  10  35
TORSDOF 9
ENDMDL
MODEL 5
REMARK VINA RESULT:    -5.110      2.829      8.267
REMARK INTER + INTRA:          -7.912
REMARK INTER:                  -7.399
REMARK INTRA:                  -0.513
REMARK UNBOUND:                -1.010
REMARK SMILES O=c1c(-c2ccc(O)cc2)coc2c([C@@H]3O[C@@H](CO)[C@@H](O)[C@H](O)[C@H]3O)c(O)ccc12
REMARK SMILES IDX 3 1 11 2 12 3 13 4 30 5 2 6 1 7 29 8 28 9 26 10 14 11 4 12
REMARK SMILES IDX 5 13 6 14 7 15 10 16 9 17 8 18 15 20 24 21 16 22 22 23 17 24
REMARK SMILES IDX 20 25 25 26 23 28 18 30 19 31 21 33 27 35
REMARK H PARENT 8 19 25 27 23 29 19 32 21 34 27 36
REMARK Flexibility Score: inf
ROOT
ATOM      1  C   UNL     1      47.547  15.416  -4.421  1.00  0.00     0.065 A 
ATOM      2  C   UNL     1      46.766  16.574  -4.293  1.00  0.00     0.208 A 
ATOM      3  O   UNL     1      45.484  16.499  -3.957  1.00  0.00    -0.463 OA
ATOM      4  C   UNL     1      44.858  15.348  -3.724  1.00  0.00     0.147 A 
ATOM      5  C   UNL     1      45.567  14.129  -3.842  1.00  0.00     0.066 A 
ATOM      6  C   UNL     1      46.927  14.173  -4.199  1.00  0.00     0.200 A 
ATOM      7  O   UNL     1      47.583  13.103  -4.339  1.00  0.00    -0.288 OA
ATOM      8  C   UNL     1      44.902  12.916  -3.612  1.00  0.00     0.020 A 
ATOM      9  C   UNL     1      43.550  12.909  -3.279  1.00  0.00     0.047 A 
ATOM     10  C   UNL     1      42.837  14.108  -3.163  1.00  0.00     0.125 A 
ATOM     11  C   UNL     1      43.489  15.346  -3.367  1.00  0.00     0.069 A 
ENDROOT
BRANCH   1  12
ATOM     12  C   UNL     1      48.981  15.527  -4.789  1.00  0.00    -0.011 A 
ATOM     13  C   UNL     1      49.950  14.743  -4.137  1.00  0.00     0.013 A 
ATOM     14  C   UNL     1      51.300  14.858  -4.481  1.00  0.00     0.047 A 
ATOM     15  C   UNL     1      51.699  15.759  -5.477  1.00  0.00     0.115 A 
ATOM     16  C   UNL     1      49.391  16.434  -5.782  1.00  0.00     0.013 A 
ATOM     17  C   UNL     1      50.741  16.545  -6.125  1.00  0.00     0.047 A 
BRANCH  15  18
ATOM     18  O   UNL     1      53.041  15.881  -5.829  1.00  0.00    -0.508 OA
ATOM     19  H   UNL     1      53.708  16.344  -5.222  1.00  0.00     0.293 HD
ENDBRANCH  15  18
ENDBRANCH   1  12
BRANCH  11  20
ATOM     20  C   UNL     1      42.715  16.654  -3.263  1.00  0.00     0.188 C 
ATOM     21  C   UNL     1      42.053  16.984  -4.618  1.00  0.00     0.179 C 
ATOM     22  O   UNL     1      41.753  16.541  -2.222  1.00  0.00    -0.362 OA
ATOM     23  C   UNL     1      41.244  18.283  -4.499  1.00  0.00     0.177 C 
ATOM     24  C   UNL     1      41.010  17.735  -2.023  1.00  0.00     0.176 C 
ATOM     25  C   UNL     1      40.275  18.182  -3.313  1.00  0.00     0.177 C 
BRANCH  21  26
ATOM     26  O   UNL     1      43.047  17.135  -5.600  1.00  0.00    -0.387 OA
ATOM     27  H   UNL     1      42.995  16.338  -6.190  1.00  0.00     0.211 HD
ENDBRANCH  21  26
BRANCH  23  28
ATOM     28  O   UNL     1      40.524  18.488  -5.688  1.00  0.00    -0.387 OA
ATOM     29  H   UNL     1      40.137  19.401  -5.639  1.00  0.00     0.211 HD
ENDBRANCH  23  28
BRANCH  24  30
ATOM     30  C   UNL     1      41.846  18.852  -1.355  1.00  0.00     0.191 C 
BRANCH  30  31
ATOM     31  O   UNL     1      41.862  18.688   0.037  1.00  0.00    -0.394 OA
ATOM     32  H   UNL     1      42.249  17.791   0.213  1.00  0.00     0.210 HD
ENDBRANCH  30  31
ENDBRANCH  24  30
BRANCH  25  33
ATOM     33  O   UNL     1      39.633  19.417  -3.121  1.00  0.00    -0.388 OA
ATOM     34  H   UNL     1      39.871  19.723  -2.206  1.00  0.00     0.211 HD
ENDBRANCH  25  33
ENDBRANCH  11  20
BRANCH  10  35
ATOM     35  O   UNL     1      41.478  14.068  -2.847  1.00  0.00    -0.507 OA
ATOM     36  H   UNL     1      41.019  14.832  -2.365  1.00  0.00     0.293 HD
ENDBRANCH  10  35
TORSDOF 9
ENDMDL
MODEL 6
REMARK VINA RESULT:    -5.026      2.020      3.228
REMARK INTER + INTRA:          -7.800
REMARK INTER:                  -7.435
REMARK INTRA:                  -0.365
REMARK UNBOUND:                -1.010
REMARK SMILES O=c1c(-c2ccc(O)cc2)coc2c([C@@H]3O[C@@H](CO)[C@@H](O)[C@H](O)[C@H]3O)c(O)ccc12
REMARK SMILES IDX 3 1 11 2 12 3 13 4 30 5 2 6 1 7 29 8 28 9 26 10 14 11 4 12
REMARK SMILES IDX 5 13 6 14 7 15 10 16 9 17 8 18 15 20 24 21 16 22 22 23 17 24
REMARK SMILES IDX 20 25 25 26 23 28 18 30 19 31 21 33 27 35
REMARK H PARENT 8 19 25 27 23 29 19 32 21 34 27 36
REMARK Flexibility Score: inf
ROOT
ATOM      1  C   UNL     1      43.132  16.895  -2.481  1.00  0.00     0.065 A 
ATOM      2  C   UNL     1      44.505  16.623  -2.570  1.00  0.00     0.208 A 
ATOM      3  O   UNL     1      44.941  15.432  -2.960  1.00  0.00    -0.463 OA
ATOM      4  C   UNL     1      44.127  14.430  -3.287  1.00  0.00     0.147 A 
ATOM      5  C   UNL     1      42.726  14.614  -3.214  1.00  0.00     0.066 A 
ATOM      6  C   UNL     1      42.231  15.864  -2.802  1.00  0.00     0.200 A 
ATOM      7  O   UNL     1      40.987  16.054  -2.699  1.00  0.00    -0.288 OA
ATOM      8  C   UNL     1      41.870  13.552  -3.542  1.00  0.00     0.020 A 
ATOM      9  C   UNL     1      42.395  12.321  -3.929  1.00  0.00     0.047 A 
ATOM     10  C   UNL     1      43.780  12.126  -4.002  1.00  0.00     0.125 A 
ATOM     11  C   UNL     1      44.664  13.186  -3.698  1.00  0.00     0.069 A 
ENDROOT
BRANCH   1  12
ATOM     12  C   UNL     1      42.671  18.239  -2.050  1.00  0.00    -0.011 A 
ATOM     13  C   UNL     1      41.857  18.386  -0.912  1.00  0.00     0.013 A 
ATOM     14  C   UNL     1      41.417  19.652  -0.516  1.00  0.00     0.047 A 
ATOM     15  C   UNL     1      41.782  20.786  -1.253  1.00  0.00     0.115 A 
ATOM     16  C   UNL     1      43.025  19.382  -2.788  1.00  0.00     0.013 A 
ATOM     17  C   UNL     1      42.586  20.647  -2.388  1.00  0.00     0.047 A 
BRANCH  15  18
ATOM     18  O   UNL     1      41.350  22.053  -0.867  1.00  0.00    -0.508 OA
ATOM     19  H   UNL     1      41.794  22.555  -0.107  1.00  0.00     0.293 HD
ENDBRANCH  15  18
ENDBRANCH   1  12
BRANCH  11  20
ATOM     20  C   UNL     1      46.172  12.977  -3.755  1.00  0.00     0.188 C 
ATOM     21  C   UNL     1      46.778  13.818  -4.899  1.00  0.00     0.179 C 
ATOM     22  O   UNL     1      46.733  13.323  -2.495  1.00  0.00    -0.362 OA
ATOM     23  C   UNL     1      48.302  13.634  -4.929  1.00  0.00     0.177 C 
ATOM     24  C   UNL     1      48.138  13.117  -2.440  1.00  0.00     0.176 C 
ATOM     25  C   UNL     1      48.885  13.919  -3.538  1.00  0.00     0.177 C 
BRANCH  21  26
ATOM     26  O   UNL     1      46.228  13.404  -6.125  1.00  0.00    -0.387 OA
ATOM     27  H   UNL     1      45.251  13.571  -6.075  1.00  0.00     0.211 HD
ENDBRANCH  21  26
BRANCH  23  28
ATOM     28  O   UNL     1      48.855  14.520  -5.869  1.00  0.00    -0.387 OA
ATOM     29  H   UNL     1      49.537  14.011  -6.379  1.00  0.00     0.211 HD
ENDBRANCH  23  28
BRANCH  24  30
ATOM     30  C   UNL     1      48.519  11.619  -2.386  1.00  0.00     0.191 C 
BRANCH  30  31
ATOM     31  O   UNL     1      49.459  11.386  -1.373  1.00  0.00    -0.394 OA
ATOM     32  H   UNL     1      49.698  10.424  -1.422  1.00  0.00     0.210 HD
ENDBRANCH  30  31
ENDBRANCH  24  30
BRANCH  25  33
ATOM     33  O   UNL     1      50.257  13.620  -3.530  1.00  0.00    -0.388 OA
ATOM     34  H   UNL     1      50.738  14.481  -3.645  1.00  0.00     0.211 HD
ENDBRANCH  25  33
ENDBRANCH  11  20
BRANCH  10  35
ATOM     35  O   UNL     1      44.276  10.875  -4.373  1.00  0.00    -0.507 OA
ATOM     36  H   UNL     1      44.010  10.433  -5.245  1.00  0.00     0.293 HD
ENDBRANCH  10  35
TORSDOF 9
ENDMDL
MODEL 7
REMARK VINA RESULT:    -4.994      2.550      8.289
REMARK INTER + INTRA:          -7.756
REMARK INTER:                  -7.196
REMARK INTRA:                  -0.559
REMARK UNBOUND:                -1.010
REMARK SMILES O=c1c(-c2ccc(O)cc2)coc2c([C@@H]3O[C@@H](CO)[C@@H](O)[C@H](O)[C@H]3O)c(O)ccc12
REMARK SMILES IDX 3 1 11 2 12 3 13 4 30 5 2 6 1 7 29 8 28 9 26 10 14 11 4 12
REMARK SMILES IDX 5 13 6 14 7 15 10 16 9 17 8 18 15 20 24 21 16 22 22 23 17 24
REMARK SMILES IDX 20 25 25 26 23 28 18 30 19 31 21 33 27 35
REMARK H PARENT 8 19 25 27 23 29 19 32 21 34 27 36
REMARK Flexibility Score: inf
ROOT
ATOM      1  C   UNL     1      45.184  13.721  -3.081  1.00  0.00     0.065 A 
ATOM      2  C   UNL     1      44.960  15.020  -2.602  1.00  0.00     0.208 A 
ATOM      3  O   UNL     1      43.886  15.707  -2.969  1.00  0.00    -0.463 OA
ATOM      4  C   UNL     1      42.964  15.227  -3.800  1.00  0.00     0.147 A 
ATOM      5  C   UNL     1      43.115  13.928  -4.341  1.00  0.00     0.066 A 
ATOM      6  C   UNL     1      44.245  13.174  -3.975  1.00  0.00     0.200 A 
ATOM      7  O   UNL     1      44.425  12.022  -4.460  1.00  0.00    -0.288 OA
ATOM      8  C   UNL     1      42.151  13.431  -5.231  1.00  0.00     0.020 A 
ATOM      9  C   UNL     1      41.055  14.213  -5.587  1.00  0.00     0.047 A 
ATOM     10  C   UNL     1      40.895  15.500  -5.060  1.00  0.00     0.125 A 
ATOM     11  C   UNL     1      41.840  16.017  -4.145  1.00  0.00     0.069 A 
ENDROOT
BRANCH   1  12
ATOM     12  C   UNL     1      46.389  12.969  -2.649  1.00  0.00    -0.011 A 
ATOM     13  C   UNL     1      46.296  11.975  -1.658  1.00  0.00     0.013 A 
ATOM     14  C   UNL     1      47.435  11.277  -1.248  1.00  0.00     0.047 A 
ATOM     15  C   UNL     1      48.682  11.566  -1.819  1.00  0.00     0.115 A 
ATOM     16  C   UNL     1      47.645  13.257  -3.211  1.00  0.00     0.013 A 
ATOM     17  C   UNL     1      48.782  12.556  -2.800  1.00  0.00     0.047 A 
BRANCH  15  18
ATOM     18  O   UNL     1      49.823  10.875  -1.419  1.00  0.00    -0.508 OA
ATOM     19  H   UNL     1      50.751  11.188  -1.681  1.00  0.00     0.293 HD
ENDBRANCH  15  18
ENDBRANCH   1  12
BRANCH  11  20
ATOM     20  C   UNL     1      41.685  17.425  -3.584  1.00  0.00     0.188 C 
ATOM     21  C   UNL     1      41.741  17.386  -2.042  1.00  0.00     0.179 C 
ATOM     22  O   UNL     1      42.706  18.253  -4.126  1.00  0.00    -0.362 OA
ATOM     23  C   UNL     1      41.623  18.811  -1.481  1.00  0.00     0.177 C 
ATOM     24  C   UNL     1      42.614  19.602  -3.690  1.00  0.00     0.176 C 
ATOM     25  C   UNL     1      42.670  19.717  -2.144  1.00  0.00     0.177 C 
BRANCH  21  26
ATOM     26  O   UNL     1      40.685  16.598  -1.555  1.00  0.00    -0.387 OA
ATOM     27  H   UNL     1      40.527  15.880  -2.223  1.00  0.00     0.211 HD
ENDBRANCH  21  26
BRANCH  23  28
ATOM     28  O   UNL     1      41.832  18.778  -0.092  1.00  0.00    -0.387 OA
ATOM     29  H   UNL     1      41.188  18.121   0.282  1.00  0.00     0.211 HD
ENDBRANCH  23  28
BRANCH  24  30
ATOM     30  C   UNL     1      41.428  20.356  -4.335  1.00  0.00     0.191 C 
BRANCH  30  31
ATOM     31  O   UNL     1      41.809  21.658  -4.692  1.00  0.00    -0.394 OA
ATOM     32  H   UNL     1      41.230  22.276  -4.174  1.00  0.00     0.210 HD
ENDBRANCH  30  31
ENDBRANCH  24  30
BRANCH  25  33
ATOM     33  O   UNL     1      42.474  21.045  -1.734  1.00  0.00    -0.388 OA
ATOM     34  H   UNL     1      41.968  21.497  -2.459  1.00  0.00     0.211 HD
ENDBRANCH  25  33
ENDBRANCH  11  20
BRANCH  10  35
ATOM     35  O   UNL     1      39.797  16.268  -5.452  1.00  0.00    -0.507 OA
ATOM     36  H   UNL     1      39.804  16.813  -6.306  1.00  0.00     0.293 HD
ENDBRANCH  10  35
TORSDOF 9
ENDMDL
MODEL 8
REMARK VINA RESULT:    -4.562      3.213      8.628
REMARK INTER + INTRA:          -7.172
REMARK INTER:                  -6.618
REMARK INTRA:                  -0.554
REMARK UNBOUND:                -1.010
REMARK SMILES O=c1c(-c2ccc(O)cc2)coc2c([C@@H]3O[C@@H](CO)[C@@H](O)[C@H](O)[C@H]3O)c(O)ccc12
REMARK SMILES IDX 3 1 11 2 12 3 13 4 30 5 2 6 1 7 29 8 28 9 26 10 14 11 4 12
REMARK SMILES IDX 5 13 6 14 7 15 10 16 9 17 8 18 15 20 24 21 16 22 22 23 17 24
REMARK SMILES IDX 20 25 25 26 23 28 18 30 19 31 21 33 27 35
REMARK H PARENT 8 19 25 27 23 29 19 32 21 34 27 36
REMARK Flexibility Score: inf
ROOT
ATOM      1  C   UNL     1      49.041  14.094  -4.575  1.00  0.00     0.065 A 
ATOM      2  C   UNL     1      48.076  15.087  -4.800  1.00  0.00     0.208 A 
ATOM      3  O   UNL     1      46.814  14.908  -4.431  1.00  0.00    -0.463 OA
ATOM      4  C   UNL     1      46.379  13.800  -3.837  1.00  0.00     0.147 A 
ATOM      5  C   UNL     1      47.282  12.741  -3.582  1.00  0.00     0.066 A 
ATOM      6  C   UNL     1      48.628  12.897  -3.963  1.00  0.00     0.200 A 
ATOM      7  O   UNL     1      49.455  11.961  -3.775  1.00  0.00    -0.288 OA
ATOM      8  C   UNL     1      46.818  11.566  -2.972  1.00  0.00     0.020 A 
ATOM      9  C   UNL     1      45.476  11.438  -2.625  1.00  0.00     0.047 A 
ATOM     10  C   UNL     1      44.572  12.478  -2.875  1.00  0.00     0.125 A 
ATOM     11  C   UNL     1      45.017  13.680  -3.468  1.00  0.00     0.069 A 
ENDROOT
BRANCH   1  12
ATOM     12  C   UNL     1      50.448  14.322  -4.989  1.00  0.00    -0.011 A 
ATOM     13  C   UNL     1      51.207  13.279  -5.551  1.00  0.00     0.013 A 
ATOM     14  C   UNL     1      52.535  13.497  -5.930  1.00  0.00     0.047 A 
ATOM     15  C   UNL     1      53.122  14.756  -5.749  1.00  0.00     0.115 A 
ATOM     16  C   UNL     1      51.048  15.580  -4.805  1.00  0.00     0.013 A 
ATOM     17  C   UNL     1      52.375  15.795  -5.186  1.00  0.00     0.047 A 
BRANCH  15  18
ATOM     18  O   UNL     1      54.444  14.984  -6.125  1.00  0.00    -0.508 OA
ATOM     19  H   UNL     1      54.697  15.760  -6.725  1.00  0.00     0.293 HD
ENDBRANCH  15  18
ENDBRANCH   1  12
BRANCH  11  20
ATOM     20  C   UNL     1      44.036  14.808  -3.763  1.00  0.00     0.188 C 
ATOM     21  C   UNL     1      43.069  14.385  -4.889  1.00  0.00     0.179 C 
ATOM     22  O   UNL     1      43.339  15.137  -2.568  1.00  0.00    -0.362 OA
ATOM     23  C   UNL     1      42.058  15.508  -5.157  1.00  0.00     0.177 C 
ATOM     24  C   UNL     1      42.428  16.214  -2.738  1.00  0.00     0.176 C 
ATOM     25  C   UNL     1      41.380  15.919  -3.842  1.00  0.00     0.177 C 
BRANCH  21  26
ATOM     26  O   UNL     1      43.801  14.120  -6.059  1.00  0.00    -0.387 OA
ATOM     27  H   UNL     1      43.285  14.501  -6.817  1.00  0.00     0.211 HD
ENDBRANCH  21  26
BRANCH  23  28
ATOM     28  O   UNL     1      41.092  15.052  -6.070  1.00  0.00    -0.387 OA
ATOM     29  H   UNL     1      41.353  14.130  -6.329  1.00  0.00     0.211 HD
ENDBRANCH  23  28
BRANCH  24  30
ATOM     30  C   UNL     1      43.141  17.577  -2.894  1.00  0.00     0.191 C 
BRANCH  30  31
ATOM     31  O   UNL     1      42.510  18.556  -2.113  1.00  0.00    -0.394 OA
ATOM     32  H   UNL     1      41.554  18.297  -2.051  1.00  0.00     0.210 HD
ENDBRANCH  30  31
ENDBRANCH  24  30
BRANCH  25  33
ATOM     33  O   UNL     1      40.558  17.036  -4.063  1.00  0.00    -0.388 OA
ATOM     34  H   UNL     1      40.639  17.614  -3.259  1.00  0.00     0.211 HD
ENDBRANCH  25  33
ENDBRANCH  11  20
BRANCH  10  35
ATOM     35  O   UNL     1      43.228  12.312  -2.535  1.00  0.00    -0.507 OA
ATOM     36  H   UNL     1      42.911  11.528  -1.977  1.00  0.00     0.293 HD
ENDBRANCH  10  35
TORSDOF 9
ENDMDL
