MODEL 1
REMARK VINA RESULT:    -2.382      0.000      0.000
REMARK INTER + INTRA:          -2.382
REMARK INTER:                  -2.382
REMARK INTRA:                   0.000
REMARK UNBOUND:                 0.000
REMARK SMILES CC(=O)[O-]
REMARK SMILES IDX 1 1 2 2 3 3 4 4
REMARK H PARENT
REMARK Flexibility Score: inf
ROOT
ATOM      1  C   UNL     1       7.854  57.011  18.268  1.00  0.00     0.063 C 
ATOM      2  C   UNL     1       8.021  58.477  18.489  1.00  0.00     0.038 C 
ATOM      3  O   UNL     1       7.325  59.068  19.355  1.00  0.00    -0.550 OA
ATOM      4  O   UNL     1       8.983  59.182  17.778  1.00  0.00    -0.550 OA
ENDROOT
TORSDOF 0
ENDMDL
MODEL 2
REMARK VINA RESULT:    -2.257      0.228      1.632
REMARK INTER + INTRA:          -2.257
REMARK INTER:                  -2.257
REMARK INTRA:                   0.000
REMARK UNBOUND:                 0.000
REMARK SMILES CC(=O)[O-]
REMARK SMILES IDX 1 1 2 2 3 3 4 4
REMARK H PARENT
REMARK Flexibility Score: inf
ROOT
ATOM      1  C   UNL     1       7.563  57.020  18.035  1.00  0.00     0.063 C 
ATOM      2  C   UNL     1       7.983  58.402  18.406  1.00  0.00     0.038 C 
ATOM      3  O   UNL     1       8.925  58.963  17.788  1.00  0.00    -0.550 OA
ATOM      4  O   UNL     1       7.300  59.093  19.399  1.00  0.00    -0.550 OA
ENDROOT
TORSDOF 0
ENDMDL
MODEL 3
REMARK VINA RESULT:    -2.216      2.014      2.445
REMARK INTER + INTRA:          -2.216
REMARK INTER:                  -2.216
REMARK INTRA:                   0.000
REMARK UNBOUND:                 0.000
REMARK SMILES CC(=O)[O-]
REMARK SMILES IDX 1 1 2 2 3 3 4 4
REMARK H PARENT
REMARK Flexibility Score: inf
ROOT
ATOM      1  C   UNL     1       7.689  58.626  18.789  1.00  0.00     0.063 C 
ATOM      2  C   UNL     1       7.773  57.476  17.844  1.00  0.00     0.038 C 
ATOM      3  O   UNL     1       8.776  56.715  17.862  1.00  0.00    -0.550 OA
ATOM      4  O   UNL     1       6.720  57.209  16.979  1.00  0.00    -0.550 OA
ENDROOT
TORSDOF 0
ENDMDL
MODEL 4
REMARK VINA RESULT:    -2.143     11.595     12.095
REMARK INTER + INTRA:          -2.143
REMARK INTER:                  -2.143
REMARK INTRA:                   0.000
REMARK UNBOUND:                 0.000
REMARK SMILES CC(=O)[O-]
REMARK SMILES IDX 1 1 2 2 3 3 4 4
REMARK H PARENT
REMARK Flexibility Score: inf
ROOT
ATOM      1  C   UNL     1      -3.326  56.309  18.129  1.00  0.00     0.063 C 
ATOM      2  C   UNL     1      -3.852  57.619  17.649  1.00  0.00     0.038 C 
ATOM      3  O   UNL     1      -3.260  58.238  16.726  1.00  0.00    -0.550 OA
ATOM      4  O   UNL     1      -5.027  58.133  18.182  1.00  0.00    -0.550 OA
ENDROOT
TORSDOF 0
ENDMDL
MODEL 5
REMARK VINA RESULT:    -2.083      3.670      4.353
REMARK INTER + INTRA:          -2.083
REMARK INTER:                  -2.083
REMARK INTRA:                   0.000
REMARK UNBOUND:                 0.000
REMARK SMILES CC(=O)[O-]
REMARK SMILES IDX 1 1 2 2 3 3 4 4
REMARK H PARENT
REMARK Flexibility Score: inf
ROOT
ATOM      1  C   UNL     1      10.482  60.514  15.416  1.00  0.00     0.063 C 
ATOM      2  C   UNL     1      11.019  60.403  16.802  1.00  0.00     0.038 C 
ATOM      3  O   UNL     1      11.987  61.122  17.163  1.00  0.00    -0.550 OA
ATOM      4  O   UNL     1      10.417  59.547  17.715  1.00  0.00    -0.550 OA
ENDROOT
TORSDOF 0
ENDMDL
MODEL 6
REMARK VINA RESULT:    -2.078      3.980      4.493
REMARK INTER + INTRA:          -2.078
REMARK INTER:                  -2.078
REMARK INTRA:                   0.000
REMARK UNBOUND:                 0.000
REMARK SMILES CC(=O)[O-]
REMARK SMILES IDX 1 1 2 2 3 3 4 4
REMARK H PARENT
REMARK Flexibility Score: inf
ROOT
ATOM      1  C   UNL     1       4.464  55.241  15.930  1.00  0.00     0.063 C 
ATOM      2  C   UNL     1       4.893  56.366  16.811  1.00  0.00     0.038 C 
ATOM      3  O   UNL     1       6.041  56.866  16.682  1.00  0.00    -0.550 OA
ATOM      4  O   UNL     1       4.007  56.900  17.737  1.00  0.00    -0.550 OA
ENDROOT
TORSDOF 0
ENDMDL
MODEL 7
REMARK VINA RESULT:    -2.034      7.432      7.777
REMARK INTER + INTRA:          -2.034
REMARK INTER:                  -2.034
REMARK INTRA:                   0.000
REMARK UNBOUND:                 0.000
REMARK SMILES CC(=O)[O-]
REMARK SMILES IDX 1 1 2 2 3 3 4 4
REMARK H PARENT
REMARK Flexibility Score: inf
ROOT
ATOM      1  C   UNL     1       0.367  57.045  16.888  1.00  0.00     0.063 C 
ATOM      2  C   UNL     1       1.135  55.769  16.811  1.00  0.00     0.038 C 
ATOM      3  O   UNL     1       0.775  54.774  17.493  1.00  0.00    -0.550 OA
ATOM      4  O   UNL     1       2.215  55.659  15.947  1.00  0.00    -0.550 OA
ENDROOT
TORSDOF 0
ENDMDL
MODEL 8
REMARK VINA RESULT:    -2.034      8.127      8.718
REMARK INTER + INTRA:          -2.034
REMARK INTER:                  -2.034
REMARK INTRA:                   0.000
REMARK UNBOUND:                 0.000
REMARK SMILES CC(=O)[O-]
REMARK SMILES IDX 1 1 2 2 3 3 4 4
REMARK H PARENT
REMARK Flexibility Score: inf
ROOT
ATOM      1  C   UNL     1       1.882  54.891  20.696  1.00  0.00     0.063 C 
ATOM      2  C   UNL     1       0.403  54.979  20.520  1.00  0.00     0.038 C 
ATOM      3  O   UNL     1      -0.350  54.137  21.074  1.00  0.00    -0.550 OA
ATOM      4  O   UNL     1      -0.149  56.023  19.788  1.00  0.00    -0.550 OA
ENDROOT
TORSDOF 0
ENDMDL
MODEL 9
REMARK VINA RESULT:    -1.954      5.425      5.831
REMARK INTER + INTRA:          -1.954
REMARK INTER:                  -1.954
REMARK INTRA:                   0.000
REMARK UNBOUND:                 0.000
REMARK SMILES CC(=O)[O-]
REMARK SMILES IDX 1 1 2 2 3 3 4 4
REMARK H PARENT
REMARK Flexibility Score: inf
ROOT
ATOM      1  C   UNL     1       2.716  55.213  15.780  1.00  0.00     0.063 C 
ATOM      2  C   UNL     1       4.055  55.215  16.436  1.00  0.00     0.038 C 
ATOM      3  O   UNL     1       4.764  56.255  16.419  1.00  0.00    -0.550 OA
ATOM      4  O   UNL     1       4.500  54.087  17.113  1.00  0.00    -0.550 OA
ENDROOT
TORSDOF 0
ENDMDL
