MODEL 1
REMARK VINA RESULT:    -2.606      0.000      0.000
REMARK INTER + INTRA:          -2.606
REMARK INTER:                  -2.606
REMARK INTRA:                   0.000
REMARK UNBOUND:                 0.000
REMARK SMILES CC(=O)[O-]
REMARK SMILES IDX 1 1 2 2 3 3 4 4
REMARK H PARENT
REMARK Flexibility Score: inf
ROOT
ATOM      1  C   UNL     1      28.672   9.209  -2.538  1.00  0.00     0.063 C 
ATOM      2  C   UNL     1      29.954   8.459  -2.678  1.00  0.00     0.038 C 
ATOM      3  O   UNL     1      30.887   8.927  -3.380  1.00  0.00    -0.550 OA
ATOM      4  O   UNL     1      30.140   7.268  -1.988  1.00  0.00    -0.550 OA
ENDROOT
TORSDOF 0
ENDMDL
MODEL 2
REMARK VINA RESULT:    -2.457     12.468     12.956
REMARK INTER + INTRA:          -2.457
REMARK INTER:                  -2.457
REMARK INTRA:                   0.000
REMARK UNBOUND:                 0.000
REMARK SMILES CC(=O)[O-]
REMARK SMILES IDX 1 1 2 2 3 3 4 4
REMARK H PARENT
REMARK Flexibility Score: inf
ROOT
ATOM      1  C   UNL     1      22.466   7.989   6.543  1.00  0.00     0.063 C 
ATOM      2  C   UNL     1      21.463   9.002   6.980  1.00  0.00     0.038 C 
ATOM      3  O   UNL     1      20.631   9.464   6.157  1.00  0.00    -0.550 OA
ATOM      4  O   UNL     1      21.408   9.397   8.311  1.00  0.00    -0.550 OA
ENDROOT
TORSDOF 0
ENDMDL
MODEL 3
REMARK VINA RESULT:    -2.389     16.153     16.710
REMARK INTER + INTRA:          -2.389
REMARK INTER:                  -2.389
REMARK INTRA:                   0.000
REMARK UNBOUND:                 0.000
REMARK SMILES CC(=O)[O-]
REMARK SMILES IDX 1 1 2 2 3 3 4 4
REMARK H PARENT
REMARK Flexibility Score: inf
ROOT
ATOM      1  C   UNL     1      19.086  10.125  11.128  1.00  0.00     0.063 C 
ATOM      2  C   UNL     1      20.465   9.567  11.013  1.00  0.00     0.038 C 
ATOM      3  O   UNL     1      20.914   9.218   9.891  1.00  0.00    -0.550 OA
ATOM      4  O   UNL     1      21.276   9.484  12.138  1.00  0.00    -0.550 OA
ENDROOT
TORSDOF 0
ENDMDL
MODEL 4
REMARK VINA RESULT:    -2.369     12.401     12.878
REMARK INTER + INTRA:          -2.369
REMARK INTER:                  -2.369
REMARK INTRA:                   0.000
REMARK UNBOUND:                 0.000
REMARK SMILES CC(=O)[O-]
REMARK SMILES IDX 1 1 2 2 3 3 4 4
REMARK H PARENT
REMARK Flexibility Score: inf
ROOT
ATOM      1  C   UNL     1      21.622   9.670   8.343  1.00  0.00     0.063 C 
ATOM      2  C   UNL     1      21.709   8.889   7.076  1.00  0.00     0.038 C 
ATOM      3  O   UNL     1      22.635   8.054   6.910  1.00  0.00    -0.550 OA
ATOM      4  O   UNL     1      20.735   9.041   6.097  1.00  0.00    -0.550 OA
ENDROOT
TORSDOF 0
ENDMDL
MODEL 5
REMARK VINA RESULT:    -2.367     12.096     12.709
REMARK INTER + INTRA:          -2.367
REMARK INTER:                  -2.367
REMARK INTRA:                   0.000
REMARK UNBOUND:                 0.000
REMARK SMILES CC(=O)[O-]
REMARK SMILES IDX 1 1 2 2 3 3 4 4
REMARK H PARENT
REMARK Flexibility Score: inf
ROOT
ATOM      1  C   UNL     1      21.343   9.841   5.951  1.00  0.00     0.063 C 
ATOM      2  C   UNL     1      21.788   8.898   7.017  1.00  0.00     0.038 C 
ATOM      3  O   UNL     1      22.517   7.915   6.727  1.00  0.00    -0.550 OA
ATOM      4  O   UNL     1      21.445   9.135   8.342  1.00  0.00    -0.550 OA
ENDROOT
TORSDOF 0
ENDMDL
MODEL 6
REMARK VINA RESULT:    -2.339      8.070      8.712
REMARK INTER + INTRA:          -2.339
REMARK INTER:                  -2.339
REMARK INTRA:                   0.000
REMARK UNBOUND:                 0.000
REMARK SMILES CC(=O)[O-]
REMARK SMILES IDX 1 1 2 2 3 3 4 4
REMARK H PARENT
REMARK Flexibility Score: inf
ROOT
ATOM      1  C   UNL     1      31.555  -0.700  -1.666  1.00  0.00     0.063 C 
ATOM      2  C   UNL     1      31.086   0.091  -2.840  1.00  0.00     0.038 C 
ATOM      3  O   UNL     1      30.380   1.118  -2.669  1.00  0.00    -0.550 OA
ATOM      4  O   UNL     1      31.473  -0.274  -4.124  1.00  0.00    -0.550 OA
ENDROOT
TORSDOF 0
ENDMDL
MODEL 7
REMARK VINA RESULT:    -2.335      6.755      7.118
REMARK INTER + INTRA:          -2.335
REMARK INTER:                  -2.335
REMARK INTRA:                   0.000
REMARK UNBOUND:                 0.000
REMARK SMILES CC(=O)[O-]
REMARK SMILES IDX 1 1 2 2 3 3 4 4
REMARK H PARENT
REMARK Flexibility Score: inf
ROOT
ATOM      1  C   UNL     1      30.733   4.927   3.385  1.00  0.00     0.063 C 
ATOM      2  C   UNL     1      30.904   6.363   3.752  1.00  0.00     0.038 C 
ATOM      3  O   UNL     1      30.028   6.948   4.439  1.00  0.00    -0.550 OA
ATOM      4  O   UNL     1      32.059   7.042   3.383  1.00  0.00    -0.550 OA
ENDROOT
TORSDOF 0
ENDMDL
MODEL 8
REMARK VINA RESULT:    -2.200     21.393     21.781
REMARK INTER + INTRA:          -2.200
REMARK INTER:                  -2.200
REMARK INTRA:                   0.000
REMARK UNBOUND:                 0.000
REMARK SMILES CC(=O)[O-]
REMARK SMILES IDX 1 1 2 2 3 3 4 4
REMARK H PARENT
REMARK Flexibility Score: inf
ROOT
ATOM      1  C   UNL     1      36.642  -7.145  11.159  1.00  0.00     0.063 C 
ATOM      2  C   UNL     1      35.678  -7.937  10.341  1.00  0.00     0.038 C 
ATOM      3  O   UNL     1      35.781  -7.957   9.087  1.00  0.00    -0.550 OA
ATOM      4  O   UNL     1      34.699  -8.700  10.965  1.00  0.00    -0.550 OA
ENDROOT
TORSDOF 0
ENDMDL
