MODEL 1
REMARK VINA RESULT:    -3.581      0.000      0.000
REMARK INTER + INTRA:          -3.685
REMARK INTER:                  -3.685
REMARK INTRA:                   0.000
REMARK UNBOUND:                 0.000
REMARK SMILES CC1(C)[C@H]2CC[C@](C)(C2)[C@@H]1O
REMARK SMILES IDX 1 1 2 2 4 3 5 4 6 5 7 6 9 7 10 8 8 9 3 10 11 11
REMARK H PARENT 11 12
REMARK Flexibility Score: inf
ROOT
ATOM      1  C   UNL     1     116.242 116.236 120.170  1.00  0.00     0.014 C 
ATOM      2  C   UNL     1     115.510 116.821 118.938  1.00  0.00    -0.006 C 
ATOM      3  C   UNL     1     116.076 118.205 118.472  1.00  0.00    -0.002 C 
ATOM      4  C   UNL     1     117.614 118.175 118.361  1.00  0.00     0.005 C 
ATOM      5  C   UNL     1     117.851 117.233 117.170  1.00  0.00     0.010 C 
ATOM      6  C   UNL     1     116.415 116.932 116.682  1.00  0.00    -0.006 C 
ATOM      7  C   UNL     1     115.705 118.230 116.999  1.00  0.00     0.013 C 
ATOM      8  C   UNL     1     115.747 115.934 117.666  1.00  0.00     0.126 C 
ATOM      9  C   UNL     1     116.352 116.524 115.204  1.00  0.00     0.014 C 
ATOM     10  C   UNL     1     114.012 116.971 119.318  1.00  0.00     0.014 C 
ENDROOT
BRANCH   8  11
ATOM     11  O   UNL     1     114.543 115.442 117.128  1.00  0.00    -0.392 OA
ATOM     12  H   UNL     1     114.790 114.704 116.511  1.00  0.00     0.211 HD
ENDBRANCH   8  11
TORSDOF 1
ENDMDL
MODEL 2
REMARK VINA RESULT:    -3.572      1.527      2.210
REMARK INTER + INTRA:          -3.677
REMARK INTER:                  -3.677
REMARK INTRA:                   0.000
REMARK UNBOUND:                 0.000
REMARK SMILES CC1(C)[C@H]2CC[C@](C)(C2)[C@@H]1O
REMARK SMILES IDX 1 1 2 2 4 3 5 4 6 5 7 6 9 7 10 8 8 9 3 10 11 11
REMARK H PARENT 11 12
REMARK Flexibility Score: inf
ROOT
ATOM      1  C   UNL     1     116.951 116.276 120.180  1.00  0.00     0.014 C 
ATOM      2  C   UNL     1     116.379 115.534 118.948  1.00  0.00    -0.006 C 
ATOM      3  C   UNL     1     114.999 116.096 118.463  1.00  0.00    -0.002 C 
ATOM      4  C   UNL     1     115.031 117.634 118.340  1.00  0.00     0.005 C 
ATOM      5  C   UNL     1     115.985 117.861 117.157  1.00  0.00     0.010 C 
ATOM      6  C   UNL     1     116.291 116.422 116.683  1.00  0.00    -0.006 C 
ATOM      7  C   UNL     1     114.989 115.714 116.993  1.00  0.00     0.013 C 
ATOM      8  C   UNL     1     117.278 115.761 117.684  1.00  0.00     0.126 C 
ATOM      9  C   UNL     1     116.714 116.346 115.211  1.00  0.00     0.014 C 
ATOM     10  C   UNL     1     116.225 114.040 119.339  1.00  0.00     0.014 C 
ENDROOT
BRANCH   8  11
ATOM     11  O   UNL     1     117.776 114.553 117.160  1.00  0.00    -0.392 OA
ATOM     12  H   UNL     1     117.794 114.659 116.173  1.00  0.00     0.211 HD
ENDBRANCH   8  11
TORSDOF 1
ENDMDL
MODEL 3
REMARK VINA RESULT:    -3.567      2.022      3.139
REMARK INTER + INTRA:          -3.672
REMARK INTER:                  -3.672
REMARK INTRA:                   0.000
REMARK UNBOUND:                 0.000
REMARK SMILES CC1(C)[C@H]2CC[C@](C)(C2)[C@@H]1O
REMARK SMILES IDX 1 1 2 2 4 3 5 4 6 5 7 6 9 7 10 8 8 9 3 10 11 11
REMARK H PARENT 11 12
REMARK Flexibility Score: inf
ROOT
ATOM      1  C   UNL     1     116.986 116.998 120.166  1.00  0.00     0.014 C 
ATOM      2  C   UNL     1     117.711 116.407 118.933  1.00  0.00    -0.006 C 
ATOM      3  C   UNL     1     117.142 115.021 118.476  1.00  0.00    -0.002 C 
ATOM      4  C   UNL     1     115.603 115.052 118.374  1.00  0.00     0.005 C 
ATOM      5  C   UNL     1     115.360 115.988 117.180  1.00  0.00     0.010 C 
ATOM      6  C   UNL     1     116.793 116.286 116.682  1.00  0.00    -0.006 C 
ATOM      7  C   UNL     1     117.504 114.989 117.001  1.00  0.00     0.013 C 
ATOM      8  C   UNL     1     117.467 117.288 117.659  1.00  0.00     0.126 C 
ATOM      9  C   UNL     1     116.848 116.688 115.203  1.00  0.00     0.014 C 
ATOM     10  C   UNL     1     119.211 116.258 119.305  1.00  0.00     0.014 C 
ENDROOT
BRANCH   8  11
ATOM     11  O   UNL     1     118.668 117.777 117.111  1.00  0.00    -0.392 OA
ATOM     12  H   UNL     1     119.342 117.057 117.219  1.00  0.00     0.211 HD
ENDBRANCH   8  11
TORSDOF 1
ENDMDL
MODEL 4
REMARK VINA RESULT:    -3.553      1.548      2.214
REMARK INTER + INTRA:          -3.656
REMARK INTER:                  -3.656
REMARK INTRA:                   0.000
REMARK UNBOUND:                 0.000
REMARK SMILES CC1(C)[C@H]2CC[C@](C)(C2)[C@@H]1O
REMARK SMILES IDX 1 1 2 2 4 3 5 4 6 5 7 6 9 7 10 8 8 9 3 10 11 11
REMARK H PARENT 11 12
REMARK Flexibility Score: inf
ROOT
ATOM      1  C   UNL     1     116.240 117.035 120.193  1.00  0.00     0.014 C 
ATOM      2  C   UNL     1     116.808 117.768 118.953  1.00  0.00    -0.006 C 
ATOM      3  C   UNL     1     118.194 117.212 118.478  1.00  0.00    -0.002 C 
ATOM      4  C   UNL     1     118.177 115.673 118.374  1.00  0.00     0.005 C 
ATOM      5  C   UNL     1     117.228 115.423 117.192  1.00  0.00     0.010 C 
ATOM      6  C   UNL     1     116.910 116.854 116.700  1.00  0.00    -0.006 C 
ATOM      7  C   UNL     1     118.204 117.577 117.004  1.00  0.00     0.013 C 
ATOM      8  C   UNL     1     115.914 117.517 117.690  1.00  0.00     0.126 C 
ATOM      9  C   UNL     1     116.489 116.908 115.226  1.00  0.00     0.014 C 
ATOM     10  C   UNL     1     116.948 119.267 119.327  1.00  0.00     0.014 C 
ENDROOT
BRANCH   8  11
ATOM     11  O   UNL     1     115.406 118.714 117.151  1.00  0.00    -0.392 OA
ATOM     12  H   UNL     1     114.423 118.690 117.286  1.00  0.00     0.211 HD
ENDBRANCH   8  11
TORSDOF 1
ENDMDL
MODEL 5
REMARK VINA RESULT:    -3.465      1.069      3.119
REMARK INTER + INTRA:          -3.567
REMARK INTER:                  -3.567
REMARK INTRA:                   0.000
REMARK UNBOUND:                 0.000
REMARK SMILES CC1(C)[C@H]2CC[C@](C)(C2)[C@@H]1O
REMARK SMILES IDX 1 1 2 2 4 3 5 4 6 5 7 6 9 7 10 8 8 9 3 10 11 11
REMARK H PARENT 11 12
REMARK Flexibility Score: inf
ROOT
ATOM      1  C   UNL     1     116.391 116.852 115.664  1.00  0.00     0.014 C 
ATOM      2  C   UNL     1     116.380 116.399 117.145  1.00  0.00    -0.006 C 
ATOM      3  C   UNL     1     116.749 117.540 118.152  1.00  0.00    -0.002 C 
ATOM      4  C   UNL     1     115.950 118.827 117.859  1.00  0.00     0.005 C 
ATOM      5  C   UNL     1     114.513 118.428 118.228  1.00  0.00     0.010 C 
ATOM      6  C   UNL     1     114.690 116.998 118.790  1.00  0.00    -0.006 C 
ATOM      7  C   UNL     1     116.060 117.086 119.427  1.00  0.00     0.013 C 
ATOM      8  C   UNL     1     114.931 116.019 117.608  1.00  0.00     0.126 C 
ATOM      9  C   UNL     1     113.571 116.584 119.754  1.00  0.00     0.014 C 
ATOM     10  C   UNL     1     117.399 115.235 117.279  1.00  0.00     0.014 C 
ENDROOT
BRANCH   8  11
ATOM     11  O   UNL     1     114.845 114.685 118.048  1.00  0.00    -0.392 OA
ATOM     12  H   UNL     1     114.037 114.298 117.620  1.00  0.00     0.211 HD
ENDBRANCH   8  11
TORSDOF 1
ENDMDL
MODEL 6
REMARK VINA RESULT:    -3.465      1.525      3.092
REMARK INTER + INTRA:          -3.566
REMARK INTER:                  -3.566
REMARK INTRA:                   0.000
REMARK UNBOUND:                 0.000
REMARK SMILES CC1(C)[C@H]2CC[C@](C)(C2)[C@@H]1O
REMARK SMILES IDX 1 1 2 2 4 3 5 4 6 5 7 6 9 7 10 8 8 9 3 10 11 11
REMARK H PARENT 11 12
REMARK Flexibility Score: inf
ROOT
ATOM      1  C   UNL     1     116.683 116.884 115.646  1.00  0.00     0.014 C 
ATOM      2  C   UNL     1     116.299 116.874 117.146  1.00  0.00    -0.006 C 
ATOM      3  C   UNL     1     117.480 116.470 118.093  1.00  0.00    -0.002 C 
ATOM      4  C   UNL     1     118.764 117.256 117.755  1.00  0.00     0.005 C 
ATOM      5  C   UNL     1     118.404 118.691 118.168  1.00  0.00     0.010 C 
ATOM      6  C   UNL     1     116.999 118.525 118.792  1.00  0.00    -0.006 C 
ATOM      7  C   UNL     1     117.095 117.142 119.399  1.00  0.00     0.013 C 
ATOM      8  C   UNL     1     115.963 118.320 117.653  1.00  0.00     0.126 C 
ATOM      9  C   UNL     1     116.647 119.631 119.794  1.00  0.00     0.014 C 
ATOM     10  C   UNL     1     115.128 115.870 117.316  1.00  0.00     0.014 C 
ENDROOT
BRANCH   8  11
ATOM     11  O   UNL     1     114.652 118.417 118.155  1.00  0.00    -0.392 OA
ATOM     12  H   UNL     1     114.076 118.686 117.393  1.00  0.00     0.211 HD
ENDBRANCH   8  11
TORSDOF 1
ENDMDL
MODEL 7
REMARK VINA RESULT:    -3.464      1.861      3.716
REMARK INTER + INTRA:          -3.565
REMARK INTER:                  -3.565
REMARK INTRA:                   0.000
REMARK UNBOUND:                 0.000
REMARK SMILES CC1(C)[C@H]2CC[C@](C)(C2)[C@@H]1O
REMARK SMILES IDX 1 1 2 2 4 3 5 4 6 5 7 6 9 7 10 8 8 9 3 10 11 11
REMARK H PARENT 11 12
REMARK Flexibility Score: inf
ROOT
ATOM      1  C   UNL     1     116.435 116.363 115.661  1.00  0.00     0.014 C 
ATOM      2  C   UNL     1     116.860 116.368 117.150  1.00  0.00    -0.006 C 
ATOM      3  C   UNL     1     115.702 116.759 118.130  1.00  0.00    -0.002 C 
ATOM      4  C   UNL     1     114.415 115.967 117.824  1.00  0.00     0.005 C 
ATOM      5  C   UNL     1     114.796 114.532 118.219  1.00  0.00     0.010 C 
ATOM      6  C   UNL     1     116.216 114.705 118.805  1.00  0.00    -0.006 C 
ATOM      7  C   UNL     1     116.127 116.084 119.423  1.00  0.00     0.013 C 
ATOM      8  C   UNL     1     117.219 114.923 117.640  1.00  0.00     0.126 C 
ATOM      9  C   UNL     1     116.603 113.596 119.793  1.00  0.00     0.014 C 
ATOM     10  C   UNL     1     118.029 117.380 117.293  1.00  0.00     0.014 C 
ENDROOT
BRANCH   8  11
ATOM     11  O   UNL     1     118.544 114.832 118.106  1.00  0.00    -0.392 OA
ATOM     12  H   UNL     1     118.967 114.083 117.611  1.00  0.00     0.211 HD
ENDBRANCH   8  11
TORSDOF 1
ENDMDL
MODEL 8
REMARK VINA RESULT:    -3.434      1.911      3.074
REMARK INTER + INTRA:          -3.535
REMARK INTER:                  -3.535
REMARK INTRA:                   0.000
REMARK UNBOUND:                 0.000
REMARK SMILES CC1(C)[C@H]2CC[C@](C)(C2)[C@@H]1O
REMARK SMILES IDX 1 1 2 2 4 3 5 4 6 5 7 6 9 7 10 8 8 9 3 10 11 11
REMARK H PARENT 11 12
REMARK Flexibility Score: inf
ROOT
ATOM      1  C   UNL     1     118.108 114.099 117.687  1.00  0.00     0.014 C 
ATOM      2  C   UNL     1     117.770 115.494 118.269  1.00  0.00    -0.006 C 
ATOM      3  C   UNL     1     117.765 116.635 117.196  1.00  0.00    -0.002 C 
ATOM      4  C   UNL     1     116.946 116.234 115.952  1.00  0.00     0.005 C 
ATOM      5  C   UNL     1     115.508 116.194 116.489  1.00  0.00     0.010 C 
ATOM      6  C   UNL     1     115.673 116.685 117.946  1.00  0.00    -0.006 C 
ATOM      7  C   UNL     1     116.825 117.657 117.812  1.00  0.00     0.013 C 
ATOM      8  C   UNL     1     116.294 115.543 118.796  1.00  0.00     0.126 C 
ATOM      9  C   UNL     1     114.393 117.301 118.526  1.00  0.00     0.014 C 
ATOM     10  C   UNL     1     118.828 115.808 119.360  1.00  0.00     0.014 C 
ENDROOT
BRANCH   8  11
ATOM     11  O   UNL     1     116.228 115.857 120.166  1.00  0.00    -0.392 OA
ATOM     12  H   UNL     1     116.945 115.335 120.610  1.00  0.00     0.211 HD
ENDBRANCH   8  11
TORSDOF 1
ENDMDL
MODEL 9
REMARK VINA RESULT:    -3.411      1.754      2.927
REMARK INTER + INTRA:          -3.511
REMARK INTER:                  -3.511
REMARK INTRA:                   0.000
REMARK UNBOUND:                 0.000
REMARK SMILES CC1(C)[C@H]2CC[C@](C)(C2)[C@@H]1O
REMARK SMILES IDX 1 1 2 2 4 3 5 4 6 5 7 6 9 7 10 8 8 9 3 10 11 11
REMARK H PARENT 11 12
REMARK Flexibility Score: inf
ROOT
ATOM      1  C   UNL     1     119.045 118.140 117.724  1.00  0.00     0.014 C 
ATOM      2  C   UNL     1     117.617 117.844 118.243  1.00  0.00    -0.006 C 
ATOM      3  C   UNL     1     116.533 117.817 117.113  1.00  0.00    -0.002 C 
ATOM      4  C   UNL     1     116.985 116.949 115.920  1.00  0.00     0.005 C 
ATOM      5  C   UNL     1     116.974 115.530 116.508  1.00  0.00     0.010 C 
ATOM      6  C   UNL     1     116.410 115.754 117.931  1.00  0.00    -0.006 C 
ATOM      7  C   UNL     1     115.465 116.915 117.706  1.00  0.00     0.013 C 
ATOM      8  C   UNL     1     117.516 116.388 118.817  1.00  0.00     0.126 C 
ATOM      9  C   UNL     1     115.744 114.505 118.521  1.00  0.00     0.014 C 
ATOM     10  C   UNL     1     117.264 118.944 119.279  1.00  0.00     0.014 C 
ENDROOT
BRANCH   8  11
ATOM     11  O   UNL     1     117.131 116.375 120.171  1.00  0.00    -0.392 OA
ATOM     12  H   UNL     1     117.360 117.268 120.538  1.00  0.00     0.211 HD
ENDBRANCH   8  11
TORSDOF 1
ENDMDL
