MODEL 1
REMARK VINA RESULT:    -4.240      0.000      0.000
REMARK INTER + INTRA:          -6.332
REMARK INTER:                  -5.976
REMARK INTRA:                  -0.357
REMARK UNBOUND:                -0.357
REMARK SMILES CC1=CCC(=C(C)C)CCC(C)=CCC1
REMARK SMILES IDX 5 1 6 2 7 3 8 4 9 5 10 6 11 7 12 8 13 9 4 11 3 12 2 13 1 14
REMARK SMILES IDX 15 15 14 16
REMARK H PARENT
REMARK Flexibility Score: 60.00
ROOT
ATOM      1  C   UNL     1     142.196 146.358 163.737  1.00  0.00    -0.067 C 
ATOM      2  C   UNL     1     140.869 146.643 163.949  1.00  0.00    -0.077 C 
ATOM      3  C   UNL     1     139.766 145.800 163.341  1.00  0.00     0.039 C 
ATOM      4  C   UNL     1     140.447 147.826 164.798  1.00  0.00     0.039 C 
ENDROOT
BRANCH   1   5
ATOM      5  C   UNL     1     143.264 147.295 164.319  1.00  0.00     0.035 C 
BRANCH   5   6
ATOM      6  C   UNL     1     144.282 146.702 165.322  1.00  0.00     0.035 C 
BRANCH   6   7
ATOM      7  C   UNL     1     145.713 146.657 164.808  1.00  0.00    -0.077 C 
ATOM      8  C   UNL     1     146.372 147.941 164.365  1.00  0.00     0.039 C 
ATOM      9  C   UNL     1     146.407 145.506 164.635  1.00  0.00    -0.028 CG0
ATOM     10  G   UNL     1     145.893 144.107 164.886  1.00  0.00     0.000 G0
ENDBRANCH   6   7
ENDBRANCH   5   6
ENDBRANCH   1   5
BRANCH   1  11
ATOM     11  C   UNL     1     142.613 145.159 162.895  1.00  0.00     0.058 C 
BRANCH  11  12
ATOM     12  C   UNL     1     142.588 143.906 163.730  1.00  0.00    -0.024 C 
ATOM     13  C   UNL     1     143.674 143.181 164.082  1.00  0.00    -0.077 C 
ATOM     14  C   UNL     1     143.456 141.933 164.899  1.00  0.00     0.039 C 
BRANCH  13  15
ATOM     15  C   UNL     1     145.091 143.550 163.683  1.00  0.00     0.034 C 
BRANCH  15  16
ATOM     16  C   UNL     1     145.913 144.091 164.868  1.00  0.00     0.032 CG0
ATOM     17  G   UNL     1     146.399 145.505 164.647  1.00  0.00     0.000 G0
ENDBRANCH  15  16
ENDBRANCH  13  15
ENDBRANCH  11  12
ENDBRANCH   1  11
TORSDOF 0
ENDMDL
MODEL 2
REMARK VINA RESULT:    -4.211      1.604      4.417
REMARK INTER + INTRA:          -6.291
REMARK INTER:                  -5.950
REMARK INTRA:                  -0.341
REMARK UNBOUND:                -0.357
REMARK SMILES CC1=CCC(=C(C)C)CCC(C)=CCC1
REMARK SMILES IDX 5 1 6 2 7 3 8 4 9 5 10 6 11 7 12 8 13 9 4 11 3 12 2 13 1 14
REMARK SMILES IDX 15 15 14 16
REMARK H PARENT
REMARK Flexibility Score: 60.00
ROOT
ATOM      1  C   UNL     1     144.364 142.209 163.850  1.00  0.00    -0.067 C 
ATOM      2  C   UNL     1     144.122 140.890 164.143  1.00  0.00    -0.077 C 
ATOM      3  C   UNL     1     145.010 139.781 163.617  1.00  0.00     0.039 C 
ATOM      4  C   UNL     1     142.944 140.482 165.004  1.00  0.00     0.039 C 
ENDROOT
BRANCH   1   5
ATOM      5  C   UNL     1     143.384 143.280 164.351  1.00  0.00     0.035 C 
BRANCH   5   6
ATOM      6  C   UNL     1     143.917 144.353 165.328  1.00  0.00     0.035 C 
BRANCH   6   7
ATOM      7  C   UNL     1     143.950 145.762 164.754  1.00  0.00    -0.077 C 
ATOM      8  C   UNL     1     142.663 146.383 164.268  1.00  0.00     0.039 C 
ATOM      9  C   UNL     1     145.094 146.463 164.564  1.00  0.00    -0.028 CG0
ATOM     10  G   UNL     1     146.496 145.979 164.854  1.00  0.00     0.000 G0
ENDBRANCH   6   7
ENDBRANCH   5   6
ENDBRANCH   1   5
BRANCH   1  11
ATOM     11  C   UNL     1     145.559 142.614 162.996  1.00  0.00     0.058 C 
BRANCH  11  12
ATOM     12  C   UNL     1     146.811 142.637 163.833  1.00  0.00    -0.024 C 
ATOM     13  C   UNL     1     147.514 143.746 164.154  1.00  0.00    -0.077 C 
ATOM     14  C   UNL     1     148.764 143.576 164.980  1.00  0.00     0.039 C 
BRANCH  13  15
ATOM     15  C   UNL     1     147.120 145.144 163.713  1.00  0.00     0.034 C 
BRANCH  15  16
ATOM     16  C   UNL     1     146.515 145.973 164.861  1.00  0.00     0.032 CG0
ATOM     17  G   UNL     1     145.113 146.455 164.562  1.00  0.00     0.000 G0
ENDBRANCH  15  16
ENDBRANCH  13  15
ENDBRANCH  11  12
ENDBRANCH   1  11
TORSDOF 0
ENDMDL
MODEL 3
REMARK VINA RESULT:    -4.206      2.362      6.234
REMARK INTER + INTRA:          -6.284
REMARK INTER:                  -5.948
REMARK INTRA:                  -0.335
REMARK UNBOUND:                -0.357
REMARK SMILES CC1=CCC(=C(C)C)CCC(C)=CCC1
REMARK SMILES IDX 5 1 6 2 7 3 8 4 9 5 10 6 11 7 12 8 13 9 4 11 3 12 2 13 1 14
REMARK SMILES IDX 15 15 14 16
REMARK H PARENT
REMARK Flexibility Score: 60.00
ROOT
ATOM      1  C   UNL     1     148.529 144.319 163.853  1.00  0.00    -0.067 C 
ATOM      2  C   UNL     1     149.856 144.022 164.044  1.00  0.00    -0.077 C 
ATOM      3  C   UNL     1     150.956 144.853 163.416  1.00  0.00     0.039 C 
ATOM      4  C   UNL     1     150.280 142.838 164.889  1.00  0.00     0.039 C 
ENDROOT
BRANCH   1   5
ATOM      5  C   UNL     1     147.461 143.393 164.454  1.00  0.00     0.035 C 
BRANCH   5   6
ATOM      6  C   UNL     1     146.367 144.028 165.344  1.00  0.00     0.035 C 
BRANCH   6   7
ATOM      7  C   UNL     1     144.984 144.057 164.711  1.00  0.00    -0.077 C 
ATOM      8  C   UNL     1     144.382 142.768 164.210  1.00  0.00     0.039 C 
ATOM      9  C   UNL     1     144.293 145.201 164.482  1.00  0.00    -0.028 CG0
ATOM     10  G   UNL     1     144.767 146.605 164.780  1.00  0.00     0.000 G0
ENDBRANCH   6   7
ENDBRANCH   5   6
ENDBRANCH   1   5
BRANCH   1  11
ATOM     11  C   UNL     1     148.109 145.519 163.014  1.00  0.00     0.058 C 
BRANCH  11  12
ATOM     12  C   UNL     1     148.128 146.770 163.853  1.00  0.00    -0.024 C 
ATOM     13  C   UNL     1     147.048 147.528 164.146  1.00  0.00    -0.077 C 
ATOM     14  C   UNL     1     147.259 148.767 164.978  1.00  0.00     0.039 C 
BRANCH  13  15
ATOM     15  C   UNL     1     145.644 147.206 163.667  1.00  0.00     0.034 C 
BRANCH  15  16
ATOM     16  C   UNL     1     144.765 146.611 164.783  1.00  0.00     0.032 CG0
ATOM     17  G   UNL     1     144.307 145.202 164.481  1.00  0.00     0.000 G0
ENDBRANCH  15  16
ENDBRANCH  13  15
ENDBRANCH  11  12
ENDBRANCH   1  11
TORSDOF 0
ENDMDL
MODEL 4
REMARK VINA RESULT:    -4.170      2.525      4.613
REMARK INTER + INTRA:          -6.233
REMARK INTER:                  -6.018
REMARK INTRA:                  -0.215
REMARK UNBOUND:                -0.357
REMARK SMILES CC1=CCC(=C(C)C)CCC(C)=CCC1
REMARK SMILES IDX 5 1 6 2 7 3 8 4 9 5 10 6 11 7 12 8 13 9 4 11 3 12 2 13 1 14
REMARK SMILES IDX 15 15 14 16
REMARK H PARENT
REMARK Flexibility Score: 60.00
ROOT
ATOM      1  C   UNL     1     144.915 148.685 163.144  1.00  0.00    -0.067 C 
ATOM      2  C   UNL     1     145.553 149.870 162.876  1.00  0.00    -0.077 C 
ATOM      3  C   UNL     1     145.995 150.238 161.475  1.00  0.00     0.039 C 
ATOM      4  C   UNL     1     145.852 150.866 163.979  1.00  0.00     0.039 C 
ENDROOT
BRANCH   1   5
ATOM      5  C   UNL     1     144.559 148.338 164.598  1.00  0.00     0.035 C 
BRANCH   5   6
ATOM      6  C   UNL     1     143.365 147.387 164.846  1.00  0.00     0.035 C 
BRANCH   6   7
ATOM      7  C   UNL     1     143.720 145.909 164.793  1.00  0.00    -0.077 C 
ATOM      8  C   UNL     1     144.920 145.417 165.564  1.00  0.00     0.039 C 
ATOM      9  C   UNL     1     143.070 145.014 164.009  1.00  0.00    -0.028 CG0
ATOM     10  G   UNL     1     141.933 145.318 163.060  1.00  0.00     0.000 G0
ENDBRANCH   6   7
ENDBRANCH   5   6
ENDBRANCH   1   5
BRANCH   1  11
ATOM     11  C   UNL     1     144.604 147.695 162.029  1.00  0.00     0.058 C 
BRANCH  11  12
ATOM     12  C   UNL     1     143.248 147.987 161.440  1.00  0.00    -0.024 C 
ATOM     13  C   UNL     1     142.269 147.075 161.247  1.00  0.00    -0.077 C 
ATOM     14  C   UNL     1     140.983 147.543 160.615  1.00  0.00     0.039 C 
BRANCH  13  15
ATOM     15  C   UNL     1     142.405 145.610 161.616  1.00  0.00     0.034 C 
BRANCH  15  16
ATOM     16  C   UNL     1     141.921 145.317 163.049  1.00  0.00     0.032 CG0
ATOM     17  G   UNL     1     143.054 145.006 164.000  1.00  0.00     0.000 G0
ENDBRANCH  15  16
ENDBRANCH  13  15
ENDBRANCH  11  12
ENDBRANCH   1  11
TORSDOF 0
ENDMDL
MODEL 5
REMARK VINA RESULT:    -4.149      1.760      4.401
REMARK INTER + INTRA:          -6.204
REMARK INTER:                  -5.891
REMARK INTRA:                  -0.313
REMARK UNBOUND:                -0.357
REMARK SMILES CC1=CCC(=C(C)C)CCC(C)=CCC1
REMARK SMILES IDX 5 1 6 2 7 3 8 4 9 5 10 6 11 7 12 8 13 9 4 11 3 12 2 13 1 14
REMARK SMILES IDX 15 15 14 16
REMARK H PARENT
REMARK Flexibility Score: 60.00
ROOT
ATOM      1  C   UNL     1     144.569 142.097 164.747  1.00  0.00    -0.067 C 
ATOM      2  C   UNL     1     144.103 140.808 164.668  1.00  0.00    -0.077 C 
ATOM      3  C   UNL     1     142.694 140.442 165.088  1.00  0.00     0.039 C 
ATOM      4  C   UNL     1     144.986 139.685 164.161  1.00  0.00     0.039 C 
ENDROOT
BRANCH   1   5
ATOM      5  C   UNL     1     146.030 142.389 164.376  1.00  0.00     0.035 C 
BRANCH   5   6
ATOM      6  C   UNL     1     146.303 143.422 163.258  1.00  0.00     0.035 C 
BRANCH   6   7
ATOM      7  C   UNL     1     146.778 144.777 163.760  1.00  0.00    -0.077 C 
ATOM      8  C   UNL     1     148.037 144.851 164.588  1.00  0.00     0.039 C 
ATOM      9  C   UNL     1     146.076 145.924 163.586  1.00  0.00    -0.028 CG0
ATOM     10  G   UNL     1     144.731 146.053 162.908  1.00  0.00     0.000 G0
ENDBRANCH   6   7
ENDBRANCH   5   6
ENDBRANCH   1   5
BRANCH   1  11
ATOM     11  C   UNL     1     143.671 143.223 165.243  1.00  0.00     0.058 C 
BRANCH  11  12
ATOM     12  C   UNL     1     142.683 143.607 164.174  1.00  0.00    -0.024 C 
ATOM     13  C   UNL     1     142.612 144.817 163.575  1.00  0.00    -0.077 C 
ATOM     14  C   UNL     1     141.536 145.034 162.542  1.00  0.00     0.039 C 
BRANCH  13  15
ATOM     15  C   UNL     1     143.548 145.967 163.900  1.00  0.00     0.034 C 
BRANCH  15  16
ATOM     16  C   UNL     1     144.723 146.067 162.909  1.00  0.00     0.032 CG0
ATOM     17  G   UNL     1     146.071 145.939 163.583  1.00  0.00     0.000 G0
ENDBRANCH  15  16
ENDBRANCH  13  15
ENDBRANCH  11  12
ENDBRANCH   1  11
TORSDOF 0
ENDMDL
MODEL 6
REMARK VINA RESULT:    -4.083      1.471      4.225
REMARK INTER + INTRA:          -6.110
REMARK INTER:                  -5.824
REMARK INTRA:                  -0.286
REMARK UNBOUND:                -0.357
REMARK SMILES CC1=CCC(=C(C)C)CCC(C)=CCC1
REMARK SMILES IDX 5 1 6 2 7 3 8 4 9 5 10 6 11 7 12 8 13 9 4 11 3 12 2 13 1 14
REMARK SMILES IDX 15 15 14 16
REMARK H PARENT
REMARK Flexibility Score: 60.00
ROOT
ATOM      1  C   UNL     1     145.831 147.995 164.015  1.00  0.00    -0.067 C 
ATOM      2  C   UNL     1     146.284 149.290 163.950  1.00  0.00    -0.077 C 
ATOM      3  C   UNL     1     145.656 150.308 163.020  1.00  0.00     0.039 C 
ATOM      4  C   UNL     1     147.446 149.758 164.804  1.00  0.00     0.039 C 
ENDROOT
BRANCH   1   5
ATOM      5  C   UNL     1     146.559 146.992 164.922  1.00  0.00     0.035 C 
BRANCH   5   6
ATOM      6  C   UNL     1     145.722 145.876 165.588  1.00  0.00     0.035 C 
BRANCH   6   7
ATOM      7  C   UNL     1     145.698 144.565 164.816  1.00  0.00    -0.077 C 
ATOM      8  C   UNL     1     147.000 143.984 164.321  1.00  0.00     0.039 C 
ATOM      9  C   UNL     1     144.555 143.930 164.459  1.00  0.00    -0.028 CG0
ATOM     10  G   UNL     1     143.147 144.407 164.733  1.00  0.00     0.000 G0
ENDBRANCH   6   7
ENDBRANCH   5   6
ENDBRANCH   1   5
BRANCH   1  11
ATOM     11  C   UNL     1     144.654 147.536 163.165  1.00  0.00     0.058 C 
BRANCH  11  12
ATOM     12  C   UNL     1     143.364 147.729 163.918  1.00  0.00    -0.024 C 
ATOM     13  C   UNL     1     142.437 146.769 164.135  1.00  0.00    -0.077 C 
ATOM     14  C   UNL     1     141.187 147.151 164.887  1.00  0.00     0.039 C 
BRANCH  13  15
ATOM     15  C   UNL     1     142.583 145.339 163.650  1.00  0.00     0.034 C 
BRANCH  15  16
ATOM     16  C   UNL     1     143.131 144.400 164.741  1.00  0.00     0.032 CG0
ATOM     17  G   UNL     1     144.542 143.936 164.462  1.00  0.00     0.000 G0
ENDBRANCH  15  16
ENDBRANCH  13  15
ENDBRANCH  11  12
ENDBRANCH   1  11
TORSDOF 0
ENDMDL
MODEL 7
REMARK VINA RESULT:    -4.071      3.348      6.602
REMARK INTER + INTRA:          -6.094
REMARK INTER:                  -5.838
REMARK INTRA:                  -0.256
REMARK UNBOUND:                -0.357
REMARK SMILES CC1=CCC(=C(C)C)CCC(C)=CCC1
REMARK SMILES IDX 5 1 6 2 7 3 8 4 9 5 10 6 11 7 12 8 13 9 4 11 3 12 2 13 1 14
REMARK SMILES IDX 15 15 14 16
REMARK H PARENT
REMARK Flexibility Score: 60.00
ROOT
ATOM      1  C   UNL     1     148.625 145.996 163.205  1.00  0.00    -0.067 C 
ATOM      2  C   UNL     1     149.864 145.407 163.161  1.00  0.00    -0.077 C 
ATOM      3  C   UNL     1     150.483 144.947 161.857  1.00  0.00     0.039 C 
ATOM      4  C   UNL     1     150.670 145.182 164.426  1.00  0.00     0.039 C 
ENDROOT
BRANCH   1   5
ATOM      5  C   UNL     1     148.021 146.371 164.567  1.00  0.00     0.035 C 
BRANCH   5   6
ATOM      6  C   UNL     1     147.124 147.628 164.642  1.00  0.00     0.035 C 
BRANCH   6   7
ATOM      7  C   UNL     1     145.648 147.360 164.384  1.00  0.00    -0.077 C 
ATOM      8  C   UNL     1     144.966 146.243 165.136  1.00  0.00     0.039 C 
ATOM      9  C   UNL     1     144.926 148.010 163.440  1.00  0.00    -0.028 CG0
ATOM     10  G   UNL     1     145.445 149.064 162.487  1.00  0.00     0.000 G0
ENDBRANCH   6   7
ENDBRANCH   5   6
ENDBRANCH   1   5
BRANCH   1  11
ATOM     11  C   UNL     1     147.827 146.233 161.929  1.00  0.00     0.058 C 
BRANCH  11  12
ATOM     12  C   UNL     1     148.236 147.537 161.296  1.00  0.00    -0.024 C 
ATOM     13  C   UNL     1     147.391 148.528 160.934  1.00  0.00    -0.077 C 
ATOM     14  C   UNL     1     147.978 149.755 160.284  1.00  0.00     0.039 C 
BRANCH  13  15
ATOM     15  C   UNL     1     145.888 148.460 161.134  1.00  0.00     0.034 C 
BRANCH  15  16
ATOM     16  C   UNL     1     145.446 149.062 162.481  1.00  0.00     0.032 CG0
ATOM     17  G   UNL     1     144.926 148.021 163.446  1.00  0.00     0.000 G0
ENDBRANCH  15  16
ENDBRANCH  13  15
ENDBRANCH  11  12
ENDBRANCH   1  11
TORSDOF 0
ENDMDL
MODEL 8
REMARK VINA RESULT:    -4.067      2.179      3.047
REMARK INTER + INTRA:          -6.088
REMARK INTER:                  -5.804
REMARK INTRA:                  -0.284
REMARK UNBOUND:                -0.357
REMARK SMILES CC1=CCC(=C(C)C)CCC(C)=CCC1
REMARK SMILES IDX 5 1 6 2 7 3 8 4 9 5 10 6 11 7 12 8 13 9 4 11 3 12 2 13 1 14
REMARK SMILES IDX 15 15 14 16
REMARK H PARENT
REMARK Flexibility Score: 60.00
ROOT
ATOM      1  C   UNL     1     142.270 144.816 162.967  1.00  0.00    -0.067 C 
ATOM      2  C   UNL     1     141.049 145.445 162.946  1.00  0.00    -0.077 C 
ATOM      3  C   UNL     1     140.399 145.879 161.648  1.00  0.00     0.039 C 
ATOM      4  C   UNL     1     140.298 145.743 164.228  1.00  0.00     0.039 C 
ENDROOT
BRANCH   1   5
ATOM      5  C   UNL     1     142.909 144.470 164.320  1.00  0.00     0.035 C 
BRANCH   5   6
ATOM      6  C   UNL     1     143.670 143.128 164.441  1.00  0.00     0.035 C 
BRANCH   6   7
ATOM      7  C   UNL     1     145.184 143.257 164.350  1.00  0.00    -0.077 C 
ATOM      8  C   UNL     1     145.881 144.296 165.193  1.00  0.00     0.039 C 
ATOM      9  C   UNL     1     145.941 142.550 163.476  1.00  0.00    -0.028 CG0
ATOM     10  G   UNL     1     145.432 141.560 162.452  1.00  0.00     0.000 G0
ENDBRANCH   6   7
ENDBRANCH   5   6
ENDBRANCH   1   5
BRANCH   1  11
ATOM     11  C   UNL     1     143.012 144.506 161.674  1.00  0.00     0.058 C 
BRANCH  11  12
ATOM     12  C   UNL     1     142.625 143.141 161.168  1.00  0.00    -0.024 C 
ATOM     13  C   UNL     1     143.485 142.128 160.919  1.00  0.00    -0.077 C 
ATOM     14  C   UNL     1     142.920 140.837 160.386  1.00  0.00     0.039 C 
BRANCH  13  15
ATOM     15  C   UNL     1     144.983 142.232 161.134  1.00  0.00     0.034 C 
BRANCH  15  16
ATOM     16  C   UNL     1     145.437 141.565 162.446  1.00  0.00     0.032 CG0
ATOM     17  G   UNL     1     145.946 142.560 163.465  1.00  0.00     0.000 G0
ENDBRANCH  15  16
ENDBRANCH  13  15
ENDBRANCH  11  12
ENDBRANCH   1  11
TORSDOF 0
ENDMDL
MODEL 9
REMARK VINA RESULT:    -3.992      2.790      4.589
REMARK INTER + INTRA:          -5.983
REMARK INTER:                  -5.624
REMARK INTRA:                  -0.359
REMARK UNBOUND:                -0.357
REMARK SMILES CC1=CCC(=C(C)C)CCC(C)=CCC1
REMARK SMILES IDX 5 1 6 2 7 3 8 4 9 5 10 6 11 7 12 8 13 9 4 11 3 12 2 13 1 14
REMARK SMILES IDX 15 15 14 16
REMARK H PARENT
REMARK Flexibility Score: 60.00
ROOT
ATOM      1  C   UNL     1     146.217 148.603 164.695  1.00  0.00    -0.067 C 
ATOM      2  C   UNL     1     146.671 149.892 164.832  1.00  0.00    -0.077 C 
ATOM      3  C   UNL     1     148.105 150.195 165.218  1.00  0.00     0.039 C 
ATOM      4  C   UNL     1     145.750 151.075 164.611  1.00  0.00     0.039 C 
ENDROOT
BRANCH   1   5
ATOM      5  C   UNL     1     144.734 148.363 164.376  1.00  0.00     0.035 C 
BRANCH   5   6
ATOM      6  C   UNL     1     144.306 148.341 162.890  1.00  0.00     0.035 C 
BRANCH   6   7
ATOM      7  C   UNL     1     145.465 148.323 161.905  1.00  0.00    -0.077 C 
ATOM      8  C   UNL     1     145.906 149.620 161.272  1.00  0.00     0.039 C 
ATOM      9  C   UNL     1     146.070 147.185 161.485  1.00  0.00    -0.028 CG0
ATOM     10  G   UNL     1     145.697 145.776 161.886  1.00  0.00     0.000 G0
ENDBRANCH   6   7
ENDBRANCH   5   6
ENDBRANCH   1   5
BRANCH   1  11
ATOM     11  C   UNL     1     147.151 147.419 164.905  1.00  0.00     0.058 C 
BRANCH  11  12
ATOM     12  C   UNL     1     146.354 146.173 165.190  1.00  0.00    -0.024 C 
ATOM     13  C   UNL     1     146.134 145.169 164.312  1.00  0.00    -0.077 C 
ATOM     14  C   UNL     1     145.284 144.009 164.763  1.00  0.00     0.039 C 
BRANCH  13  15
ATOM     15  C   UNL     1     146.684 145.160 162.897  1.00  0.00     0.034 C 
BRANCH  15  16
ATOM     16  C   UNL     1     145.701 145.770 161.880  1.00  0.00     0.032 CG0
ATOM     17  G   UNL     1     146.057 147.188 161.498  1.00  0.00     0.000 G0
ENDBRANCH  15  16
ENDBRANCH  13  15
ENDBRANCH  11  12
ENDBRANCH   1  11
TORSDOF 0
ENDMDL
