MODEL 1
REMARK VINA RESULT:    -3.213      0.000      0.000
REMARK INTER + INTRA:          -3.892
REMARK INTER:                  -3.776
REMARK INTRA:                  -0.116
REMARK UNBOUND:                -0.116
REMARK SMILES O=C([O-])CCC(=O)[O-]
REMARK SMILES IDX 4 1 2 2 1 3 3 4 5 5 6 6 7 7 8 8
REMARK H PARENT
REMARK Flexibility Score: inf
ROOT
ATOM      1  C   UNL     1     -33.597  -3.882  -1.080  1.00  0.00     0.059 C 
ENDROOT
BRANCH   1   2
ATOM      2  C   UNL     1     -33.598  -4.424  -2.474  1.00  0.00     0.042 C 
ATOM      3  O   UNL     1     -32.799  -3.967  -3.332  1.00  0.00    -0.550 OA
ATOM      4  O   UNL     1     -34.447  -5.471  -2.812  1.00  0.00    -0.550 OA
ENDBRANCH   1   2
BRANCH   1   5
ATOM      5  C   UNL     1     -34.893  -3.119  -0.802  1.00  0.00     0.059 C 
BRANCH   5   6
ATOM      6  C   UNL     1     -35.794  -3.924   0.081  1.00  0.00     0.042 C 
ATOM      7  O   UNL     1     -35.618  -3.930   1.328  1.00  0.00    -0.550 OA
ATOM      8  O   UNL     1     -36.859  -4.628  -0.467  1.00  0.00    -0.550 OA
ENDBRANCH   5   6
ENDBRANCH   1   5
TORSDOF 3
ENDMDL
MODEL 2
REMARK VINA RESULT:    -3.185      0.982      1.437
REMARK INTER + INTRA:          -3.859
REMARK INTER:                  -3.741
REMARK INTRA:                  -0.118
REMARK UNBOUND:                -0.116
REMARK SMILES O=C([O-])CCC(=O)[O-]
REMARK SMILES IDX 4 1 2 2 1 3 3 4 5 5 6 6 7 7 8 8
REMARK H PARENT
REMARK Flexibility Score: inf
ROOT
ATOM      1  C   UNL     1     -34.453  -3.274  -1.220  1.00  0.00     0.059 C 
ENDROOT
BRANCH   1   2
ATOM      2  C   UNL     1     -33.695  -4.319  -1.975  1.00  0.00     0.042 C 
ATOM      3  O   UNL     1     -33.602  -5.489  -1.519  1.00  0.00    -0.550 OA
ATOM      4  O   UNL     1     -33.133  -4.015  -3.210  1.00  0.00    -0.550 OA
ENDBRANCH   1   2
BRANCH   1   5
ATOM      5  C   UNL     1     -34.923  -3.823   0.128  1.00  0.00     0.059 C 
BRANCH   5   6
ATOM      6  C   UNL     1     -36.413  -3.950   0.149  1.00  0.00     0.042 C 
ATOM      7  O   UNL     1     -37.105  -3.175   0.862  1.00  0.00    -0.550 OA
ATOM      8  O   UNL     1     -37.043  -4.891  -0.656  1.00  0.00    -0.550 OA
ENDBRANCH   5   6
ENDBRANCH   1   5
TORSDOF 3
ENDMDL
MODEL 3
REMARK VINA RESULT:    -3.176      0.969      3.835
REMARK INTER + INTRA:          -3.849
REMARK INTER:                  -3.728
REMARK INTRA:                  -0.121
REMARK UNBOUND:                -0.116
REMARK SMILES O=C([O-])CCC(=O)[O-]
REMARK SMILES IDX 4 1 2 2 1 3 3 4 5 5 6 6 7 7 8 8
REMARK H PARENT
REMARK Flexibility Score: inf
ROOT
ATOM      1  C   UNL     1     -34.852  -3.741   0.048  1.00  0.00     0.059 C 
ENDROOT
BRANCH   1   2
ATOM      2  C   UNL     1     -36.336  -3.911   0.126  1.00  0.00     0.042 C 
ATOM      3  O   UNL     1     -36.909  -4.800  -0.558  1.00  0.00    -0.550 OA
ATOM      4  O   UNL     1     -37.082  -3.121   0.992  1.00  0.00    -0.550 OA
ENDBRANCH   1   2
BRANCH   1   5
ATOM      5  C   UNL     1     -34.437  -3.294  -1.354  1.00  0.00     0.059 C 
BRANCH   5   6
ATOM      6  C   UNL     1     -33.612  -4.351  -2.017  1.00  0.00     0.042 C 
ATOM      7  O   UNL     1     -33.578  -5.518  -1.544  1.00  0.00    -0.550 OA
ATOM      8  O   UNL     1     -32.920  -4.062  -3.187  1.00  0.00    -0.550 OA
ENDBRANCH   5   6
ENDBRANCH   1   5
TORSDOF 3
ENDMDL
MODEL 4
REMARK VINA RESULT:    -3.133      0.997      1.740
REMARK INTER + INTRA:          -3.799
REMARK INTER:                  -3.679
REMARK INTRA:                  -0.120
REMARK UNBOUND:                -0.116
REMARK SMILES O=C([O-])CCC(=O)[O-]
REMARK SMILES IDX 4 1 2 2 1 3 3 4 5 5 6 6 7 7 8 8
REMARK H PARENT
REMARK Flexibility Score: inf
ROOT
ATOM      1  C   UNL     1     -34.489  -3.343  -1.368  1.00  0.00     0.059 C 
ENDROOT
BRANCH   1   2
ATOM      2  C   UNL     1     -33.711  -4.452  -2.003  1.00  0.00     0.042 C 
ATOM      3  O   UNL     1     -33.666  -5.586  -1.459  1.00  0.00    -0.550 OA
ATOM      4  O   UNL     1     -33.077  -4.248  -3.223  1.00  0.00    -0.550 OA
ENDBRANCH   1   2
BRANCH   1   5
ATOM      5  C   UNL     1     -34.916  -3.731   0.047  1.00  0.00     0.059 C 
BRANCH   5   6
ATOM      6  C   UNL     1     -36.403  -3.873   0.124  1.00  0.00     0.042 C 
ATOM      7  O   UNL     1     -37.002  -4.688  -0.627  1.00  0.00    -0.550 OA
ATOM      8  O   UNL     1     -37.125  -3.141   1.059  1.00  0.00    -0.550 OA
ENDBRANCH   5   6
ENDBRANCH   1   5
TORSDOF 3
ENDMDL
MODEL 5
REMARK VINA RESULT:    -3.104      1.199      3.875
REMARK INTER + INTRA:          -3.764
REMARK INTER:                  -3.649
REMARK INTRA:                  -0.115
REMARK UNBOUND:                -0.116
REMARK SMILES O=C([O-])CCC(=O)[O-]
REMARK SMILES IDX 4 1 2 2 1 3 3 4 5 5 6 6 7 7 8 8
REMARK H PARENT
REMARK Flexibility Score: inf
ROOT
ATOM      1  C   UNL     1     -35.653  -4.030  -0.605  1.00  0.00     0.059 C 
ENDROOT
BRANCH   1   2
ATOM      2  C   UNL     1     -35.565  -3.809   0.872  1.00  0.00     0.042 C 
ATOM      3  O   UNL     1     -34.468  -3.488   1.400  1.00  0.00    -0.550 OA
ATOM      4  O   UNL     1     -36.706  -3.908   1.659  1.00  0.00    -0.550 OA
ENDBRANCH   1   2
BRANCH   1   5
ATOM      5  C   UNL     1     -34.476  -3.362  -1.317  1.00  0.00     0.059 C 
BRANCH   5   6
ATOM      6  C   UNL     1     -33.621  -4.389  -1.989  1.00  0.00     0.042 C 
ATOM      7  O   UNL     1     -33.477  -5.529  -1.475  1.00  0.00    -0.550 OA
ATOM      8  O   UNL     1     -33.020  -4.104  -3.210  1.00  0.00    -0.550 OA
ENDBRANCH   5   6
ENDBRANCH   1   5
TORSDOF 3
ENDMDL
MODEL 6
REMARK VINA RESULT:    -3.095      1.185      1.818
REMARK INTER + INTRA:          -3.754
REMARK INTER:                  -3.651
REMARK INTRA:                  -0.103
REMARK UNBOUND:                -0.116
REMARK SMILES O=C([O-])CCC(=O)[O-]
REMARK SMILES IDX 4 1 2 2 1 3 3 4 5 5 6 6 7 7 8 8
REMARK H PARENT
REMARK Flexibility Score: inf
ROOT
ATOM      1  C   UNL     1     -34.502  -3.481  -1.346  1.00  0.00     0.059 C 
ENDROOT
BRANCH   1   2
ATOM      2  C   UNL     1     -33.601  -4.481  -1.999  1.00  0.00     0.042 C 
ATOM      3  O   UNL     1     -33.427  -5.612  -1.477  1.00  0.00    -0.550 OA
ATOM      4  O   UNL     1     -32.993  -4.181  -3.212  1.00  0.00    -0.550 OA
ENDBRANCH   1   2
BRANCH   1   5
ATOM      5  C   UNL     1     -35.625  -4.188  -0.587  1.00  0.00     0.059 C 
BRANCH   5   6
ATOM      6  C   UNL     1     -35.631  -3.769   0.849  1.00  0.00     0.042 C 
ATOM      7  O   UNL     1     -36.703  -3.782   1.509  1.00  0.00    -0.550 OA
ATOM      8  O   UNL     1     -34.442  -3.409   1.473  1.00  0.00    -0.550 OA
ENDBRANCH   5   6
ENDBRANCH   1   5
TORSDOF 3
ENDMDL
MODEL 7
REMARK VINA RESULT:    -2.909     13.670     14.411
REMARK INTER + INTRA:          -3.535
REMARK INTER:                  -3.452
REMARK INTRA:                  -0.083
REMARK UNBOUND:                -0.116
REMARK SMILES O=C([O-])CCC(=O)[O-]
REMARK SMILES IDX 4 1 2 2 1 3 3 4 5 5 6 6 7 7 8 8
REMARK H PARENT
REMARK Flexibility Score: inf
ROOT
ATOM      1  C   UNL     1     -23.948   0.663  -8.548  1.00  0.00     0.059 C 
ENDROOT
BRANCH   1   2
ATOM      2  C   UNL     1     -23.324   0.036  -9.755  1.00  0.00     0.042 C 
ATOM      3  O   UNL     1     -23.448   0.576 -10.885  1.00  0.00    -0.550 OA
ATOM      4  O   UNL     1     -22.562  -1.119  -9.623  1.00  0.00    -0.550 OA
ENDBRANCH   1   2
BRANCH   1   5
ATOM      5  C   UNL     1     -25.049   1.640  -8.962  1.00  0.00     0.059 C 
BRANCH   5   6
ATOM      6  C   UNL     1     -24.904   2.933  -8.224  1.00  0.00     0.042 C 
ATOM      7  O   UNL     1     -23.777   3.488  -8.132  1.00  0.00    -0.550 OA
ATOM      8  O   UNL     1     -26.023   3.552  -7.679  1.00  0.00    -0.550 OA
ENDBRANCH   5   6
ENDBRANCH   1   5
TORSDOF 3
ENDMDL
MODEL 8
REMARK VINA RESULT:    -2.848      1.974      2.431
REMARK INTER + INTRA:          -3.463
REMARK INTER:                  -3.293
REMARK INTRA:                  -0.171
REMARK UNBOUND:                -0.116
REMARK SMILES O=C([O-])CCC(=O)[O-]
REMARK SMILES IDX 4 1 2 2 1 3 3 4 5 5 6 6 7 7 8 8
REMARK H PARENT
REMARK Flexibility Score: inf
ROOT
ATOM      1  C   UNL     1     -35.213  -4.115  -1.068  1.00  0.00     0.059 C 
ENDROOT
BRANCH   1   2
ATOM      2  C   UNL     1     -34.002  -4.646  -1.768  1.00  0.00     0.042 C 
ATOM      3  O   UNL     1     -33.521  -4.032  -2.755  1.00  0.00    -0.550 OA
ATOM      4  O   UNL     1     -33.376  -5.794  -1.298  1.00  0.00    -0.550 OA
ENDBRANCH   1   2
BRANCH   1   5
ATOM      5  C   UNL     1     -34.905  -3.848   0.406  1.00  0.00     0.059 C 
BRANCH   5   6
ATOM      6  C   UNL     1     -33.872  -2.774   0.537  1.00  0.00     0.042 C 
ATOM      7  O   UNL     1     -34.049  -1.654  -0.013  1.00  0.00    -0.550 OA
ATOM      8  O   UNL     1     -32.736  -2.991   1.307  1.00  0.00    -0.550 OA
ENDBRANCH   5   6
ENDBRANCH   1   5
TORSDOF 3
ENDMDL
MODEL 9
REMARK VINA RESULT:    -2.755     13.629     14.799
REMARK INTER + INTRA:          -3.355
REMARK INTER:                  -3.239
REMARK INTRA:                  -0.116
REMARK UNBOUND:                -0.116
REMARK SMILES O=C([O-])CCC(=O)[O-]
REMARK SMILES IDX 4 1 2 2 1 3 3 4 5 5 6 6 7 7 8 8
REMARK H PARENT
REMARK Flexibility Score: inf
ROOT
ATOM      1  C   UNL     1     -25.139   1.712  -9.524  1.00  0.00     0.059 C 
ENDROOT
BRANCH   1   2
ATOM      2  C   UNL     1     -24.258   0.951  -8.583  1.00  0.00     0.042 C 
ATOM      3  O   UNL     1     -24.355   1.129  -7.341  1.00  0.00    -0.550 OA
ATOM      4  O   UNL     1     -23.366   0.007  -9.076  1.00  0.00    -0.550 OA
ENDBRANCH   1   2
BRANCH   1   5
ATOM      5  C   UNL     1     -25.502   3.074  -8.932  1.00  0.00     0.059 C 
BRANCH   5   6
ATOM      6  C   UNL     1     -24.384   4.047  -9.134  1.00  0.00     0.042 C 
ATOM      7  O   UNL     1     -23.952   4.726  -8.166  1.00  0.00    -0.550 OA
ATOM      8  O   UNL     1     -23.785   4.169 -10.382  1.00  0.00    -0.550 OA
ENDBRANCH   5   6
ENDBRANCH   1   5
TORSDOF 3
ENDMDL
