MODEL 1
REMARK VINA RESULT:    -3.788      0.000      0.000
REMARK INTER + INTRA:          -7.824
REMARK INTER:                  -6.445
REMARK INTRA:                  -1.379
REMARK UNBOUND:                -1.379
REMARK SMILES CCCCCCCCCCCCCC(=O)[O-]
REMARK SMILES IDX 8 1 9 2 10 3 11 4 12 5 13 6 14 7 15 8 16 9 7 10 6 11 5 12
REMARK SMILES IDX 4 13 3 14 2 15 1 16
REMARK H PARENT
REMARK Flexibility Score: inf
ROOT
ATOM      1  C   UNL     1      33.432  47.423  25.088  1.00  0.00     0.000 C 
ENDROOT
BRANCH   1   2
ATOM      2  C   UNL     1      32.832  46.988  26.436  1.00  0.00     0.000 C 
BRANCH   2   3
ATOM      3  C   UNL     1      32.468  45.493  26.465  1.00  0.00     0.000 C 
BRANCH   3   4
ATOM      4  C   UNL     1      33.560  44.609  25.838  1.00  0.00     0.000 C 
BRANCH   4   5
ATOM      5  C   UNL     1      34.721  44.321  26.807  1.00  0.00     0.006 C 
BRANCH   5   6
ATOM      6  C   UNL     1      36.115  44.637  26.241  1.00  0.00     0.053 C 
BRANCH   6   7
ATOM      7  C   UNL     1      36.844  43.399  25.819  1.00  0.00     0.041 C 
ATOM      8  O   UNL     1      38.020  43.188  26.220  1.00  0.00    -0.550 OA
ATOM      9  O   UNL     1      36.238  42.494  24.957  1.00  0.00    -0.550 OA
ENDBRANCH   6   7
ENDBRANCH   5   6
ENDBRANCH   4   5
ENDBRANCH   3   4
ENDBRANCH   2   3
ENDBRANCH   1   2
BRANCH   1  10
ATOM     10  C   UNL     1      34.686  48.297  25.253  1.00  0.00     0.000 C 
BRANCH  10  11
ATOM     11  C   UNL     1      34.691  49.085  26.572  1.00  0.00    -0.000 C 
BRANCH  11  12
ATOM     12  C   UNL     1      34.355  50.561  26.332  1.00  0.00    -0.000 C 
BRANCH  12  13
ATOM     13  C   UNL     1      32.994  50.922  26.947  1.00  0.00    -0.000 C 
BRANCH  13  14
ATOM     14  C   UNL     1      31.989  51.433  25.903  1.00  0.00    -0.000 C 
BRANCH  14  15
ATOM     15  C   UNL     1      31.335  50.294  25.104  1.00  0.00    -0.003 C 
ATOM     16  C   UNL     1      30.856  50.784  23.741  1.00  0.00     0.004 C 
ENDBRANCH  14  15
ENDBRANCH  13  14
ENDBRANCH  12  13
ENDBRANCH  11  12
ENDBRANCH  10  11
ENDBRANCH   1  10
TORSDOF 12
ENDMDL
MODEL 2
REMARK VINA RESULT:    -3.711      2.445      4.320
REMARK INTER + INTRA:          -7.693
REMARK INTER:                  -6.434
REMARK INTRA:                  -1.259
REMARK UNBOUND:                -1.379
REMARK SMILES CCCCCCCCCCCCCC(=O)[O-]
REMARK SMILES IDX 8 1 9 2 10 3 11 4 12 5 13 6 14 7 15 8 16 9 7 10 6 11 5 12
REMARK SMILES IDX 4 13 3 14 2 15 1 16
REMARK H PARENT
REMARK Flexibility Score: inf
ROOT
ATOM      1  C   UNL     1      31.665  50.246  24.799  1.00  0.00     0.000 C 
ENDROOT
BRANCH   1   2
ATOM      2  C   UNL     1      32.862  50.623  25.690  1.00  0.00     0.000 C 
BRANCH   2   3
ATOM      3  C   UNL     1      33.353  49.443  26.546  1.00  0.00     0.000 C 
BRANCH   3   4
ATOM      4  C   UNL     1      34.624  48.790  25.974  1.00  0.00     0.000 C 
BRANCH   4   5
ATOM      5  C   UNL     1      34.504  47.260  25.852  1.00  0.00     0.006 C 
BRANCH   5   6
ATOM      6  C   UNL     1      33.143  46.769  25.333  1.00  0.00     0.053 C 
BRANCH   6   7
ATOM      7  C   UNL     1      32.855  45.360  25.753  1.00  0.00     0.041 C 
ATOM      8  O   UNL     1      31.849  45.105  26.466  1.00  0.00    -0.550 OA
ATOM      9  O   UNL     1      33.716  44.335  25.384  1.00  0.00    -0.550 OA
ENDBRANCH   6   7
ENDBRANCH   5   6
ENDBRANCH   4   5
ENDBRANCH   3   4
ENDBRANCH   2   3
ENDBRANCH   1   2
BRANCH   1  10
ATOM     10  C   UNL     1      30.338  50.216  25.575  1.00  0.00     0.000 C 
BRANCH  10  11
ATOM     11  C   UNL     1      29.212  50.975  24.857  1.00  0.00    -0.000 C 
BRANCH  11  12
ATOM     12  C   UNL     1      28.821  52.239  25.632  1.00  0.00    -0.000 C 
BRANCH  12  13
ATOM     13  C   UNL     1      29.739  52.445  26.846  1.00  0.00    -0.000 C 
BRANCH  13  14
ATOM     14  C   UNL     1      30.592  53.719  26.734  1.00  0.00    -0.000 C 
BRANCH  14  15
ATOM     15  C   UNL     1      30.431  54.422  25.378  1.00  0.00    -0.003 C 
ATOM     16  C   UNL     1      31.544  54.020  24.414  1.00  0.00     0.004 C 
ENDBRANCH  14  15
ENDBRANCH  13  14
ENDBRANCH  12  13
ENDBRANCH  11  12
ENDBRANCH  10  11
ENDBRANCH   1  10
TORSDOF 12
ENDMDL
MODEL 3
REMARK VINA RESULT:    -3.666      2.226      4.676
REMARK INTER + INTRA:          -7.616
REMARK INTER:                  -6.036
REMARK INTRA:                  -1.581
REMARK UNBOUND:                -1.379
REMARK SMILES CCCCCCCCCCCCCC(=O)[O-]
REMARK SMILES IDX 8 1 9 2 10 3 11 4 12 5 13 6 14 7 15 8 16 9 7 10 6 11 5 12
REMARK SMILES IDX 4 13 3 14 2 15 1 16
REMARK H PARENT
REMARK Flexibility Score: inf
ROOT
ATOM      1  C   UNL     1      32.260  52.884  27.061  1.00  0.00     0.000 C 
ENDROOT
BRANCH   1   2
ATOM      2  C   UNL     1      33.590  52.171  26.761  1.00  0.00     0.000 C 
BRANCH   2   3
ATOM      3  C   UNL     1      33.526  50.660  27.046  1.00  0.00     0.000 C 
BRANCH   3   4
ATOM      4  C   UNL     1      34.609  49.872  26.288  1.00  0.00     0.000 C 
BRANCH   4   5
ATOM      5  C   UNL     1      34.483  48.350  26.483  1.00  0.00     0.006 C 
BRANCH   5   6
ATOM      6  C   UNL     1      33.617  47.644  25.427  1.00  0.00     0.053 C 
BRANCH   6   7
ATOM      7  C   UNL     1      33.612  46.157  25.607  1.00  0.00     0.041 C 
ATOM      8  O   UNL     1      32.695  45.461  25.097  1.00  0.00    -0.550 OA
ATOM      9  O   UNL     1      34.602  45.544  26.364  1.00  0.00    -0.550 OA
ENDBRANCH   6   7
ENDBRANCH   5   6
ENDBRANCH   4   5
ENDBRANCH   3   4
ENDBRANCH   2   3
ENDBRANCH   1   2
BRANCH   1  10
ATOM     10  C   UNL     1      31.681  53.598  25.829  1.00  0.00     0.000 C 
BRANCH  10  11
ATOM     11  C   UNL     1      30.152  53.736  25.885  1.00  0.00    -0.000 C 
BRANCH  11  12
ATOM     12  C   UNL     1      29.503  52.446  26.401  1.00  0.00    -0.000 C 
BRANCH  12  13
ATOM     13  C   UNL     1      29.243  51.463  25.249  1.00  0.00    -0.000 C 
BRANCH  13  14
ATOM     14  C   UNL     1      30.160  50.232  25.302  1.00  0.00    -0.000 C 
BRANCH  14  15
ATOM     15  C   UNL     1      31.314  50.309  24.291  1.00  0.00    -0.003 C 
ATOM     16  C   UNL     1      30.951  51.205  23.110  1.00  0.00     0.004 C 
ENDBRANCH  14  15
ENDBRANCH  13  14
ENDBRANCH  12  13
ENDBRANCH  11  12
ENDBRANCH  10  11
ENDBRANCH   1  10
TORSDOF 12
ENDMDL
MODEL 4
REMARK VINA RESULT:    -3.665      1.256      2.115
REMARK INTER + INTRA:          -7.614
REMARK INTER:                  -6.368
REMARK INTRA:                  -1.246
REMARK UNBOUND:                -1.379
REMARK SMILES CCCCCCCCCCCCCC(=O)[O-]
REMARK SMILES IDX 8 1 9 2 10 3 11 4 12 5 13 6 14 7 15 8 16 9 7 10 6 11 5 12
REMARK SMILES IDX 4 13 3 14 2 15 1 16
REMARK H PARENT
REMARK Flexibility Score: inf
ROOT
ATOM      1  C   UNL     1      35.003  49.099  26.280  1.00  0.00     0.000 C 
ENDROOT
BRANCH   1   2
ATOM      2  C   UNL     1      34.507  48.070  25.249  1.00  0.00     0.000 C 
BRANCH   2   3
ATOM      3  C   UNL     1      33.097  47.546  25.571  1.00  0.00     0.000 C 
BRANCH   3   4
ATOM      4  C   UNL     1      33.053  46.013  25.694  1.00  0.00     0.000 C 
BRANCH   4   5
ATOM      5  C   UNL     1      34.069  45.468  26.715  1.00  0.00     0.006 C 
BRANCH   5   6
ATOM      6  C   UNL     1      34.908  44.285  26.207  1.00  0.00     0.053 C 
BRANCH   6   7
ATOM      7  C   UNL     1      36.378  44.544  26.328  1.00  0.00     0.041 C 
ATOM      8  O   UNL     1      37.202  43.601  26.191  1.00  0.00    -0.550 OA
ATOM      9  O   UNL     1      36.837  45.820  26.626  1.00  0.00    -0.550 OA
ENDBRANCH   6   7
ENDBRANCH   5   6
ENDBRANCH   4   5
ENDBRANCH   3   4
ENDBRANCH   2   3
ENDBRANCH   1   2
BRANCH   1  10
ATOM     10  C   UNL     1      33.853  49.750  27.065  1.00  0.00     0.000 C 
BRANCH  10  11
ATOM     11  C   UNL     1      33.898  51.285  27.023  1.00  0.00    -0.000 C 
BRANCH  11  12
ATOM     12  C   UNL     1      32.827  51.840  26.077  1.00  0.00    -0.000 C 
BRANCH  12  13
ATOM     13  C   UNL     1      31.674  50.839  25.904  1.00  0.00    -0.000 C 
BRANCH  13  14
ATOM     14  C   UNL     1      31.280  50.637  24.432  1.00  0.00    -0.000 C 
BRANCH  14  15
ATOM     15  C   UNL     1      29.772  50.806  24.195  1.00  0.00    -0.003 C 
ATOM     16  C   UNL     1      29.125  51.607  25.322  1.00  0.00     0.004 C 
ENDBRANCH  14  15
ENDBRANCH  13  14
ENDBRANCH  12  13
ENDBRANCH  11  12
ENDBRANCH  10  11
ENDBRANCH   1  10
TORSDOF 12
ENDMDL
MODEL 5
REMARK VINA RESULT:    -3.639      4.228      7.495
REMARK INTER + INTRA:          -7.571
REMARK INTER:                  -6.355
REMARK INTRA:                  -1.216
REMARK UNBOUND:                -1.379
REMARK SMILES CCCCCCCCCCCCCC(=O)[O-]
REMARK SMILES IDX 8 1 9 2 10 3 11 4 12 5 13 6 14 7 15 8 16 9 7 10 6 11 5 12
REMARK SMILES IDX 4 13 3 14 2 15 1 16
REMARK H PARENT
REMARK Flexibility Score: inf
ROOT
ATOM      1  C   UNL     1      34.808  48.428  25.370  1.00  0.00     0.000 C 
ENDROOT
BRANCH   1   2
ATOM      2  C   UNL     1      34.762  49.435  26.533  1.00  0.00     0.000 C 
BRANCH   2   3
ATOM      3  C   UNL     1      33.404  50.150  26.641  1.00  0.00     0.000 C 
BRANCH   3   4
ATOM      4  C   UNL     1      33.521  51.669  26.431  1.00  0.00     0.000 C 
BRANCH   4   5
ATOM      5  C   UNL     1      32.258  52.281  25.795  1.00  0.00     0.006 C 
BRANCH   5   6
ATOM      6  C   UNL     1      31.377  51.274  25.037  1.00  0.00     0.053 C 
BRANCH   6   7
ATOM      7  C   UNL     1      29.924  51.631  25.113  1.00  0.00     0.041 C 
ATOM      8  O   UNL     1      29.050  50.805  24.739  1.00  0.00    -0.550 OA
ATOM      9  O   UNL     1      29.539  52.886  25.564  1.00  0.00    -0.550 OA
ENDBRANCH   6   7
ENDBRANCH   5   6
ENDBRANCH   4   5
ENDBRANCH   3   4
ENDBRANCH   2   3
ENDBRANCH   1   2
BRANCH   1  10
ATOM     10  C   UNL     1      33.431  48.213  24.720  1.00  0.00     0.000 C 
BRANCH  10  11
ATOM     11  C   UNL     1      33.007  46.737  24.701  1.00  0.00    -0.000 C 
BRANCH  11  12
ATOM     12  C   UNL     1      33.157  46.104  26.089  1.00  0.00    -0.000 C 
BRANCH  12  13
ATOM     13  C   UNL     1      33.614  44.642  25.981  1.00  0.00    -0.000 C 
BRANCH  13  14
ATOM     14  C   UNL     1      34.758  44.305  26.951  1.00  0.00    -0.000 C 
BRANCH  14  15
ATOM     15  C   UNL     1      36.144  44.459  26.307  1.00  0.00    -0.003 C 
ATOM     16  C   UNL     1      36.845  45.720  26.805  1.00  0.00     0.004 C 
ENDBRANCH  14  15
ENDBRANCH  13  14
ENDBRANCH  12  13
ENDBRANCH  11  12
ENDBRANCH  10  11
ENDBRANCH   1  10
TORSDOF 12
ENDMDL
MODEL 6
REMARK VINA RESULT:    -3.630      1.476      2.504
REMARK INTER + INTRA:          -7.555
REMARK INTER:                  -6.934
REMARK INTRA:                  -0.621
REMARK UNBOUND:                -1.379
REMARK SMILES CCCCCCCCCCCCCC(=O)[O-]
REMARK SMILES IDX 8 1 9 2 10 3 11 4 12 5 13 6 14 7 15 8 16 9 7 10 6 11 5 12
REMARK SMILES IDX 4 13 3 14 2 15 1 16
REMARK H PARENT
REMARK Flexibility Score: inf
ROOT
ATOM      1  C   UNL     1      33.149  45.404  25.363  1.00  0.00     0.000 C 
ENDROOT
BRANCH   1   2
ATOM      2  C   UNL     1      34.046  44.489  26.215  1.00  0.00     0.000 C 
BRANCH   2   3
ATOM      3  C   UNL     1      35.324  45.198  26.697  1.00  0.00     0.000 C 
BRANCH   3   4
ATOM      4  C   UNL     1      36.564  44.291  26.622  1.00  0.00     0.000 C 
BRANCH   4   5
ATOM      5  C   UNL     1      36.417  43.166  25.580  1.00  0.00     0.006 C 
BRANCH   5   6
ATOM      6  C   UNL     1      37.652  42.262  25.443  1.00  0.00     0.053 C 
BRANCH   6   7
ATOM      7  C   UNL     1      37.399  41.098  24.535  1.00  0.00     0.041 C 
ATOM      8  O   UNL     1      37.243  41.282  23.299  1.00  0.00    -0.550 OA
ATOM      9  O   UNL     1      37.304  39.816  25.058  1.00  0.00    -0.550 OA
ENDBRANCH   6   7
ENDBRANCH   5   6
ENDBRANCH   4   5
ENDBRANCH   3   4
ENDBRANCH   2   3
ENDBRANCH   1   2
BRANCH   1  10
ATOM     10  C   UNL     1      33.035  46.824  25.941  1.00  0.00     0.000 C 
BRANCH  10  11
ATOM     11  C   UNL     1      33.490  47.907  24.952  1.00  0.00    -0.000 C 
BRANCH  11  12
ATOM     12  C   UNL     1      33.632  49.264  25.650  1.00  0.00    -0.000 C 
BRANCH  12  13
ATOM     13  C   UNL     1      32.317  50.055  25.588  1.00  0.00    -0.000 C 
BRANCH  13  14
ATOM     14  C   UNL     1      31.575  49.869  24.255  1.00  0.00    -0.000 C 
BRANCH  14  15
ATOM     15  C   UNL     1      30.648  51.048  23.924  1.00  0.00    -0.003 C 
ATOM     16  C   UNL     1      29.323  50.932  24.671  1.00  0.00     0.004 C 
ENDBRANCH  14  15
ENDBRANCH  13  14
ENDBRANCH  12  13
ENDBRANCH  11  12
ENDBRANCH  10  11
ENDBRANCH   1  10
TORSDOF 12
ENDMDL
MODEL 7
REMARK VINA RESULT:    -3.623      1.455      2.490
REMARK INTER + INTRA:          -7.544
REMARK INTER:                  -6.799
REMARK INTRA:                  -0.745
REMARK UNBOUND:                -1.379
REMARK SMILES CCCCCCCCCCCCCC(=O)[O-]
REMARK SMILES IDX 8 1 9 2 10 3 11 4 12 5 13 6 14 7 15 8 16 9 7 10 6 11 5 12
REMARK SMILES IDX 4 13 3 14 2 15 1 16
REMARK H PARENT
REMARK Flexibility Score: inf
ROOT
ATOM      1  C   UNL     1      33.337  48.015  25.027  1.00  0.00     0.000 C 
ENDROOT
BRANCH   1   2
ATOM      2  C   UNL     1      34.815  48.044  25.455  1.00  0.00     0.000 C 
BRANCH   2   3
ATOM      3  C   UNL     1      35.201  46.834  26.324  1.00  0.00     0.000 C 
BRANCH   3   4
ATOM      4  C   UNL     1      34.247  45.643  26.131  1.00  0.00     0.000 C 
BRANCH   4   5
ATOM      5  C   UNL     1      34.924  44.287  26.405  1.00  0.00     0.006 C 
BRANCH   5   6
ATOM      6  C   UNL     1      36.441  44.273  26.154  1.00  0.00     0.053 C 
BRANCH   6   7
ATOM      7  C   UNL     1      36.894  42.992  25.522  1.00  0.00     0.041 C 
ATOM      8  O   UNL     1      36.091  42.304  24.838  1.00  0.00    -0.550 OA
ATOM      9  O   UNL     1      38.194  42.543  25.717  1.00  0.00    -0.550 OA
ENDBRANCH   6   7
ENDBRANCH   5   6
ENDBRANCH   4   5
ENDBRANCH   3   4
ENDBRANCH   2   3
ENDBRANCH   1   2
BRANCH   1  10
ATOM     10  C   UNL     1      32.425  48.777  26.002  1.00  0.00     0.000 C 
BRANCH  10  11
ATOM     11  C   UNL     1      32.103  50.201  25.525  1.00  0.00    -0.000 C 
BRANCH  11  12
ATOM     12  C   UNL     1      31.479  50.184  24.125  1.00  0.00    -0.000 C 
BRANCH  12  13
ATOM     13  C   UNL     1      30.483  51.340  23.953  1.00  0.00    -0.000 C 
BRANCH  13  14
ATOM     14  C   UNL     1      29.968  51.884  25.295  1.00  0.00    -0.000 C 
BRANCH  14  15
ATOM     15  C   UNL     1      30.085  53.413  25.397  1.00  0.00    -0.003 C 
ATOM     16  C   UNL     1      31.216  53.937  24.517  1.00  0.00     0.004 C 
ENDBRANCH  14  15
ENDBRANCH  13  14
ENDBRANCH  12  13
ENDBRANCH  11  12
ENDBRANCH  10  11
ENDBRANCH   1  10
TORSDOF 12
ENDMDL
MODEL 8
REMARK VINA RESULT:    -3.452      3.542      7.149
REMARK INTER + INTRA:          -7.252
REMARK INTER:                  -6.004
REMARK INTRA:                  -1.248
REMARK UNBOUND:                -1.379
REMARK SMILES CCCCCCCCCCCCCC(=O)[O-]
REMARK SMILES IDX 8 1 9 2 10 3 11 4 12 5 13 6 14 7 15 8 16 9 7 10 6 11 5 12
REMARK SMILES IDX 4 13 3 14 2 15 1 16
REMARK H PARENT
REMARK Flexibility Score: inf
ROOT
ATOM      1  C   UNL     1      33.498  47.491  24.862  1.00  0.00     0.000 C 
ENDROOT
BRANCH   1   2
ATOM      2  C   UNL     1      34.645  48.395  25.348  1.00  0.00     0.000 C 
BRANCH   2   3
ATOM      3  C   UNL     1      34.291  49.154  26.638  1.00  0.00     0.000 C 
BRANCH   3   4
ATOM      4  C   UNL     1      34.090  50.661  26.398  1.00  0.00     0.000 C 
BRANCH   4   5
ATOM      5  C   UNL     1      32.671  51.137  26.763  1.00  0.00     0.006 C 
BRANCH   5   6
ATOM      6  C   UNL     1      31.565  50.107  26.488  1.00  0.00     0.053 C 
BRANCH   6   7
ATOM      7  C   UNL     1      30.859  50.371  25.194  1.00  0.00     0.041 C 
ATOM      8  O   UNL     1      29.657  50.747  25.193  1.00  0.00    -0.550 OA
ATOM      9  O   UNL     1      31.518  50.171  23.988  1.00  0.00    -0.550 OA
ENDBRANCH   6   7
ENDBRANCH   5   6
ENDBRANCH   4   5
ENDBRANCH   3   4
ENDBRANCH   2   3
ENDBRANCH   1   2
BRANCH   1  10
ATOM     10  C   UNL     1      32.970  46.562  25.966  1.00  0.00     0.000 C 
BRANCH  10  11
ATOM     11  C   UNL     1      33.168  45.075  25.638  1.00  0.00    -0.000 C 
BRANCH  11  12
ATOM     12  C   UNL     1      33.912  44.357  26.770  1.00  0.00    -0.000 C 
BRANCH  12  13
ATOM     13  C   UNL     1      35.217  45.087  27.120  1.00  0.00    -0.000 C 
BRANCH  13  14
ATOM     14  C   UNL     1      36.402  44.630  26.254  1.00  0.00    -0.000 C 
BRANCH  14  15
ATOM     15  C   UNL     1      36.224  43.204  25.712  1.00  0.00    -0.003 C 
ATOM     16  C   UNL     1      37.573  42.517  25.520  1.00  0.00     0.004 C 
ENDBRANCH  14  15
ENDBRANCH  13  14
ENDBRANCH  12  13
ENDBRANCH  11  12
ENDBRANCH  10  11
ENDBRANCH   1  10
TORSDOF 12
ENDMDL
MODEL 9
REMARK VINA RESULT:    -3.419      2.404      3.934
REMARK INTER + INTRA:          -7.197
REMARK INTER:                  -6.257
REMARK INTRA:                  -0.940
REMARK UNBOUND:                -1.379
REMARK SMILES CCCCCCCCCCCCCC(=O)[O-]
REMARK SMILES IDX 8 1 9 2 10 3 11 4 12 5 13 6 14 7 15 8 16 9 7 10 6 11 5 12
REMARK SMILES IDX 4 13 3 14 2 15 1 16
REMARK H PARENT
REMARK Flexibility Score: inf
ROOT
ATOM      1  C   UNL     1      34.273  51.448  26.397  1.00  0.00     0.000 C 
ENDROOT
BRANCH   1   2
ATOM      2  C   UNL     1      33.925  50.011  26.823  1.00  0.00     0.000 C 
BRANCH   2   3
ATOM      3  C   UNL     1      33.835  49.048  25.626  1.00  0.00     0.000 C 
BRANCH   3   4
ATOM      4  C   UNL     1      34.963  48.001  25.627  1.00  0.00     0.000 C 
BRANCH   4   5
ATOM      5  C   UNL     1      34.543  46.674  26.287  1.00  0.00     0.006 C 
BRANCH   5   6
ATOM      6  C   UNL     1      33.069  46.617  26.717  1.00  0.00     0.053 C 
BRANCH   6   7
ATOM      7  C   UNL     1      32.379  45.392  26.201  1.00  0.00     0.041 C 
ATOM      8  O   UNL     1      31.481  44.835  26.885  1.00  0.00    -0.550 OA
ATOM      9  O   UNL     1      32.752  44.847  24.979  1.00  0.00    -0.550 OA
ENDBRANCH   6   7
ENDBRANCH   5   6
ENDBRANCH   4   5
ENDBRANCH   3   4
ENDBRANCH   2   3
ENDBRANCH   1   2
BRANCH   1  10
ATOM     10  C   UNL     1      33.404  52.500  27.105  1.00  0.00     0.000 C 
BRANCH  10  11
ATOM     11  C   UNL     1      31.903  52.190  27.014  1.00  0.00    -0.000 C 
BRANCH  11  12
ATOM     12  C   UNL     1      31.164  53.277  26.225  1.00  0.00    -0.000 C 
BRANCH  12  13
ATOM     13  C   UNL     1      30.956  52.851  24.764  1.00  0.00    -0.000 C 
BRANCH  13  14
ATOM     14  C   UNL     1      31.131  51.338  24.557  1.00  0.00    -0.000 C 
BRANCH  14  15
ATOM     15  C   UNL     1      29.808  50.628  24.234  1.00  0.00    -0.003 C 
ATOM     16  C   UNL     1      28.626  51.350  24.875  1.00  0.00     0.004 C 
ENDBRANCH  14  15
ENDBRANCH  13  14
ENDBRANCH  12  13
ENDBRANCH  11  12
ENDBRANCH  10  11
ENDBRANCH   1  10
TORSDOF 12
ENDMDL
