MODEL 1
REMARK VINA RESULT:    -3.940      0.000      0.000
REMARK INTER + INTRA:          -4.656
REMARK INTER:                  -4.631
REMARK INTRA:                  -0.025
REMARK UNBOUND:                -0.025
REMARK SMILES CCCCC(=O)[O-]
REMARK SMILES IDX 4 1 5 2 6 3 7 4 3 5 2 6 1 7
REMARK H PARENT
REMARK Flexibility Score: inf
ROOT
ATOM      1  C   UNL     1      -7.767  33.711 -15.810  1.00  0.00     0.053 C 
ENDROOT
BRANCH   1   2
ATOM      2  C   UNL     1      -8.172  32.281 -15.988  1.00  0.00     0.041 C 
ATOM      3  O   UNL     1      -8.175  31.762 -17.135  1.00  0.00    -0.550 OA
ATOM      4  O   UNL     1      -8.501  31.509 -14.881  1.00  0.00    -0.550 OA
ENDBRANCH   1   2
BRANCH   1   5
ATOM      5  C   UNL     1      -7.031  34.217 -17.059  1.00  0.00     0.006 C 
BRANCH   5   6
ATOM      6  C   UNL     1      -5.885  35.181 -16.717  1.00  0.00    -0.003 C 
ATOM      7  C   UNL     1      -5.875  36.424 -17.605  1.00  0.00     0.004 C 
ENDBRANCH   5   6
ENDBRANCH   1   5
TORSDOF 3
ENDMDL
MODEL 2
REMARK VINA RESULT:    -2.914      2.957      4.232
REMARK INTER + INTRA:          -3.451
REMARK INTER:                  -3.431
REMARK INTRA:                  -0.020
REMARK UNBOUND:                -0.025
REMARK SMILES CCCCC(=O)[O-]
REMARK SMILES IDX 4 1 5 2 6 3 7 4 3 5 2 6 1 7
REMARK H PARENT
REMARK Flexibility Score: inf
ROOT
ATOM      1  C   UNL     1      -6.127  34.429 -16.345  1.00  0.00     0.053 C 
ENDROOT
BRANCH   1   2
ATOM      2  C   UNL     1      -5.981  35.694 -17.132  1.00  0.00     0.041 C 
ATOM      3  O   UNL     1      -5.876  35.650 -18.386  1.00  0.00    -0.550 OA
ATOM      4  O   UNL     1      -6.008  36.922 -16.485  1.00  0.00    -0.550 OA
ENDBRANCH   1   2
BRANCH   1   5
ATOM      5  C   UNL     1      -7.416  33.698 -16.744  1.00  0.00     0.006 C 
BRANCH   5   6
ATOM      6  C   UNL     1      -8.271  33.306 -15.529  1.00  0.00    -0.003 C 
ATOM      7  C   UNL     1      -8.435  31.794 -15.385  1.00  0.00     0.004 C 
ENDBRANCH   5   6
ENDBRANCH   1   5
TORSDOF 3
ENDMDL
MODEL 3
REMARK VINA RESULT:    -2.127     12.990     13.668
REMARK INTER + INTRA:          -2.525
REMARK INTER:                  -2.509
REMARK INTRA:                  -0.016
REMARK UNBOUND:                -0.025
REMARK SMILES CCCCC(=O)[O-]
REMARK SMILES IDX 4 1 5 2 6 3 7 4 3 5 2 6 1 7
REMARK H PARENT
REMARK Flexibility Score: inf
ROOT
ATOM      1  C   UNL     1     -15.221  22.890 -20.924  1.00  0.00     0.053 C 
ENDROOT
BRANCH   1   2
ATOM      2  C   UNL     1     -14.236  23.132 -22.024  1.00  0.00     0.041 C 
ATOM      3  O   UNL     1     -14.619  23.608 -23.125  1.00  0.00    -0.550 OA
ATOM      4  O   UNL     1     -12.887  22.876 -21.817  1.00  0.00    -0.550 OA
ENDBRANCH   1   2
BRANCH   1   5
ATOM      5  C   UNL     1     -15.646  24.220 -20.286  1.00  0.00     0.006 C 
BRANCH   5   6
ATOM      6  C   UNL     1     -16.408  24.023 -18.967  1.00  0.00    -0.003 C 
ATOM      7  C   UNL     1     -16.741  25.344 -18.274  1.00  0.00     0.004 C 
ENDBRANCH   5   6
ENDBRANCH   1   5
TORSDOF 3
ENDMDL
MODEL 4
REMARK VINA RESULT:    -1.004     12.701     13.386
REMARK INTER + INTRA:          -1.205
REMARK INTER:                  -1.183
REMARK INTRA:                  -0.022
REMARK UNBOUND:                -0.025
REMARK SMILES CCCCC(=O)[O-]
REMARK SMILES IDX 4 1 5 2 6 3 7 4 3 5 2 6 1 7
REMARK H PARENT
REMARK Flexibility Score: inf
ROOT
ATOM      1  C   UNL     1     -16.218  24.067 -18.723  1.00  0.00     0.053 C 
ENDROOT
BRANCH   1   2
ATOM      2  C   UNL     1     -16.749  25.374 -18.224  1.00  0.00     0.041 C 
ATOM      3  O   UNL     1     -17.153  25.481 -17.036  1.00  0.00    -0.550 OA
ATOM      4  O   UNL     1     -16.753  26.486 -19.055  1.00  0.00    -0.550 OA
ENDBRANCH   1   2
BRANCH   1   5
ATOM      5  C   UNL     1     -15.683  24.219 -20.154  1.00  0.00     0.006 C 
BRANCH   5   6
ATOM      6  C   UNL     1     -15.577  22.875 -20.889  1.00  0.00    -0.003 C 
ATOM      7  C   UNL     1     -14.508  22.881 -21.981  1.00  0.00     0.004 C 
ENDBRANCH   5   6
ENDBRANCH   1   5
TORSDOF 3
ENDMDL
