MODEL 1
REMARK VINA RESULT:    -2.451      0.000      0.000
REMARK INTER + INTRA:          -6.147
REMARK INTER:                  -5.318
REMARK INTRA:                  -0.829
REMARK UNBOUND:                -0.829
REMARK SMILES CCCCCCCCCCCCCCCCCCCCCC(=O)[O-]
REMARK SMILES IDX 12 1 11 2 10 3 9 4 8 5 7 6 6 7 5 8 4 9 3 10 2 11 1 12 13 13
REMARK SMILES IDX 14 14 15 15 16 16 17 17 18 18 19 19 20 20 21 21 22 22 23 23
REMARK SMILES IDX 24 24
REMARK H PARENT
REMARK Flexibility Score: inf
ROOT
ATOM      1  C   UNL     1      -1.128 -22.130  16.376  1.00  0.00     0.000 C 
ENDROOT
BRANCH   1   2
ATOM      2  C   UNL     1       0.072 -23.001  15.952  1.00  0.00     0.000 C 
BRANCH   2   3
ATOM      3  C   UNL     1       1.412 -22.251  15.806  1.00  0.00     0.000 C 
BRANCH   3   4
ATOM      4  C   UNL     1       2.669 -23.108  16.044  1.00  0.00    -0.000 C 
BRANCH   4   5
ATOM      5  C   UNL     1       3.861 -22.675  15.174  1.00  0.00    -0.000 C 
BRANCH   5   6
ATOM      6  C   UNL     1       5.208 -22.849  15.895  1.00  0.00    -0.000 C 
BRANCH   6   7
ATOM      7  C   UNL     1       5.302 -22.010  17.181  1.00  0.00    -0.000 C 
BRANCH   7   8
ATOM      8  C   UNL     1       6.749 -21.638  17.548  1.00  0.00    -0.000 C 
BRANCH   8   9
ATOM      9  C   UNL     1       7.808 -22.537  16.872  1.00  0.00    -0.000 C 
BRANCH   9  10
ATOM     10  C   UNL     1       8.887 -21.716  16.149  1.00  0.00    -0.000 C 
BRANCH  10  11
ATOM     11  C   UNL     1       8.486 -21.440  14.694  1.00  0.00    -0.003 C 
ATOM     12  C   UNL     1       9.051 -20.109  14.208  1.00  0.00     0.004 C 
ENDBRANCH  10  11
ENDBRANCH   9  10
ENDBRANCH   8   9
ENDBRANCH   7   8
ENDBRANCH   6   7
ENDBRANCH   5   6
ENDBRANCH   4   5
ENDBRANCH   3   4
ENDBRANCH   2   3
ENDBRANCH   1   2
BRANCH   1  13
ATOM     13  C   UNL     1      -2.456 -22.457  15.669  1.00  0.00     0.000 C 
BRANCH  13  14
ATOM     14  C   UNL     1      -3.548 -22.932  16.642  1.00  0.00     0.000 C 
BRANCH  14  15
ATOM     15  C   UNL     1      -4.856 -22.136  16.495  1.00  0.00     0.000 C 
BRANCH  15  16
ATOM     16  C   UNL     1      -6.106 -23.028  16.556  1.00  0.00     0.000 C 
BRANCH  16  17
ATOM     17  C   UNL     1      -6.858 -22.826  17.879  1.00  0.00     0.000 C 
BRANCH  17  18
ATOM     18  C   UNL     1      -8.237 -22.169  17.689  1.00  0.00     0.000 C 
BRANCH  18  19
ATOM     19  C   UNL     1      -8.880 -21.625  18.977  1.00  0.00     0.000 C 
BRANCH  19  20
ATOM     20  C   UNL     1     -10.259 -20.994  18.737  1.00  0.00     0.006 C 
BRANCH  20  21
ATOM     21  C   UNL     1     -10.773 -21.312  17.329  1.00  0.00     0.053 C 
BRANCH  21  22
ATOM     22  C   UNL     1     -10.797 -20.077  16.485  1.00  0.00     0.041 C 
ATOM     23  O   UNL     1     -11.124 -18.971  16.992  1.00  0.00    -0.550 OA
ATOM     24  O   UNL     1     -10.445 -20.142  15.141  1.00  0.00    -0.550 OA
ENDBRANCH  21  22
ENDBRANCH  20  21
ENDBRANCH  19  20
ENDBRANCH  18  19
ENDBRANCH  17  18
ENDBRANCH  16  17
ENDBRANCH  15  16
ENDBRANCH  14  15
ENDBRANCH  13  14
ENDBRANCH   1  13
TORSDOF 20
ENDMDL
MODEL 2
REMARK VINA RESULT:    -2.292      1.889      4.130
REMARK INTER + INTRA:          -5.801
REMARK INTER:                  -4.899
REMARK INTRA:                  -0.901
REMARK UNBOUND:                -0.829
REMARK SMILES CCCCCCCCCCCCCCCCCCCCCC(=O)[O-]
REMARK SMILES IDX 12 1 11 2 10 3 9 4 8 5 7 6 6 7 5 8 4 9 3 10 2 11 1 12 13 13
REMARK SMILES IDX 14 14 15 15 16 16 17 17 18 18 19 19 20 20 21 21 22 22 23 23
REMARK SMILES IDX 24 24
REMARK H PARENT
REMARK Flexibility Score: inf
ROOT
ATOM      1  C   UNL     1       2.751 -21.926  16.362  1.00  0.00     0.000 C 
ENDROOT
BRANCH   1   2
ATOM      2  C   UNL     1       4.038 -22.672  16.766  1.00  0.00     0.000 C 
BRANCH   2   3
ATOM      3  C   UNL     1       5.339 -21.850  16.655  1.00  0.00     0.000 C 
BRANCH   3   4
ATOM      4  C   UNL     1       6.364 -22.095  17.778  1.00  0.00    -0.000 C 
BRANCH   4   5
ATOM      5  C   UNL     1       7.818 -22.067  17.277  1.00  0.00    -0.000 C 
BRANCH   5   6
ATOM      6  C   UNL     1       7.973 -21.275  15.968  1.00  0.00    -0.000 C 
BRANCH   6   7
ATOM      7  C   UNL     1       8.852 -22.003  14.937  1.00  0.00    -0.000 C 
BRANCH   7   8
ATOM      8  C   UNL     1       8.043 -22.920  14.003  1.00  0.00    -0.000 C 
BRANCH   8   9
ATOM      9  C   UNL     1       8.261 -22.621  12.504  1.00  0.00    -0.000 C 
BRANCH   9  10
ATOM     10  C   UNL     1       7.176 -21.692  11.935  1.00  0.00    -0.000 C 
BRANCH  10  11
ATOM     11  C   UNL     1       7.778 -20.682  10.950  1.00  0.00    -0.003 C 
ATOM     12  C   UNL     1       7.034 -19.350  11.000  1.00  0.00     0.004 C 
ENDBRANCH  10  11
ENDBRANCH   9  10
ENDBRANCH   8   9
ENDBRANCH   7   8
ENDBRANCH   6   7
ENDBRANCH   5   6
ENDBRANCH   4   5
ENDBRANCH   3   4
ENDBRANCH   2   3
ENDBRANCH   1   2
BRANCH   1  13
ATOM     13  C   UNL     1       2.119 -22.384  15.036  1.00  0.00     0.000 C 
BRANCH  13  14
ATOM     14  C   UNL     1       0.786 -23.125  15.234  1.00  0.00     0.000 C 
BRANCH  14  15
ATOM     15  C   UNL     1      -0.220 -22.317  16.072  1.00  0.00     0.000 C 
BRANCH  15  16
ATOM     16  C   UNL     1      -1.475 -23.125  16.437  1.00  0.00     0.000 C 
BRANCH  16  17
ATOM     17  C   UNL     1      -2.734 -22.250  16.347  1.00  0.00     0.000 C 
BRANCH  17  18
ATOM     18  C   UNL     1      -4.024 -23.023  16.673  1.00  0.00     0.000 C 
BRANCH  18  19
ATOM     19  C   UNL     1      -5.311 -22.414  16.089  1.00  0.00     0.000 C 
BRANCH  19  20
ATOM     20  C   UNL     1      -6.337 -22.035  17.167  1.00  0.00     0.006 C 
BRANCH  20  21
ATOM     21  C   UNL     1      -7.765 -22.326  16.695  1.00  0.00     0.053 C 
BRANCH  21  22
ATOM     22  C   UNL     1      -8.760 -21.852  17.706  1.00  0.00     0.041 C 
ATOM     23  O   UNL     1      -8.372 -21.440  18.831  1.00  0.00    -0.550 OA
ATOM     24  O   UNL     1     -10.118 -21.852  17.403  1.00  0.00    -0.550 OA
ENDBRANCH  21  22
ENDBRANCH  20  21
ENDBRANCH  19  20
ENDBRANCH  18  19
ENDBRANCH  17  18
ENDBRANCH  16  17
ENDBRANCH  15  16
ENDBRANCH  14  15
ENDBRANCH  13  14
ENDBRANCH   1  13
TORSDOF 20
ENDMDL
MODEL 3
REMARK VINA RESULT:    -2.288      2.421      3.097
REMARK INTER + INTRA:          -5.792
REMARK INTER:                  -5.097
REMARK INTRA:                  -0.695
REMARK UNBOUND:                -0.829
REMARK SMILES CCCCCCCCCCCCCCCCCCCCCC(=O)[O-]
REMARK SMILES IDX 12 1 11 2 10 3 9 4 8 5 7 6 6 7 5 8 4 9 3 10 2 11 1 12 13 13
REMARK SMILES IDX 14 14 15 15 16 16 17 17 18 18 19 19 20 20 21 21 22 22 23 23
REMARK SMILES IDX 24 24
REMARK H PARENT
REMARK Flexibility Score: inf
ROOT
ATOM      1  C   UNL     1      -2.468 -23.073  16.349  1.00  0.00     0.000 C 
ENDROOT
BRANCH   1   2
ATOM      2  C   UNL     1      -1.243 -22.190  16.041  1.00  0.00     0.000 C 
BRANCH   2   3
ATOM      3  C   UNL     1       0.128 -22.859  16.275  1.00  0.00     0.000 C 
BRANCH   3   4
ATOM      4  C   UNL     1       1.255 -22.379  15.342  1.00  0.00    -0.000 C 
BRANCH   4   5
ATOM      5  C   UNL     1       2.604 -23.058  15.636  1.00  0.00    -0.000 C 
BRANCH   5   6
ATOM      6  C   UNL     1       3.459 -22.258  16.633  1.00  0.00    -0.000 C 
BRANCH   6   7
ATOM      7  C   UNL     1       4.961 -22.566  16.504  1.00  0.00    -0.000 C 
BRANCH   7   8
ATOM      8  C   UNL     1       5.804 -21.901  17.605  1.00  0.00    -0.000 C 
BRANCH   8   9
ATOM      9  C   UNL     1       7.199 -21.445  17.124  1.00  0.00    -0.000 C 
BRANCH   9  10
ATOM     10  C   UNL     1       8.081 -22.629  16.699  1.00  0.00    -0.000 C 
BRANCH  10  11
ATOM     11  C   UNL     1       8.575 -22.458  15.257  1.00  0.00    -0.003 C 
ATOM     12  C   UNL     1       8.787 -20.986  14.916  1.00  0.00     0.004 C 
ENDBRANCH  10  11
ENDBRANCH   9  10
ENDBRANCH   8   9
ENDBRANCH   7   8
ENDBRANCH   6   7
ENDBRANCH   5   6
ENDBRANCH   4   5
ENDBRANCH   3   4
ENDBRANCH   2   3
ENDBRANCH   1   2
BRANCH   1  13
ATOM     13  C   UNL     1      -3.832 -22.378  16.191  1.00  0.00     0.000 C 
BRANCH  13  14
ATOM     14  C   UNL     1      -4.969 -23.125  16.909  1.00  0.00     0.000 C 
BRANCH  14  15
ATOM     15  C   UNL     1      -6.161 -22.210  17.237  1.00  0.00     0.000 C 
BRANCH  15  16
ATOM     16  C   UNL     1      -7.406 -22.992  17.684  1.00  0.00     0.000 C 
BRANCH  16  17
ATOM     17  C   UNL     1      -8.557 -22.036  18.030  1.00  0.00     0.000 C 
BRANCH  17  18
ATOM     18  C   UNL     1      -9.896 -22.765  18.243  1.00  0.00     0.000 C 
BRANCH  18  19
ATOM     19  C   UNL     1     -10.596 -22.460  19.580  1.00  0.00     0.000 C 
BRANCH  19  20
ATOM     20  C   UNL     1      -9.812 -22.974  20.796  1.00  0.00     0.006 C 
BRANCH  20  21
ATOM     21  C   UNL     1     -10.359 -22.377  22.096  1.00  0.00     0.053 C 
BRANCH  21  22
ATOM     22  C   UNL     1      -9.381 -21.410  22.685  1.00  0.00     0.041 C 
ATOM     23  O   UNL     1      -9.521 -20.174  22.495  1.00  0.00    -0.550 OA
ATOM     24  O   UNL     1      -8.319 -21.873  23.455  1.00  0.00    -0.550 OA
ENDBRANCH  21  22
ENDBRANCH  20  21
ENDBRANCH  19  20
ENDBRANCH  18  19
ENDBRANCH  17  18
ENDBRANCH  16  17
ENDBRANCH  15  16
ENDBRANCH  14  15
ENDBRANCH  13  14
ENDBRANCH   1  13
TORSDOF 20
ENDMDL
MODEL 4
REMARK VINA RESULT:    -2.259      5.276     14.072
REMARK INTER + INTRA:          -5.729
REMARK INTER:                  -4.937
REMARK INTRA:                  -0.792
REMARK UNBOUND:                -0.829
REMARK SMILES CCCCCCCCCCCCCCCCCCCCCC(=O)[O-]
REMARK SMILES IDX 12 1 11 2 10 3 9 4 8 5 7 6 6 7 5 8 4 9 3 10 2 11 1 12 13 13
REMARK SMILES IDX 14 14 15 15 16 16 17 17 18 18 19 19 20 20 21 21 22 22 23 23
REMARK SMILES IDX 24 24
REMARK H PARENT
REMARK Flexibility Score: inf
ROOT
ATOM      1  C   UNL     1      -0.398 -23.122  15.977  1.00  0.00     0.000 C 
ENDROOT
BRANCH   1   2
ATOM      2  C   UNL     1      -1.689 -22.351  16.319  1.00  0.00     0.000 C 
BRANCH   2   3
ATOM      3  C   UNL     1      -3.001 -23.041  15.891  1.00  0.00     0.000 C 
BRANCH   3   4
ATOM      4  C   UNL     1      -4.092 -23.099  16.976  1.00  0.00    -0.000 C 
BRANCH   4   5
ATOM      5  C   UNL     1      -5.272 -22.156  16.688  1.00  0.00    -0.000 C 
BRANCH   5   6
ATOM      6  C   UNL     1      -6.591 -22.916  16.469  1.00  0.00    -0.000 C 
BRANCH   6   7
ATOM      7  C   UNL     1      -7.823 -21.998  16.547  1.00  0.00    -0.000 C 
BRANCH   7   8
ATOM      8  C   UNL     1      -8.891 -22.514  17.527  1.00  0.00    -0.000 C 
BRANCH   8   9
ATOM      9  C   UNL     1      -8.835 -21.837  18.914  1.00  0.00    -0.000 C 
BRANCH   9  10
ATOM     10  C   UNL     1     -10.133 -21.083  19.243  1.00  0.00    -0.000 C 
BRANCH  10  11
ATOM     11  C   UNL     1      -9.850 -19.862  20.127  1.00  0.00    -0.003 C 
ATOM     12  C   UNL     1     -10.300 -20.103  21.565  1.00  0.00     0.004 C 
ENDBRANCH  10  11
ENDBRANCH   9  10
ENDBRANCH   8   9
ENDBRANCH   7   8
ENDBRANCH   6   7
ENDBRANCH   5   6
ENDBRANCH   4   5
ENDBRANCH   3   4
ENDBRANCH   2   3
ENDBRANCH   1   2
BRANCH   1  13
ATOM     13  C   UNL     1       0.908 -22.334  16.184  1.00  0.00     0.000 C 
BRANCH  13  14
ATOM     14  C   UNL     1       2.030 -22.779  15.230  1.00  0.00     0.000 C 
BRANCH  14  15
ATOM     15  C   UNL     1       3.344 -23.088  15.968  1.00  0.00     0.000 C 
BRANCH  15  16
ATOM     16  C   UNL     1       3.902 -21.873  16.724  1.00  0.00     0.000 C 
BRANCH  16  17
ATOM     17  C   UNL     1       5.142 -22.260  17.543  1.00  0.00     0.000 C 
BRANCH  17  18
ATOM     18  C   UNL     1       6.373 -21.401  17.206  1.00  0.00     0.000 C 
BRANCH  18  19
ATOM     19  C   UNL     1       7.691 -22.183  17.059  1.00  0.00     0.000 C 
BRANCH  19  20
ATOM     20  C   UNL     1       7.902 -22.737  15.643  1.00  0.00     0.006 C 
BRANCH  20  21
ATOM     21  C   UNL     1       8.127 -21.606  14.636  1.00  0.00     0.053 C 
BRANCH  21  22
ATOM     22  C   UNL     1       7.438 -21.907  13.342  1.00  0.00     0.041 C 
ATOM     23  O   UNL     1       6.352 -22.545  13.337  1.00  0.00    -0.550 OA
ATOM     24  O   UNL     1       7.988 -21.472  12.141  1.00  0.00    -0.550 OA
ENDBRANCH  21  22
ENDBRANCH  20  21
ENDBRANCH  19  20
ENDBRANCH  18  19
ENDBRANCH  17  18
ENDBRANCH  16  17
ENDBRANCH  15  16
ENDBRANCH  14  15
ENDBRANCH  13  14
ENDBRANCH   1  13
TORSDOF 20
ENDMDL
MODEL 5
REMARK VINA RESULT:    -2.151      1.791      2.438
REMARK INTER + INTRA:          -5.494
REMARK INTER:                  -4.752
REMARK INTRA:                  -0.742
REMARK UNBOUND:                -0.829
REMARK SMILES CCCCCCCCCCCCCCCCCCCCCC(=O)[O-]
REMARK SMILES IDX 12 1 11 2 10 3 9 4 8 5 7 6 6 7 5 8 4 9 3 10 2 11 1 12 13 13
REMARK SMILES IDX 14 14 15 15 16 16 17 17 18 18 19 19 20 20 21 21 22 22 23 23
REMARK SMILES IDX 24 24
REMARK H PARENT
REMARK Flexibility Score: inf
ROOT
ATOM      1  C   UNL     1      -0.207 -22.390  16.356  1.00  0.00     0.000 C 
ENDROOT
BRANCH   1   2
ATOM      2  C   UNL     1       1.018 -22.910  15.578  1.00  0.00     0.000 C 
BRANCH   2   3
ATOM      3  C   UNL     1       2.348 -22.189  15.885  1.00  0.00     0.000 C 
BRANCH   3   4
ATOM      4  C   UNL     1       3.498 -23.107  16.338  1.00  0.00    -0.000 C 
BRANCH   4   5
ATOM      5  C   UNL     1       4.882 -22.580  15.923  1.00  0.00    -0.000 C 
BRANCH   5   6
ATOM      6  C   UNL     1       5.690 -22.047  17.119  1.00  0.00    -0.000 C 
BRANCH   6   7
ATOM      7  C   UNL     1       7.194 -22.347  16.996  1.00  0.00    -0.000 C 
BRANCH   7   8
ATOM      8  C   UNL     1       7.977 -21.208  16.319  1.00  0.00    -0.000 C 
BRANCH   8   9
ATOM      9  C   UNL     1       8.886 -21.686  15.165  1.00  0.00    -0.000 C 
BRANCH   9  10
ATOM     10  C   UNL     1       8.567 -20.971  13.843  1.00  0.00    -0.000 C 
BRANCH  10  11
ATOM     11  C   UNL     1       7.969 -21.947  12.821  1.00  0.00    -0.003 C 
ATOM     12  C   UNL     1       8.932 -22.195  11.664  1.00  0.00     0.004 C 
ENDBRANCH  10  11
ENDBRANCH   9  10
ENDBRANCH   8   9
ENDBRANCH   7   8
ENDBRANCH   6   7
ENDBRANCH   5   6
ENDBRANCH   4   5
ENDBRANCH   3   4
ENDBRANCH   2   3
ENDBRANCH   1   2
BRANCH   1  13
ATOM     13  C   UNL     1      -1.531 -23.111  16.048  1.00  0.00     0.000 C 
BRANCH  13  14
ATOM     14  C   UNL     1      -2.761 -22.349  16.570  1.00  0.00     0.000 C 
BRANCH  14  15
ATOM     15  C   UNL     1      -4.086 -22.998  16.137  1.00  0.00     0.000 C 
BRANCH  15  16
ATOM     16  C   UNL     1      -5.154 -22.965  17.242  1.00  0.00     0.000 C 
BRANCH  16  17
ATOM     17  C   UNL     1      -6.496 -22.463  16.690  1.00  0.00     0.000 C 
BRANCH  17  18
ATOM     18  C   UNL     1      -7.448 -21.967  17.793  1.00  0.00     0.000 C 
BRANCH  18  19
ATOM     19  C   UNL     1      -8.897 -21.718  17.336  1.00  0.00     0.000 C 
BRANCH  19  20
ATOM     20  C   UNL     1      -9.907 -21.776  18.491  1.00  0.00     0.006 C 
BRANCH  20  21
ATOM     21  C   UNL     1      -9.192 -21.825  19.845  1.00  0.00     0.053 C 
BRANCH  21  22
ATOM     22  C   UNL     1      -9.738 -20.780  20.767  1.00  0.00     0.041 C 
ATOM     23  O   UNL     1      -9.941 -19.610  20.348  1.00  0.00    -0.550 OA
ATOM     24  O   UNL     1     -10.038 -21.101  22.086  1.00  0.00    -0.550 OA
ENDBRANCH  21  22
ENDBRANCH  20  21
ENDBRANCH  19  20
ENDBRANCH  18  19
ENDBRANCH  17  18
ENDBRANCH  16  17
ENDBRANCH  15  16
ENDBRANCH  14  15
ENDBRANCH  13  14
ENDBRANCH   1  13
TORSDOF 20
ENDMDL
MODEL 6
REMARK VINA RESULT:    -2.044      5.994     14.120
REMARK INTER + INTRA:          -5.262
REMARK INTER:                  -4.171
REMARK INTRA:                  -1.091
REMARK UNBOUND:                -0.829
REMARK SMILES CCCCCCCCCCCCCCCCCCCCCC(=O)[O-]
REMARK SMILES IDX 12 1 11 2 10 3 9 4 8 5 7 6 6 7 5 8 4 9 3 10 2 11 1 12 13 13
REMARK SMILES IDX 14 14 15 15 16 16 17 17 18 18 19 19 20 20 21 21 22 22 23 23
REMARK SMILES IDX 24 24
REMARK H PARENT
REMARK Flexibility Score: inf
ROOT
ATOM      1  C   UNL     1       1.759 -23.125  15.580  1.00  0.00     0.000 C 
ENDROOT
BRANCH   1   2
ATOM      2  C   UNL     1       0.928 -21.929  16.086  1.00  0.00     0.000 C 
BRANCH   2   3
ATOM      3  C   UNL     1      -0.411 -22.294  16.759  1.00  0.00     0.000 C 
BRANCH   3   4
ATOM      4  C   UNL     1      -1.409 -23.047  15.861  1.00  0.00    -0.000 C 
BRANCH   4   5
ATOM      5  C   UNL     1      -2.855 -22.971  16.379  1.00  0.00    -0.000 C 
BRANCH   5   6
ATOM      6  C   UNL     1      -3.748 -22.082  15.497  1.00  0.00    -0.000 C 
BRANCH   6   7
ATOM      7  C   UNL     1      -5.141 -21.851  16.109  1.00  0.00    -0.000 C 
BRANCH   7   8
ATOM      8  C   UNL     1      -5.449 -22.812  17.271  1.00  0.00    -0.000 C 
BRANCH   8   9
ATOM      9  C   UNL     1      -6.814 -22.548  17.944  1.00  0.00    -0.000 C 
BRANCH   9  10
ATOM     10  C   UNL     1      -7.965 -22.511  16.926  1.00  0.00    -0.000 C 
BRANCH  10  11
ATOM     11  C   UNL     1      -9.095 -21.592  17.407  1.00  0.00    -0.003 C 
ATOM     12  C   UNL     1      -9.339 -21.753  18.904  1.00  0.00     0.004 C 
ENDBRANCH  10  11
ENDBRANCH   9  10
ENDBRANCH   8   9
ENDBRANCH   7   8
ENDBRANCH   6   7
ENDBRANCH   5   6
ENDBRANCH   4   5
ENDBRANCH   3   4
ENDBRANCH   2   3
ENDBRANCH   1   2
BRANCH   1  13
ATOM     13  C   UNL     1       3.280 -22.893  15.535  1.00  0.00     0.000 C 
BRANCH  13  14
ATOM     14  C   UNL     1       3.874 -23.097  14.131  1.00  0.00     0.000 C 
BRANCH  14  15
ATOM     15  C   UNL     1       5.411 -23.125  14.138  1.00  0.00     0.000 C 
BRANCH  15  16
ATOM     16  C   UNL     1       6.005 -22.852  15.529  1.00  0.00     0.000 C 
BRANCH  16  17
ATOM     17  C   UNL     1       7.531 -22.703  15.453  1.00  0.00     0.000 C 
BRANCH  17  18
ATOM     18  C   UNL     1       7.999 -21.246  15.614  1.00  0.00     0.000 C 
BRANCH  18  19
ATOM     19  C   UNL     1       8.814 -20.691  14.431  1.00  0.00     0.000 C 
BRANCH  19  20
ATOM     20  C   UNL     1       8.545 -21.439  13.117  1.00  0.00     0.006 C 
BRANCH  20  21
ATOM     21  C   UNL     1       8.097 -20.473  12.016  1.00  0.00     0.053 C 
BRANCH  21  22
ATOM     22  C   UNL     1       8.483 -20.995  10.668  1.00  0.00     0.041 C 
ATOM     23  O   UNL     1       8.758 -20.196   9.735  1.00  0.00    -0.550 OA
ATOM     24  O   UNL     1       8.552 -22.366  10.444  1.00  0.00    -0.550 OA
ENDBRANCH  21  22
ENDBRANCH  20  21
ENDBRANCH  19  20
ENDBRANCH  18  19
ENDBRANCH  17  18
ENDBRANCH  16  17
ENDBRANCH  15  16
ENDBRANCH  14  15
ENDBRANCH  13  14
ENDBRANCH   1  13
TORSDOF 20
ENDMDL
MODEL 7
REMARK VINA RESULT:    -1.699      1.892      3.305
REMARK INTER + INTRA:          -4.514
REMARK INTER:                  -3.789
REMARK INTRA:                  -0.725
REMARK UNBOUND:                -0.829
REMARK SMILES CCCCCCCCCCCCCCCCCCCCCC(=O)[O-]
REMARK SMILES IDX 12 1 11 2 10 3 9 4 8 5 7 6 6 7 5 8 4 9 3 10 2 11 1 12 13 13
REMARK SMILES IDX 14 14 15 15 16 16 17 17 18 18 19 19 20 20 21 21 22 22 23 23
REMARK SMILES IDX 24 24
REMARK H PARENT
REMARK Flexibility Score: inf
ROOT
ATOM      1  C   UNL     1       1.596 -23.041  15.749  1.00  0.00     0.000 C 
ENDROOT
BRANCH   1   2
ATOM      2  C   UNL     1       2.881 -22.218  15.967  1.00  0.00     0.000 C 
BRANCH   2   3
ATOM      3  C   UNL     1       4.150 -23.044  16.264  1.00  0.00     0.000 C 
BRANCH   3   4
ATOM      4  C   UNL     1       5.326 -22.802  15.301  1.00  0.00    -0.000 C 
BRANCH   4   5
ATOM      5  C   UNL     1       6.632 -22.440  16.030  1.00  0.00    -0.000 C 
BRANCH   5   6
ATOM      6  C   UNL     1       7.607 -21.658  15.135  1.00  0.00    -0.000 C 
BRANCH   6   7
ATOM      7  C   UNL     1       8.621 -22.573  14.425  1.00  0.00    -0.000 C 
BRANCH   7   8
ATOM      8  C   UNL     1       8.330 -22.736  12.923  1.00  0.00    -0.000 C 
BRANCH   8   9
ATOM      9  C   UNL     1       7.342 -21.687  12.368  1.00  0.00    -0.000 C 
BRANCH   9  10
ATOM     10  C   UNL     1       8.066 -20.492  11.726  1.00  0.00    -0.000 C 
BRANCH  10  11
ATOM     11  C   UNL     1       7.225 -19.882  10.598  1.00  0.00    -0.003 C 
ATOM     12  C   UNL     1       7.837 -20.176   9.231  1.00  0.00     0.004 C 
ENDBRANCH  10  11
ENDBRANCH   9  10
ENDBRANCH   8   9
ENDBRANCH   7   8
ENDBRANCH   6   7
ENDBRANCH   5   6
ENDBRANCH   4   5
ENDBRANCH   3   4
ENDBRANCH   2   3
ENDBRANCH   1   2
BRANCH   1  13
ATOM     13  C   UNL     1       0.312 -22.411  16.317  1.00  0.00     0.000 C 
BRANCH  13  14
ATOM     14  C   UNL     1      -0.957 -22.873  15.580  1.00  0.00     0.000 C 
BRANCH  14  15
ATOM     15  C   UNL     1      -2.219 -22.135  16.057  1.00  0.00     0.000 C 
BRANCH  15  16
ATOM     16  C   UNL     1      -3.400 -23.083  16.320  1.00  0.00     0.000 C 
BRANCH  16  17
ATOM     17  C   UNL     1      -4.681 -22.291  16.617  1.00  0.00     0.000 C 
BRANCH  17  18
ATOM     18  C   UNL     1      -5.734 -23.120  17.373  1.00  0.00     0.000 C 
BRANCH  18  19
ATOM     19  C   UNL     1      -6.686 -22.302  18.265  1.00  0.00     0.000 C 
BRANCH  19  20
ATOM     20  C   UNL     1      -8.143 -22.778  18.179  1.00  0.00     0.006 C 
BRANCH  20  21
ATOM     21  C   UNL     1      -9.116 -21.626  18.450  1.00  0.00     0.053 C 
BRANCH  21  22
ATOM     22  C   UNL     1     -10.075 -21.469  17.312  1.00  0.00     0.041 C 
ATOM     23  O   UNL     1      -9.964 -20.496  16.520  1.00  0.00    -0.550 OA
ATOM     24  O   UNL     1     -11.087 -22.403  17.118  1.00  0.00    -0.550 OA
ENDBRANCH  21  22
ENDBRANCH  20  21
ENDBRANCH  19  20
ENDBRANCH  18  19
ENDBRANCH  17  18
ENDBRANCH  16  17
ENDBRANCH  15  16
ENDBRANCH  14  15
ENDBRANCH  13  14
ENDBRANCH   1  13
TORSDOF 20
ENDMDL
