MODEL 1
REMARK VINA RESULT:    -2.705      0.000      0.000
REMARK INTER + INTRA:          -2.942
REMARK INTER:                  -2.942
REMARK INTRA:                   0.000
REMARK UNBOUND:                 0.000
REMARK SMILES [NH3+]CC(=O)[O-]
REMARK SMILES IDX 2 1 1 2 3 6 4 7 5 8
REMARK H PARENT 1 3 1 4 1 5
REMARK Flexibility Score: inf
ROOT
ATOM      1  C   UNL     1      46.352  16.264  76.268  1.00  0.00     0.312 C 
ENDROOT
BRANCH   1   2
ATOM      2  N   UNL     1      47.051  15.929  77.507  1.00  0.00    -0.353 N 
ATOM      3  H   UNL     1      46.661  16.508  78.286  1.00  0.00     0.344 HD
ATOM      4  H   UNL     1      46.913  14.917  77.736  1.00  0.00     0.344 HD
ATOM      5  H   UNL     1      48.072  16.134  77.410  1.00  0.00     0.344 HD
ENDBRANCH   1   2
BRANCH   1   6
ATOM      6  C   UNL     1      46.046  17.729  76.212  1.00  0.00     0.096 C 
ATOM      7  O   UNL     1      45.587  18.318  77.225  1.00  0.00    -0.544 OA
ATOM      8  O   UNL     1      46.318  18.452  75.057  1.00  0.00    -0.544 OA
ENDBRANCH   1   6
TORSDOF 2
ENDMDL
MODEL 2
REMARK VINA RESULT:    -2.630      8.403      8.774
REMARK INTER + INTRA:          -2.861
REMARK INTER:                  -2.861
REMARK INTRA:                   0.000
REMARK UNBOUND:                 0.000
REMARK SMILES [NH3+]CC(=O)[O-]
REMARK SMILES IDX 2 1 1 2 3 6 4 7 5 8
REMARK H PARENT 1 3 1 4 1 5
REMARK Flexibility Score: inf
ROOT
ATOM      1  C   UNL     1      37.757  17.819  79.732  1.00  0.00     0.312 C 
ENDROOT
BRANCH   1   2
ATOM      2  N   UNL     1      38.730  17.069  78.939  1.00  0.00    -0.353 N 
ATOM      3  H   UNL     1      39.691  17.418  79.158  1.00  0.00     0.344 HD
ATOM      4  H   UNL     1      38.677  16.051  79.174  1.00  0.00     0.344 HD
ATOM      5  H   UNL     1      38.543  17.207  77.919  1.00  0.00     0.344 HD
ENDBRANCH   1   2
BRANCH   1   6
ATOM      6  C   UNL     1      38.366  19.082  80.257  1.00  0.00     0.096 C 
ATOM      7  O   UNL     1      37.804  19.717  81.188  1.00  0.00    -0.544 OA
ATOM      8  O   UNL     1      39.581  19.531  79.752  1.00  0.00    -0.544 OA
ENDBRANCH   1   6
TORSDOF 2
ENDMDL
MODEL 3
REMARK VINA RESULT:    -2.509      1.650      1.707
REMARK INTER + INTRA:          -2.729
REMARK INTER:                  -2.729
REMARK INTRA:                   0.000
REMARK UNBOUND:                 0.000
REMARK SMILES [NH3+]CC(=O)[O-]
REMARK SMILES IDX 2 1 1 2 3 6 4 7 5 8
REMARK H PARENT 1 3 1 4 1 5
REMARK Flexibility Score: inf
ROOT
ATOM      1  C   UNL     1      45.972  17.909  76.813  1.00  0.00     0.312 C 
ENDROOT
BRANCH   1   2
ATOM      2  N   UNL     1      45.691  16.503  76.528  1.00  0.00    -0.353 N 
ATOM      3  H   UNL     1      44.660  16.341  76.598  1.00  0.00     0.344 HD
ATOM      4  H   UNL     1      46.007  16.263  75.560  1.00  0.00     0.344 HD
ATOM      5  H   UNL     1      46.179  15.892  77.222  1.00  0.00     0.344 HD
ENDBRANCH   1   2
BRANCH   1   6
ATOM      6  C   UNL     1      46.322  18.643  75.555  1.00  0.00     0.096 C 
ATOM      7  O   UNL     1      46.697  19.844  75.606  1.00  0.00    -0.544 OA
ATOM      8  O   UNL     1      46.283  17.985  74.332  1.00  0.00    -0.544 OA
ENDBRANCH   1   6
TORSDOF 2
ENDMDL
MODEL 4
REMARK VINA RESULT:    -2.432      1.889      2.133
REMARK INTER + INTRA:          -2.645
REMARK INTER:                  -2.645
REMARK INTRA:                   0.000
REMARK UNBOUND:                 0.000
REMARK SMILES [NH3+]CC(=O)[O-]
REMARK SMILES IDX 2 1 1 2 3 6 4 7 5 8
REMARK H PARENT 1 3 1 4 1 5
REMARK Flexibility Score: inf
ROOT
ATOM      1  C   UNL     1      46.101  17.923  76.213  1.00  0.00     0.312 C 
ENDROOT
BRANCH   1   2
ATOM      2  N   UNL     1      45.691  16.571  76.589  1.00  0.00    -0.353 N 
ATOM      3  H   UNL     1      44.741  16.381  76.196  1.00  0.00     0.344 HD
ATOM      4  H   UNL     1      46.365  15.870  76.201  1.00  0.00     0.344 HD
ATOM      5  H   UNL     1      45.651  16.484  77.630  1.00  0.00     0.344 HD
ENDBRANCH   1   2
BRANCH   1   6
ATOM      6  C   UNL     1      46.064  18.835  77.401  1.00  0.00     0.096 C 
ATOM      7  O   UNL     1      47.126  19.121  78.013  1.00  0.00    -0.544 OA
ATOM      8  O   UNL     1      44.862  19.409  77.798  1.00  0.00    -0.544 OA
ENDBRANCH   1   6
TORSDOF 2
ENDMDL
MODEL 5
REMARK VINA RESULT:    -2.400     20.589     21.015
REMARK INTER + INTRA:          -2.610
REMARK INTER:                  -2.610
REMARK INTRA:                   0.000
REMARK UNBOUND:                 0.000
REMARK SMILES [NH3+]CC(=O)[O-]
REMARK SMILES IDX 2 1 1 2 3 6 4 7 5 8
REMARK H PARENT 1 3 1 4 1 5
REMARK Flexibility Score: inf
ROOT
ATOM      1  C   UNL     1      44.436  31.842  92.555  1.00  0.00     0.312 C 
ENDROOT
BRANCH   1   2
ATOM      2  N   UNL     1      44.820  33.243  92.726  1.00  0.00    -0.353 N 
ATOM      3  H   UNL     1      45.857  33.327  92.626  1.00  0.00     0.344 HD
ATOM      4  H   UNL     1      44.360  33.833  91.994  1.00  0.00     0.344 HD
ATOM      5  H   UNL     1      44.542  33.577  93.677  1.00  0.00     0.344 HD
ENDBRANCH   1   2
BRANCH   1   6
ATOM      6  C   UNL     1      44.831  31.349  91.197  1.00  0.00     0.096 C 
ATOM      7  O   UNL     1      45.997  31.545  90.766  1.00  0.00    -0.544 OA
ATOM      8  O   UNL     1      43.924  30.628  90.429  1.00  0.00    -0.544 OA
ENDBRANCH   1   6
TORSDOF 2
ENDMDL
MODEL 6
REMARK VINA RESULT:    -2.392      1.658      1.953
REMARK INTER + INTRA:          -2.602
REMARK INTER:                  -2.602
REMARK INTRA:                   0.000
REMARK UNBOUND:                 0.000
REMARK SMILES [NH3+]CC(=O)[O-]
REMARK SMILES IDX 2 1 1 2 3 6 4 7 5 8
REMARK H PARENT 1 3 1 4 1 5
REMARK Flexibility Score: inf
ROOT
ATOM      1  C   UNL     1      46.390  18.900  77.607  1.00  0.00     0.312 C 
ENDROOT
BRANCH   1   2
ATOM      2  N   UNL     1      47.505  18.425  78.424  1.00  0.00    -0.353 N 
ATOM      3  H   UNL     1      47.763  19.166  79.115  1.00  0.00     0.344 HD
ATOM      4  H   UNL     1      47.227  17.560  78.944  1.00  0.00     0.344 HD
ATOM      5  H   UNL     1      48.334  18.223  77.819  1.00  0.00     0.344 HD
ENDBRANCH   1   2
BRANCH   1   6
ATOM      6  C   UNL     1      46.180  18.002  76.427  1.00  0.00     0.096 C 
ATOM      7  O   UNL     1      45.930  16.780  76.597  1.00  0.00    -0.544 OA
ATOM      8  O   UNL     1      46.211  18.527  75.140  1.00  0.00    -0.544 OA
ENDBRANCH   1   6
TORSDOF 2
ENDMDL
MODEL 7
REMARK VINA RESULT:    -2.204      8.967      9.200
REMARK INTER + INTRA:          -2.397
REMARK INTER:                  -2.397
REMARK INTRA:                   0.000
REMARK UNBOUND:                 0.000
REMARK SMILES [NH3+]CC(=O)[O-]
REMARK SMILES IDX 2 1 1 2 3 6 4 7 5 8
REMARK H PARENT 1 3 1 4 1 5
REMARK Flexibility Score: inf
ROOT
ATOM      1  C   UNL     1      55.142  17.748  72.924  1.00  0.00     0.312 C 
ENDROOT
BRANCH   1   2
ATOM      2  N   UNL     1      55.891  17.031  73.955  1.00  0.00    -0.353 N 
ATOM      3  H   UNL     1      56.915  17.162  73.786  1.00  0.00     0.344 HD
ATOM      4  H   UNL     1      55.653  17.409  74.901  1.00  0.00     0.344 HD
ATOM      5  H   UNL     1      55.669  16.010  73.915  1.00  0.00     0.344 HD
ENDBRANCH   1   2
BRANCH   1   6
ATOM      6  C   UNL     1      54.589  19.029  73.469  1.00  0.00     0.096 C 
ATOM      7  O   UNL     1      55.157  19.604  74.434  1.00  0.00    -0.544 OA
ATOM      8  O   UNL     1      53.476  19.613  72.877  1.00  0.00    -0.544 OA
ENDBRANCH   1   6
TORSDOF 2
ENDMDL
MODEL 8
REMARK VINA RESULT:    -2.200     21.520     21.862
REMARK INTER + INTRA:          -2.393
REMARK INTER:                  -2.393
REMARK INTRA:                   0.000
REMARK UNBOUND:                 0.000
REMARK SMILES [NH3+]CC(=O)[O-]
REMARK SMILES IDX 2 1 1 2 3 6 4 7 5 8
REMARK H PARENT 1 3 1 4 1 5
REMARK Flexibility Score: inf
ROOT
ATOM      1  C   UNL     1      53.894  35.439  87.719  1.00  0.00     0.312 C 
ENDROOT
BRANCH   1   2
ATOM      2  N   UNL     1      55.019  34.713  87.132  1.00  0.00    -0.353 N 
ATOM      3  H   UNL     1      54.931  33.699  87.369  1.00  0.00     0.344 HD
ATOM      4  H   UNL     1      55.012  34.820  86.091  1.00  0.00     0.344 HD
ATOM      5  H   UNL     1      55.920  35.076  87.519  1.00  0.00     0.344 HD
ENDBRANCH   1   2
BRANCH   1   6
ATOM      6  C   UNL     1      52.675  35.308  86.859  1.00  0.00     0.096 C 
ATOM      7  O   UNL     1      51.535  35.560  87.333  1.00  0.00    -0.544 OA
ATOM      8  O   UNL     1      52.803  34.956  85.521  1.00  0.00    -0.544 OA
ENDBRANCH   1   6
TORSDOF 2
ENDMDL
MODEL 9
REMARK VINA RESULT:    -2.183     18.440     18.651
REMARK INTER + INTRA:          -2.375
REMARK INTER:                  -2.375
REMARK INTRA:                   0.000
REMARK UNBOUND:                 0.000
REMARK SMILES [NH3+]CC(=O)[O-]
REMARK SMILES IDX 2 1 1 2 3 6 4 7 5 8
REMARK H PARENT 1 3 1 4 1 5
REMARK Flexibility Score: inf
ROOT
ATOM      1  C   UNL     1      41.905  30.690  87.186  1.00  0.00     0.312 C 
ENDROOT
BRANCH   1   2
ATOM      2  N   UNL     1      41.910  32.052  86.655  1.00  0.00    -0.353 N 
ATOM      3  H   UNL     1      42.096  32.017  85.626  1.00  0.00     0.344 HD
ATOM      4  H   UNL     1      40.980  32.505  86.816  1.00  0.00     0.344 HD
ATOM      5  H   UNL     1      42.662  32.614  87.116  1.00  0.00     0.344 HD
ENDBRANCH   1   2
BRANCH   1   6
ATOM      6  C   UNL     1      40.985  30.586  88.363  1.00  0.00     0.096 C 
ATOM      7  O   UNL     1      41.419  30.179  89.472  1.00  0.00    -0.544 OA
ATOM      8  O   UNL     1      39.659  30.988  88.247  1.00  0.00    -0.544 OA
ENDBRANCH   1   6
TORSDOF 2
ENDMDL
