MODEL 1
REMARK VINA RESULT:    -3.721      0.000      0.000
REMARK INTER + INTRA:          -8.833
REMARK INTER:                  -6.332
REMARK INTRA:                  -2.501
REMARK UNBOUND:                -2.501
REMARK SMILES CC(=O)CCC[C@@H](C)CCC[C@H](C)CCCC(C)C
REMARK SMILES IDX 10 1 11 2 12 3 13 4 14 5 15 6 16 7 17 8 18 9 19 10 9 11 7 12
REMARK SMILES IDX 8 13 6 14 5 15 4 16 2 17 3 18 1 19
REMARK H PARENT
REMARK Flexibility Score: inf
ROOT
ATOM      1  C   UNL     1       9.133   1.144  -6.948  1.00  0.00     0.001 C 
ENDROOT
BRANCH   1   2
ATOM      2  C   UNL     1       9.522   2.174  -8.024  1.00  0.00     0.003 C 
BRANCH   2   3
ATOM      3  C   UNL     1      10.141   1.564  -9.306  1.00  0.00    -0.014 C 
ATOM      4  C   UNL     1      11.665   1.762  -9.351  1.00  0.00     0.007 C 
BRANCH   3   5
ATOM      5  C   UNL     1       9.445   2.085 -10.589  1.00  0.00     0.003 C 
BRANCH   5   6
ATOM      6  C   UNL     1       8.151   1.318 -10.945  1.00  0.00     0.001 C 
BRANCH   6   7
ATOM      7  C   UNL     1       6.858   2.072 -10.551  1.00  0.00     0.003 C 
BRANCH   7   8
ATOM      8  C   UNL     1       5.537   1.298 -10.788  1.00  0.00    -0.017 C 
ATOM      9  C   UNL     1       5.725   0.079 -11.705  1.00  0.00     0.007 C 
ATOM     10  C   UNL     1       4.836   0.902  -9.482  1.00  0.00     0.007 C 
ENDBRANCH   7   8
ENDBRANCH   6   7
ENDBRANCH   5   6
ENDBRANCH   3   5
ENDBRANCH   2   3
ENDBRANCH   1   2
BRANCH   1  11
ATOM     11  C   UNL     1       7.791   0.474  -7.290  1.00  0.00     0.003 C 
BRANCH  11  12
ATOM     12  C   UNL     1       7.878  -1.071  -7.340  1.00  0.00    -0.014 C 
ATOM     13  C   UNL     1       9.124  -1.582  -6.596  1.00  0.00     0.007 C 
BRANCH  12  14
ATOM     14  C   UNL     1       7.878  -1.543  -8.815  1.00  0.00     0.004 C 
BRANCH  14  15
ATOM     15  C   UNL     1       6.641  -2.391  -9.175  1.00  0.00     0.008 C 
BRANCH  15  16
ATOM     16  C   UNL     1       5.714  -2.618  -7.972  1.00  0.00     0.075 C 
BRANCH  16  17
ATOM     17  C   UNL     1       5.726  -4.052  -7.509  1.00  0.00     0.129 C 
ATOM     18  O   UNL     1       4.734  -4.747  -7.670  1.00  0.00    -0.300 OA
ATOM     19  C   UNL     1       6.927  -4.640  -6.833  1.00  0.00     0.087 C 
ENDBRANCH  16  17
ENDBRANCH  15  16
ENDBRANCH  14  15
ENDBRANCH  12  14
ENDBRANCH  11  12
ENDBRANCH   1  11
TORSDOF 12
ENDMDL
MODEL 2
REMARK VINA RESULT:    -3.714      1.204      2.118
REMARK INTER + INTRA:          -8.821
REMARK INTER:                  -6.167
REMARK INTRA:                  -2.654
REMARK UNBOUND:                -2.501
REMARK SMILES CC(=O)CCC[C@@H](C)CCC[C@H](C)CCCC(C)C
REMARK SMILES IDX 10 1 11 2 12 3 13 4 14 5 15 6 16 7 17 8 18 9 19 10 9 11 7 12
REMARK SMILES IDX 8 13 6 14 5 15 4 16 2 17 3 18 1 19
REMARK H PARENT
REMARK Flexibility Score: inf
ROOT
ATOM      1  C   UNL     1      10.887   2.186  -8.056  1.00  0.00     0.001 C 
ENDROOT
BRANCH   1   2
ATOM      2  C   UNL     1      11.065   1.923  -9.563  1.00  0.00     0.003 C 
BRANCH   2   3
ATOM      3  C   UNL     1       9.804   1.371 -10.273  1.00  0.00    -0.014 C 
ATOM      4  C   UNL     1       9.923  -0.136 -10.552  1.00  0.00     0.007 C 
BRANCH   3   5
ATOM      5  C   UNL     1       9.461   2.178 -11.552  1.00  0.00     0.003 C 
BRANCH   5   6
ATOM      6  C   UNL     1       7.946   2.247 -11.850  1.00  0.00     0.001 C 
BRANCH   6   7
ATOM      7  C   UNL     1       7.067   2.294 -10.577  1.00  0.00     0.003 C 
BRANCH   7   8
ATOM      8  C   UNL     1       6.063   1.125 -10.416  1.00  0.00    -0.017 C 
ATOM      9  C   UNL     1       4.603   1.604 -10.374  1.00  0.00     0.007 C 
ATOM     10  C   UNL     1       6.252   0.027 -11.471  1.00  0.00     0.007 C 
ENDBRANCH   7   8
ENDBRANCH   6   7
ENDBRANCH   5   6
ENDBRANCH   3   5
ENDBRANCH   2   3
ENDBRANCH   1   2
BRANCH   1  11
ATOM     11  C   UNL     1       9.397   2.222  -7.677  1.00  0.00     0.003 C 
BRANCH  11  12
ATOM     12  C   UNL     1       8.990   1.089  -6.703  1.00  0.00    -0.014 C 
ATOM     13  C   UNL     1      10.160   0.120  -6.458  1.00  0.00     0.007 C 
BRANCH  12  14
ATOM     14  C   UNL     1       7.756   0.340  -7.264  1.00  0.00     0.004 C 
BRANCH  14  15
ATOM     15  C   UNL     1       7.948  -1.189  -7.304  1.00  0.00     0.008 C 
BRANCH  15  16
ATOM     16  C   UNL     1       7.172  -1.850  -8.453  1.00  0.00     0.075 C 
BRANCH  16  17
ATOM     17  C   UNL     1       5.763  -2.207  -8.055  1.00  0.00     0.129 C 
ATOM     18  O   UNL     1       4.855  -1.420  -8.279  1.00  0.00    -0.300 OA
ATOM     19  C   UNL     1       5.454  -3.503  -7.368  1.00  0.00     0.087 C 
ENDBRANCH  16  17
ENDBRANCH  15  16
ENDBRANCH  14  15
ENDBRANCH  12  14
ENDBRANCH  11  12
ENDBRANCH   1  11
TORSDOF 12
ENDMDL
MODEL 3
REMARK VINA RESULT:    -3.701      1.568      3.485
REMARK INTER + INTRA:          -8.798
REMARK INTER:                  -6.641
REMARK INTRA:                  -2.156
REMARK UNBOUND:                -2.501
REMARK SMILES CC(=O)CCC[C@@H](C)CCC[C@H](C)CCCC(C)C
REMARK SMILES IDX 10 1 11 2 12 3 13 4 14 5 15 6 16 7 17 8 18 9 19 10 9 11 7 12
REMARK SMILES IDX 8 13 6 14 5 15 4 16 2 17 3 18 1 19
REMARK H PARENT
REMARK Flexibility Score: inf
ROOT
ATOM      1  C   UNL     1       6.778   0.549  -8.012  1.00  0.00     0.001 C 
ENDROOT
BRANCH   1   2
ATOM      2  C   UNL     1       7.660  -0.433  -7.220  1.00  0.00     0.003 C 
BRANCH   2   3
ATOM      3  C   UNL     1       9.144  -0.006  -7.091  1.00  0.00    -0.014 C 
ATOM      4  C   UNL     1       9.918  -0.923  -6.132  1.00  0.00     0.007 C 
BRANCH   3   5
ATOM      5  C   UNL     1       9.285   1.490  -6.711  1.00  0.00     0.003 C 
BRANCH   5   6
ATOM      6  C   UNL     1       9.862   2.365  -7.848  1.00  0.00     0.001 C 
BRANCH   6   7
ATOM      7  C   UNL     1      10.417   1.545  -9.037  1.00  0.00     0.003 C 
BRANCH   7   8
ATOM      8  C   UNL     1       9.594   1.629 -10.347  1.00  0.00    -0.017 C 
ATOM      9  C   UNL     1      10.344   2.370 -11.466  1.00  0.00     0.007 C 
ATOM     10  C   UNL     1       9.099   0.259 -10.828  1.00  0.00     0.007 C 
ENDBRANCH   7   8
ENDBRANCH   6   7
ENDBRANCH   5   6
ENDBRANCH   3   5
ENDBRANCH   2   3
ENDBRANCH   1   2
BRANCH   1  11
ATOM     11  C   UNL     1       5.610  -0.187  -8.690  1.00  0.00     0.003 C 
BRANCH  11  12
ATOM     12  C   UNL     1       5.834  -1.715  -8.796  1.00  0.00    -0.014 C 
ATOM     13  C   UNL     1       5.981  -2.155 -10.264  1.00  0.00     0.007 C 
BRANCH  12  14
ATOM     14  C   UNL     1       4.664  -2.460  -8.107  1.00  0.00     0.004 C 
BRANCH  14  15
ATOM     15  C   UNL     1       5.051  -3.874  -7.629  1.00  0.00     0.008 C 
BRANCH  15  16
ATOM     16  C   UNL     1       6.315  -3.876  -6.757  1.00  0.00     0.075 C 
BRANCH  16  17
ATOM     17  C   UNL     1       7.323  -4.896  -7.221  1.00  0.00     0.129 C 
ATOM     18  O   UNL     1       7.228  -6.054  -6.844  1.00  0.00    -0.300 OA
ATOM     19  C   UNL     1       8.457  -4.512  -8.123  1.00  0.00     0.087 C 
ENDBRANCH  16  17
ENDBRANCH  15  16
ENDBRANCH  14  15
ENDBRANCH  12  14
ENDBRANCH  11  12
ENDBRANCH   1  11
TORSDOF 12
ENDMDL
MODEL 4
REMARK VINA RESULT:    -3.701      2.074      3.373
REMARK INTER + INTRA:          -8.797
REMARK INTER:                  -6.883
REMARK INTRA:                  -1.915
REMARK UNBOUND:                -2.501
REMARK SMILES CC(=O)CCC[C@@H](C)CCC[C@H](C)CCCC(C)C
REMARK SMILES IDX 10 1 11 2 12 3 13 4 14 5 15 6 16 7 17 8 18 9 19 10 9 11 7 12
REMARK SMILES IDX 8 13 6 14 5 15 4 16 2 17 3 18 1 19
REMARK H PARENT
REMARK Flexibility Score: inf
ROOT
ATOM      1  C   UNL     1       8.978   0.034  -6.867  1.00  0.00     0.001 C 
ENDROOT
BRANCH   1   2
ATOM      2  C   UNL     1       9.749   1.179  -6.185  1.00  0.00     0.003 C 
BRANCH   2   3
ATOM      3  C   UNL     1      10.764   1.907  -7.100  1.00  0.00    -0.014 C 
ATOM      4  C   UNL     1      10.500   3.421  -7.151  1.00  0.00     0.007 C 
BRANCH   3   5
ATOM      5  C   UNL     1      10.824   1.276  -8.515  1.00  0.00     0.003 C 
BRANCH   5   6
ATOM      6  C   UNL     1      11.068   2.306  -9.641  1.00  0.00     0.001 C 
BRANCH   6   7
ATOM      7  C   UNL     1      10.167   2.091 -10.881  1.00  0.00     0.003 C 
BRANCH   7   8
ATOM      8  C   UNL     1       8.891   1.245 -10.639  1.00  0.00    -0.017 C 
ATOM      9  C   UNL     1       7.614   2.099 -10.621  1.00  0.00     0.007 C 
ATOM     10  C   UNL     1       8.758   0.074 -11.622  1.00  0.00     0.007 C 
ENDBRANCH   7   8
ENDBRANCH   6   7
ENDBRANCH   5   6
ENDBRANCH   3   5
ENDBRANCH   2   3
ENDBRANCH   1   2
BRANCH   1  11
ATOM     11  C   UNL     1       7.586   0.505  -7.324  1.00  0.00     0.003 C 
BRANCH  11  12
ATOM     12  C   UNL     1       6.666  -0.659  -7.767  1.00  0.00    -0.014 C 
ATOM     13  C   UNL     1       7.422  -1.653  -8.667  1.00  0.00     0.007 C 
BRANCH  12  14
ATOM     14  C   UNL     1       5.421  -0.090  -8.490  1.00  0.00     0.004 C 
BRANCH  14  15
ATOM     15  C   UNL     1       4.516  -1.188  -9.084  1.00  0.00     0.008 C 
BRANCH  15  16
ATOM     16  C   UNL     1       3.525  -1.754  -8.057  1.00  0.00     0.075 C 
BRANCH  16  17
ATOM     17  C   UNL     1       2.152  -1.149  -8.200  1.00  0.00     0.129 C 
ATOM     18  O   UNL     1       1.481  -0.932  -7.203  1.00  0.00    -0.300 OA
ATOM     19  C   UNL     1       1.583  -0.827  -9.548  1.00  0.00     0.087 C 
ENDBRANCH  16  17
ENDBRANCH  15  16
ENDBRANCH  14  15
ENDBRANCH  12  14
ENDBRANCH  11  12
ENDBRANCH   1  11
TORSDOF 12
ENDMDL
MODEL 5
REMARK VINA RESULT:    -3.695      3.506      6.640
REMARK INTER + INTRA:          -8.788
REMARK INTER:                  -7.022
REMARK INTRA:                  -1.767
REMARK UNBOUND:                -2.501
REMARK SMILES CC(=O)CCC[C@@H](C)CCC[C@H](C)CCCC(C)C
REMARK SMILES IDX 10 1 11 2 12 3 13 4 14 5 15 6 16 7 17 8 18 9 19 10 9 11 7 12
REMARK SMILES IDX 8 13 6 14 5 15 4 16 2 17 3 18 1 19
REMARK H PARENT
REMARK Flexibility Score: inf
ROOT
ATOM      1  C   UNL     1       7.907   1.854  -9.741  1.00  0.00     0.001 C 
ENDROOT
BRANCH   1   2
ATOM      2  C   UNL     1       7.047   0.624 -10.085  1.00  0.00     0.003 C 
BRANCH   2   3
ATOM      3  C   UNL     1       6.352  -0.036  -8.868  1.00  0.00    -0.014 C 
ATOM      4  C   UNL     1       4.881   0.395  -8.751  1.00  0.00     0.007 C 
BRANCH   3   5
ATOM      5  C   UNL     1       7.138   0.202  -7.553  1.00  0.00     0.003 C 
BRANCH   5   6
ATOM      6  C   UNL     1       8.110  -0.945  -7.197  1.00  0.00     0.001 C 
BRANCH   6   7
ATOM      7  C   UNL     1       7.758  -2.287  -7.883  1.00  0.00     0.003 C 
BRANCH   7   8
ATOM      8  C   UNL     1       6.737  -3.175  -7.127  1.00  0.00    -0.017 C 
ATOM      9  C   UNL     1       5.643  -3.731  -8.052  1.00  0.00     0.007 C 
ATOM     10  C   UNL     1       7.404  -4.299  -6.325  1.00  0.00     0.007 C 
ENDBRANCH   7   8
ENDBRANCH   6   7
ENDBRANCH   5   6
ENDBRANCH   3   5
ENDBRANCH   2   3
ENDBRANCH   1   2
BRANCH   1  11
ATOM     11  C   UNL     1       9.326   1.711 -10.318  1.00  0.00     0.003 C 
BRANCH  11  12
ATOM     12  C   UNL     1      10.432   1.803  -9.239  1.00  0.00    -0.014 C 
ATOM     13  C   UNL     1      11.014   0.415  -8.919  1.00  0.00     0.007 C 
BRANCH  12  14
ATOM     14  C   UNL     1       9.860   2.474  -7.965  1.00  0.00     0.004 C 
BRANCH  14  15
ATOM     15  C   UNL     1      10.956   2.905  -6.969  1.00  0.00     0.008 C 
BRANCH  15  16
ATOM     16  C   UNL     1      11.068   4.431  -6.841  1.00  0.00     0.075 C 
BRANCH  16  17
ATOM     17  C   UNL     1      11.345   4.863  -5.425  1.00  0.00     0.129 C 
ATOM     18  O   UNL     1      11.363   6.053  -5.149  1.00  0.00    -0.300 OA
ATOM     19  C   UNL     1      11.620   3.859  -4.346  1.00  0.00     0.087 C 
ENDBRANCH  16  17
ENDBRANCH  15  16
ENDBRANCH  14  15
ENDBRANCH  12  14
ENDBRANCH  11  12
ENDBRANCH   1  11
TORSDOF 12
ENDMDL
MODEL 6
REMARK VINA RESULT:    -3.670      2.615      4.942
REMARK INTER + INTRA:          -8.745
REMARK INTER:                  -6.287
REMARK INTRA:                  -2.458
REMARK UNBOUND:                -2.501
REMARK SMILES CC(=O)CCC[C@@H](C)CCC[C@H](C)CCCC(C)C
REMARK SMILES IDX 10 1 11 2 12 3 13 4 14 5 15 6 16 7 17 8 18 9 19 10 9 11 7 12
REMARK SMILES IDX 8 13 6 14 5 15 4 16 2 17 3 18 1 19
REMARK H PARENT
REMARK Flexibility Score: inf
ROOT
ATOM      1  C   UNL     1      10.784   1.848  -8.318  1.00  0.00     0.001 C 
ENDROOT
BRANCH   1   2
ATOM      2  C   UNL     1       9.546   2.274  -7.507  1.00  0.00     0.003 C 
BRANCH   2   3
ATOM      3  C   UNL     1       8.971   1.171  -6.584  1.00  0.00    -0.014 C 
ATOM      4  C   UNL     1      10.062   0.193  -6.120  1.00  0.00     0.007 C 
BRANCH   3   5
ATOM      5  C   UNL     1       7.768   0.441  -7.234  1.00  0.00     0.003 C 
BRANCH   5   6
ATOM      6  C   UNL     1       7.952  -1.091  -7.327  1.00  0.00     0.001 C 
BRANCH   6   7
ATOM      7  C   UNL     1       7.406  -1.700  -8.641  1.00  0.00     0.003 C 
BRANCH   7   8
ATOM      8  C   UNL     1       6.098  -1.066  -9.177  1.00  0.00    -0.017 C 
ATOM      9  C   UNL     1       5.886  -1.331 -10.675  1.00  0.00     0.007 C 
ATOM     10  C   UNL     1       4.862  -1.475  -8.365  1.00  0.00     0.007 C 
ENDBRANCH   7   8
ENDBRANCH   6   7
ENDBRANCH   5   6
ENDBRANCH   3   5
ENDBRANCH   2   3
ENDBRANCH   1   2
BRANCH   1  11
ATOM     11  C   UNL     1      10.524   1.986  -9.829  1.00  0.00     0.003 C 
BRANCH  11  12
ATOM     12  C   UNL     1       9.301   1.169 -10.312  1.00  0.00    -0.014 C 
ATOM     13  C   UNL     1       9.742  -0.075 -11.105  1.00  0.00     0.007 C 
BRANCH  12  14
ATOM     14  C   UNL     1       8.377   2.073 -11.164  1.00  0.00     0.004 C 
BRANCH  14  15
ATOM     15  C   UNL     1       6.954   2.195 -10.583  1.00  0.00     0.008 C 
BRANCH  15  16
ATOM     16  C   UNL     1       6.071   3.162 -11.385  1.00  0.00     0.075 C 
BRANCH  16  17
ATOM     17  C   UNL     1       4.642   3.154 -10.908  1.00  0.00     0.129 C 
ATOM     18  O   UNL     1       3.994   4.190 -10.922  1.00  0.00    -0.300 OA
ATOM     19  C   UNL     1       4.001   1.899 -10.396  1.00  0.00     0.087 C 
ENDBRANCH  16  17
ENDBRANCH  15  16
ENDBRANCH  14  15
ENDBRANCH  12  14
ENDBRANCH  11  12
ENDBRANCH   1  11
TORSDOF 12
ENDMDL
MODEL 7
REMARK VINA RESULT:    -3.626      1.292      3.283
REMARK INTER + INTRA:          -8.670
REMARK INTER:                  -6.045
REMARK INTRA:                  -2.625
REMARK UNBOUND:                -2.501
REMARK SMILES CC(=O)CCC[C@@H](C)CCC[C@H](C)CCCC(C)C
REMARK SMILES IDX 10 1 11 2 12 3 13 4 14 5 15 6 16 7 17 8 18 9 19 10 9 11 7 12
REMARK SMILES IDX 8 13 6 14 5 15 4 16 2 17 3 18 1 19
REMARK H PARENT
REMARK Flexibility Score: inf
ROOT
ATOM      1  C   UNL     1       6.698  -0.213  -8.398  1.00  0.00     0.001 C 
ENDROOT
BRANCH   1   2
ATOM      2  C   UNL     1       6.262   0.993  -9.249  1.00  0.00     0.003 C 
BRANCH   2   3
ATOM      3  C   UNL     1       6.746   0.952 -10.720  1.00  0.00    -0.014 C 
ATOM      4  C   UNL     1       7.428  -0.384 -11.056  1.00  0.00     0.007 C 
BRANCH   3   5
ATOM      5  C   UNL     1       7.640   2.169 -11.070  1.00  0.00     0.003 C 
BRANCH   5   6
ATOM      6  C   UNL     1       8.965   1.783 -11.765  1.00  0.00     0.001 C 
BRANCH   6   7
ATOM      7  C   UNL     1      10.224   2.144 -10.939  1.00  0.00     0.003 C 
BRANCH   7   8
ATOM      8  C   UNL     1      10.319   1.478  -9.543  1.00  0.00    -0.017 C 
ATOM      9  C   UNL     1      11.558   0.580  -9.403  1.00  0.00     0.007 C 
ATOM     10  C   UNL     1      10.239   2.491  -8.394  1.00  0.00     0.007 C 
ENDBRANCH   7   8
ENDBRANCH   6   7
ENDBRANCH   5   6
ENDBRANCH   3   5
ENDBRANCH   2   3
ENDBRANCH   1   2
BRANCH   1  11
ATOM     11  C   UNL     1       7.657   0.224  -7.276  1.00  0.00     0.003 C 
BRANCH  11  12
ATOM     12  C   UNL     1       8.621  -0.902  -6.829  1.00  0.00    -0.014 C 
ATOM     13  C   UNL     1       9.867  -0.323  -6.134  1.00  0.00     0.007 C 
BRANCH  12  14
ATOM     14  C   UNL     1       9.016  -1.764  -8.053  1.00  0.00     0.004 C 
BRANCH  14  15
ATOM     15  C   UNL     1       8.770  -3.270  -7.832  1.00  0.00     0.008 C 
BRANCH  15  16
ATOM     16  C   UNL     1       7.832  -3.546  -6.649  1.00  0.00     0.075 C 
BRANCH  16  17
ATOM     17  C   UNL     1       6.563  -4.235  -7.079  1.00  0.00     0.129 C 
ATOM     18  O   UNL     1       6.543  -5.452  -7.187  1.00  0.00    -0.300 OA
ATOM     19  C   UNL     1       5.324  -3.453  -7.398  1.00  0.00     0.087 C 
ENDBRANCH  16  17
ENDBRANCH  15  16
ENDBRANCH  14  15
ENDBRANCH  12  14
ENDBRANCH  11  12
ENDBRANCH   1  11
TORSDOF 12
ENDMDL
MODEL 8
REMARK VINA RESULT:    -3.606      2.320      3.559
REMARK INTER + INTRA:          -8.637
REMARK INTER:                  -6.056
REMARK INTRA:                  -2.581
REMARK UNBOUND:                -2.501
REMARK SMILES CC(=O)CCC[C@@H](C)CCC[C@H](C)CCCC(C)C
REMARK SMILES IDX 10 1 11 2 12 3 13 4 14 5 15 6 16 7 17 8 18 9 19 10 9 11 7 12
REMARK SMILES IDX 8 13 6 14 5 15 4 16 2 17 3 18 1 19
REMARK H PARENT
REMARK Flexibility Score: inf
ROOT
ATOM      1  C   UNL     1       9.396   1.902  -8.193  1.00  0.00     0.001 C 
ENDROOT
BRANCH   1   2
ATOM      2  C   UNL     1      10.649   2.089  -9.067  1.00  0.00     0.003 C 
BRANCH   2   3
ATOM      3  C   UNL     1      10.409   1.904 -10.586  1.00  0.00    -0.014 C 
ATOM      4  C   UNL     1      11.326   2.811 -11.421  1.00  0.00     0.007 C 
BRANCH   3   5
ATOM      5  C   UNL     1       8.915   2.079 -10.961  1.00  0.00     0.003 C 
BRANCH   5   6
ATOM      6  C   UNL     1       8.291   0.824 -11.614  1.00  0.00     0.001 C 
BRANCH   6   7
ATOM      7  C   UNL     1       9.336  -0.228 -12.055  1.00  0.00     0.003 C 
BRANCH   7   8
ATOM      8  C   UNL     1       9.196  -1.624 -11.397  1.00  0.00    -0.017 C 
ATOM      9  C   UNL     1      10.207  -1.843 -10.261  1.00  0.00     0.007 C 
ATOM     10  C   UNL     1       7.766  -1.920 -10.928  1.00  0.00     0.007 C 
ENDBRANCH   7   8
ENDBRANCH   6   7
ENDBRANCH   5   6
ENDBRANCH   3   5
ENDBRANCH   2   3
ENDBRANCH   1   2
BRANCH   1  11
ATOM     11  C   UNL     1       9.413   0.532  -7.494  1.00  0.00     0.003 C 
BRANCH  11  12
ATOM     12  C   UNL     1       7.997  -0.005  -7.173  1.00  0.00    -0.014 C 
ATOM     13  C   UNL     1       7.939  -1.537  -7.306  1.00  0.00     0.007 C 
BRANCH  12  14
ATOM     14  C   UNL     1       6.962   0.674  -8.104  1.00  0.00     0.004 C 
BRANCH  14  15
ATOM     15  C   UNL     1       5.732  -0.213  -8.383  1.00  0.00     0.008 C 
BRANCH  15  16
ATOM     16  C   UNL     1       4.872   0.319  -9.539  1.00  0.00     0.075 C 
BRANCH  16  17
ATOM     17  C   UNL     1       3.469   0.645  -9.098  1.00  0.00     0.129 C 
ATOM     18  O   UNL     1       3.039   1.780  -9.243  1.00  0.00    -0.300 OA
ATOM     19  C   UNL     1       2.592  -0.392  -8.464  1.00  0.00     0.087 C 
ENDBRANCH  16  17
ENDBRANCH  15  16
ENDBRANCH  14  15
ENDBRANCH  12  14
ENDBRANCH  11  12
ENDBRANCH   1  11
TORSDOF 12
ENDMDL
MODEL 9
REMARK VINA RESULT:    -3.579      2.144      4.773
REMARK INTER + INTRA:          -8.591
REMARK INTER:                  -6.235
REMARK INTRA:                  -2.356
REMARK UNBOUND:                -2.501
REMARK SMILES CC(=O)CCC[C@@H](C)CCC[C@H](C)CCCC(C)C
REMARK SMILES IDX 10 1 11 2 12 3 13 4 14 5 15 6 16 7 17 8 18 9 19 10 9 11 7 12
REMARK SMILES IDX 8 13 6 14 5 15 4 16 2 17 3 18 1 19
REMARK H PARENT
REMARK Flexibility Score: inf
ROOT
ATOM      1  C   UNL     1       7.964   1.781  -9.656  1.00  0.00     0.001 C 
ENDROOT
BRANCH   1   2
ATOM      2  C   UNL     1       9.426   1.700 -10.133  1.00  0.00     0.003 C 
BRANCH   2   3
ATOM      3  C   UNL     1      10.468   2.187  -9.096  1.00  0.00    -0.014 C 
ATOM      4  C   UNL     1      11.682   1.246  -9.027  1.00  0.00     0.007 C 
BRANCH   3   5
ATOM      5  C   UNL     1       9.832   2.425  -7.703  1.00  0.00     0.003 C 
BRANCH   5   6
ATOM      6  C   UNL     1      10.630   3.410  -6.819  1.00  0.00     0.001 C 
BRANCH   6   7
ATOM      7  C   UNL     1      11.346   2.730  -5.628  1.00  0.00     0.003 C 
BRANCH   7   8
ATOM      8  C   UNL     1      10.470   1.773  -4.780  1.00  0.00    -0.017 C 
ATOM      9  C   UNL     1      10.857   0.298  -4.969  1.00  0.00     0.007 C 
ATOM     10  C   UNL     1      10.443   2.150  -3.294  1.00  0.00     0.007 C 
ENDBRANCH   7   8
ENDBRANCH   6   7
ENDBRANCH   5   6
ENDBRANCH   3   5
ENDBRANCH   2   3
ENDBRANCH   1   2
BRANCH   1  11
ATOM     11  C   UNL     1       7.178   0.528 -10.081  1.00  0.00     0.003 C 
BRANCH  11  12
ATOM     12  C   UNL     1       6.426  -0.145  -8.907  1.00  0.00    -0.014 C 
ATOM     13  C   UNL     1       5.017   0.450  -8.735  1.00  0.00     0.007 C 
BRANCH  12  14
ATOM     14  C   UNL     1       7.255   0.003  -7.607  1.00  0.00     0.004 C 
BRANCH  14  15
ATOM     15  C   UNL     1       8.002  -1.289  -7.220  1.00  0.00     0.008 C 
BRANCH  15  16
ATOM     16  C   UNL     1       9.384  -1.390  -7.881  1.00  0.00     0.075 C 
BRANCH  16  17
ATOM     17  C   UNL     1       9.365  -2.270  -9.104  1.00  0.00     0.129 C 
ATOM     18  O   UNL     1       8.568  -3.193  -9.172  1.00  0.00    -0.300 OA
ATOM     19  C   UNL     1      10.323  -2.048 -10.235  1.00  0.00     0.087 C 
ENDBRANCH  16  17
ENDBRANCH  15  16
ENDBRANCH  14  15
ENDBRANCH  12  14
ENDBRANCH  11  12
ENDBRANCH   1  11
TORSDOF 12
ENDMDL
