MODEL 1
REMARK VINA RESULT:    -5.470      0.000      0.000
REMARK INTER + INTRA:          -5.470
REMARK INTER:                  -5.470
REMARK INTRA:                   0.000
REMARK UNBOUND:                 0.000
REMARK SMILES CC1(C)[C@H]2CC[C@]1(C)C(=O)C2
REMARK SMILES IDX 1 1 2 2 4 3 5 4 6 5 7 6 9 7 10 8 11 9 8 10 3 11
REMARK H PARENT
REMARK Flexibility Score: inf
ROOT
ATOM      1  C   UNL     1      19.975  -0.463  -7.163  1.00  0.00     0.012 C 
ATOM      2  C   UNL     1      19.290  -1.261  -6.013  1.00  0.00    -0.020 C 
ATOM      3  C   UNL     1      20.096  -1.273  -4.692  1.00  0.00     0.003 C 
ATOM      4  C   UNL     1      20.094   0.224  -4.277  1.00  0.00     0.005 C 
ATOM      5  C   UNL     1      18.694   0.708  -4.729  1.00  0.00     0.015 C 
ATOM      6  C   UNL     1      18.078  -0.567  -5.353  1.00  0.00     0.032 C 
ATOM      7  C   UNL     1      17.833  -1.488  -4.183  1.00  0.00     0.139 C 
ATOM      8  O   UNL     1      16.753  -1.713  -3.660  1.00  0.00    -0.299 OA
ATOM      9  C   UNL     1      19.152  -2.005  -3.697  1.00  0.00     0.080 C 
ATOM     10  C   UNL     1      16.859  -0.320  -6.249  1.00  0.00     0.020 C 
ATOM     11  C   UNL     1      18.996  -2.686  -6.579  1.00  0.00     0.012 C 
ENDROOT
TORSDOF 0
ENDMDL
MODEL 2
REMARK VINA RESULT:    -5.351      9.257     10.520
REMARK INTER + INTRA:          -5.351
REMARK INTER:                  -5.351
REMARK INTRA:                   0.000
REMARK UNBOUND:                 0.000
REMARK SMILES CC1(C)[C@H]2CC[C@]1(C)C(=O)C2
REMARK SMILES IDX 1 1 2 2 4 3 5 4 6 5 7 6 9 7 10 8 11 9 8 10 3 11
REMARK H PARENT
REMARK Flexibility Score: inf
ROOT
ATOM      1  C   UNL     1      27.100  -4.238  -2.924  1.00  0.00     0.012 C 
ATOM      2  C   UNL     1      26.979  -5.289  -4.069  1.00  0.00    -0.020 C 
ATOM      3  C   UNL     1      26.604  -4.679  -5.441  1.00  0.00     0.003 C 
ATOM      4  C   UNL     1      27.832  -3.784  -5.765  1.00  0.00     0.005 C 
ATOM      5  C   UNL     1      29.017  -4.599  -5.190  1.00  0.00     0.015 C 
ATOM      6  C   UNL     1      28.317  -5.848  -4.602  1.00  0.00     0.032 C 
ATOM      7  C   UNL     1      27.837  -6.621  -5.804  1.00  0.00     0.139 C 
ATOM      8  O   UNL     1      28.353  -7.628  -6.264  1.00  0.00    -0.299 OA
ATOM      9  C   UNL     1      26.678  -5.892  -6.411  1.00  0.00     0.080 C 
ATOM     10  C   UNL     1      29.165  -6.653  -3.610  1.00  0.00     0.020 C 
ATOM     11  C   UNL     1      25.973  -6.372  -3.570  1.00  0.00     0.012 C 
ENDROOT
TORSDOF 0
ENDMDL
MODEL 3
REMARK VINA RESULT:    -5.271      1.907      3.118
REMARK INTER + INTRA:          -5.271
REMARK INTER:                  -5.271
REMARK INTRA:                   0.000
REMARK UNBOUND:                 0.000
REMARK SMILES CC1(C)[C@H]2CC[C@]1(C)C(=O)C2
REMARK SMILES IDX 1 1 2 2 4 3 5 4 6 5 7 6 9 7 10 8 11 9 8 10 3 11
REMARK H PARENT
REMARK Flexibility Score: inf
ROOT
ATOM      1  C   UNL     1      19.028  -2.674  -4.280  1.00  0.00     0.012 C 
ATOM      2  C   UNL     1      18.805  -1.782  -5.539  1.00  0.00    -0.020 C 
ATOM      3  C   UNL     1      17.392  -1.156  -5.620  1.00  0.00     0.003 C 
ATOM      4  C   UNL     1      17.360  -0.220  -4.380  1.00  0.00     0.005 C 
ATOM      5  C   UNL     1      18.814   0.308  -4.307  1.00  0.00     0.015 C 
ATOM      6  C   UNL     1      19.494  -0.400  -5.504  1.00  0.00     0.032 C 
ATOM      7  C   UNL     1      18.888   0.244  -6.726  1.00  0.00     0.139 C 
ATOM      8  O   UNL     1      19.424   1.079  -7.438  1.00  0.00    -0.299 OA
ATOM      9  C   UNL     1      17.475  -0.231  -6.866  1.00  0.00     0.080 C 
ATOM     10  C   UNL     1      21.026  -0.400  -5.464  1.00  0.00     0.020 C 
ATOM     11  C   UNL     1      19.172  -2.662  -6.774  1.00  0.00     0.012 C 
ENDROOT
TORSDOF 0
ENDMDL
MODEL 4
REMARK VINA RESULT:    -5.170      1.282      2.308
REMARK INTER + INTRA:          -5.170
REMARK INTER:                  -5.170
REMARK INTRA:                   0.000
REMARK UNBOUND:                 0.000
REMARK SMILES CC1(C)[C@H]2CC[C@]1(C)C(=O)C2
REMARK SMILES IDX 1 1 2 2 4 3 5 4 6 5 7 6 9 7 10 8 11 9 8 10 3 11
REMARK H PARENT
REMARK Flexibility Score: inf
ROOT
ATOM      1  C   UNL     1      20.934   0.158  -4.376  1.00  0.00     0.012 C 
ATOM      2  C   UNL     1      20.001  -0.501  -5.437  1.00  0.00    -0.020 C 
ATOM      3  C   UNL     1      19.905  -2.041  -5.315  1.00  0.00     0.003 C 
ATOM      4  C   UNL     1      19.232  -2.234  -3.928  1.00  0.00     0.005 C 
ATOM      5  C   UNL     1      18.246  -1.042  -3.851  1.00  0.00     0.015 C 
ATOM      6  C   UNL     1      18.486  -0.315  -5.197  1.00  0.00     0.032 C 
ATOM      7  C   UNL     1      17.922  -1.244  -6.242  1.00  0.00     0.139 C 
ATOM      8  O   UNL     1      16.857  -1.109  -6.824  1.00  0.00    -0.299 OA
ATOM      9  C   UNL     1      18.836  -2.423  -6.377  1.00  0.00     0.080 C 
ATOM     10  C   UNL     1      17.956   1.122  -5.254  1.00  0.00     0.020 C 
ATOM     11  C   UNL     1      20.504  -0.014  -6.831  1.00  0.00     0.012 C 
ENDROOT
TORSDOF 0
ENDMDL
MODEL 5
REMARK VINA RESULT:    -5.110      9.036     10.297
REMARK INTER + INTRA:          -5.110
REMARK INTER:                  -5.110
REMARK INTRA:                   0.000
REMARK UNBOUND:                 0.000
REMARK SMILES CC1(C)[C@H]2CC[C@]1(C)C(=O)C2
REMARK SMILES IDX 1 1 2 2 4 3 5 4 6 5 7 6 9 7 10 8 11 9 8 10 3 11
REMARK H PARENT
REMARK Flexibility Score: inf
ROOT
ATOM      1  C   UNL     1      27.342  -2.984  -5.281  1.00  0.00     0.012 C 
ATOM      2  C   UNL     1      27.270  -4.274  -4.409  1.00  0.00    -0.020 C 
ATOM      3  C   UNL     1      26.073  -5.194  -4.750  1.00  0.00     0.003 C 
ATOM      4  C   UNL     1      26.388  -5.639  -6.205  1.00  0.00     0.005 C 
ATOM      5  C   UNL     1      27.931  -5.765  -6.204  1.00  0.00     0.015 C 
ATOM      6  C   UNL     1      28.304  -5.368  -4.755  1.00  0.00     0.032 C 
ATOM      7  C   UNL     1      27.801  -6.506  -3.902  1.00  0.00     0.139 C 
ATOM      8  O   UNL     1      28.484  -7.387  -3.404  1.00  0.00    -0.299 OA
ATOM      9  C   UNL     1      26.305  -6.440  -3.851  1.00  0.00     0.080 C 
ATOM     10  C   UNL     1      29.779  -5.006  -4.547  1.00  0.00     0.020 C 
ATOM     11  C   UNL     1      27.293  -3.803  -2.921  1.00  0.00     0.012 C 
ENDROOT
TORSDOF 0
ENDMDL
MODEL 6
REMARK VINA RESULT:    -5.099      1.269      2.414
REMARK INTER + INTRA:          -5.099
REMARK INTER:                  -5.099
REMARK INTRA:                   0.000
REMARK UNBOUND:                 0.000
REMARK SMILES CC1(C)[C@H]2CC[C@]1(C)C(=O)C2
REMARK SMILES IDX 1 1 2 2 4 3 5 4 6 5 7 6 9 7 10 8 11 9 8 10 3 11
REMARK H PARENT
REMARK Flexibility Score: inf
ROOT
ATOM      1  C   UNL     1      17.826   1.125  -5.399  1.00  0.00     0.012 C 
ATOM      2  C   UNL     1      18.009  -0.418  -5.523  1.00  0.00    -0.020 C 
ATOM      3  C   UNL     1      19.150  -0.837  -6.481  1.00  0.00     0.003 C 
ATOM      4  C   UNL     1      20.415  -0.280  -5.772  1.00  0.00     0.005 C 
ATOM      5  C   UNL     1      20.086  -0.475  -4.271  1.00  0.00     0.015 C 
ATOM      6  C   UNL     1      18.675  -1.108  -4.312  1.00  0.00     0.032 C 
ATOM      7  C   UNL     1      18.891  -2.494  -4.865  1.00  0.00     0.139 C 
ATOM      8  O   UNL     1      18.895  -3.532  -4.221  1.00  0.00    -0.299 OA
ATOM      9  C   UNL     1      19.206  -2.383  -6.325  1.00  0.00     0.080 C 
ATOM     10  C   UNL     1      17.907  -1.052  -2.986  1.00  0.00     0.020 C 
ATOM     11  C   UNL     1      16.616  -0.997  -5.919  1.00  0.00     0.012 C 
ENDROOT
TORSDOF 0
ENDMDL
MODEL 7
REMARK VINA RESULT:    -5.091      1.203      2.257
REMARK INTER + INTRA:          -5.091
REMARK INTER:                  -5.091
REMARK INTRA:                   0.000
REMARK UNBOUND:                 0.000
REMARK SMILES CC1(C)[C@H]2CC[C@]1(C)C(=O)C2
REMARK SMILES IDX 1 1 2 2 4 3 5 4 6 5 7 6 9 7 10 8 11 9 8 10 3 11
REMARK H PARENT
REMARK Flexibility Score: inf
ROOT
ATOM      1  C   UNL     1      19.485   0.604  -7.083  1.00  0.00     0.012 C 
ATOM      2  C   UNL     1      19.473  -0.237  -5.771  1.00  0.00    -0.020 C 
ATOM      3  C   UNL     1      18.571   0.351  -4.659  1.00  0.00     0.003 C 
ATOM      4  C   UNL     1      17.151   0.251  -5.282  1.00  0.00     0.005 C 
ATOM      5  C   UNL     1      17.217  -1.070  -6.087  1.00  0.00     0.015 C 
ATOM      6  C   UNL     1      18.666  -1.552  -5.832  1.00  0.00     0.032 C 
ATOM      7  C   UNL     1      18.686  -1.958  -4.379  1.00  0.00     0.139 C 
ATOM      8  O   UNL     1      18.662  -3.102  -3.953  1.00  0.00    -0.299 OA
ATOM      9  C   UNL     1      18.633  -0.722  -3.536  1.00  0.00     0.080 C 
ATOM     10  C   UNL     1      19.170  -2.619  -6.810  1.00  0.00     0.020 C 
ATOM     11  C   UNL     1      20.964  -0.406  -5.342  1.00  0.00     0.012 C 
ENDROOT
TORSDOF 0
ENDMDL
MODEL 8
REMARK VINA RESULT:    -5.074      1.848      3.167
REMARK INTER + INTRA:          -5.074
REMARK INTER:                  -5.074
REMARK INTRA:                   0.000
REMARK UNBOUND:                 0.000
REMARK SMILES CC1(C)[C@H]2CC[C@]1(C)C(=O)C2
REMARK SMILES IDX 1 1 2 2 4 3 5 4 6 5 7 6 9 7 10 8 11 9 8 10 3 11
REMARK H PARENT
REMARK Flexibility Score: inf
ROOT
ATOM      1  C   UNL     1      17.403  -0.881  -3.602  1.00  0.00     0.012 C 
ATOM      2  C   UNL     1      18.558  -0.431  -4.547  1.00  0.00    -0.020 C 
ATOM      3  C   UNL     1      19.953  -0.944  -4.117  1.00  0.00     0.003 C 
ATOM      4  C   UNL     1      19.812  -2.485  -4.265  1.00  0.00     0.005 C 
ATOM      5  C   UNL     1      18.900  -2.632  -5.508  1.00  0.00     0.015 C 
ATOM      6  C   UNL     1      18.627  -1.161  -5.906  1.00  0.00     0.032 C 
ATOM      7  C   UNL     1      19.948  -0.653  -6.428  1.00  0.00     0.139 C 
ATOM      8  O   UNL     1      20.242  -0.491  -7.602  1.00  0.00    -0.299 OA
ATOM      9  C   UNL     1      20.884  -0.477  -5.271  1.00  0.00     0.080 C 
ATOM     10  C   UNL     1      17.437  -0.961  -6.851  1.00  0.00     0.020 C 
ATOM     11  C   UNL     1      18.467   1.124  -4.646  1.00  0.00     0.012 C 
ENDROOT
TORSDOF 0
ENDMDL
