MODEL 1
REMARK VINA RESULT:    -4.881      0.000      0.000
REMARK INTER + INTRA:          -6.556
REMARK INTER:                  -5.880
REMARK INTRA:                  -0.676
REMARK UNBOUND:                -0.676
REMARK SMILES O=c1ccn([C@@H]2O[C@@H](CO)[C@H](O)[C@H]2O)c(=O)[nH]1
REMARK SMILES IDX 6 1 13 2 11 3 8 4 7 5 5 6 3 7 4 8 2 9 17 10 1 11 15 12 16 14
REMARK SMILES IDX 14 15 12 17 9 19 10 20
REMARK H PARENT 17 13 14 16 12 18 10 21
REMARK Flexibility Score: inf
ROOT
ATOM      1  C   UNL     1      31.934   8.264   6.172  1.00  0.00     0.255 C 
ATOM      2  C   UNL     1      31.321   6.968   5.649  1.00  0.00     0.196 C 
ATOM      3  C   UNL     1      31.987   6.805   4.309  1.00  0.00     0.179 C 
ATOM      4  C   UNL     1      32.263   8.258   3.907  1.00  0.00     0.178 C 
ATOM      5  O   UNL     1      32.307   9.064   5.068  1.00  0.00    -0.347 OA
ENDROOT
BRANCH   1   6
ATOM      6  N   UNL     1      30.980   8.984   7.041  1.00  0.00    -0.271 N 
ATOM      7  C   UNL     1      29.183  10.556   7.283  1.00  0.00     0.090 A 
ATOM      8  C   UNL     1      30.111   9.887   6.489  1.00  0.00     0.099 A 
ATOM      9  C   UNL     1      29.147  10.275   8.645  1.00  0.00     0.253 A 
ATOM     10  N   UNL     1      30.002   9.359   9.169  1.00  0.00    -0.274 N 
ATOM     11  O   UNL     1      28.318  10.867   9.388  1.00  0.00    -0.269 OA
ATOM     12  C   UNL     1      30.905   8.709   8.385  1.00  0.00     0.330 A 
ATOM     13  H   UNL     1      29.961   9.147  10.192  1.00  0.00     0.175 HD
ATOM     14  O   UNL     1      31.667   7.851   8.908  1.00  0.00    -0.248 OA
ENDBRANCH   1   6
BRANCH   2  15
ATOM     15  O   UNL     1      31.546   5.873   6.506  1.00  0.00    -0.386 OA
ATOM     16  H   UNL     1      30.767   5.261   6.442  1.00  0.00     0.211 HD
ENDBRANCH   2  15
BRANCH   3  17
ATOM     17  O   UNL     1      31.120   6.174   3.403  1.00  0.00    -0.387 OA
ATOM     18  H   UNL     1      31.519   5.289   3.200  1.00  0.00     0.211 HD
ENDBRANCH   3  17
BRANCH   4  19
ATOM     19  C   UNL     1      33.576   8.412   3.132  1.00  0.00     0.191 C 
BRANCH  19  20
ATOM     20  O   UNL     1      33.837   7.255   2.387  1.00  0.00    -0.394 OA
ATOM     21  H   UNL     1      33.049   7.124   1.799  1.00  0.00     0.210 HD
ENDBRANCH  19  20
ENDBRANCH   4  19
TORSDOF 5
ENDMDL
MODEL 2
REMARK VINA RESULT:    -4.820      2.375      5.600
REMARK INTER + INTRA:          -6.483
REMARK INTER:                  -5.849
REMARK INTRA:                  -0.633
REMARK UNBOUND:                -0.676
REMARK SMILES O=c1ccn([C@@H]2O[C@@H](CO)[C@H](O)[C@H]2O)c(=O)[nH]1
REMARK SMILES IDX 6 1 13 2 11 3 8 4 7 5 5 6 3 7 4 8 2 9 17 10 1 11 15 12 16 14
REMARK SMILES IDX 14 15 12 17 9 19 10 20
REMARK H PARENT 17 13 14 16 12 18 10 21
REMARK Flexibility Score: inf
ROOT
ATOM      1  C   UNL     1      31.689   8.121   6.332  1.00  0.00     0.255 C 
ATOM      2  C   UNL     1      30.361   8.539   6.958  1.00  0.00     0.196 C 
ATOM      3  C   UNL     1      30.799   9.336   8.158  1.00  0.00     0.179 C 
ATOM      4  C   UNL     1      32.145   8.688   8.502  1.00  0.00     0.178 C 
ATOM      5  O   UNL     1      32.667   8.056   7.350  1.00  0.00    -0.347 OA
ENDROOT
BRANCH   1   6
ATOM      6  N   UNL     1      31.560   6.819   5.645  1.00  0.00    -0.271 N 
ATOM      7  C   UNL     1      31.607   4.421   5.732  1.00  0.00     0.090 A 
ATOM      8  C   UNL     1      31.752   5.661   6.350  1.00  0.00     0.099 A 
ATOM      9  C   UNL     1      31.248   4.385   4.389  1.00  0.00     0.253 A 
ATOM     10  N   UNL     1      31.038   5.544   3.713  1.00  0.00    -0.274 N 
ATOM     11  O   UNL     1      31.110   3.277   3.804  1.00  0.00    -0.269 OA
ATOM     12  C   UNL     1      31.181   6.752   4.326  1.00  0.00     0.330 A 
ATOM     13  H   UNL     1      30.758   5.508   2.707  1.00  0.00     0.175 HD
ATOM     14  O   UNL     1      30.958   7.805   3.668  1.00  0.00    -0.248 OA
ENDBRANCH   1   6
BRANCH   2  15
ATOM     15  O   UNL     1      29.551   9.282   6.076  1.00  0.00    -0.386 OA
ATOM     16  H   UNL     1      29.064   8.647   5.490  1.00  0.00     0.211 HD
ENDBRANCH   2  15
BRANCH   3  17
ATOM     17  O   UNL     1      29.875   9.193   9.205  1.00  0.00    -0.387 OA
ATOM     18  H   UNL     1      29.700  10.104   9.554  1.00  0.00     0.211 HD
ENDBRANCH   3  17
BRANCH   4  19
ATOM     19  C   UNL     1      33.165   9.702   9.029  1.00  0.00     0.191 C 
BRANCH  19  20
ATOM     20  O   UNL     1      32.601  10.984   9.059  1.00  0.00    -0.394 OA
ATOM     21  H   UNL     1      31.971  11.025   8.293  1.00  0.00     0.210 HD
ENDBRANCH  19  20
ENDBRANCH   4  19
TORSDOF 5
ENDMDL
MODEL 3
REMARK VINA RESULT:    -4.791      2.647      4.409
REMARK INTER + INTRA:          -6.447
REMARK INTER:                  -5.947
REMARK INTRA:                  -0.500
REMARK UNBOUND:                -0.676
REMARK SMILES O=c1ccn([C@@H]2O[C@@H](CO)[C@H](O)[C@H]2O)c(=O)[nH]1
REMARK SMILES IDX 6 1 13 2 11 3 8 4 7 5 5 6 3 7 4 8 2 9 17 10 1 11 15 12 16 14
REMARK SMILES IDX 14 15 12 17 9 19 10 20
REMARK H PARENT 17 13 14 16 12 18 10 21
REMARK Flexibility Score: inf
ROOT
ATOM      1  C   UNL     1      30.951   7.879   6.187  1.00  0.00     0.255 C 
ATOM      2  C   UNL     1      30.305   9.028   6.958  1.00  0.00     0.196 C 
ATOM      3  C   UNL     1      29.654   9.834   5.865  1.00  0.00     0.179 C 
ATOM      4  C   UNL     1      30.565   9.546   4.667  1.00  0.00     0.178 C 
ATOM      5  O   UNL     1      31.244   8.324   4.878  1.00  0.00    -0.347 OA
ENDROOT
BRANCH   1   6
ATOM      6  N   UNL     1      32.176   7.413   6.868  1.00  0.00    -0.271 N 
ATOM      7  C   UNL     1      34.537   7.616   7.248  1.00  0.00     0.090 A 
ATOM      8  C   UNL     1      33.374   8.019   6.597  1.00  0.00     0.099 A 
ATOM      9  C   UNL     1      34.454   6.596   8.190  1.00  0.00     0.253 A 
ATOM     10  N   UNL     1      33.253   6.023   8.462  1.00  0.00    -0.274 N 
ATOM     11  O   UNL     1      35.490   6.210   8.794  1.00  0.00    -0.269 OA
ATOM     12  C   UNL     1      32.120   6.425   7.821  1.00  0.00     0.330 A 
ATOM     13  H   UNL     1      33.197   5.264   9.179  1.00  0.00     0.175 HD
ATOM     14  O   UNL     1      31.021   5.880   8.117  1.00  0.00    -0.248 OA
ENDBRANCH   1   6
BRANCH   2  15
ATOM     15  O   UNL     1      29.386   8.585   7.929  1.00  0.00    -0.386 OA
ATOM     16  H   UNL     1      29.508   9.133   8.748  1.00  0.00     0.211 HD
ENDBRANCH   2  15
BRANCH   3  17
ATOM     17  O   UNL     1      29.652  11.198   6.197  1.00  0.00    -0.387 OA
ATOM     18  H   UNL     1      30.180  11.660   5.496  1.00  0.00     0.211 HD
ENDBRANCH   3  17
BRANCH   4  19
ATOM     19  C   UNL     1      29.790   9.474   3.347  1.00  0.00     0.191 C 
BRANCH  19  20
ATOM     20  O   UNL     1      29.755  10.734   2.737  1.00  0.00    -0.394 OA
ATOM     21  H   UNL     1      30.655  10.874   2.342  1.00  0.00     0.210 HD
ENDBRANCH  19  20
ENDBRANCH   4  19
TORSDOF 5
ENDMDL
MODEL 4
REMARK VINA RESULT:    -4.785      2.623      3.927
REMARK INTER + INTRA:          -6.440
REMARK INTER:                  -5.768
REMARK INTRA:                  -0.672
REMARK UNBOUND:                -0.676
REMARK SMILES O=c1ccn([C@@H]2O[C@@H](CO)[C@H](O)[C@H]2O)c(=O)[nH]1
REMARK SMILES IDX 6 1 13 2 11 3 8 4 7 5 5 6 3 7 4 8 2 9 17 10 1 11 15 12 16 14
REMARK SMILES IDX 14 15 12 17 9 19 10 20
REMARK H PARENT 17 13 14 16 12 18 10 21
REMARK Flexibility Score: inf
ROOT
ATOM      1  C   UNL     1      30.766   9.419   6.365  1.00  0.00     0.255 C 
ATOM      2  C   UNL     1      29.912  10.652   6.079  1.00  0.00     0.196 C 
ATOM      3  C   UNL     1      29.418  10.394   4.681  1.00  0.00     0.179 C 
ATOM      4  C   UNL     1      30.550   9.546   4.090  1.00  0.00     0.178 C 
ATOM      5  O   UNL     1      31.262   8.920   5.139  1.00  0.00    -0.347 OA
ENDROOT
BRANCH   1   6
ATOM      6  N   UNL     1      31.876   9.750   7.283  1.00  0.00    -0.271 N 
ATOM      7  C   UNL     1      34.126  10.513   7.617  1.00  0.00     0.090 A 
ATOM      8  C   UNL     1      33.075  10.169   6.771  1.00  0.00     0.099 A 
ATOM      9  C   UNL     1      33.927  10.439   8.991  1.00  0.00     0.253 A 
ATOM     10  N   UNL     1      32.722  10.044   9.480  1.00  0.00    -0.274 N 
ATOM     11  O   UNL     1      34.861  10.744   9.781  1.00  0.00    -0.269 OA
ATOM     12  C   UNL     1      31.700   9.710   8.645  1.00  0.00     0.330 A 
ATOM     13  H   UNL     1      32.578  10.001  10.514  1.00  0.00     0.175 HD
ATOM     14  O   UNL     1      30.591   9.367   9.139  1.00  0.00    -0.248 OA
ENDBRANCH   1   6
BRANCH   2  15
ATOM     15  O   UNL     1      28.864  10.818   7.006  1.00  0.00    -0.386 OA
ATOM     16  H   UNL     1      29.090  11.581   7.599  1.00  0.00     0.211 HD
ENDBRANCH   2  15
BRANCH   3  17
ATOM     17  O   UNL     1      29.261  11.603   3.985  1.00  0.00    -0.387 OA
ATOM     18  H   UNL     1      28.428  11.517   3.454  1.00  0.00     0.211 HD
ENDBRANCH   3  17
BRANCH   4  19
ATOM     19  C   UNL     1      30.035   8.478   3.119  1.00  0.00     0.191 C 
BRANCH  19  20
ATOM     20  O   UNL     1      28.981   8.989   2.352  1.00  0.00    -0.394 OA
ATOM     21  H   UNL     1      29.388   9.311   1.506  1.00  0.00     0.210 HD
ENDBRANCH  19  20
ENDBRANCH   4  19
TORSDOF 5
ENDMDL
MODEL 5
REMARK VINA RESULT:    -4.713      2.743      5.347
REMARK INTER + INTRA:          -6.353
REMARK INTER:                  -5.984
REMARK INTRA:                  -0.369
REMARK UNBOUND:                -0.676
REMARK SMILES O=c1ccn([C@@H]2O[C@@H](CO)[C@H](O)[C@H]2O)c(=O)[nH]1
REMARK SMILES IDX 6 1 13 2 11 3 8 4 7 5 5 6 3 7 4 8 2 9 17 10 1 11 15 12 16 14
REMARK SMILES IDX 14 15 12 17 9 19 10 20
REMARK H PARENT 17 13 14 16 12 18 10 21
REMARK Flexibility Score: inf
ROOT
ATOM      1  C   UNL     1      30.064   9.163   4.734  1.00  0.00     0.255 C 
ATOM      2  C   UNL     1      30.245   9.651   6.169  1.00  0.00     0.196 C 
ATOM      3  C   UNL     1      30.501  11.123   5.988  1.00  0.00     0.179 C 
ATOM      4  C   UNL     1      31.162  11.167   4.606  1.00  0.00     0.178 C 
ATOM      5  O   UNL     1      30.792  10.015   3.873  1.00  0.00    -0.347 OA
ENDROOT
BRANCH   1   6
ATOM      6  N   UNL     1      30.518   7.764   4.593  1.00  0.00    -0.271 N 
ATOM      7  C   UNL     1      31.831   5.925   5.399  1.00  0.00     0.090 A 
ATOM      8  C   UNL     1      31.410   7.248   5.494  1.00  0.00     0.099 A 
ATOM      9  C   UNL     1      31.313   5.133   4.379  1.00  0.00     0.253 A 
ATOM     10  N   UNL     1      30.411   5.656   3.509  1.00  0.00    -0.274 N 
ATOM     11  O   UNL     1      31.676   3.931   4.268  1.00  0.00    -0.269 OA
ATOM     12  C   UNL     1      30.005   6.952   3.611  1.00  0.00     0.330 A 
ATOM     13  H   UNL     1      30.019   5.051   2.752  1.00  0.00     0.175 HD
ATOM     14  O   UNL     1      29.150   7.393   2.794  1.00  0.00    -0.248 OA
ENDBRANCH   1   6
BRANCH   2  15
ATOM     15  O   UNL     1      29.123   9.388   6.980  1.00  0.00    -0.386 OA
ATOM     16  H   UNL     1      28.801  10.249   7.356  1.00  0.00     0.211 HD
ENDBRANCH   2  15
BRANCH   3  17
ATOM     17  O   UNL     1      31.364  11.597   6.988  1.00  0.00    -0.387 OA
ATOM     18  H   UNL     1      32.208  11.852   6.536  1.00  0.00     0.211 HD
ENDBRANCH   3  17
BRANCH   4  19
ATOM     19  C   UNL     1      30.775  12.419   3.811  1.00  0.00     0.191 C 
BRANCH  19  20
ATOM     20  O   UNL     1      29.427  12.355   3.435  1.00  0.00    -0.394 OA
ATOM     21  H   UNL     1      29.092  13.289   3.451  1.00  0.00     0.210 HD
ENDBRANCH  19  20
ENDBRANCH   4  19
TORSDOF 5
ENDMDL
MODEL 6
REMARK VINA RESULT:    -4.705     13.700     16.601
REMARK INTER + INTRA:          -6.344
REMARK INTER:                  -5.677
REMARK INTRA:                  -0.667
REMARK UNBOUND:                -0.676
REMARK SMILES O=c1ccn([C@@H]2O[C@@H](CO)[C@H](O)[C@H]2O)c(=O)[nH]1
REMARK SMILES IDX 6 1 13 2 11 3 8 4 7 5 5 6 3 7 4 8 2 9 17 10 1 11 15 12 16 14
REMARK SMILES IDX 14 15 12 17 9 19 10 20
REMARK H PARENT 17 13 14 16 12 18 10 21
REMARK Flexibility Score: inf
ROOT
ATOM      1  C   UNL     1      19.046   5.660  16.209  1.00  0.00     0.255 C 
ATOM      2  C   UNL     1      19.621   6.568  17.294  1.00  0.00     0.196 C 
ATOM      3  C   UNL     1      20.373   7.599  16.496  1.00  0.00     0.179 C 
ATOM      4  C   UNL     1      20.775   6.809  15.246  1.00  0.00     0.178 C 
ATOM      5  O   UNL     1      19.893   5.717  15.079  1.00  0.00    -0.347 OA
ENDROOT
BRANCH   1   6
ATOM      6  N   UNL     1      18.920   4.271  16.699  1.00  0.00    -0.271 N 
ATOM      7  C   UNL     1      19.909   2.123  17.105  1.00  0.00     0.090 A 
ATOM      8  C   UNL     1      19.995   3.427  16.624  1.00  0.00     0.099 A 
ATOM      9  C   UNL     1      18.714   1.703  17.679  1.00  0.00     0.253 A 
ATOM     10  N   UNL     1      17.666   2.563  17.765  1.00  0.00    -0.274 N 
ATOM     11  O   UNL     1      18.607   0.528  18.122  1.00  0.00    -0.269 OA
ATOM     12  C   UNL     1      17.760   3.836  17.293  1.00  0.00     0.330 A 
ATOM     13  H   UNL     1      16.774   2.241  18.207  1.00  0.00     0.175 HD
ATOM     14  O   UNL     1      16.770   4.609  17.411  1.00  0.00    -0.248 OA
ENDBRANCH   1   6
BRANCH   2  15
ATOM     15  O   UNL     1      18.626   7.134  18.116  1.00  0.00    -0.386 OA
ATOM     16  H   UNL     1      18.017   7.671  17.545  1.00  0.00     0.211 HD
ENDBRANCH   2  15
BRANCH   3  17
ATOM     17  O   UNL     1      21.497   8.046  17.209  1.00  0.00    -0.387 OA
ATOM     18  H   UNL     1      21.663   7.379  17.923  1.00  0.00     0.211 HD
ENDBRANCH   3  17
BRANCH   4  19
ATOM     19  C   UNL     1      20.760   7.671  13.979  1.00  0.00     0.191 C 
BRANCH  19  20
ATOM     20  O   UNL     1      21.360   8.911  14.230  1.00  0.00    -0.394 OA
ATOM     21  H   UNL     1      20.645   9.590  14.121  1.00  0.00     0.210 HD
ENDBRANCH  19  20
ENDBRANCH   4  19
TORSDOF 5
ENDMDL
MODEL 7
REMARK VINA RESULT:    -4.694      3.983      6.211
REMARK INTER + INTRA:          -6.331
REMARK INTER:                  -5.706
REMARK INTRA:                  -0.625
REMARK UNBOUND:                -0.676
REMARK SMILES O=c1ccn([C@@H]2O[C@@H](CO)[C@H](O)[C@H]2O)c(=O)[nH]1
REMARK SMILES IDX 6 1 13 2 11 3 8 4 7 5 5 6 3 7 4 8 2 9 17 10 1 11 15 12 16 14
REMARK SMILES IDX 14 15 12 17 9 19 10 20
REMARK H PARENT 17 13 14 16 12 18 10 21
REMARK Flexibility Score: inf
ROOT
ATOM      1  C   UNL     1      31.058  11.709   5.077  1.00  0.00     0.255 C 
ATOM      2  C   UNL     1      30.011  10.899   4.317  1.00  0.00     0.196 C 
ATOM      3  C   UNL     1      29.632   9.834   5.312  1.00  0.00     0.179 C 
ATOM      4  C   UNL     1      30.923   9.679   6.124  1.00  0.00     0.178 C 
ATOM      5  O   UNL     1      31.688  10.863   6.016  1.00  0.00    -0.347 OA
ENDROOT
BRANCH   1   6
ATOM      6  N   UNL     1      32.049  12.290   4.147  1.00  0.00    -0.271 N 
ATOM      7  C   UNL     1      34.165  12.145   3.025  1.00  0.00     0.090 A 
ATOM      8  C   UNL     1      33.228  11.633   3.919  1.00  0.00     0.099 A 
ATOM      9  C   UNL     1      33.871  13.329   2.358  1.00  0.00     0.253 A 
ATOM     10  N   UNL     1      32.686  13.954   2.581  1.00  0.00    -0.274 N 
ATOM     11  O   UNL     1      34.701  13.817   1.545  1.00  0.00    -0.269 OA
ATOM     12  C   UNL     1      31.775  13.445   3.455  1.00  0.00     0.330 A 
ATOM     13  H   UNL     1      32.468  14.839   2.068  1.00  0.00     0.175 HD
ATOM     14  O   UNL     1      30.677  14.046   3.619  1.00  0.00    -0.248 OA
ENDBRANCH   1   6
BRANCH   2  15
ATOM     15  O   UNL     1      28.910  11.677   3.906  1.00  0.00    -0.386 OA
ATOM     16  H   UNL     1      29.010  11.874   2.939  1.00  0.00     0.211 HD
ENDBRANCH   2  15
BRANCH   3  17
ATOM     17  O   UNL     1      29.292   8.644   4.650  1.00  0.00    -0.387 OA
ATOM     18  H   UNL     1      29.312   7.925   5.333  1.00  0.00     0.211 HD
ENDBRANCH   3  17
BRANCH   4  19
ATOM     19  C   UNL     1      30.651   9.384   7.603  1.00  0.00     0.191 C 
BRANCH  19  20
ATOM     20  O   UNL     1      29.331   8.947   7.775  1.00  0.00    -0.394 OA
ATOM     21  H   UNL     1      28.829   9.723   8.136  1.00  0.00     0.210 HD
ENDBRANCH  19  20
ENDBRANCH   4  19
TORSDOF 5
ENDMDL
MODEL 8
REMARK VINA RESULT:    -4.675      2.478      5.541
REMARK INTER + INTRA:          -6.308
REMARK INTER:                  -5.635
REMARK INTRA:                  -0.673
REMARK UNBOUND:                -0.676
REMARK SMILES O=c1ccn([C@@H]2O[C@@H](CO)[C@H](O)[C@H]2O)c(=O)[nH]1
REMARK SMILES IDX 6 1 13 2 11 3 8 4 7 5 5 6 3 7 4 8 2 9 17 10 1 11 15 12 16 14
REMARK SMILES IDX 14 15 12 17 9 19 10 20
REMARK H PARENT 17 13 14 16 12 18 10 21
REMARK Flexibility Score: inf
ROOT
ATOM      1  C   UNL     1      30.838   9.969   5.730  1.00  0.00     0.255 C 
ATOM      2  C   UNL     1      29.732  10.157   6.764  1.00  0.00     0.196 C 
ATOM      3  C   UNL     1      30.445  10.865   7.885  1.00  0.00     0.179 C 
ATOM      4  C   UNL     1      31.879  10.346   7.733  1.00  0.00     0.178 C 
ATOM      5  O   UNL     1      32.079   9.908   6.403  1.00  0.00    -0.347 OA
ENDROOT
BRANCH   1   6
ATOM      6  N   UNL     1      30.612   8.743   4.937  1.00  0.00    -0.271 N 
ATOM      7  C   UNL     1      30.858   6.369   4.683  1.00  0.00     0.090 A 
ATOM      8  C   UNL     1      31.083   7.542   5.398  1.00  0.00     0.099 A 
ATOM      9  C   UNL     1      30.131   6.440   3.499  1.00  0.00     0.253 A 
ATOM     10  N   UNL     1      29.653   7.636   3.070  1.00  0.00    -0.274 N 
ATOM     11  O   UNL     1      29.913   5.394   2.831  1.00  0.00    -0.269 OA
ATOM     12  C   UNL     1      29.877   8.778   3.777  1.00  0.00     0.330 A 
ATOM     13  H   UNL     1      29.099   7.679   2.184  1.00  0.00     0.175 HD
ATOM     14  O   UNL     1      29.398   9.866   3.354  1.00  0.00    -0.248 OA
ENDBRANCH   1   6
BRANCH   2  15
ATOM     15  O   UNL     1      28.637  10.891   6.265  1.00  0.00    -0.386 OA
ATOM     16  H   UNL     1      27.957  10.965   6.984  1.00  0.00     0.211 HD
ENDBRANCH   2  15
BRANCH   3  17
ATOM     17  O   UNL     1      29.893  10.503   9.124  1.00  0.00    -0.387 OA
ATOM     18  H   UNL     1      29.372   9.673   8.970  1.00  0.00     0.211 HD
ENDBRANCH   3  17
BRANCH   4  19
ATOM     19  C   UNL     1      32.926  11.410   8.079  1.00  0.00     0.191 C 
BRANCH  19  20
ATOM     20  O   UNL     1      32.325  12.478   8.757  1.00  0.00    -0.394 OA
ATOM     21  H   UNL     1      31.559  12.765   8.195  1.00  0.00     0.210 HD
ENDBRANCH  19  20
ENDBRANCH   4  19
TORSDOF 5
ENDMDL
MODEL 9
REMARK VINA RESULT:    -4.664      2.524      4.091
REMARK INTER + INTRA:          -6.295
REMARK INTER:                  -5.649
REMARK INTRA:                  -0.646
REMARK UNBOUND:                -0.676
REMARK SMILES O=c1ccn([C@@H]2O[C@@H](CO)[C@H](O)[C@H]2O)c(=O)[nH]1
REMARK SMILES IDX 6 1 13 2 11 3 8 4 7 5 5 6 3 7 4 8 2 9 17 10 1 11 15 12 16 14
REMARK SMILES IDX 14 15 12 17 9 19 10 20
REMARK H PARENT 17 13 14 16 12 18 10 21
REMARK Flexibility Score: inf
ROOT
ATOM      1  C   UNL     1      32.001   8.686   7.289  1.00  0.00     0.255 C 
ATOM      2  C   UNL     1      30.924   7.908   8.041  1.00  0.00     0.196 C 
ATOM      3  C   UNL     1      31.662   6.675   8.490  1.00  0.00     0.179 C 
ATOM      4  C   UNL     1      32.723   6.517   7.395  1.00  0.00     0.178 C 
ATOM      5  O   UNL     1      32.945   7.768   6.775  1.00  0.00    -0.347 OA
ENDROOT
BRANCH   1   6
ATOM      6  N   UNL     1      31.405   9.489   6.200  1.00  0.00    -0.271 N 
ATOM      7  C   UNL     1      30.657   9.657   3.926  1.00  0.00     0.090 A 
ATOM      8  C   UNL     1      31.243   8.931   4.960  1.00  0.00     0.099 A 
ATOM      9  C   UNL     1      30.227  10.955   4.184  1.00  0.00     0.253 A 
ATOM     10  N   UNL     1      30.375  11.481   5.427  1.00  0.00    -0.274 N 
ATOM     11  O   UNL     1      29.694  11.636   3.267  1.00  0.00    -0.269 OA
ATOM     12  C   UNL     1      30.948  10.763   6.432  1.00  0.00     0.330 A 
ATOM     13  H   UNL     1      30.039  12.454   5.616  1.00  0.00     0.175 HD
ATOM     14  O   UNL     1      31.049  11.283   7.578  1.00  0.00    -0.248 OA
ENDBRANCH   1   6
BRANCH   2  15
ATOM     15  O   UNL     1      30.374   8.636   9.115  1.00  0.00    -0.386 OA
ATOM     16  H   UNL     1      30.290   9.585   8.838  1.00  0.00     0.211 HD
ENDBRANCH   2  15
BRANCH   3  17
ATOM     17  O   UNL     1      30.795   5.572   8.532  1.00  0.00    -0.387 OA
ATOM     18  H   UNL     1      30.179   5.667   7.761  1.00  0.00     0.211 HD
ENDBRANCH   3  17
BRANCH   4  19
ATOM     19  C   UNL     1      34.050   5.978   7.939  1.00  0.00     0.191 C 
BRANCH  19  20
ATOM     20  O   UNL     1      33.849   4.744   8.570  1.00  0.00    -0.394 OA
ATOM     21  H   UNL     1      34.699   4.531   9.035  1.00  0.00     0.210 HD
ENDBRANCH  19  20
ENDBRANCH   4  19
TORSDOF 5
ENDMDL
