MODEL 1
REMARK VINA RESULT:    -6.256      0.000      0.000
REMARK INTER + INTRA:          -9.900
REMARK INTER:                  -9.182
REMARK INTRA:                  -0.718
REMARK UNBOUND:                -0.718
REMARK SMILES O=c1c(O[C@@H]2O[C@@H](CO)[C@H](O)[C@@H](O)[C@H]2O)c(-c2ccc(O)c(O)c2)oc2cc(O)cc(O)c12
REMARK SMILES IDX 4 1 3 2 16 3 25 4 2 5 26 6 1 7 33 8 27 9 31 10 28 11 30 12
REMARK SMILES IDX 17 13 18 14 19 15 20 16 24 17 22 18 21 19 23 21 32 23 29 25
REMARK SMILES IDX 5 27 14 28 6 29 12 30 7 31 10 32 15 33 13 35 8 37 9 38 11 40
REMARK H PARENT 21 20 23 22 32 24 29 26 15 34 13 36 9 39 11 41
REMARK Flexibility Score: inf
ROOT
ATOM      1  O   UNL     1       7.206  13.355 -15.851  1.00  0.00    -0.454 OA
ENDROOT
BRANCH   1   2
ATOM      2  C   UNL     1       7.376  11.965 -15.789  1.00  0.00     0.214 A 
ATOM      3  C   UNL     1       7.661  11.236 -16.961  1.00  0.00     0.180 A 
ATOM      4  O   UNL     1       7.782   9.913 -16.906  1.00  0.00    -0.452 OA
ATOM      5  C   UNL     1       7.254  11.271 -14.574  1.00  0.00     0.239 A 
ATOM      6  C   UNL     1       7.664   9.216 -15.782  1.00  0.00     0.146 A 
ATOM      7  O   UNL     1       7.027  11.914 -13.514  1.00  0.00    -0.285 OA
ATOM      8  C   UNL     1       7.397   9.868 -14.556  1.00  0.00     0.111 A 
ATOM      9  C   UNL     1       7.804   7.825 -15.826  1.00  0.00     0.094 A 
ATOM     10  C   UNL     1       7.275   9.094 -13.375  1.00  0.00     0.134 A 
ATOM     11  C   UNL     1       7.675   7.065 -14.663  1.00  0.00     0.123 A 
ATOM     12  C   UNL     1       7.413   7.699 -13.442  1.00  0.00     0.093 A 
BRANCH   3  13
ATOM     13  C   UNL     1       7.776  11.895 -18.279  1.00  0.00     0.025 A 
ATOM     14  C   UNL     1       6.878  12.919 -18.617  1.00  0.00     0.016 A 
ATOM     15  C   UNL     1       6.983  13.575 -19.846  1.00  0.00     0.051 A 
ATOM     16  C   UNL     1       7.979  13.208 -20.759  1.00  0.00     0.157 A 
ATOM     17  C   UNL     1       8.753  11.506 -19.211  1.00  0.00     0.062 A 
ATOM     18  C   UNL     1       8.867  12.166 -20.440  1.00  0.00     0.158 A 
BRANCH  16  19
ATOM     19  O   UNL     1       8.089  13.872 -21.980  1.00  0.00    -0.504 OA
ATOM     20  H   UNL     1       7.700  14.800 -22.115  1.00  0.00     0.293 HD
ENDBRANCH  16  19
BRANCH  18  21
ATOM     21  O   UNL     1       9.866  11.773 -21.331  1.00  0.00    -0.504 OA
ATOM     22  H   UNL     1       9.738  11.001 -21.974  1.00  0.00     0.293 HD
ENDBRANCH  18  21
ENDBRANCH   3  13
BRANCH  10  23
ATOM     23  O   UNL     1       7.017   9.695 -12.143  1.00  0.00    -0.507 OA
ATOM     24  H   UNL     1       6.891   9.151 -11.298  1.00  0.00     0.293 HD
ENDBRANCH  10  23
BRANCH  11  25
ATOM     25  O   UNL     1       7.804   5.681 -14.730  1.00  0.00    -0.508 OA
ATOM     26  H   UNL     1       7.235   5.125 -15.357  1.00  0.00     0.293 HD
ENDBRANCH  11  25
ENDBRANCH   1   2
BRANCH   1  27
ATOM     27  C   UNL     1       8.085  14.286 -15.209  1.00  0.00     0.339 C 
ATOM     28  C   UNL     1       9.543  13.788 -15.240  1.00  0.00     0.214 C 
ATOM     29  O   UNL     1       7.966  15.572 -15.799  1.00  0.00    -0.332 OA
ATOM     30  C   UNL     1      10.077  13.815 -16.687  1.00  0.00     0.180 C 
ATOM     31  C   UNL     1       8.332  15.557 -17.173  1.00  0.00     0.179 C 
ATOM     32  C   UNL     1       9.823  15.189 -17.340  1.00  0.00     0.177 C 
BRANCH  28  33
ATOM     33  O   UNL     1      10.320  14.625 -14.415  1.00  0.00    -0.384 OA
ATOM     34  H   UNL     1      10.784  14.044 -13.757  1.00  0.00     0.211 HD
ENDBRANCH  28  33
BRANCH  30  35
ATOM     35  O   UNL     1      11.439  13.465 -16.738  1.00  0.00    -0.387 OA
ATOM     36  H   UNL     1      11.532  12.543 -16.389  1.00  0.00     0.211 HD
ENDBRANCH  30  35
BRANCH  31  37
ATOM     37  C   UNL     1       8.029  16.934 -17.771  1.00  0.00     0.191 C 
BRANCH  37  38
ATOM     38  O   UNL     1       7.917  16.825 -19.164  1.00  0.00    -0.394 OA
ATOM     39  H   UNL     1       7.011  17.159 -19.396  1.00  0.00     0.210 HD
ENDBRANCH  37  38
ENDBRANCH  31  37
BRANCH  32  40
ATOM     40  O   UNL     1      10.144  15.125 -18.707  1.00  0.00    -0.387 OA
ATOM     41  H   UNL     1      11.125  14.984 -18.765  1.00  0.00     0.211 HD
ENDBRANCH  32  40
ENDBRANCH   1  27
TORSDOF 12
ENDMDL
MODEL 2
REMARK VINA RESULT:    -5.379      1.853      7.538
REMARK INTER + INTRA:          -8.614
REMARK INTER:                  -8.250
REMARK INTRA:                  -0.364
REMARK UNBOUND:                -0.718
REMARK SMILES O=c1c(O[C@@H]2O[C@@H](CO)[C@H](O)[C@@H](O)[C@H]2O)c(-c2ccc(O)c(O)c2)oc2cc(O)cc(O)c12
REMARK SMILES IDX 4 1 3 2 16 3 25 4 2 5 26 6 1 7 33 8 27 9 31 10 28 11 30 12
REMARK SMILES IDX 17 13 18 14 19 15 20 16 24 17 22 18 21 19 23 21 32 23 29 25
REMARK SMILES IDX 5 27 14 28 6 29 12 30 7 31 10 32 15 33 13 35 8 37 9 38 11 40
REMARK H PARENT 21 20 23 22 32 24 29 26 15 34 13 36 9 39 11 41
REMARK Flexibility Score: inf
ROOT
ATOM      1  O   UNL     1       7.647  11.090 -18.231  1.00  0.00    -0.454 OA
ENDROOT
BRANCH   1   2
ATOM      2  C   UNL     1       7.886  12.471 -18.201  1.00  0.00     0.214 A 
ATOM      3  C   UNL     1       7.961  13.148 -16.967  1.00  0.00     0.180 A 
ATOM      4  O   UNL     1       8.149  14.464 -16.942  1.00  0.00    -0.452 OA
ATOM      5  C   UNL     1       8.042  13.208 -19.386  1.00  0.00     0.239 A 
ATOM      6  C   UNL     1       8.290  15.201 -18.038  1.00  0.00     0.146 A 
ATOM      7  O   UNL     1       8.005  12.612 -20.496  1.00  0.00    -0.285 OA
ATOM      8  C   UNL     1       8.246  14.602 -19.318  1.00  0.00     0.111 A 
ATOM      9  C   UNL     1       8.478  16.580 -17.909  1.00  0.00     0.094 A 
ATOM     10  C   UNL     1       8.399  15.418 -20.466  1.00  0.00     0.134 A 
ATOM     11  C   UNL     1       8.619  17.382 -19.043  1.00  0.00     0.123 A 
ATOM     12  C   UNL     1       8.582  16.801 -20.316  1.00  0.00     0.093 A 
BRANCH   3  13
ATOM     13  C   UNL     1       7.780  12.442 -15.680  1.00  0.00     0.025 A 
ATOM     14  C   UNL     1       7.038  11.251 -15.648  1.00  0.00     0.016 A 
ATOM     15  C   UNL     1       6.875  10.552 -14.449  1.00  0.00     0.051 A 
ATOM     16  C   UNL     1       7.440  11.042 -13.264  1.00  0.00     0.157 A 
ATOM     17  C   UNL     1       8.317  12.948 -14.484  1.00  0.00     0.062 A 
ATOM     18  C   UNL     1       8.162  12.247 -13.282  1.00  0.00     0.158 A 
BRANCH  16  19
ATOM     19  O   UNL     1       7.286  10.336 -12.072  1.00  0.00    -0.504 OA
ATOM     20  H   UNL     1       6.733  10.705 -11.305  1.00  0.00     0.293 HD
ENDBRANCH  16  19
BRANCH  18  21
ATOM     21  O   UNL     1       8.732  12.763 -12.119  1.00  0.00    -0.504 OA
ATOM     22  H   UNL     1       9.708  12.620 -11.891  1.00  0.00     0.293 HD
ENDBRANCH  18  21
ENDBRANCH   3  13
BRANCH  10  23
ATOM     23  O   UNL     1       8.368  14.870 -21.749  1.00  0.00    -0.507 OA
ATOM     24  H   UNL     1       7.499  14.611 -22.200  1.00  0.00     0.293 HD
ENDBRANCH  10  23
BRANCH  11  25
ATOM     25  O   UNL     1       8.793  18.756 -18.895  1.00  0.00    -0.508 OA
ATOM     26  H   UNL     1       9.712  19.164 -18.774  1.00  0.00     0.293 HD
ENDBRANCH  11  25
ENDBRANCH   1   2
BRANCH   1  27
ATOM     27  C   UNL     1       8.567  10.143 -18.786  1.00  0.00     0.339 C 
ATOM     28  C   UNL     1       9.994  10.374 -18.255  1.00  0.00     0.214 C 
ATOM     29  O   UNL     1       8.130   8.816 -18.531  1.00  0.00    -0.332 OA
ATOM     30  C   UNL     1      10.062  10.019 -16.755  1.00  0.00     0.180 C 
ATOM     31  C   UNL     1       8.064   8.542 -17.138  1.00  0.00     0.179 C 
ATOM     32  C   UNL     1       9.468   8.620 -16.496  1.00  0.00     0.177 C 
BRANCH  28  33
ATOM     33  O   UNL     1      10.883   9.566 -18.990  1.00  0.00    -0.384 OA
ATOM     34  H   UNL     1      11.774  10.004 -18.962  1.00  0.00     0.211 HD
ENDBRANCH  28  33
BRANCH  30  35
ATOM     35  O   UNL     1      11.375  10.120 -16.261  1.00  0.00    -0.387 OA
ATOM     36  H   UNL     1      11.343   9.999 -15.278  1.00  0.00     0.211 HD
ENDBRANCH  30  35
BRANCH  31  37
ATOM     37  C   UNL     1       7.441   7.156 -16.944  1.00  0.00     0.191 C 
BRANCH  37  38
ATOM     38  O   UNL     1       6.881   7.070 -15.663  1.00  0.00    -0.394 OA
ATOM     39  H   UNL     1       6.057   6.523 -15.756  1.00  0.00     0.210 HD
ENDBRANCH  37  38
ENDBRANCH  31  37
BRANCH  32  40
ATOM     40  O   UNL     1       9.367   8.401 -15.111  1.00  0.00    -0.387 OA
ATOM     41  H   UNL     1       8.633   8.984 -14.782  1.00  0.00     0.211 HD
ENDBRANCH  32  40
ENDBRANCH   1  27
TORSDOF 12
ENDMDL
MODEL 3
REMARK VINA RESULT:    -5.371      2.308      5.503
REMARK INTER + INTRA:          -8.601
REMARK INTER:                  -8.301
REMARK INTRA:                  -0.299
REMARK UNBOUND:                -0.718
REMARK SMILES O=c1c(O[C@@H]2O[C@@H](CO)[C@H](O)[C@@H](O)[C@H]2O)c(-c2ccc(O)c(O)c2)oc2cc(O)cc(O)c12
REMARK SMILES IDX 4 1 3 2 16 3 25 4 2 5 26 6 1 7 33 8 27 9 31 10 28 11 30 12
REMARK SMILES IDX 17 13 18 14 19 15 20 16 24 17 22 18 21 19 23 21 32 23 29 25
REMARK SMILES IDX 5 27 14 28 6 29 12 30 7 31 10 32 15 33 13 35 8 37 9 38 11 40
REMARK H PARENT 21 20 23 22 32 24 29 26 15 34 13 36 9 39 11 41
REMARK Flexibility Score: inf
ROOT
ATOM      1  O   UNL     1       7.448  10.120 -17.576  1.00  0.00    -0.454 OA
ENDROOT
BRANCH   1   2
ATOM      2  C   UNL     1       7.326   8.803 -17.110  1.00  0.00     0.214 A 
ATOM      3  C   UNL     1       7.368   8.538 -15.726  1.00  0.00     0.180 A 
ATOM      4  O   UNL     1       7.292   7.285 -15.288  1.00  0.00    -0.452 OA
ATOM      5  C   UNL     1       7.176   7.728 -18.000  1.00  0.00     0.239 A 
ATOM      6  C   UNL     1       7.160   6.238 -16.094  1.00  0.00     0.146 A 
ATOM      7  O   UNL     1       7.109   7.953 -19.239  1.00  0.00    -0.285 OA
ATOM      8  C   UNL     1       7.092   6.413 -17.497  1.00  0.00     0.111 A 
ATOM      9  C   UNL     1       7.094   4.957 -15.539  1.00  0.00     0.094 A 
ATOM     10  C   UNL     1       6.952   5.274 -18.327  1.00  0.00     0.134 A 
ATOM     11  C   UNL     1       6.966   3.836 -16.361  1.00  0.00     0.123 A 
ATOM     12  C   UNL     1       6.893   3.996 -17.750  1.00  0.00     0.093 A 
BRANCH   3  13
ATOM     13  C   UNL     1       7.551   9.617 -14.733  1.00  0.00     0.025 A 
ATOM     14  C   UNL     1       7.133   9.411 -13.409  1.00  0.00     0.016 A 
ATOM     15  C   UNL     1       7.318  10.406 -12.445  1.00  0.00     0.051 A 
ATOM     16  C   UNL     1       7.912  11.626 -12.795  1.00  0.00     0.157 A 
ATOM     17  C   UNL     1       8.115  10.854 -15.088  1.00  0.00     0.062 A 
ATOM     18  C   UNL     1       8.310  11.851 -14.125  1.00  0.00     0.158 A 
BRANCH  16  19
ATOM     19  O   UNL     1       8.107  12.612 -11.830  1.00  0.00    -0.504 OA
ATOM     20  H   UNL     1       7.325  13.062 -11.366  1.00  0.00     0.293 HD
ENDBRANCH  16  19
BRANCH  18  21
ATOM     21  O   UNL     1       8.899  13.056 -14.506  1.00  0.00    -0.504 OA
ATOM     22  H   UNL     1       9.852  13.103 -14.845  1.00  0.00     0.293 HD
ENDBRANCH  18  21
ENDBRANCH   3  13
BRANCH  10  23
ATOM     23  O   UNL     1       6.875   5.399 -19.715  1.00  0.00    -0.507 OA
ATOM     24  H   UNL     1       7.624   5.089 -20.322  1.00  0.00     0.293 HD
ENDBRANCH  10  23
BRANCH  11  25
ATOM     25  O   UNL     1       6.915   2.568 -15.790  1.00  0.00    -0.508 OA
ATOM     26  H   UNL     1       6.192   2.314 -15.126  1.00  0.00     0.293 HD
ENDBRANCH  11  25
ENDBRANCH   1   2
BRANCH   1  27
ATOM     27  C   UNL     1       8.216  10.479 -18.731  1.00  0.00     0.339 C 
ATOM     28  C   UNL     1       7.648  11.740 -19.409  1.00  0.00     0.214 C 
ATOM     29  O   UNL     1       9.583  10.650 -18.386  1.00  0.00    -0.332 OA
ATOM     30  C   UNL     1       7.868  12.969 -18.504  1.00  0.00     0.180 C 
ATOM     31  C   UNL     1       9.760  11.700 -17.444  1.00  0.00     0.179 C 
ATOM     32  C   UNL     1       9.339  13.058 -18.049  1.00  0.00     0.177 C 
BRANCH  28  33
ATOM     33  O   UNL     1       8.300  11.918 -20.645  1.00  0.00    -0.384 OA
ATOM     34  H   UNL     1       7.655  11.674 -21.359  1.00  0.00     0.211 HD
ENDBRANCH  28  33
BRANCH  30  35
ATOM     35  O   UNL     1       7.454  14.155 -19.138  1.00  0.00    -0.387 OA
ATOM     36  H   UNL     1       7.268  14.829 -18.436  1.00  0.00     0.211 HD
ENDBRANCH  30  35
BRANCH  31  37
ATOM     37  C   UNL     1      11.229  11.718 -17.008  1.00  0.00     0.191 C 
BRANCH  37  38
ATOM     38  O   UNL     1      11.403  12.663 -15.988  1.00  0.00    -0.394 OA
ATOM     39  H   UNL     1      10.874  12.335 -15.213  1.00  0.00     0.210 HD
ENDBRANCH  37  38
ENDBRANCH  31  37
BRANCH  32  40
ATOM     40  O   UNL     1       9.471  14.067 -17.080  1.00  0.00    -0.387 OA
ATOM     41  H   UNL     1       8.997  14.866 -17.432  1.00  0.00     0.211 HD
ENDBRANCH  32  40
ENDBRANCH   1  27
TORSDOF 12
ENDMDL
MODEL 4
REMARK VINA RESULT:    -4.884      2.314      6.822
REMARK INTER + INTRA:          -7.887
REMARK INTER:                  -6.922
REMARK INTRA:                  -0.964
REMARK UNBOUND:                -0.718
REMARK SMILES O=c1c(O[C@@H]2O[C@@H](CO)[C@H](O)[C@@H](O)[C@H]2O)c(-c2ccc(O)c(O)c2)oc2cc(O)cc(O)c12
REMARK SMILES IDX 4 1 3 2 16 3 25 4 2 5 26 6 1 7 33 8 27 9 31 10 28 11 30 12
REMARK SMILES IDX 17 13 18 14 19 15 20 16 24 17 22 18 21 19 23 21 32 23 29 25
REMARK SMILES IDX 5 27 14 28 6 29 12 30 7 31 10 32 15 33 13 35 8 37 9 38 11 40
REMARK H PARENT 21 20 23 22 32 24 29 26 15 34 13 36 9 39 11 41
REMARK Flexibility Score: inf
ROOT
ATOM      1  O   UNL     1       7.329  14.082 -17.861  1.00  0.00    -0.454 OA
ENDROOT
BRANCH   1   2
ATOM      2  C   UNL     1       7.852  14.244 -19.152  1.00  0.00     0.214 A 
ATOM      3  C   UNL     1       8.344  13.128 -19.859  1.00  0.00     0.180 A 
ATOM      4  O   UNL     1       8.875  13.290 -21.067  1.00  0.00    -0.452 OA
ATOM      5  C   UNL     1       7.909  15.508 -19.759  1.00  0.00     0.239 A 
ATOM      6  C   UNL     1       8.960  14.468 -21.674  1.00  0.00     0.146 A 
ATOM      7  O   UNL     1       7.448  16.511 -19.150  1.00  0.00    -0.285 OA
ATOM      8  C   UNL     1       8.474  15.639 -21.045  1.00  0.00     0.111 A 
ATOM      9  C   UNL     1       9.541  14.538 -22.944  1.00  0.00     0.094 A 
ATOM     10  C   UNL     1       8.582  16.879 -21.722  1.00  0.00     0.134 A 
ATOM     11  C   UNL     1       9.653  15.763 -23.603  1.00  0.00     0.123 A 
ATOM     12  C   UNL     1       9.173  16.929 -22.993  1.00  0.00     0.093 A 
BRANCH   3  13
ATOM     13  C   UNL     1       8.340  11.772 -19.272  1.00  0.00     0.025 A 
ATOM     14  C   UNL     1       7.126  11.076 -19.156  1.00  0.00     0.016 A 
ATOM     15  C   UNL     1       7.101   9.783 -18.628  1.00  0.00     0.051 A 
ATOM     16  C   UNL     1       8.285   9.172 -18.196  1.00  0.00     0.157 A 
ATOM     17  C   UNL     1       9.522  11.170 -18.807  1.00  0.00     0.062 A 
ATOM     18  C   UNL     1       9.501   9.872 -18.284  1.00  0.00     0.158 A 
BRANCH  16  19
ATOM     19  O   UNL     1       8.257   7.877 -17.682  1.00  0.00    -0.504 OA
ATOM     20  H   UNL     1       7.509   7.565 -17.072  1.00  0.00     0.293 HD
ENDBRANCH  16  19
BRANCH  18  21
ATOM     21  O   UNL     1      10.696   9.293 -17.858  1.00  0.00    -0.504 OA
ATOM     22  H   UNL     1      11.574   9.799 -17.879  1.00  0.00     0.293 HD
ENDBRANCH  18  21
ENDBRANCH   3  13
BRANCH  10  23
ATOM     23  O   UNL     1       8.111  18.058 -21.142  1.00  0.00    -0.507 OA
ATOM     24  H   UNL     1       7.574  18.055 -20.284  1.00  0.00     0.293 HD
ENDBRANCH  10  23
BRANCH  11  25
ATOM     25  O   UNL     1      10.246  15.814 -24.861  1.00  0.00    -0.508 OA
ATOM     26  H   UNL     1      11.055  15.248 -25.090  1.00  0.00     0.293 HD
ENDBRANCH  11  25
ENDBRANCH   1   2
BRANCH   1  27
ATOM     27  C   UNL     1       7.657  14.944 -16.765  1.00  0.00     0.339 C 
ATOM     28  C   UNL     1       6.914  14.523 -15.482  1.00  0.00     0.214 C 
ATOM     29  O   UNL     1       9.061  14.978 -16.560  1.00  0.00    -0.332 OA
ATOM     30  C   UNL     1       7.459  13.172 -14.978  1.00  0.00     0.180 C 
ATOM     31  C   UNL     1       9.576  13.695 -16.229  1.00  0.00     0.179 C 
ATOM     32  C   UNL     1       8.998  13.203 -14.883  1.00  0.00     0.177 C 
BRANCH  28  33
ATOM     33  O   UNL     1       7.101  15.522 -14.507  1.00  0.00    -0.384 OA
ATOM     34  H   UNL     1       7.786  16.151 -14.854  1.00  0.00     0.211 HD
ENDBRANCH  28  33
BRANCH  30  35
ATOM     35  O   UNL     1       6.875  12.807 -13.751  1.00  0.00    -0.387 OA
ATOM     36  H   UNL     1       7.053  11.844 -13.602  1.00  0.00     0.211 HD
ENDBRANCH  30  35
BRANCH  31  37
ATOM     37  C   UNL     1      11.104  13.782 -16.178  1.00  0.00     0.191 C 
BRANCH  37  38
ATOM     38  O   UNL     1      11.648  12.492 -16.212  1.00  0.00    -0.394 OA
ATOM     39  H   UNL     1      12.224  12.454 -17.020  1.00  0.00     0.210 HD
ENDBRANCH  37  38
ENDBRANCH  31  37
BRANCH  32  40
ATOM     40  O   UNL     1       9.478  11.910 -14.607  1.00  0.00    -0.387 OA
ATOM     41  H   UNL     1      10.119  11.997 -13.854  1.00  0.00     0.211 HD
ENDBRANCH  32  40
ENDBRANCH   1  27
TORSDOF 12
ENDMDL
MODEL 5
REMARK VINA RESULT:    -4.877      2.767      6.391
REMARK INTER + INTRA:          -7.876
REMARK INTER:                  -7.463
REMARK INTRA:                  -0.413
REMARK UNBOUND:                -0.718
REMARK SMILES O=c1c(O[C@@H]2O[C@@H](CO)[C@H](O)[C@@H](O)[C@H]2O)c(-c2ccc(O)c(O)c2)oc2cc(O)cc(O)c12
REMARK SMILES IDX 4 1 3 2 16 3 25 4 2 5 26 6 1 7 33 8 27 9 31 10 28 11 30 12
REMARK SMILES IDX 17 13 18 14 19 15 20 16 24 17 22 18 21 19 23 21 32 23 29 25
REMARK SMILES IDX 5 27 14 28 6 29 12 30 7 31 10 32 15 33 13 35 8 37 9 38 11 40
REMARK H PARENT 21 20 23 22 32 24 29 26 15 34 13 36 9 39 11 41
REMARK Flexibility Score: inf
ROOT
ATOM      1  O   UNL     1       7.001   9.654 -16.940  1.00  0.00    -0.454 OA
ENDROOT
BRANCH   1   2
ATOM      2  C   UNL     1       6.943   8.264 -17.116  1.00  0.00     0.214 A 
ATOM      3  C   UNL     1       6.924   7.410 -15.995  1.00  0.00     0.180 A 
ATOM      4  O   UNL     1       6.909   6.092 -16.165  1.00  0.00    -0.452 OA
ATOM      5  C   UNL     1       6.917   7.695 -18.400  1.00  0.00     0.239 A 
ATOM      6  C   UNL     1       6.895   5.511 -17.359  1.00  0.00     0.146 A 
ATOM      7  O   UNL     1       6.907   8.447 -19.412  1.00  0.00    -0.285 OA
ATOM      8  C   UNL     1       6.895   6.291 -18.539  1.00  0.00     0.111 A 
ATOM      9  C   UNL     1       6.884   4.115 -17.436  1.00  0.00     0.094 A 
ATOM     10  C   UNL     1       6.881   5.639 -19.797  1.00  0.00     0.134 A 
ATOM     11  C   UNL     1       6.880   3.476 -18.677  1.00  0.00     0.123 A 
ATOM     12  C   UNL     1       6.876   4.237 -19.853  1.00  0.00     0.093 A 
BRANCH   3  13
ATOM     13  C   UNL     1       6.976   7.938 -14.615  1.00  0.00     0.025 A 
ATOM     14  C   UNL     1       6.885   7.046 -13.535  1.00  0.00     0.016 A 
ATOM     15  C   UNL     1       6.958   7.518 -12.221  1.00  0.00     0.051 A 
ATOM     16  C   UNL     1       7.108   8.887 -11.970  1.00  0.00     0.157 A 
ATOM     17  C   UNL     1       7.092   9.314 -14.360  1.00  0.00     0.062 A 
ATOM     18  C   UNL     1       7.172   9.790 -13.045  1.00  0.00     0.158 A 
BRANCH  16  19
ATOM     19  O   UNL     1       7.192   9.353 -10.659  1.00  0.00    -0.504 OA
ATOM     20  H   UNL     1       6.967   8.757  -9.869  1.00  0.00     0.293 HD
ENDBRANCH  16  19
BRANCH  18  21
ATOM     21  O   UNL     1       7.316  11.160 -12.828  1.00  0.00    -0.504 OA
ATOM     22  H   UNL     1       8.144  11.550 -12.393  1.00  0.00     0.293 HD
ENDBRANCH  18  21
ENDBRANCH   3  13
BRANCH  10  23
ATOM     23  O   UNL     1       6.875   6.368 -20.987  1.00  0.00    -0.507 OA
ATOM     24  H   UNL     1       7.261   7.303 -21.043  1.00  0.00     0.293 HD
ENDBRANCH  10  23
BRANCH  11  25
ATOM     25  O   UNL     1       6.883   2.085 -18.733  1.00  0.00    -0.508 OA
ATOM     26  H   UNL     1       7.731   1.564 -18.919  1.00  0.00     0.293 HD
ENDBRANCH  11  25
ENDBRANCH   1   2
BRANCH   1  27
ATOM     27  C   UNL     1       7.791  10.520 -17.763  1.00  0.00     0.339 C 
ATOM     28  C   UNL     1       7.373  11.992 -17.586  1.00  0.00     0.214 C 
ATOM     29  O   UNL     1       9.173  10.340 -17.494  1.00  0.00    -0.332 OA
ATOM     30  C   UNL     1       7.757  12.482 -16.175  1.00  0.00     0.180 C 
ATOM     31  C   UNL     1       9.493  10.665 -16.148  1.00  0.00     0.179 C 
ATOM     32  C   UNL     1       9.234  12.162 -15.867  1.00  0.00     0.177 C 
BRANCH  28  33
ATOM     33  O   UNL     1       8.024  12.765 -18.567  1.00  0.00    -0.384 OA
ATOM     34  H   UNL     1       8.990  12.540 -18.530  1.00  0.00     0.211 HD
ENDBRANCH  28  33
BRANCH  30  35
ATOM     35  O   UNL     1       7.484  13.853 -16.014  1.00  0.00    -0.387 OA
ATOM     36  H   UNL     1       7.401  14.256 -16.915  1.00  0.00     0.211 HD
ENDBRANCH  30  35
BRANCH  31  37
ATOM     37  C   UNL     1      10.959  10.298 -15.895  1.00  0.00     0.191 C 
BRANCH  37  38
ATOM     38  O   UNL     1      11.778  11.382 -16.236  1.00  0.00    -0.394 OA
ATOM     39  H   UNL     1      12.115  11.756 -15.380  1.00  0.00     0.210 HD
ENDBRANCH  37  38
ENDBRANCH  31  37
BRANCH  32  40
ATOM     40  O   UNL     1       9.505  12.443 -14.517  1.00  0.00    -0.387 OA
ATOM     41  H   UNL     1      10.344  12.974 -14.497  1.00  0.00     0.211 HD
ENDBRANCH  32  40
ENDBRANCH   1  27
TORSDOF 12
ENDMDL
MODEL 6
REMARK VINA RESULT:    -4.805      1.454      4.122
REMARK INTER + INTRA:          -7.771
REMARK INTER:                  -7.760
REMARK INTRA:                  -0.011
REMARK UNBOUND:                -0.718
REMARK SMILES O=c1c(O[C@@H]2O[C@@H](CO)[C@H](O)[C@@H](O)[C@H]2O)c(-c2ccc(O)c(O)c2)oc2cc(O)cc(O)c12
REMARK SMILES IDX 4 1 3 2 16 3 25 4 2 5 26 6 1 7 33 8 27 9 31 10 28 11 30 12
REMARK SMILES IDX 17 13 18 14 19 15 20 16 24 17 22 18 21 19 23 21 32 23 29 25
REMARK SMILES IDX 5 27 14 28 6 29 12 30 7 31 10 32 15 33 13 35 8 37 9 38 11 40
REMARK H PARENT 21 20 23 22 32 24 29 26 15 34 13 36 9 39 11 41
REMARK Flexibility Score: inf
ROOT
ATOM      1  O   UNL     1       7.587  12.117 -18.183  1.00  0.00    -0.454 OA
ENDROOT
BRANCH   1   2
ATOM      2  C   UNL     1       7.399  11.696 -16.858  1.00  0.00     0.214 A 
ATOM      3  C   UNL     1       7.126  12.642 -15.849  1.00  0.00     0.180 A 
ATOM      4  O   UNL     1       6.988  12.245 -14.588  1.00  0.00    -0.452 OA
ATOM      5  C   UNL     1       7.492  10.340 -16.506  1.00  0.00     0.239 A 
ATOM      6  C   UNL     1       7.079  10.976 -14.209  1.00  0.00     0.146 A 
ATOM      7  O   UNL     1       7.708   9.480 -17.402  1.00  0.00    -0.285 OA
ATOM      8  C   UNL     1       7.333   9.958 -15.158  1.00  0.00     0.111 A 
ATOM      9  C   UNL     1       6.924  10.657 -12.856  1.00  0.00     0.094 A 
ATOM     10  C   UNL     1       7.424   8.614 -14.718  1.00  0.00     0.134 A 
ATOM     11  C   UNL     1       7.023   9.333 -12.427  1.00  0.00     0.123 A 
ATOM     12  C   UNL     1       7.271   8.316 -13.356  1.00  0.00     0.093 A 
BRANCH   3  13
ATOM     13  C   UNL     1       7.041  14.088 -16.142  1.00  0.00     0.025 A 
ATOM     14  C   UNL     1       7.011  15.004 -15.078  1.00  0.00     0.016 A 
ATOM     15  C   UNL     1       6.956  16.378 -15.330  1.00  0.00     0.051 A 
ATOM     16  C   UNL     1       6.917  16.854 -16.646  1.00  0.00     0.157 A 
ATOM     17  C   UNL     1       6.967  14.567 -17.461  1.00  0.00     0.062 A 
ATOM     18  C   UNL     1       6.920  15.943 -17.717  1.00  0.00     0.158 A 
BRANCH  16  19
ATOM     19  O   UNL     1       6.875  18.225 -16.894  1.00  0.00    -0.504 OA
ATOM     20  H   UNL     1       6.186  18.630 -17.519  1.00  0.00     0.293 HD
ENDBRANCH  16  19
BRANCH  18  21
ATOM     21  O   UNL     1       6.877  16.385 -19.039  1.00  0.00    -0.504 OA
ATOM     22  H   UNL     1       7.719  16.534 -19.583  1.00  0.00     0.293 HD
ENDBRANCH  18  21
ENDBRANCH   3  13
BRANCH  10  23
ATOM     23  O   UNL     1       7.668   7.577 -15.620  1.00  0.00    -0.507 OA
ATOM     24  H   UNL     1       7.461   7.666 -16.607  1.00  0.00     0.293 HD
ENDBRANCH  10  23
BRANCH  11  25
ATOM     25  O   UNL     1       6.879   9.038 -11.074  1.00  0.00    -0.508 OA
ATOM     26  H   UNL     1       7.606   8.559 -10.555  1.00  0.00     0.293 HD
ENDBRANCH  11  25
ENDBRANCH   1   2
BRANCH   1  27
ATOM     27  C   UNL     1       8.771  11.836 -18.938  1.00  0.00     0.339 C 
ATOM     28  C   UNL     1       8.658  12.381 -20.375  1.00  0.00     0.214 C 
ATOM     29  O   UNL     1       9.916  12.355 -18.278  1.00  0.00    -0.332 OA
ATOM     30  C   UNL     1       8.669  13.923 -20.355  1.00  0.00     0.180 C 
ATOM     31  C   UNL     1       9.852  13.768 -18.143  1.00  0.00     0.179 C 
ATOM     32  C   UNL     1       9.858  14.453 -19.529  1.00  0.00     0.177 C 
BRANCH  28  33
ATOM     33  O   UNL     1       9.745  11.893 -21.126  1.00  0.00    -0.384 OA
ATOM     34  H   UNL     1      10.563  12.347 -20.794  1.00  0.00     0.211 HD
ENDBRANCH  28  33
BRANCH  30  35
ATOM     35  O   UNL     1       8.672  14.454 -21.659  1.00  0.00    -0.387 OA
ATOM     36  H   UNL     1       8.360  13.746 -22.278  1.00  0.00     0.211 HD
ENDBRANCH  30  35
BRANCH  31  37
ATOM     37  C   UNL     1      11.038  14.230 -17.290  1.00  0.00     0.191 C 
BRANCH  37  38
ATOM     38  O   UNL     1      10.590  14.561 -16.005  1.00  0.00    -0.394 OA
ATOM     39  H   UNL     1      11.310  15.106 -15.592  1.00  0.00     0.210 HD
ENDBRANCH  37  38
ENDBRANCH  31  37
BRANCH  32  40
ATOM     40  O   UNL     1       9.736  15.844 -19.368  1.00  0.00    -0.387 OA
ATOM     41  H   UNL     1       9.022  15.993 -18.694  1.00  0.00     0.211 HD
ENDBRANCH  32  40
ENDBRANCH   1  27
TORSDOF 12
ENDMDL
MODEL 7
REMARK VINA RESULT:    -4.480      1.793      2.512
REMARK INTER + INTRA:          -7.293
REMARK INTER:                  -6.675
REMARK INTRA:                  -0.618
REMARK UNBOUND:                -0.718
REMARK SMILES O=c1c(O[C@@H]2O[C@@H](CO)[C@H](O)[C@@H](O)[C@H]2O)c(-c2ccc(O)c(O)c2)oc2cc(O)cc(O)c12
REMARK SMILES IDX 4 1 3 2 16 3 25 4 2 5 26 6 1 7 33 8 27 9 31 10 28 11 30 12
REMARK SMILES IDX 17 13 18 14 19 15 20 16 24 17 22 18 21 19 23 21 32 23 29 25
REMARK SMILES IDX 5 27 14 28 6 29 12 30 7 31 10 32 15 33 13 35 8 37 9 38 11 40
REMARK H PARENT 21 20 23 22 32 24 29 26 15 34 13 36 9 39 11 41
REMARK Flexibility Score: inf
ROOT
ATOM      1  O   UNL     1      10.934  12.024 -17.247  1.00  0.00    -0.454 OA
ENDROOT
BRANCH   1   2
ATOM      2  C   UNL     1      10.127  10.907 -16.988  1.00  0.00     0.214 A 
ATOM      3  C   UNL     1       8.970  10.678 -17.761  1.00  0.00     0.180 A 
ATOM      4  O   UNL     1       8.185   9.641 -17.488  1.00  0.00    -0.452 OA
ATOM      5  C   UNL     1      10.439  10.007 -15.957  1.00  0.00     0.239 A 
ATOM      6  C   UNL     1       8.436   8.772 -16.516  1.00  0.00     0.146 A 
ATOM      7  O   UNL     1      11.485  10.183 -15.276  1.00  0.00    -0.285 OA
ATOM      8  C   UNL     1       9.585   8.914 -15.703  1.00  0.00     0.111 A 
ATOM      9  C   UNL     1       7.547   7.714 -16.303  1.00  0.00     0.094 A 
ATOM     10  C   UNL     1       9.822   7.969 -14.673  1.00  0.00     0.134 A 
ATOM     11  C   UNL     1       7.779   6.791 -15.282  1.00  0.00     0.123 A 
ATOM     12  C   UNL     1       8.914   6.918 -14.473  1.00  0.00     0.093 A 
BRANCH   3  13
ATOM     13  C   UNL     1       8.564  11.598 -18.845  1.00  0.00     0.025 A 
ATOM     14  C   UNL     1       7.273  12.148 -18.833  1.00  0.00     0.016 A 
ATOM     15  C   UNL     1       6.875  13.039 -19.833  1.00  0.00     0.051 A 
ATOM     16  C   UNL     1       7.757  13.382 -20.865  1.00  0.00     0.157 A 
ATOM     17  C   UNL     1       9.436  11.917 -19.900  1.00  0.00     0.062 A 
ATOM     18  C   UNL     1       9.043  12.816 -20.899  1.00  0.00     0.158 A 
BRANCH  16  19
ATOM     19  O   UNL     1       7.361  14.281 -21.854  1.00  0.00    -0.504 OA
ATOM     20  H   UNL     1       8.037  14.844 -22.360  1.00  0.00     0.293 HD
ENDBRANCH  16  19
BRANCH  18  21
ATOM     21  O   UNL     1       9.943  13.133 -21.917  1.00  0.00    -0.504 OA
ATOM     22  H   UNL     1      10.106  14.089 -22.209  1.00  0.00     0.293 HD
ENDBRANCH  18  21
ENDBRANCH   3  13
BRANCH  10  23
ATOM     23  O   UNL     1      10.944   8.067 -13.850  1.00  0.00    -0.507 OA
ATOM     24  H   UNL     1      11.691   7.383 -13.881  1.00  0.00     0.293 HD
ENDBRANCH  10  23
BRANCH  11  25
ATOM     25  O   UNL     1       6.875   5.752 -15.077  1.00  0.00    -0.508 OA
ATOM     26  H   UNL     1       6.449   5.259 -15.853  1.00  0.00     0.293 HD
ENDBRANCH  11  25
ENDBRANCH   1   2
BRANCH   1  27
ATOM     27  C   UNL     1      11.142  13.081 -16.303  1.00  0.00     0.339 C 
ATOM     28  C   UNL     1      11.739  14.327 -16.983  1.00  0.00     0.214 C 
ATOM     29  O   UNL     1       9.930  13.391 -15.629  1.00  0.00    -0.332 OA
ATOM     30  C   UNL     1      10.697  14.963 -17.926  1.00  0.00     0.180 C 
ATOM     31  C   UNL     1       8.930  13.848 -16.529  1.00  0.00     0.179 C 
ATOM     32  C   UNL     1       9.355  15.175 -17.197  1.00  0.00     0.177 C 
BRANCH  28  33
ATOM     33  O   UNL     1      12.120  15.245 -15.985  1.00  0.00    -0.384 OA
ATOM     34  H   UNL     1      11.991  16.157 -16.355  1.00  0.00     0.211 HD
ENDBRANCH  28  33
BRANCH  30  35
ATOM     35  O   UNL     1      11.174  16.163 -18.486  1.00  0.00    -0.387 OA
ATOM     36  H   UNL     1      12.100  16.303 -18.165  1.00  0.00     0.211 HD
ENDBRANCH  30  35
BRANCH  31  37
ATOM     37  C   UNL     1       7.618  14.011 -15.755  1.00  0.00     0.191 C 
BRANCH  37  38
ATOM     38  O   UNL     1       7.502  15.333 -15.304  1.00  0.00    -0.394 OA
ATOM     39  H   UNL     1       6.576  15.428 -14.958  1.00  0.00     0.210 HD
ENDBRANCH  37  38
ENDBRANCH  31  37
BRANCH  32  40
ATOM     40  O   UNL     1       8.375  15.574 -18.122  1.00  0.00    -0.387 OA
ATOM     41  H   UNL     1       8.184  16.532 -17.942  1.00  0.00     0.211 HD
ENDBRANCH  32  40
ENDBRANCH   1  27
TORSDOF 12
ENDMDL
