MODEL 1
REMARK VINA RESULT:     3.211      0.000      0.000
REMARK INTER + INTRA:           3.446
REMARK INTER:                   3.492
REMARK INTRA:                  -0.046
REMARK UNBOUND:                -0.046
REMARK SMILES CCc1cccc(O)c1
REMARK SMILES IDX 3 1 9 2 7 3 6 4 5 5 4 6 2 7 1 8 8 9
REMARK H PARENT 8 10
REMARK Flexibility Score: inf
ROOT
ATOM      1  C   UNL     1       6.087  43.517  23.785  1.00  0.00    -0.045 A 
ATOM      2  C   UNL     1       7.373  42.962  23.882  1.00  0.00     0.049 A 
ATOM      3  C   UNL     1       7.568  41.731  24.518  1.00  0.00     0.115 A 
ATOM      4  C   UNL     1       6.471  41.044  25.054  1.00  0.00     0.046 A 
ATOM      5  C   UNL     1       5.186  41.584  24.949  1.00  0.00     0.004 A 
ATOM      6  C   UNL     1       4.992  42.813  24.314  1.00  0.00     0.004 A 
ENDROOT
BRANCH   1   7
ATOM      7  C   UNL     1       5.875  44.825  23.071  1.00  0.00     0.032 C 
ATOM      8  C   UNL     1       6.400  45.988  23.907  1.00  0.00     0.009 C 
ENDBRANCH   1   7
BRANCH   3   9
ATOM      9  O   UNL     1       8.852  41.200  24.610  1.00  0.00    -0.508 OA
ATOM     10  H   UNL     1       9.658  41.790  24.784  1.00  0.00     0.293 HD
ENDBRANCH   3   9
TORSDOF 2
ENDMDL
MODEL 2
REMARK VINA RESULT:     3.647      1.601      2.375
REMARK INTER + INTRA:           3.920
REMARK INTER:                   3.993
REMARK INTRA:                  -0.073
REMARK UNBOUND:                -0.046
REMARK SMILES CCc1cccc(O)c1
REMARK SMILES IDX 3 1 9 2 7 3 6 4 5 5 4 6 2 7 1 8 8 9
REMARK H PARENT 8 10
REMARK Flexibility Score: inf
ROOT
ATOM      1  C   UNL     1       6.593  42.569  24.310  1.00  0.00    -0.045 A 
ATOM      2  C   UNL     1       7.674  42.747  23.432  1.00  0.00     0.049 A 
ATOM      3  C   UNL     1       8.848  42.003  23.594  1.00  0.00     0.115 A 
ATOM      4  C   UNL     1       8.941  41.067  24.633  1.00  0.00     0.046 A 
ATOM      5  C   UNL     1       7.862  40.875  25.502  1.00  0.00     0.004 A 
ATOM      6  C   UNL     1       6.691  41.619  25.340  1.00  0.00     0.004 A 
ENDROOT
BRANCH   1   7
ATOM      7  C   UNL     1       5.319  43.347  24.114  1.00  0.00     0.032 C 
ATOM      8  C   UNL     1       4.116  42.548  24.605  1.00  0.00     0.009 C 
ENDBRANCH   1   7
BRANCH   3   9
ATOM      9  O   UNL     1       9.912  42.197  22.717  1.00  0.00    -0.508 OA
ATOM     10  H   UNL     1      10.619  42.902  22.891  1.00  0.00     0.293 HD
ENDBRANCH   3   9
TORSDOF 2
ENDMDL
MODEL 3
REMARK VINA RESULT:     3.797      1.889      3.414
REMARK INTER + INTRA:           4.084
REMARK INTER:                   4.132
REMARK INTRA:                  -0.048
REMARK UNBOUND:                -0.046
REMARK SMILES CCc1cccc(O)c1
REMARK SMILES IDX 3 1 9 2 7 3 6 4 5 5 4 6 2 7 1 8 8 9
REMARK H PARENT 8 10
REMARK Flexibility Score: inf
ROOT
ATOM      1  C   UNL     1       7.511  41.582  24.421  1.00  0.00    -0.045 A 
ATOM      2  C   UNL     1       7.321  42.891  23.950  1.00  0.00     0.049 A 
ATOM      3  C   UNL     1       6.052  43.480  23.987  1.00  0.00     0.115 A 
ATOM      4  C   UNL     1       4.966  42.762  24.506  1.00  0.00     0.046 A 
ATOM      5  C   UNL     1       5.151  41.463  24.988  1.00  0.00     0.004 A 
ATOM      6  C   UNL     1       6.418  40.875  24.950  1.00  0.00     0.004 A 
ENDROOT
BRANCH   1   7
ATOM      7  C   UNL     1       8.883  40.961  24.411  1.00  0.00     0.032 C 
ATOM      8  C   UNL     1       9.632  41.329  23.134  1.00  0.00     0.009 C 
ENDBRANCH   1   7
BRANCH   3   9
ATOM      9  O   UNL     1       5.883  44.778  23.511  1.00  0.00    -0.508 OA
ATOM     10  H   UNL     1       5.895  45.576  24.135  1.00  0.00     0.293 HD
ENDBRANCH   3   9
TORSDOF 2
ENDMDL
MODEL 4
REMARK VINA RESULT:     4.329      1.787      2.400
REMARK INTER + INTRA:           4.662
REMARK INTER:                   4.715
REMARK INTRA:                  -0.053
REMARK UNBOUND:                -0.046
REMARK SMILES CCc1cccc(O)c1
REMARK SMILES IDX 3 1 9 2 7 3 6 4 5 5 4 6 2 7 1 8 8 9
REMARK H PARENT 8 10
REMARK Flexibility Score: inf
ROOT
ATOM      1  C   UNL     1       6.169  43.533  23.768  1.00  0.00    -0.045 A 
ATOM      2  C   UNL     1       4.933  43.043  24.219  1.00  0.00     0.049 A 
ATOM      3  C   UNL     1       4.865  41.845  24.940  1.00  0.00     0.115 A 
ATOM      4  C   UNL     1       6.041  41.135  25.220  1.00  0.00     0.046 A 
ATOM      5  C   UNL     1       7.276  41.624  24.785  1.00  0.00     0.004 A 
ATOM      6  C   UNL     1       7.342  42.820  24.065  1.00  0.00     0.004 A 
ENDROOT
BRANCH   1   7
ATOM      7  C   UNL     1       6.243  44.838  23.022  1.00  0.00     0.032 C 
ATOM      8  C   UNL     1       6.346  46.010  23.992  1.00  0.00     0.009 C 
ENDBRANCH   1   7
BRANCH   3   9
ATOM      9  O   UNL     1       3.629  41.373  25.374  1.00  0.00    -0.508 OA
ATOM     10  H   UNL     1       3.532  40.878  26.253  1.00  0.00     0.293 HD
ENDBRANCH   3   9
TORSDOF 2
ENDMDL
MODEL 5
REMARK VINA RESULT:     4.373     13.733     14.498
REMARK INTER + INTRA:           4.710
REMARK INTER:                   4.761
REMARK INTRA:                  -0.051
REMARK UNBOUND:                -0.046
REMARK SMILES CCc1cccc(O)c1
REMARK SMILES IDX 3 1 9 2 7 3 6 4 5 5 4 6 2 7 1 8 8 9
REMARK H PARENT 8 10
REMARK Flexibility Score: inf
ROOT
ATOM      1  C   UNL     1      16.030  43.651  13.001  1.00  0.00    -0.045 A 
ATOM      2  C   UNL     1      14.726  43.128  13.009  1.00  0.00     0.049 A 
ATOM      3  C   UNL     1      14.518  41.744  13.007  1.00  0.00     0.115 A 
ATOM      4  C   UNL     1      15.618  40.875  13.005  1.00  0.00     0.046 A 
ATOM      5  C   UNL     1      16.918  41.389  13.010  1.00  0.00     0.004 A 
ATOM      6  C   UNL     1      17.125  42.771  13.012  1.00  0.00     0.004 A 
ENDROOT
BRANCH   1   7
ATOM      7  C   UNL     1      16.252  45.140  13.037  1.00  0.00     0.032 C 
ATOM      8  C   UNL     1      15.245  45.814  13.962  1.00  0.00     0.009 C 
ENDBRANCH   1   7
BRANCH   3   9
ATOM      9  O   UNL     1      13.219  41.244  13.010  1.00  0.00    -0.508 OA
ATOM     10  H   UNL     1      12.820  40.801  12.190  1.00  0.00     0.293 HD
ENDBRANCH   3   9
TORSDOF 2
ENDMDL
