MODEL 1
REMARK VINA RESULT:    -4.277      0.000      0.000
REMARK INTER + INTRA:         -10.255
REMARK INTER:                  -7.903
REMARK INTRA:                  -2.352
REMARK UNBOUND:                -2.352
REMARK SMILES CCCCCCCCCCCCCCCCO
REMARK SMILES IDX 9 1 8 2 7 3 6 4 5 5 4 6 3 7 2 8 1 9 10 10 11 11 12 12 13 13
REMARK SMILES IDX 14 14 15 15 16 16 17 17
REMARK H PARENT 17 18
REMARK Flexibility Score: inf
ROOT
ATOM      1  C   UNL     1     118.297 117.111 118.491  1.00  0.00     0.000 C 
ENDROOT
BRANCH   1   2
ATOM      2  C   UNL     1     117.941 118.021 117.302  1.00  0.00    -0.000 C 
BRANCH   2   3
ATOM      3  C   UNL     1     118.161 119.513 117.608  1.00  0.00    -0.000 C 
BRANCH   3   4
ATOM      4  C   UNL     1     119.643 119.859 117.827  1.00  0.00    -0.000 C 
BRANCH   4   5
ATOM      5  C   UNL     1     119.874 120.677 119.110  1.00  0.00    -0.000 C 
BRANCH   5   6
ATOM      6  C   UNL     1     120.878 120.010 120.066  1.00  0.00    -0.000 C 
BRANCH   6   7
ATOM      7  C   UNL     1     121.290 118.575 119.685  1.00  0.00    -0.000 C 
BRANCH   7   8
ATOM      8  C   UNL     1     121.144 117.558 120.836  1.00  0.00    -0.003 C 
ATOM      9  C   UNL     1     121.284 116.113 120.362  1.00  0.00     0.004 C 
ENDBRANCH   7   8
ENDBRANCH   6   7
ENDBRANCH   5   6
ENDBRANCH   4   5
ENDBRANCH   3   4
ENDBRANCH   2   3
ENDBRANCH   1   2
BRANCH   1  10
ATOM     10  C   UNL     1     117.146 116.220 119.001  1.00  0.00     0.000 C 
BRANCH  10  11
ATOM     11  C   UNL     1     116.563 116.619 120.372  1.00  0.00     0.000 C 
BRANCH  11  12
ATOM     12  C   UNL     1     117.603 116.833 121.488  1.00  0.00     0.000 C 
BRANCH  12  13
ATOM     13  C   UNL     1     117.736 118.308 121.905  1.00  0.00     0.000 C 
BRANCH  13  14
ATOM     14  C   UNL     1     116.775 119.236 121.141  1.00  0.00     0.002 C 
BRANCH  14  15
ATOM     15  C   UNL     1     117.016 120.743 121.350  1.00  0.00     0.028 C 
BRANCH  15  16
ATOM     16  C   UNL     1     116.265 121.311 122.557  1.00  0.00     0.156 C 
BRANCH  16  17
ATOM     17  O   UNL     1     115.688 122.539 122.210  1.00  0.00    -0.396 OA
ATOM     18  H   UNL     1     115.548 123.027 123.062  1.00  0.00     0.210 HD
ENDBRANCH  16  17
ENDBRANCH  15  16
ENDBRANCH  14  15
ENDBRANCH  13  14
ENDBRANCH  12  13
ENDBRANCH  11  12
ENDBRANCH  10  11
ENDBRANCH   1  10
TORSDOF 15
ENDMDL
MODEL 2
REMARK VINA RESULT:    -4.271      2.399      5.167
REMARK INTER + INTRA:         -10.244
REMARK INTER:                  -7.557
REMARK INTRA:                  -2.687
REMARK UNBOUND:                -2.352
REMARK SMILES CCCCCCCCCCCCCCCCO
REMARK SMILES IDX 9 1 8 2 7 3 6 4 5 5 4 6 3 7 2 8 1 9 10 10 11 11 12 12 13 13
REMARK SMILES IDX 14 14 15 15 16 16 17 17
REMARK H PARENT 17 18
REMARK Flexibility Score: inf
ROOT
ATOM      1  C   UNL     1     119.914 119.601 117.512  1.00  0.00     0.000 C 
ENDROOT
BRANCH   1   2
ATOM      2  C   UNL     1     119.137 118.378 116.996  1.00  0.00    -0.000 C 
BRANCH   2   3
ATOM      3  C   UNL     1     117.817 118.148 117.752  1.00  0.00    -0.000 C 
BRANCH   3   4
ATOM      4  C   UNL     1     117.881 116.937 118.697  1.00  0.00    -0.000 C 
BRANCH   4   5
ATOM      5  C   UNL     1     117.110 117.171 120.009  1.00  0.00    -0.000 C 
BRANCH   5   6
ATOM      6  C   UNL     1     116.459 118.563 120.075  1.00  0.00    -0.000 C 
BRANCH   6   7
ATOM      7  C   UNL     1     116.808 119.388 121.328  1.00  0.00    -0.000 C 
BRANCH   7   8
ATOM      8  C   UNL     1     116.548 120.901 121.170  1.00  0.00    -0.003 C 
ATOM      9  C   UNL     1     115.948 121.253 119.810  1.00  0.00     0.004 C 
ENDBRANCH   7   8
ENDBRANCH   6   7
ENDBRANCH   5   6
ENDBRANCH   4   5
ENDBRANCH   3   4
ENDBRANCH   2   3
ENDBRANCH   1   2
BRANCH   1  10
ATOM     10  C   UNL     1     119.146 120.491 118.510  1.00  0.00     0.000 C 
BRANCH  10  11
ATOM     11  C   UNL     1     120.021 121.218 119.551  1.00  0.00     0.000 C 
BRANCH  11  12
ATOM     12  C   UNL     1     121.016 120.323 120.312  1.00  0.00     0.000 C 
BRANCH  12  13
ATOM     13  C   UNL     1     120.389 119.645 121.542  1.00  0.00     0.000 C 
BRANCH  13  14
ATOM     14  C   UNL     1     120.364 118.110 121.433  1.00  0.00     0.002 C 
BRANCH  14  15
ATOM     15  C   UNL     1     121.148 117.525 120.244  1.00  0.00     0.028 C 
BRANCH  15  16
ATOM     16  C   UNL     1     121.240 115.997 120.275  1.00  0.00     0.156 C 
BRANCH  16  17
ATOM     17  O   UNL     1     121.540 115.576 121.577  1.00  0.00    -0.396 OA
ATOM     18  H   UNL     1     120.771 115.853 122.139  1.00  0.00     0.210 HD
ENDBRANCH  16  17
ENDBRANCH  15  16
ENDBRANCH  14  15
ENDBRANCH  13  14
ENDBRANCH  12  13
ENDBRANCH  11  12
ENDBRANCH  10  11
ENDBRANCH   1  10
TORSDOF 15
ENDMDL
MODEL 3
REMARK VINA RESULT:    -4.258      1.151      3.017
REMARK INTER + INTRA:         -10.220
REMARK INTER:                  -7.862
REMARK INTRA:                  -2.357
REMARK UNBOUND:                -2.352
REMARK SMILES CCCCCCCCCCCCCCCCO
REMARK SMILES IDX 9 1 8 2 7 3 6 4 5 5 4 6 3 7 2 8 1 9 10 10 11 11 12 12 13 13
REMARK SMILES IDX 14 14 15 15 16 16 17 17
REMARK H PARENT 17 18
REMARK Flexibility Score: inf
ROOT
ATOM      1  C   UNL     1     120.786 117.120 119.495  1.00  0.00     0.000 C 
ENDROOT
BRANCH   1   2
ATOM      2  C   UNL     1     121.360 118.543 119.612  1.00  0.00    -0.000 C 
BRANCH   2   3
ATOM      3  C   UNL     1     120.475 119.475 120.457  1.00  0.00    -0.000 C 
BRANCH   3   4
ATOM      4  C   UNL     1     120.075 120.754 119.703  1.00  0.00    -0.000 C 
BRANCH   4   5
ATOM      5  C   UNL     1     119.694 120.480 118.238  1.00  0.00    -0.000 C 
BRANCH   5   6
ATOM      6  C   UNL     1     118.235 120.015 118.080  1.00  0.00    -0.000 C 
BRANCH   6   7
ATOM      7  C   UNL     1     118.052 118.685 117.324  1.00  0.00    -0.000 C 
BRANCH   7   8
ATOM      8  C   UNL     1     119.204 118.357 116.352  1.00  0.00    -0.003 C 
ATOM      9  C   UNL     1     118.929 118.851 114.932  1.00  0.00     0.004 C 
ENDBRANCH   7   8
ENDBRANCH   6   7
ENDBRANCH   5   6
ENDBRANCH   4   5
ENDBRANCH   3   4
ENDBRANCH   2   3
ENDBRANCH   1   2
BRANCH   1  10
ATOM     10  C   UNL     1     119.759 116.738 120.580  1.00  0.00     0.000 C 
BRANCH  10  11
ATOM     11  C   UNL     1     118.349 116.393 120.059  1.00  0.00     0.000 C 
BRANCH  11  12
ATOM     12  C   UNL     1     117.188 116.840 120.967  1.00  0.00     0.000 C 
BRANCH  12  13
ATOM     13  C   UNL     1     116.640 118.228 120.595  1.00  0.00     0.000 C 
BRANCH  13  14
ATOM     14  C   UNL     1     117.050 119.322 121.597  1.00  0.00     0.002 C 
BRANCH  14  15
ATOM     15  C   UNL     1     116.388 120.695 121.374  1.00  0.00     0.028 C 
BRANCH  15  16
ATOM     16  C   UNL     1     115.842 121.317 122.662  1.00  0.00     0.156 C 
BRANCH  16  17
ATOM     17  O   UNL     1     115.877 122.712 122.556  1.00  0.00    -0.396 OA
ATOM     18  H   UNL     1     115.979 123.056 123.481  1.00  0.00     0.210 HD
ENDBRANCH  16  17
ENDBRANCH  15  16
ENDBRANCH  14  15
ENDBRANCH  13  14
ENDBRANCH  12  13
ENDBRANCH  11  12
ENDBRANCH  10  11
ENDBRANCH   1  10
TORSDOF 15
ENDMDL
MODEL 4
REMARK VINA RESULT:    -4.188      2.092      3.647
REMARK INTER + INTRA:         -10.089
REMARK INTER:                  -7.341
REMARK INTRA:                  -2.748
REMARK UNBOUND:                -2.352
REMARK SMILES CCCCCCCCCCCCCCCCO
REMARK SMILES IDX 9 1 8 2 7 3 6 4 5 5 4 6 3 7 2 8 1 9 10 10 11 11 12 12 13 13
REMARK SMILES IDX 14 14 15 15 16 16 17 17
REMARK H PARENT 17 18
REMARK Flexibility Score: inf
ROOT
ATOM      1  C   UNL     1     119.053 117.823 117.907  1.00  0.00     0.000 C 
ENDROOT
BRANCH   1   2
ATOM      2  C   UNL     1     118.580 119.016 117.058  1.00  0.00    -0.000 C 
BRANCH   2   3
ATOM      3  C   UNL     1     117.481 119.842 117.750  1.00  0.00    -0.000 C 
BRANCH   3   4
ATOM      4  C   UNL     1     116.918 119.145 118.999  1.00  0.00    -0.000 C 
BRANCH   4   5
ATOM      5  C   UNL     1     117.118 119.976 120.279  1.00  0.00    -0.000 C 
BRANCH   5   6
ATOM      6  C   UNL     1     118.212 121.047 120.126  1.00  0.00    -0.000 C 
BRANCH   6   7
ATOM      7  C   UNL     1     119.480 120.810 120.968  1.00  0.00    -0.000 C 
BRANCH   7   8
ATOM      8  C   UNL     1     120.791 121.145 120.227  1.00  0.00    -0.003 C 
ATOM      9  C   UNL     1     120.549 121.640 118.802  1.00  0.00     0.004 C 
ENDBRANCH   7   8
ENDBRANCH   6   7
ENDBRANCH   5   6
ENDBRANCH   4   5
ENDBRANCH   3   4
ENDBRANCH   2   3
ENDBRANCH   1   2
BRANCH   1  10
ATOM     10  C   UNL     1     120.520 117.896 118.376  1.00  0.00     0.000 C 
BRANCH  10  11
ATOM     11  C   UNL     1     120.784 117.354 119.796  1.00  0.00     0.000 C 
BRANCH  11  12
ATOM     12  C   UNL     1     119.555 116.762 120.510  1.00  0.00     0.000 C 
BRANCH  12  13
ATOM     13  C   UNL     1     119.319 117.375 121.901  1.00  0.00     0.000 C 
BRANCH  13  14
ATOM     14  C   UNL     1     118.022 116.877 122.563  1.00  0.00     0.002 C 
BRANCH  14  15
ATOM     15  C   UNL     1     116.920 116.426 121.587  1.00  0.00     0.028 C 
BRANCH  15  16
ATOM     16  C   UNL     1     115.750 115.725 122.282  1.00  0.00     0.156 C 
BRANCH  16  17
ATOM     17  O   UNL     1     115.335 116.490 123.379  1.00  0.00    -0.396 OA
ATOM     18  H   UNL     1     115.383 115.889 124.167  1.00  0.00     0.210 HD
ENDBRANCH  16  17
ENDBRANCH  15  16
ENDBRANCH  14  15
ENDBRANCH  13  14
ENDBRANCH  12  13
ENDBRANCH  11  12
ENDBRANCH  10  11
ENDBRANCH   1  10
TORSDOF 15
ENDMDL
MODEL 5
REMARK VINA RESULT:    -4.183      2.204      4.337
REMARK INTER + INTRA:         -10.081
REMARK INTER:                  -7.736
REMARK INTRA:                  -2.345
REMARK UNBOUND:                -2.352
REMARK SMILES CCCCCCCCCCCCCCCCO
REMARK SMILES IDX 9 1 8 2 7 3 6 4 5 5 4 6 3 7 2 8 1 9 10 10 11 11 12 12 13 13
REMARK SMILES IDX 14 14 15 15 16 16 17 17
REMARK H PARENT 17 18
REMARK Flexibility Score: inf
ROOT
ATOM      1  C   UNL     1     118.925 120.848 120.552  1.00  0.00     0.000 C 
ENDROOT
BRANCH   1   2
ATOM      2  C   UNL     1     120.320 121.090 119.947  1.00  0.00    -0.000 C 
BRANCH   2   3
ATOM      3  C   UNL     1     121.198 119.827 119.952  1.00  0.00    -0.000 C 
BRANCH   3   4
ATOM      4  C   UNL     1     120.471 118.604 120.536  1.00  0.00    -0.000 C 
BRANCH   4   5
ATOM      5  C   UNL     1     120.401 117.430 119.544  1.00  0.00    -0.000 C 
BRANCH   5   6
ATOM      6  C   UNL     1     120.236 117.893 118.086  1.00  0.00    -0.000 C 
BRANCH   6   7
ATOM      7  C   UNL     1     118.779 118.000 117.596  1.00  0.00    -0.000 C 
BRANCH   7   8
ATOM      8  C   UNL     1     118.539 119.154 116.601  1.00  0.00    -0.003 C 
ATOM      9  C   UNL     1     118.862 118.761 115.160  1.00  0.00     0.004 C 
ENDBRANCH   7   8
ENDBRANCH   6   7
ENDBRANCH   5   6
ENDBRANCH   4   5
ENDBRANCH   3   4
ENDBRANCH   2   3
ENDBRANCH   1   2
BRANCH   1  10
ATOM     10  C   UNL     1     117.742 121.170 119.616  1.00  0.00     0.000 C 
BRANCH  10  11
ATOM     11  C   UNL     1     116.525 120.232 119.749  1.00  0.00     0.000 C 
BRANCH  11  12
ATOM     12  C   UNL     1     116.740 119.004 120.653  1.00  0.00     0.000 C 
BRANCH  12  13
ATOM     13  C   UNL     1     116.329 117.685 119.977  1.00  0.00     0.000 C 
BRANCH  13  14
ATOM     14  C   UNL     1     116.991 116.451 120.617  1.00  0.00     0.002 C 
BRANCH  14  15
ATOM     15  C   UNL     1     117.260 116.564 122.130  1.00  0.00     0.028 C 
BRANCH  15  16
ATOM     16  C   UNL     1     116.292 115.734 122.976  1.00  0.00     0.156 C 
BRANCH  16  17
ATOM     17  O   UNL     1     115.068 115.617 122.304  1.00  0.00    -0.396 OA
ATOM     18  H   UNL     1     115.021 114.680 121.981  1.00  0.00     0.210 HD
ENDBRANCH  16  17
ENDBRANCH  15  16
ENDBRANCH  14  15
ENDBRANCH  13  14
ENDBRANCH  12  13
ENDBRANCH  11  12
ENDBRANCH  10  11
ENDBRANCH   1  10
TORSDOF 15
ENDMDL
MODEL 6
REMARK VINA RESULT:    -4.156      2.279      4.007
REMARK INTER + INTRA:         -10.031
REMARK INTER:                  -7.538
REMARK INTRA:                  -2.493
REMARK UNBOUND:                -2.352
REMARK SMILES CCCCCCCCCCCCCCCCO
REMARK SMILES IDX 9 1 8 2 7 3 6 4 5 5 4 6 3 7 2 8 1 9 10 10 11 11 12 12 13 13
REMARK SMILES IDX 14 14 15 15 16 16 17 17
REMARK H PARENT 17 18
REMARK Flexibility Score: inf
ROOT
ATOM      1  C   UNL     1     120.393 118.220 118.161  1.00  0.00     0.000 C 
ENDROOT
BRANCH   1   2
ATOM      2  C   UNL     1     121.060 117.314 119.211  1.00  0.00    -0.000 C 
BRANCH   2   3
ATOM      3  C   UNL     1     120.039 116.583 120.101  1.00  0.00    -0.000 C 
BRANCH   3   4
ATOM      4  C   UNL     1     119.970 117.166 121.522  1.00  0.00    -0.000 C 
BRANCH   4   5
ATOM      5  C   UNL     1     120.857 118.412 121.692  1.00  0.00    -0.000 C 
BRANCH   5   6
ATOM      6  C   UNL     1     120.073 119.634 122.200  1.00  0.00    -0.000 C 
BRANCH   6   7
ATOM      7  C   UNL     1     119.844 120.743 121.156  1.00  0.00    -0.000 C 
BRANCH   7   8
ATOM      8  C   UNL     1     121.109 121.114 120.353  1.00  0.00    -0.003 C 
ATOM      9  C   UNL     1     120.782 121.834 119.046  1.00  0.00     0.004 C 
ENDBRANCH   7   8
ENDBRANCH   6   7
ENDBRANCH   5   6
ENDBRANCH   4   5
ENDBRANCH   3   4
ENDBRANCH   2   3
ENDBRANCH   1   2
BRANCH   1  10
ATOM     10  C   UNL     1     118.939 117.849 117.806  1.00  0.00     0.000 C 
BRANCH  10  11
ATOM     11  C   UNL     1     118.029 119.037 117.433  1.00  0.00     0.000 C 
BRANCH  11  12
ATOM     12  C   UNL     1     117.588 119.921 118.614  1.00  0.00     0.000 C 
BRANCH  12  13
ATOM     13  C   UNL     1     116.369 119.356 119.362  1.00  0.00     0.000 C 
BRANCH  13  14
ATOM     14  C   UNL     1     116.757 118.507 120.585  1.00  0.00     0.002 C 
BRANCH  14  15
ATOM     15  C   UNL     1     116.371 117.018 120.498  1.00  0.00     0.028 C 
BRANCH  15  16
ATOM     16  C   UNL     1     116.421 116.303 121.851  1.00  0.00     0.156 C 
BRANCH  16  17
ATOM     17  O   UNL     1     115.174 115.725 122.117  1.00  0.00    -0.396 OA
ATOM     18  H   UNL     1     115.256 115.294 123.008  1.00  0.00     0.210 HD
ENDBRANCH  16  17
ENDBRANCH  15  16
ENDBRANCH  14  15
ENDBRANCH  13  14
ENDBRANCH  12  13
ENDBRANCH  11  12
ENDBRANCH  10  11
ENDBRANCH   1  10
TORSDOF 15
ENDMDL
MODEL 7
REMARK VINA RESULT:    -4.097      2.072      3.735
REMARK INTER + INTRA:          -9.922
REMARK INTER:                  -7.432
REMARK INTRA:                  -2.490
REMARK UNBOUND:                -2.352
REMARK SMILES CCCCCCCCCCCCCCCCO
REMARK SMILES IDX 9 1 8 2 7 3 6 4 5 5 4 6 3 7 2 8 1 9 10 10 11 11 12 12 13 13
REMARK SMILES IDX 14 14 15 15 16 16 17 17
REMARK H PARENT 17 18
REMARK Flexibility Score: inf
ROOT
ATOM      1  C   UNL     1     118.615 120.074 118.156  1.00  0.00     0.000 C 
ENDROOT
BRANCH   1   2
ATOM      2  C   UNL     1     119.487 119.282 117.165  1.00  0.00    -0.000 C 
BRANCH   2   3
ATOM      3  C   UNL     1     119.891 117.898 117.702  1.00  0.00    -0.000 C 
BRANCH   3   4
ATOM      4  C   UNL     1     120.895 117.985 118.864  1.00  0.00    -0.000 C 
BRANCH   4   5
ATOM      5  C   UNL     1     120.295 117.513 120.200  1.00  0.00    -0.000 C 
BRANCH   5   6
ATOM      6  C   UNL     1     119.193 116.455 120.015  1.00  0.00    -0.000 C 
BRANCH   6   7
ATOM      7  C   UNL     1     117.925 116.678 120.861  1.00  0.00    -0.000 C 
BRANCH   7   8
ATOM      8  C   UNL     1     116.612 116.546 120.063  1.00  0.00    -0.003 C 
ATOM      9  C   UNL     1     116.770 115.678 118.815  1.00  0.00     0.004 C 
ENDBRANCH   7   8
ENDBRANCH   6   7
ENDBRANCH   5   6
ENDBRANCH   4   5
ENDBRANCH   3   4
ENDBRANCH   2   3
ENDBRANCH   1   2
BRANCH   1  10
ATOM     10  C   UNL     1     117.108 119.756 118.099  1.00  0.00     0.000 C 
BRANCH  10  11
ATOM     11  C   UNL     1     116.321 120.070 119.388  1.00  0.00     0.000 C 
BRANCH  11  12
ATOM     12  C   UNL     1     117.075 120.921 120.426  1.00  0.00     0.000 C 
BRANCH  12  13
ATOM     13  C   UNL     1     117.198 120.226 121.793  1.00  0.00     0.000 C 
BRANCH  13  14
ATOM     14  C   UNL     1     118.647 120.171 122.309  1.00  0.00     0.002 C 
BRANCH  14  15
ATOM     15  C   UNL     1     119.678 120.921 121.446  1.00  0.00     0.028 C 
BRANCH  15  16
ATOM     16  C   UNL     1     121.019 121.129 122.156  1.00  0.00     0.156 C 
BRANCH  16  17
ATOM     17  O   UNL     1     121.434 119.920 122.728  1.00  0.00    -0.396 OA
ATOM     18  H   UNL     1     122.241 120.133 123.265  1.00  0.00     0.210 HD
ENDBRANCH  16  17
ENDBRANCH  15  16
ENDBRANCH  14  15
ENDBRANCH  13  14
ENDBRANCH  12  13
ENDBRANCH  11  12
ENDBRANCH  10  11
ENDBRANCH   1  10
TORSDOF 15
ENDMDL
MODEL 8
REMARK VINA RESULT:    -4.076      1.135      3.117
REMARK INTER + INTRA:          -9.883
REMARK INTER:                  -7.454
REMARK INTRA:                  -2.429
REMARK UNBOUND:                -2.352
REMARK SMILES CCCCCCCCCCCCCCCCO
REMARK SMILES IDX 9 1 8 2 7 3 6 4 5 5 4 6 3 7 2 8 1 9 10 10 11 11 12 12 13 13
REMARK SMILES IDX 14 14 15 15 16 16 17 17
REMARK H PARENT 17 18
REMARK Flexibility Score: inf
ROOT
ATOM      1  C   UNL     1     119.710 120.063 117.777  1.00  0.00     0.000 C 
ENDROOT
BRANCH   1   2
ATOM      2  C   UNL     1     118.332 119.400 117.957  1.00  0.00    -0.000 C 
BRANCH   2   3
ATOM      3  C   UNL     1     118.299 117.947 117.451  1.00  0.00    -0.000 C 
BRANCH   3   4
ATOM      4  C   UNL     1     117.621 116.990 118.446  1.00  0.00    -0.000 C 
BRANCH   4   5
ATOM      5  C   UNL     1     117.542 117.576 119.866  1.00  0.00    -0.000 C 
BRANCH   5   6
ATOM      6  C   UNL     1     118.439 116.829 120.868  1.00  0.00    -0.000 C 
BRANCH   6   7
ATOM      7  C   UNL     1     119.901 117.315 120.924  1.00  0.00    -0.000 C 
BRANCH   7   8
ATOM      8  C   UNL     1     120.888 116.408 120.161  1.00  0.00    -0.003 C 
ATOM      9  C   UNL     1     121.631 117.153 119.052  1.00  0.00     0.004 C 
ENDBRANCH   7   8
ENDBRANCH   6   7
ENDBRANCH   5   6
ENDBRANCH   4   5
ENDBRANCH   3   4
ENDBRANCH   2   3
ENDBRANCH   1   2
BRANCH   1  10
ATOM     10  C   UNL     1     120.144 120.992 118.928  1.00  0.00     0.000 C 
BRANCH  10  11
ATOM     11  C   UNL     1     119.103 121.178 120.051  1.00  0.00     0.000 C 
BRANCH  11  12
ATOM     12  C   UNL     1     119.651 121.034 121.483  1.00  0.00     0.000 C 
BRANCH  12  13
ATOM     13  C   UNL     1     118.629 120.419 122.454  1.00  0.00     0.000 C 
BRANCH  13  14
ATOM     14  C   UNL     1     117.182 120.504 121.935  1.00  0.00     0.002 C 
BRANCH  14  15
ATOM     15  C   UNL     1     116.091 120.400 123.017  1.00  0.00     0.028 C 
BRANCH  15  16
ATOM     16  C   UNL     1     115.422 121.741 123.327  1.00  0.00     0.156 C 
BRANCH  16  17
ATOM     17  O   UNL     1     115.686 122.644 122.290  1.00  0.00    -0.396 OA
ATOM     18  H   UNL     1     115.968 123.489 122.727  1.00  0.00     0.210 HD
ENDBRANCH  16  17
ENDBRANCH  15  16
ENDBRANCH  14  15
ENDBRANCH  13  14
ENDBRANCH  12  13
ENDBRANCH  11  12
ENDBRANCH  10  11
ENDBRANCH   1  10
TORSDOF 15
ENDMDL
MODEL 9
REMARK VINA RESULT:    -4.059      0.938      2.808
REMARK INTER + INTRA:          -9.851
REMARK INTER:                  -7.564
REMARK INTRA:                  -2.288
REMARK UNBOUND:                -2.352
REMARK SMILES CCCCCCCCCCCCCCCCO
REMARK SMILES IDX 9 1 8 2 7 3 6 4 5 5 4 6 3 7 2 8 1 9 10 10 11 11 12 12 13 13
REMARK SMILES IDX 14 14 15 15 16 16 17 17
REMARK H PARENT 17 18
REMARK Flexibility Score: inf
ROOT
ATOM      1  C   UNL     1     119.367 116.752 119.318  1.00  0.00     0.000 C 
ENDROOT
BRANCH   1   2
ATOM      2  C   UNL     1     120.370 116.529 120.464  1.00  0.00    -0.000 C 
BRANCH   2   3
ATOM      3  C   UNL     1     120.898 117.847 121.058  1.00  0.00    -0.000 C 
BRANCH   3   4
ATOM      4  C   UNL     1     121.116 118.930 119.989  1.00  0.00    -0.000 C 
BRANCH   4   5
ATOM      5  C   UNL     1     120.418 120.256 120.341  1.00  0.00    -0.000 C 
BRANCH   5   6
ATOM      6  C   UNL     1     119.750 120.917 119.123  1.00  0.00    -0.000 C 
BRANCH   6   7
ATOM      7  C   UNL     1     119.851 120.118 117.809  1.00  0.00    -0.000 C 
BRANCH   7   8
ATOM      8  C   UNL     1     118.500 119.564 117.311  1.00  0.00    -0.003 C 
ATOM      9  C   UNL     1     118.657 118.626 116.115  1.00  0.00     0.004 C 
ENDBRANCH   7   8
ENDBRANCH   6   7
ENDBRANCH   5   6
ENDBRANCH   4   5
ENDBRANCH   3   4
ENDBRANCH   2   3
ENDBRANCH   1   2
BRANCH   1  10
ATOM     10  C   UNL     1     117.983 116.105 119.526  1.00  0.00     0.000 C 
BRANCH  10  11
ATOM     11  C   UNL     1     116.812 117.095 119.689  1.00  0.00     0.000 C 
BRANCH  11  12
ATOM     12  C   UNL     1     117.058 118.241 120.688  1.00  0.00     0.000 C 
BRANCH  12  13
ATOM     13  C   UNL     1     116.408 119.565 120.250  1.00  0.00     0.000 C 
BRANCH  13  14
ATOM     14  C   UNL     1     116.782 120.747 121.163  1.00  0.00     0.002 C 
BRANCH  14  15
ATOM     15  C   UNL     1     116.426 120.563 122.650  1.00  0.00     0.028 C 
BRANCH  15  16
ATOM     16  C   UNL     1     115.454 121.624 123.172  1.00  0.00     0.156 C 
BRANCH  16  17
ATOM     17  O   UNL     1     115.689 122.836 122.511  1.00  0.00    -0.396 OA
ATOM     18  H   UNL     1     116.458 122.673 121.904  1.00  0.00     0.210 HD
ENDBRANCH  16  17
ENDBRANCH  15  16
ENDBRANCH  14  15
ENDBRANCH  13  14
ENDBRANCH  12  13
ENDBRANCH  11  12
ENDBRANCH  10  11
ENDBRANCH   1  10
TORSDOF 15
ENDMDL
