MODEL 1
REMARK VINA RESULT:    -3.285      0.000      0.000
REMARK INTER + INTRA:          -4.042
REMARK INTER:                  -4.053
REMARK INTRA:                   0.012
REMARK UNBOUND:                 0.012
REMARK SMILES Oc1cc(O)c2cc(O)c(-c3cc(O)c(O)c(O)c3)[o+]c2c1
REMARK SMILES IDX 10 1 20 2 21 3 22 4 2 5 3 6 4 7 6 8 7 9 8 10 11 11 12 12
REMARK SMILES IDX 13 13 19 14 15 15 17 16 14 17 16 19 18 21 9 23 1 25 5 27
REMARK H PARENT 14 18 16 20 18 22 9 24 1 26 5 28
REMARK Flexibility Score: inf
ROOT
ATOM      1  C   UNL     1      32.664  -1.424  43.483  1.00  0.00     0.402 A 
ATOM      2  O   UNL     1      33.444  -2.481  43.689  1.00  0.00    -0.202 OA
ATOM      3  C   UNL     1      34.735  -2.510  43.371  1.00  0.00     0.368 A 
ATOM      4  C   UNL     1      35.474  -3.667  43.628  1.00  0.00     0.162 A 
ATOM      5  C   UNL     1      36.833  -3.723  43.306  1.00  0.00     0.128 A 
ATOM      6  C   UNL     1      37.454  -2.616  42.724  1.00  0.00     0.093 A 
ATOM      7  C   UNL     1      36.737  -1.444  42.456  1.00  0.00     0.136 A 
ATOM      8  C   UNL     1      35.356  -1.384  42.779  1.00  0.00     0.125 A 
ATOM      9  C   UNL     1      34.554  -0.257  42.534  1.00  0.00     0.078 A 
ATOM     10  C   UNL     1      33.199  -0.273  42.876  1.00  0.00     0.223 A 
ENDROOT
BRANCH   1  11
ATOM     11  C   UNL     1      31.244  -1.511  43.892  1.00  0.00     0.091 A 
ATOM     12  C   UNL     1      30.873  -2.026  45.146  1.00  0.00     0.068 A 
ATOM     13  C   UNL     1      29.521  -2.121  45.505  1.00  0.00     0.162 A 
ATOM     14  C   UNL     1      30.241  -1.126  42.989  1.00  0.00     0.068 A 
ATOM     15  C   UNL     1      28.527  -1.713  44.606  1.00  0.00     0.200 A 
ATOM     16  C   UNL     1      28.888  -1.217  43.342  1.00  0.00     0.162 A 
BRANCH  13  17
ATOM     17  O   UNL     1      29.157  -2.625  46.752  1.00  0.00    -0.504 OA
ATOM     18  H   UNL     1      29.568  -3.476  47.120  1.00  0.00     0.293 HD
ENDBRANCH  13  17
BRANCH  15  19
ATOM     19  O   UNL     1      27.187  -1.811  44.983  1.00  0.00    -0.502 OA
ATOM     20  H   UNL     1      26.569  -1.008  44.990  1.00  0.00     0.293 HD
ENDBRANCH  15  19
BRANCH  16  21
ATOM     21  O   UNL     1      27.901  -0.818  42.442  1.00  0.00    -0.504 OA
ATOM     22  H   UNL     1      28.006   0.014  41.873  1.00  0.00     0.293 HD
ENDBRANCH  16  21
ENDBRANCH   1  11
BRANCH  10  23
ATOM     23  O   UNL     1      32.391   0.828  42.587  1.00  0.00    -0.500 OA
ATOM     24  H   UNL     1      31.858   1.300  43.307  1.00  0.00     0.294 HD
ENDBRANCH  10  23
BRANCH   5  25
ATOM     25  O   UNL     1      37.575  -4.874  43.560  1.00  0.00    -0.507 OA
ATOM     26  H   UNL     1      38.561  -4.829  43.786  1.00  0.00     0.293 HD
ENDBRANCH   5  25
BRANCH   7  27
ATOM     27  O   UNL     1      37.434  -0.381  41.875  1.00  0.00    -0.507 OA
ATOM     28  H   UNL     1      37.660  -0.316  40.893  1.00  0.00     0.293 HD
ENDBRANCH   7  27
TORSDOF 7
ENDMDL
MODEL 2
REMARK VINA RESULT:    -3.268      0.082      1.790
REMARK INTER + INTRA:          -4.021
REMARK INTER:                  -4.013
REMARK INTRA:                  -0.008
REMARK UNBOUND:                 0.012
REMARK SMILES Oc1cc(O)c2cc(O)c(-c3cc(O)c(O)c(O)c3)[o+]c2c1
REMARK SMILES IDX 10 1 20 2 21 3 22 4 2 5 3 6 4 7 6 8 7 9 8 10 11 11 12 12
REMARK SMILES IDX 13 13 19 14 15 15 17 16 14 17 16 19 18 21 9 23 1 25 5 27
REMARK H PARENT 14 18 16 20 18 22 9 24 1 26 5 28
REMARK Flexibility Score: inf
ROOT
ATOM      1  C   UNL     1      32.692  -1.433  43.403  1.00  0.00     0.402 A 
ATOM      2  O   UNL     1      33.463  -2.497  43.610  1.00  0.00    -0.202 OA
ATOM      3  C   UNL     1      34.757  -2.530  43.310  1.00  0.00     0.368 A 
ATOM      4  C   UNL     1      35.486  -3.694  43.567  1.00  0.00     0.162 A 
ATOM      5  C   UNL     1      36.849  -3.754  43.265  1.00  0.00     0.128 A 
ATOM      6  C   UNL     1      37.486  -2.645  42.702  1.00  0.00     0.093 A 
ATOM      7  C   UNL     1      36.778  -1.467  42.435  1.00  0.00     0.136 A 
ATOM      8  C   UNL     1      35.393  -1.402  42.738  1.00  0.00     0.125 A 
ATOM      9  C   UNL     1      34.602  -0.268  42.493  1.00  0.00     0.078 A 
ATOM     10  C   UNL     1      33.241  -0.280  42.815  1.00  0.00     0.223 A 
ENDROOT
BRANCH   1  11
ATOM     11  C   UNL     1      31.264  -1.517  43.790  1.00  0.00     0.091 A 
ATOM     12  C   UNL     1      30.244  -1.100  42.919  1.00  0.00     0.068 A 
ATOM     13  C   UNL     1      28.900  -1.167  43.313  1.00  0.00     0.162 A 
ATOM     14  C   UNL     1      30.924  -1.969  45.074  1.00  0.00     0.068 A 
ATOM     15  C   UNL     1      28.566  -1.641  44.588  1.00  0.00     0.200 A 
ATOM     16  C   UNL     1      29.582  -2.040  45.473  1.00  0.00     0.162 A 
BRANCH  13  17
ATOM     17  O   UNL     1      27.890  -0.759  42.443  1.00  0.00    -0.504 OA
ATOM     18  H   UNL     1      27.018  -0.373  42.788  1.00  0.00     0.293 HD
ENDBRANCH  13  17
BRANCH  15  19
ATOM     19  O   UNL     1      27.223  -1.704  44.961  1.00  0.00    -0.502 OA
ATOM     20  H   UNL     1      26.874  -1.246  45.795  1.00  0.00     0.293 HD
ENDBRANCH  15  19
BRANCH  16  21
ATOM     21  O   UNL     1      29.254  -2.504  46.747  1.00  0.00    -0.504 OA
ATOM     22  H   UNL     1      29.963  -2.658  47.454  1.00  0.00     0.293 HD
ENDBRANCH  16  21
ENDBRANCH   1  11
BRANCH  10  23
ATOM     23  O   UNL     1      32.444   0.828  42.525  1.00  0.00    -0.500 OA
ATOM     24  H   UNL     1      32.753   1.772  42.721  1.00  0.00     0.294 HD
ENDBRANCH  10  23
BRANCH   5  25
ATOM     25  O   UNL     1      37.582  -4.912  43.518  1.00  0.00    -0.507 OA
ATOM     26  H   UNL     1      38.594  -4.908  43.521  1.00  0.00     0.293 HD
ENDBRANCH   5  25
BRANCH   7  27
ATOM     27  O   UNL     1      37.490  -0.402  41.875  1.00  0.00    -0.507 OA
ATOM     28  H   UNL     1      37.063   0.389  41.414  1.00  0.00     0.293 HD
ENDBRANCH   7  27
TORSDOF 7
ENDMDL
MODEL 3
REMARK VINA RESULT:    -2.154      1.367      1.844
REMARK INTER + INTRA:          -2.646
REMARK INTER:                  -2.827
REMARK INTRA:                   0.181
REMARK UNBOUND:                 0.012
REMARK SMILES Oc1cc(O)c2cc(O)c(-c3cc(O)c(O)c(O)c3)[o+]c2c1
REMARK SMILES IDX 10 1 20 2 21 3 22 4 2 5 3 6 4 7 6 8 7 9 8 10 11 11 12 12
REMARK SMILES IDX 13 13 19 14 15 15 17 16 14 17 16 19 18 21 9 23 1 25 5 27
REMARK H PARENT 14 18 16 20 18 22 9 24 1 26 5 28
REMARK Flexibility Score: inf
ROOT
ATOM      1  C   UNL     1      32.083  -1.976  44.090  1.00  0.00     0.402 A 
ATOM      2  O   UNL     1      32.985  -2.938  44.264  1.00  0.00    -0.202 OA
ATOM      3  C   UNL     1      34.228  -2.866  43.798  1.00  0.00     0.368 A 
ATOM      4  C   UNL     1      35.105  -3.928  44.034  1.00  0.00     0.162 A 
ATOM      5  C   UNL     1      36.419  -3.877  43.558  1.00  0.00     0.128 A 
ATOM      6  C   UNL     1      36.856  -2.758  42.844  1.00  0.00     0.093 A 
ATOM      7  C   UNL     1      35.997  -1.682  42.594  1.00  0.00     0.136 A 
ATOM      8  C   UNL     1      34.661  -1.731  43.073  1.00  0.00     0.125 A 
ATOM      9  C   UNL     1      33.727  -0.704  42.859  1.00  0.00     0.078 A 
ATOM     10  C   UNL     1      32.426  -0.825  43.358  1.00  0.00     0.223 A 
ENDROOT
BRANCH   1  11
ATOM     11  C   UNL     1      30.733  -2.170  44.667  1.00  0.00     0.091 A 
ATOM     12  C   UNL     1      29.939  -1.078  45.055  1.00  0.00     0.068 A 
ATOM     13  C   UNL     1      28.673  -1.283  45.620  1.00  0.00     0.162 A 
ATOM     14  C   UNL     1      30.256  -3.472  44.884  1.00  0.00     0.068 A 
ATOM     15  C   UNL     1      28.194  -2.585  45.812  1.00  0.00     0.200 A 
ATOM     16  C   UNL     1      28.990  -3.684  45.446  1.00  0.00     0.162 A 
BRANCH  13  17
ATOM     17  O   UNL     1      27.885  -0.197  45.997  1.00  0.00    -0.504 OA
ATOM     18  H   UNL     1      27.783   0.617  45.400  1.00  0.00     0.293 HD
ENDBRANCH  13  17
BRANCH  15  19
ATOM     19  O   UNL     1      26.929  -2.770  46.372  1.00  0.00    -0.502 OA
ATOM     20  H   UNL     1      26.774  -2.744  47.373  1.00  0.00     0.293 HD
ENDBRANCH  15  19
BRANCH  16  21
ATOM     21  O   UNL     1      28.521  -4.982  45.645  1.00  0.00    -0.504 OA
ATOM     22  H   UNL     1      28.909  -5.583  46.362  1.00  0.00     0.293 HD
ENDBRANCH  16  21
ENDBRANCH   1  11
BRANCH  10  23
ATOM     23  O   UNL     1      31.483   0.171  43.102  1.00  0.00    -0.500 OA
ATOM     24  H   UNL     1      31.669   0.924  42.451  1.00  0.00     0.294 HD
ENDBRANCH  10  23
BRANCH   5  25
ATOM     25  O   UNL     1      37.299  -4.932  43.790  1.00  0.00    -0.507 OA
ATOM     26  H   UNL     1      36.986  -5.894  43.777  1.00  0.00     0.293 HD
ENDBRANCH   5  25
BRANCH   7  27
ATOM     27  O   UNL     1      36.513  -0.601  41.875  1.00  0.00    -0.507 OA
ATOM     28  H   UNL     1      37.459  -0.258  41.961  1.00  0.00     0.293 HD
ENDBRANCH   7  27
TORSDOF 7
ENDMDL
MODEL 4
REMARK VINA RESULT:    -2.001      1.412      1.530
REMARK INTER + INTRA:          -2.458
REMARK INTER:                  -2.599
REMARK INTRA:                   0.142
REMARK UNBOUND:                 0.012
REMARK SMILES Oc1cc(O)c2cc(O)c(-c3cc(O)c(O)c(O)c3)[o+]c2c1
REMARK SMILES IDX 10 1 20 2 21 3 22 4 2 5 3 6 4 7 6 8 7 9 8 10 11 11 12 12
REMARK SMILES IDX 13 13 19 14 15 15 17 16 14 17 16 19 18 21 9 23 1 25 5 27
REMARK H PARENT 14 18 16 20 18 22 9 24 1 26 5 28
REMARK Flexibility Score: inf
ROOT
ATOM      1  C   UNL     1      32.592  -2.052  44.134  1.00  0.00     0.402 A 
ATOM      2  O   UNL     1      33.462  -3.046  44.288  1.00  0.00    -0.202 OA
ATOM      3  C   UNL     1      34.701  -3.013  43.808  1.00  0.00     0.368 A 
ATOM      4  C   UNL     1      35.544  -4.106  44.023  1.00  0.00     0.162 A 
ATOM      5  C   UNL     1      36.852  -4.096  43.531  1.00  0.00     0.128 A 
ATOM      6  C   UNL     1      37.319  -2.987  42.821  1.00  0.00     0.093 A 
ATOM      7  C   UNL     1      36.495  -1.879  42.591  1.00  0.00     0.136 A 
ATOM      8  C   UNL     1      35.164  -1.887  43.087  1.00  0.00     0.125 A 
ATOM      9  C   UNL     1      34.263  -0.827  42.893  1.00  0.00     0.078 A 
ATOM     10  C   UNL     1      32.965  -0.907  43.408  1.00  0.00     0.223 A 
ENDROOT
BRANCH   1  11
ATOM     11  C   UNL     1      31.243  -2.205  44.726  1.00  0.00     0.091 A 
ATOM     12  C   UNL     1      30.571  -3.438  44.711  1.00  0.00     0.068 A 
ATOM     13  C   UNL     1      29.286  -3.556  45.258  1.00  0.00     0.162 A 
ATOM     14  C   UNL     1      30.596  -1.082  45.266  1.00  0.00     0.068 A 
ATOM     15  C   UNL     1      28.655  -2.436  45.815  1.00  0.00     0.200 A 
ATOM     16  C   UNL     1      29.311  -1.193  45.815  1.00  0.00     0.162 A 
BRANCH  13  17
ATOM     17  O   UNL     1      28.626  -4.784  45.247  1.00  0.00    -0.504 OA
ATOM     18  H   UNL     1      28.420  -5.283  46.105  1.00  0.00     0.293 HD
ENDBRANCH  13  17
BRANCH  15  19
ATOM     19  O   UNL     1      27.377  -2.574  46.358  1.00  0.00    -0.502 OA
ATOM     20  H   UNL     1      26.786  -1.775  46.552  1.00  0.00     0.293 HD
ENDBRANCH  15  19
BRANCH  16  21
ATOM     21  O   UNL     1      28.684  -0.074  46.361  1.00  0.00    -0.504 OA
ATOM     22  H   UNL     1      27.693   0.094  46.233  1.00  0.00     0.293 HD
ENDBRANCH  16  21
ENDBRANCH   1  11
BRANCH  10  23
ATOM     23  O   UNL     1      32.054   0.123  43.173  1.00  0.00    -0.500 OA
ATOM     24  H   UNL     1      32.323   1.097  43.244  1.00  0.00     0.294 HD
ENDBRANCH  10  23
BRANCH   5  25
ATOM     25  O   UNL     1      37.698  -5.183  43.742  1.00  0.00    -0.507 OA
ATOM     26  H   UNL     1      38.074  -5.719  42.970  1.00  0.00     0.293 HD
ENDBRANCH   5  25
BRANCH   7  27
ATOM     27  O   UNL     1      37.038  -0.810  41.875  1.00  0.00    -0.507 OA
ATOM     28  H   UNL     1      36.891  -0.650  40.889  1.00  0.00     0.293 HD
ENDBRANCH   7  27
TORSDOF 7
ENDMDL
MODEL 5
REMARK VINA RESULT:    -1.725      1.038      6.895
REMARK INTER + INTRA:          -2.117
REMARK INTER:                  -2.550
REMARK INTRA:                   0.433
REMARK UNBOUND:                 0.012
REMARK SMILES Oc1cc(O)c2cc(O)c(-c3cc(O)c(O)c(O)c3)[o+]c2c1
REMARK SMILES IDX 10 1 20 2 21 3 22 4 2 5 3 6 4 7 6 8 7 9 8 10 11 11 12 12
REMARK SMILES IDX 13 13 19 14 15 15 17 16 14 17 16 19 18 21 9 23 1 25 5 27
REMARK H PARENT 14 18 16 20 18 22 9 24 1 26 5 28
REMARK Flexibility Score: inf
ROOT
ATOM      1  C   UNL     1      33.002  -1.970  43.429  1.00  0.00     0.402 A 
ATOM      2  O   UNL     1      32.270  -2.704  44.263  1.00  0.00    -0.202 OA
ATOM      3  C   UNL     1      30.965  -2.523  44.442  1.00  0.00     0.368 A 
ATOM      4  C   UNL     1      30.281  -3.346  45.339  1.00  0.00     0.162 A 
ATOM      5  C   UNL     1      28.908  -3.179  45.543  1.00  0.00     0.128 A 
ATOM      6  C   UNL     1      28.218  -2.183  44.847  1.00  0.00     0.093 A 
ATOM      7  C   UNL     1      28.881  -1.345  43.943  1.00  0.00     0.136 A 
ATOM      8  C   UNL     1      30.275  -1.509  43.734  1.00  0.00     0.125 A 
ATOM      9  C   UNL     1      31.024  -0.707  42.858  1.00  0.00     0.078 A 
ATOM     10  C   UNL     1      32.397  -0.926  42.707  1.00  0.00     0.223 A 
ENDROOT
BRANCH   1  11
ATOM     11  C   UNL     1      34.446  -2.278  43.310  1.00  0.00     0.091 A 
ATOM     12  C   UNL     1      34.998  -3.436  43.882  1.00  0.00     0.068 A 
ATOM     13  C   UNL     1      36.371  -3.698  43.776  1.00  0.00     0.162 A 
ATOM     14  C   UNL     1      35.293  -1.367  42.660  1.00  0.00     0.068 A 
ATOM     15  C   UNL     1      37.207  -2.795  43.106  1.00  0.00     0.200 A 
ATOM     16  C   UNL     1      36.667  -1.623  42.549  1.00  0.00     0.162 A 
BRANCH  13  17
ATOM     17  O   UNL     1      36.914  -4.852  44.339  1.00  0.00    -0.504 OA
ATOM     18  H   UNL     1      36.955  -5.724  43.823  1.00  0.00     0.293 HD
ENDBRANCH  13  17
BRANCH  15  19
ATOM     19  O   UNL     1      38.571  -3.074  43.008  1.00  0.00    -0.502 OA
ATOM     20  H   UNL     1      39.264  -2.343  42.907  1.00  0.00     0.293 HD
ENDBRANCH  15  19
BRANCH  16  21
ATOM     21  O   UNL     1      37.497  -0.718  41.889  1.00  0.00    -0.504 OA
ATOM     22  H   UNL     1      38.140  -1.017  41.167  1.00  0.00     0.293 HD
ENDBRANCH  16  21
ENDBRANCH   1  11
BRANCH  10  23
ATOM     23  O   UNL     1      33.150  -0.097  41.875  1.00  0.00    -0.500 OA
ATOM     24  H   UNL     1      32.738   0.373  41.078  1.00  0.00     0.294 HD
ENDBRANCH  10  23
BRANCH   5  25
ATOM     25  O   UNL     1      28.219  -3.997  46.436  1.00  0.00    -0.507 OA
ATOM     26  H   UNL     1      27.866  -4.905  46.159  1.00  0.00     0.293 HD
ENDBRANCH   5  25
BRANCH   7  27
ATOM     27  O   UNL     1      28.118  -0.376  43.286  1.00  0.00    -0.507 OA
ATOM     28  H   UNL     1      28.019   0.580  43.596  1.00  0.00     0.293 HD
ENDBRANCH   7  27
TORSDOF 7
ENDMDL
MODEL 6
REMARK VINA RESULT:    -1.674      1.272      7.338
REMARK INTER + INTRA:          -2.054
REMARK INTER:                  -2.052
REMARK INTRA:                  -0.002
REMARK UNBOUND:                 0.012
REMARK SMILES Oc1cc(O)c2cc(O)c(-c3cc(O)c(O)c(O)c3)[o+]c2c1
REMARK SMILES IDX 10 1 20 2 21 3 22 4 2 5 3 6 4 7 6 8 7 9 8 10 11 11 12 12
REMARK SMILES IDX 13 13 19 14 15 15 17 16 14 17 16 19 18 21 9 23 1 25 5 27
REMARK H PARENT 14 18 16 20 18 22 9 24 1 26 5 28
REMARK Flexibility Score: inf
ROOT
ATOM      1  C   UNL     1      32.442  -1.794  43.479  1.00  0.00     0.402 A 
ATOM      2  O   UNL     1      31.513  -1.122  42.805  1.00  0.00    -0.202 OA
ATOM      3  C   UNL     1      30.219  -1.166  43.106  1.00  0.00     0.368 A 
ATOM      4  C   UNL     1      29.317  -0.423  42.340  1.00  0.00     0.162 A 
ATOM      5  C   UNL     1      27.951  -0.449  42.635  1.00  0.00     0.128 A 
ATOM      6  C   UNL     1      27.486  -1.221  43.703  1.00  0.00     0.093 A 
ATOM      7  C   UNL     1      28.369  -1.975  44.486  1.00  0.00     0.136 A 
ATOM      8  C   UNL     1      29.756  -1.954  44.187  1.00  0.00     0.125 A 
ATOM      9  C   UNL     1      30.712  -2.687  44.909  1.00  0.00     0.078 A 
ATOM     10  C   UNL     1      32.062  -2.620  44.552  1.00  0.00     0.223 A 
ENDROOT
BRANCH   1  11
ATOM     11  C   UNL     1      33.854  -1.655  43.054  1.00  0.00     0.091 A 
ATOM     12  C   UNL     1      34.685  -2.776  42.894  1.00  0.00     0.068 A 
ATOM     13  C   UNL     1      36.025  -2.621  42.511  1.00  0.00     0.162 A 
ATOM     14  C   UNL     1      34.392  -0.373  42.859  1.00  0.00     0.068 A 
ATOM     15  C   UNL     1      36.549  -1.340  42.297  1.00  0.00     0.200 A 
ATOM     16  C   UNL     1      35.731  -0.211  42.475  1.00  0.00     0.162 A 
BRANCH  13  17
ATOM     17  O   UNL     1      36.844  -3.737  42.347  1.00  0.00    -0.504 OA
ATOM     18  H   UNL     1      36.588  -4.495  41.725  1.00  0.00     0.293 HD
ENDBRANCH  13  17
BRANCH  15  19
ATOM     19  O   UNL     1      37.883  -1.205  41.913  1.00  0.00    -0.502 OA
ATOM     20  H   UNL     1      38.578  -0.782  42.517  1.00  0.00     0.293 HD
ENDBRANCH  15  19
BRANCH  16  21
ATOM     21  O   UNL     1      36.250   1.066  42.272  1.00  0.00    -0.504 OA
ATOM     22  H   UNL     1      37.145   1.343  42.657  1.00  0.00     0.293 HD
ENDBRANCH  16  21
ENDBRANCH   1  11
BRANCH  10  23
ATOM     23  O   UNL     1      33.006  -3.388  45.237  1.00  0.00    -0.500 OA
ATOM     24  H   UNL     1      32.744  -4.226  45.742  1.00  0.00     0.294 HD
ENDBRANCH  10  23
BRANCH   5  25
ATOM     25  O   UNL     1      27.047   0.290  41.876  1.00  0.00    -0.507 OA
ATOM     26  H   UNL     1      26.115  -0.053  41.681  1.00  0.00     0.293 HD
ENDBRANCH   5  25
BRANCH   7  27
ATOM     27  O   UNL     1      27.823  -2.717  45.536  1.00  0.00    -0.507 OA
ATOM     28  H   UNL     1      26.957  -2.492  46.005  1.00  0.00     0.293 HD
ENDBRANCH   7  27
TORSDOF 7
ENDMDL
MODEL 7
REMARK VINA RESULT:    -1.338      2.099      3.730
REMARK INTER + INTRA:          -1.639
REMARK INTER:                  -2.062
REMARK INTRA:                   0.423
REMARK UNBOUND:                 0.012
REMARK SMILES Oc1cc(O)c2cc(O)c(-c3cc(O)c(O)c(O)c3)[o+]c2c1
REMARK SMILES IDX 10 1 20 2 21 3 22 4 2 5 3 6 4 7 6 8 7 9 8 10 11 11 12 12
REMARK SMILES IDX 13 13 19 14 15 15 17 16 14 17 16 19 18 21 9 23 1 25 5 27
REMARK H PARENT 14 18 16 20 18 22 9 24 1 26 5 28
REMARK Flexibility Score: inf
ROOT
ATOM      1  C   UNL     1      31.421  -1.917  44.433  1.00  0.00     0.402 A 
ATOM      2  O   UNL     1      31.675  -0.696  43.969  1.00  0.00    -0.202 OA
ATOM      3  C   UNL     1      32.829  -0.357  43.402  1.00  0.00     0.368 A 
ATOM      4  C   UNL     1      33.003   0.951  42.943  1.00  0.00     0.162 A 
ATOM      5  C   UNL     1      34.204   1.333  42.340  1.00  0.00     0.128 A 
ATOM      6  C   UNL     1      35.236   0.402  42.195  1.00  0.00     0.093 A 
ATOM      7  C   UNL     1      35.087  -0.914  42.647  1.00  0.00     0.136 A 
ATOM      8  C   UNL     1      33.870  -1.306  43.262  1.00  0.00     0.125 A 
ATOM      9  C   UNL     1      33.636  -2.600  43.757  1.00  0.00     0.078 A 
ATOM     10  C   UNL     1      32.412  -2.911  44.355  1.00  0.00     0.223 A 
ENDROOT
BRANCH   1  11
ATOM     11  C   UNL     1      30.092  -2.173  45.035  1.00  0.00     0.091 A 
ATOM     12  C   UNL     1      29.222  -1.121  45.365  1.00  0.00     0.068 A 
ATOM     13  C   UNL     1      27.977  -1.384  45.955  1.00  0.00     0.162 A 
ATOM     14  C   UNL     1      29.713  -3.491  45.334  1.00  0.00     0.068 A 
ATOM     15  C   UNL     1      27.597  -2.704  46.229  1.00  0.00     0.200 A 
ATOM     16  C   UNL     1      28.469  -3.761  45.921  1.00  0.00     0.162 A 
BRANCH  13  17
ATOM     17  O   UNL     1      27.114  -0.337  46.275  1.00  0.00    -0.504 OA
ATOM     18  H   UNL     1      27.031   0.481  45.682  1.00  0.00     0.293 HD
ENDBRANCH  13  17
BRANCH  15  19
ATOM     19  O   UNL     1      26.352  -2.946  46.813  1.00  0.00    -0.502 OA
ATOM     20  H   UNL     1      25.670  -2.211  46.949  1.00  0.00     0.293 HD
ENDBRANCH  15  19
BRANCH  16  21
ATOM     21  O   UNL     1      28.099  -5.076  46.202  1.00  0.00    -0.504 OA
ATOM     22  H   UNL     1      27.649  -5.660  45.507  1.00  0.00     0.293 HD
ENDBRANCH  16  21
ENDBRANCH   1  11
BRANCH  10  23
ATOM     23  O   UNL     1      32.198  -4.182  44.892  1.00  0.00    -0.500 OA
ATOM     24  H   UNL     1      31.812  -4.936  44.336  1.00  0.00     0.294 HD
ENDBRANCH  10  23
BRANCH   5  25
ATOM     25  O   UNL     1      34.384   2.636  41.879  1.00  0.00    -0.507 OA
ATOM     26  H   UNL     1      35.227   3.158  42.083  1.00  0.00     0.293 HD
ENDBRANCH   5  25
BRANCH   7  27
ATOM     27  O   UNL     1      36.165  -1.783  42.462  1.00  0.00    -0.507 OA
ATOM     28  H   UNL     1      36.736  -1.815  41.629  1.00  0.00     0.293 HD
ENDBRANCH   7  27
TORSDOF 7
ENDMDL
MODEL 8
REMARK VINA RESULT:    -1.327      2.130      3.597
REMARK INTER + INTRA:          -1.626
REMARK INTER:                  -1.975
REMARK INTRA:                   0.349
REMARK UNBOUND:                 0.012
REMARK SMILES Oc1cc(O)c2cc(O)c(-c3cc(O)c(O)c(O)c3)[o+]c2c1
REMARK SMILES IDX 10 1 20 2 21 3 22 4 2 5 3 6 4 7 6 8 7 9 8 10 11 11 12 12
REMARK SMILES IDX 13 13 19 14 15 15 17 16 14 17 16 19 18 21 9 23 1 25 5 27
REMARK H PARENT 14 18 16 20 18 22 9 24 1 26 5 28
REMARK Flexibility Score: inf
ROOT
ATOM      1  C   UNL     1      31.396  -1.960  44.482  1.00  0.00     0.402 A 
ATOM      2  O   UNL     1      31.619  -0.732  44.022  1.00  0.00    -0.202 OA
ATOM      3  C   UNL     1      32.748  -0.373  43.420  1.00  0.00     0.368 A 
ATOM      4  C   UNL     1      32.890   0.941  42.968  1.00  0.00     0.162 A 
ATOM      5  C   UNL     1      34.066   1.345  42.328  1.00  0.00     0.128 A 
ATOM      6  C   UNL     1      35.104   0.429  42.141  1.00  0.00     0.093 A 
ATOM      7  C   UNL     1      34.987  -0.893  42.584  1.00  0.00     0.136 A 
ATOM      8  C   UNL     1      33.796  -1.307  43.236  1.00  0.00     0.125 A 
ATOM      9  C   UNL     1      33.596  -2.608  43.726  1.00  0.00     0.078 A 
ATOM     10  C   UNL     1      32.397  -2.941  44.362  1.00  0.00     0.223 A 
ENDROOT
BRANCH   1  11
ATOM     11  C   UNL     1      30.091  -2.240  45.126  1.00  0.00     0.091 A 
ATOM     12  C   UNL     1      29.691  -3.552  45.429  1.00  0.00     0.068 A 
ATOM     13  C   UNL     1      28.443  -3.797  46.018  1.00  0.00     0.162 A 
ATOM     14  C   UNL     1      29.211  -1.179  45.388  1.00  0.00     0.068 A 
ATOM     15  C   UNL     1      27.578  -2.731  46.298  1.00  0.00     0.200 A 
ATOM     16  C   UNL     1      27.961  -1.418  45.978  1.00  0.00     0.162 A 
BRANCH  13  17
ATOM     17  O   UNL     1      28.052  -5.100  46.324  1.00  0.00    -0.504 OA
ATOM     18  H   UNL     1      27.206  -5.289  46.849  1.00  0.00     0.293 HD
ENDBRANCH  13  17
BRANCH  15  19
ATOM     19  O   UNL     1      26.341  -2.995  46.888  1.00  0.00    -0.502 OA
ATOM     20  H   UNL     1      25.638  -3.565  46.433  1.00  0.00     0.293 HD
ENDBRANCH  15  19
BRANCH  16  21
ATOM     21  O   UNL     1      27.100  -0.355  46.247  1.00  0.00    -0.504 OA
ATOM     22  H   UNL     1      26.117  -0.394  46.005  1.00  0.00     0.293 HD
ENDBRANCH  16  21
ENDBRANCH   1  11
BRANCH  10  23
ATOM     23  O   UNL     1      32.217  -4.219  44.893  1.00  0.00    -0.500 OA
ATOM     24  H   UNL     1      32.008  -5.016  44.303  1.00  0.00     0.294 HD
ENDBRANCH  10  23
BRANCH   5  25
ATOM     25  O   UNL     1      34.213   2.655  41.875  1.00  0.00    -0.507 OA
ATOM     26  H   UNL     1      33.765   2.974  41.026  1.00  0.00     0.293 HD
ENDBRANCH   5  25
BRANCH   7  27
ATOM     27  O   UNL     1      36.070  -1.746  42.355  1.00  0.00    -0.507 OA
ATOM     28  H   UNL     1      36.406  -2.431  43.017  1.00  0.00     0.293 HD
ENDBRANCH   7  27
TORSDOF 7
ENDMDL
