MODEL 1
REMARK VINA RESULT:    -5.329      0.000      0.000
REMARK INTER + INTRA:          -9.534
REMARK INTER:                  -8.133
REMARK INTRA:                  -1.401
REMARK UNBOUND:                -1.401
REMARK SMILES OC[C@@H]1O[C@@H](O[C@@]2(CO)O[C@H](CO)[C@H](O)[C@@H]2O)[C@@H](O)[C@H](O)[C@H]1O
REMARK SMILES IDX 6 1 5 2 3 3 22 4 4 5 20 6 18 7 2 8 1 9 23 11 21 13 19 15
REMARK SMILES IDX 7 17 16 18 10 19 14 20 11 21 8 22 9 23 17 25 15 27 12 29
REMARK SMILES IDX 13 30
REMARK H PARENT 1 10 23 12 21 14 19 16 9 24 17 26 15 28 13 31
REMARK Flexibility Score: inf
ROOT
ATOM      1  O   UNL     1     164.540 175.821  73.546  1.00  0.00    -0.313 OA
ENDROOT
BRANCH   1   2
ATOM      2  C   UNL     1     165.175 174.647  73.050  1.00  0.00     0.285 C 
ATOM      3  C   UNL     1     166.900 175.663  71.838  1.00  0.00     0.178 C 
ATOM      4  C   UNL     1     166.756 174.821  70.545  1.00  0.00     0.177 C 
ATOM      5  O   UNL     1     166.577 174.862  72.957  1.00  0.00    -0.341 OA
ATOM      6  C   UNL     1     165.588 173.800  70.641  1.00  0.00     0.179 C 
ATOM      7  C   UNL     1     164.529 174.205  71.695  1.00  0.00     0.202 C 
BRANCH   3   8
ATOM      8  C   UNL     1     168.331 176.183  71.998  1.00  0.00     0.191 C 
BRANCH   8   9
ATOM      9  O   UNL     1     169.069 175.894  70.842  1.00  0.00    -0.394 OA
ATOM     10  H   UNL     1     169.596 175.080  71.049  1.00  0.00     0.210 HD
ENDBRANCH   8   9
ENDBRANCH   3   8
BRANCH   4  11
ATOM     11  O   UNL     1     166.627 175.650  69.416  1.00  0.00    -0.387 OA
ATOM     12  H   UNL     1     167.188 175.271  68.692  1.00  0.00     0.211 HD
ENDBRANCH   4  11
BRANCH   6  13
ATOM     13  O   UNL     1     166.116 172.540  70.982  1.00  0.00    -0.387 OA
ATOM     14  H   UNL     1     165.526 172.157  71.682  1.00  0.00     0.211 HD
ENDBRANCH   6  13
BRANCH   7  15
ATOM     15  O   UNL     1     163.643 175.171  71.178  1.00  0.00    -0.385 OA
ATOM     16  H   UNL     1     163.342 174.871  70.285  1.00  0.00     0.211 HD
ENDBRANCH   7  15
ENDBRANCH   1   2
BRANCH   1  17
ATOM     17  C   UNL     1     164.344 175.859  74.958  1.00  0.00     0.224 C 
ATOM     18  C   UNL     1     164.430 174.431  75.588  1.00  0.00     0.208 C 
ATOM     19  O   UNL     1     163.018 176.322  75.156  1.00  0.00    -0.337 OA
ATOM     20  C   UNL     1     163.088 174.243  76.267  1.00  0.00     0.180 C 
ATOM     21  C   UNL     1     162.216 175.217  75.491  1.00  0.00     0.179 C 
BRANCH  17  22
ATOM     22  C   UNL     1     165.253 176.923  75.637  1.00  0.00     0.225 C 
BRANCH  22  23
ATOM     23  O   UNL     1     166.617 176.622  75.525  1.00  0.00    -0.391 OA
ATOM     24  H   UNL     1     166.791 176.477  74.558  1.00  0.00     0.210 HD
ENDBRANCH  22  23
ENDBRANCH  17  22
BRANCH  18  25
ATOM     25  O   UNL     1     165.496 174.284  76.492  1.00  0.00    -0.385 OA
ATOM     26  H   UNL     1     165.147 173.761  77.260  1.00  0.00     0.211 HD
ENDBRANCH  18  25
BRANCH  20  27
ATOM     27  O   UNL     1     163.143 174.541  77.645  1.00  0.00    -0.387 OA
ATOM     28  H   UNL     1     162.947 175.506  77.763  1.00  0.00     0.211 HD
ENDBRANCH  20  27
BRANCH  21  29
ATOM     29  C   UNL     1     160.967 175.671  76.261  1.00  0.00     0.191 C 
BRANCH  29  30
ATOM     30  O   UNL     1     160.622 176.980  75.898  1.00  0.00    -0.394 OA
ATOM     31  H   UNL     1     160.089 176.914  75.063  1.00  0.00     0.210 HD
ENDBRANCH  29  30
ENDBRANCH  21  29
ENDBRANCH   1  17
TORSDOF 13
ENDMDL
MODEL 2
REMARK VINA RESULT:    -5.188      1.934      6.349
REMARK INTER + INTRA:          -9.318
REMARK INTER:                  -7.721
REMARK INTRA:                  -1.597
REMARK UNBOUND:                -1.401
REMARK SMILES OC[C@@H]1O[C@@H](O[C@@]2(CO)O[C@H](CO)[C@H](O)[C@@H]2O)[C@@H](O)[C@H](O)[C@H]1O
REMARK SMILES IDX 6 1 5 2 3 3 22 4 4 5 20 6 18 7 2 8 1 9 23 11 21 13 19 15
REMARK SMILES IDX 7 17 16 18 10 19 14 20 11 21 8 22 9 23 17 25 15 27 12 29
REMARK SMILES IDX 13 30
REMARK H PARENT 1 10 23 12 21 14 19 16 9 24 17 26 15 28 13 31
REMARK Flexibility Score: inf
ROOT
ATOM      1  O   UNL     1     164.460 175.090  76.251  1.00  0.00    -0.313 OA
ENDROOT
BRANCH   1   2
ATOM      2  C   UNL     1     163.697 173.946  75.880  1.00  0.00     0.285 C 
ATOM      3  C   UNL     1     161.619 174.621  76.720  1.00  0.00     0.178 C 
ATOM      4  C   UNL     1     161.251 173.292  77.427  1.00  0.00     0.177 C 
ATOM      5  O   UNL     1     162.370 174.340  75.556  1.00  0.00    -0.341 OA
ATOM      6  C   UNL     1     162.374 172.228  77.291  1.00  0.00     0.179 C 
ATOM      7  C   UNL     1     163.759 172.858  77.003  1.00  0.00     0.202 C 
BRANCH   3   8
ATOM      8  C   UNL     1     160.361 175.398  76.322  1.00  0.00     0.191 C 
BRANCH   8   9
ATOM      9  O   UNL     1     160.709 176.711  75.977  1.00  0.00    -0.394 OA
ATOM     10  H   UNL     1     159.870 177.149  75.679  1.00  0.00     0.210 HD
ENDBRANCH   8   9
ENDBRANCH   3   8
BRANCH   4  11
ATOM     11  O   UNL     1     160.911 173.517  78.774  1.00  0.00    -0.387 OA
ATOM     12  H   UNL     1     160.385 172.738  79.091  1.00  0.00     0.211 HD
ENDBRANCH   4  11
BRANCH   6  13
ATOM     13  O   UNL     1     162.043 171.351  76.241  1.00  0.00    -0.387 OA
ATOM     14  H   UNL     1     161.889 171.908  75.434  1.00  0.00     0.211 HD
ENDBRANCH   6  13
BRANCH   7  15
ATOM     15  O   UNL     1     164.354 173.336  78.187  1.00  0.00    -0.385 OA
ATOM     16  H   UNL     1     165.232 172.895  78.295  1.00  0.00     0.211 HD
ENDBRANCH   7  15
ENDBRANCH   1   2
BRANCH   1  17
ATOM     17  C   UNL     1     165.010 175.833  75.166  1.00  0.00     0.224 C 
ATOM     18  C   UNL     1     165.100 174.971  73.865  1.00  0.00     0.208 C 
ATOM     19  O   UNL     1     166.339 176.152  75.545  1.00  0.00    -0.337 OA
ATOM     20  C   UNL     1     166.572 174.990  73.506  1.00  0.00     0.180 C 
ATOM     21  C   UNL     1     167.209 175.291  74.854  1.00  0.00     0.179 C 
BRANCH  17  22
ATOM     22  C   UNL     1     164.298 177.204  74.987  1.00  0.00     0.225 C 
BRANCH  22  23
ATOM     23  O   UNL     1     162.982 177.075  74.524  1.00  0.00    -0.391 OA
ATOM     24  H   UNL     1     163.044 176.947  73.541  1.00  0.00     0.210 HD
ENDBRANCH  22  23
ENDBRANCH  17  22
BRANCH  18  25
ATOM     25  O   UNL     1     164.302 175.461  72.817  1.00  0.00    -0.385 OA
ATOM     26  H   UNL     1     164.897 175.554  72.027  1.00  0.00     0.211 HD
ENDBRANCH  18  25
BRANCH  20  27
ATOM     27  O   UNL     1     166.870 175.969  72.534  1.00  0.00    -0.387 OA
ATOM     28  H   UNL     1     167.267 176.753  72.993  1.00  0.00     0.211 HD
ENDBRANCH  20  27
BRANCH  21  29
ATOM     29  C   UNL     1     168.610 175.910  74.746  1.00  0.00     0.191 C 
BRANCH  29  30
ATOM     30  O   UNL     1     168.515 177.295  74.548  1.00  0.00    -0.394 OA
ATOM     31  H   UNL     1     167.547 177.513  74.514  1.00  0.00     0.210 HD
ENDBRANCH  29  30
ENDBRANCH  21  29
ENDBRANCH   1  17
TORSDOF 13
ENDMDL
MODEL 3
REMARK VINA RESULT:    -5.053      1.851      6.609
REMARK INTER + INTRA:          -9.113
REMARK INTER:                  -7.908
REMARK INTRA:                  -1.205
REMARK UNBOUND:                -1.401
REMARK SMILES OC[C@@H]1O[C@@H](O[C@@]2(CO)O[C@H](CO)[C@H](O)[C@@H]2O)[C@@H](O)[C@H](O)[C@H]1O
REMARK SMILES IDX 6 1 5 2 3 3 22 4 4 5 20 6 18 7 2 8 1 9 23 11 21 13 19 15
REMARK SMILES IDX 7 17 16 18 10 19 14 20 11 21 8 22 9 23 17 25 15 27 12 29
REMARK SMILES IDX 13 30
REMARK H PARENT 1 10 23 12 21 14 19 16 9 24 17 26 15 28 13 31
REMARK Flexibility Score: inf
ROOT
ATOM      1  O   UNL     1     165.904 174.492  72.073  1.00  0.00    -0.313 OA
ENDROOT
BRANCH   1   2
ATOM      2  C   UNL     1     166.345 175.309  73.153  1.00  0.00     0.285 C 
ATOM      3  C   UNL     1     165.574 173.992  74.928  1.00  0.00     0.178 C 
ATOM      4  C   UNL     1     164.927 175.133  75.754  1.00  0.00     0.177 C 
ATOM      5  O   UNL     1     166.713 174.489  74.255  1.00  0.00    -0.341 OA
ATOM      6  C   UNL     1     165.049 176.509  75.043  1.00  0.00     0.179 C 
ATOM      7  C   UNL     1     165.256 176.373  73.514  1.00  0.00     0.202 C 
BRANCH   3   8
ATOM      8  C   UNL     1     166.000 172.833  75.833  1.00  0.00     0.191 C 
BRANCH   8   9
ATOM      9  O   UNL     1     165.910 173.226  77.176  1.00  0.00    -0.394 OA
ATOM     10  H   UNL     1     166.812 173.086  77.564  1.00  0.00     0.210 HD
ENDBRANCH   8   9
ENDBRANCH   3   8
BRANCH   4  11
ATOM     11  O   UNL     1     163.590 174.830  76.069  1.00  0.00    -0.387 OA
ATOM     12  H   UNL     1     163.442 173.867  75.883  1.00  0.00     0.211 HD
ENDBRANCH   4  11
BRANCH   6  13
ATOM     13  O   UNL     1     166.140 177.207  75.593  1.00  0.00    -0.387 OA
ATOM     14  H   UNL     1     165.932 177.368  76.550  1.00  0.00     0.211 HD
ENDBRANCH   6  13
BRANCH   7  15
ATOM     15  O   UNL     1     164.033 176.140  72.856  1.00  0.00    -0.385 OA
ATOM     16  H   UNL     1     163.852 175.168  72.869  1.00  0.00     0.211 HD
ENDBRANCH   7  15
ENDBRANCH   1   2
BRANCH   1  17
ATOM     17  C   UNL     1     166.749 174.492  70.925  1.00  0.00     0.224 C 
ATOM     18  C   UNL     1     165.979 174.037  69.644  1.00  0.00     0.208 C 
ATOM     19  O   UNL     1     167.750 173.519  71.176  1.00  0.00    -0.337 OA
ATOM     20  C   UNL     1     166.750 172.828  69.154  1.00  0.00     0.180 C 
ATOM     21  C   UNL     1     167.435 172.368  70.432  1.00  0.00     0.179 C 
BRANCH  17  22
ATOM     22  C   UNL     1     167.518 175.836  70.776  1.00  0.00     0.225 C 
BRANCH  22  23
ATOM     23  O   UNL     1     168.909 175.667  70.770  1.00  0.00    -0.391 OA
ATOM     24  H   UNL     1     169.102 174.976  70.083  1.00  0.00     0.210 HD
ENDBRANCH  22  23
ENDBRANCH  17  22
BRANCH  18  25
ATOM     25  O   UNL     1     165.897 175.036  68.658  1.00  0.00    -0.385 OA
ATOM     26  H   UNL     1     165.229 174.725  67.993  1.00  0.00     0.211 HD
ENDBRANCH  18  25
BRANCH  20  27
ATOM     27  O   UNL     1     167.668 173.160  68.135  1.00  0.00    -0.387 OA
ATOM     28  H   UNL     1     167.284 173.902  67.599  1.00  0.00     0.211 HD
ENDBRANCH  20  27
BRANCH  21  29
ATOM     29  C   UNL     1     168.694 171.524  70.184  1.00  0.00     0.191 C 
BRANCH  29  30
ATOM     30  O   UNL     1     169.735 172.333  69.708  1.00  0.00    -0.394 OA
ATOM     31  H   UNL     1     170.114 172.804  70.496  1.00  0.00     0.210 HD
ENDBRANCH  29  30
ENDBRANCH  21  29
ENDBRANCH   1  17
TORSDOF 13
ENDMDL
MODEL 4
REMARK VINA RESULT:    -5.008      1.974      3.993
REMARK INTER + INTRA:          -9.044
REMARK INTER:                  -7.672
REMARK INTRA:                  -1.373
REMARK UNBOUND:                -1.401
REMARK SMILES OC[C@@H]1O[C@@H](O[C@@]2(CO)O[C@H](CO)[C@H](O)[C@@H]2O)[C@@H](O)[C@H](O)[C@H]1O
REMARK SMILES IDX 6 1 5 2 3 3 22 4 4 5 20 6 18 7 2 8 1 9 23 11 21 13 19 15
REMARK SMILES IDX 7 17 16 18 10 19 14 20 11 21 8 22 9 23 17 25 15 27 12 29
REMARK SMILES IDX 13 30
REMARK H PARENT 1 10 23 12 21 14 19 16 9 24 17 26 15 28 13 31
REMARK Flexibility Score: inf
ROOT
ATOM      1  O   UNL     1     165.273 174.325  74.393  1.00  0.00    -0.313 OA
ENDROOT
BRANCH   1   2
ATOM      2  C   UNL     1     165.728 175.667  74.531  1.00  0.00     0.285 C 
ATOM      3  C   UNL     1     167.382 175.651  72.874  1.00  0.00     0.178 C 
ATOM      4  C   UNL     1     168.499 176.332  73.704  1.00  0.00     0.177 C 
ATOM      5  O   UNL     1     166.126 176.172  73.263  1.00  0.00    -0.341 OA
ATOM      6  C   UNL     1     168.040 176.644  75.156  1.00  0.00     0.179 C 
ATOM      7  C   UNL     1     166.857 175.754  75.610  1.00  0.00     0.202 C 
BRANCH   3   8
ATOM      8  C   UNL     1     167.580 175.901  71.377  1.00  0.00     0.191 C 
BRANCH   8   9
ATOM      9  O   UNL     1     168.705 175.196  70.928  1.00  0.00    -0.394 OA
ATOM     10  H   UNL     1     169.180 175.805  70.304  1.00  0.00     0.210 HD
ENDBRANCH   8   9
ENDBRANCH   3   8
BRANCH   4  11
ATOM     11  O   UNL     1     169.678 175.564  73.688  1.00  0.00    -0.387 OA
ATOM     12  H   UNL     1     169.677 174.985  74.493  1.00  0.00     0.211 HD
ENDBRANCH   4  11
BRANCH   6  13
ATOM     13  O   UNL     1     167.651 177.995  75.227  1.00  0.00    -0.387 OA
ATOM     14  H   UNL     1     168.424 178.538  74.923  1.00  0.00     0.211 HD
ENDBRANCH   6  13
BRANCH   7  15
ATOM     15  O   UNL     1     167.309 174.485  76.024  1.00  0.00    -0.385 OA
ATOM     16  H   UNL     1     166.804 173.797  75.525  1.00  0.00     0.211 HD
ENDBRANCH   7  15
ENDBRANCH   1   2
BRANCH   1  17
ATOM     17  C   UNL     1     163.968 174.068  74.909  1.00  0.00     0.224 C 
ATOM     18  C   UNL     1     163.401 175.303  75.680  1.00  0.00     0.208 C 
ATOM     19  O   UNL     1     164.122 173.022  75.854  1.00  0.00    -0.337 OA
ATOM     20  C   UNL     1     163.126 174.777  77.075  1.00  0.00     0.180 C 
ATOM     21  C   UNL     1     164.069 173.585  77.141  1.00  0.00     0.179 C 
BRANCH  17  22
ATOM     22  C   UNL     1     163.020 173.494  73.818  1.00  0.00     0.225 C 
BRANCH  22  23
ATOM     23  O   UNL     1     161.710 173.309  74.280  1.00  0.00    -0.391 OA
ATOM     24  H   UNL     1     161.189 172.963  73.510  1.00  0.00     0.210 HD
ENDBRANCH  22  23
ENDBRANCH  17  22
BRANCH  18  25
ATOM     25  O   UNL     1     162.246 175.845  75.092  1.00  0.00    -0.385 OA
ATOM     26  H   UNL     1     162.526 176.680  74.633  1.00  0.00     0.211 HD
ENDBRANCH  18  25
BRANCH  20  27
ATOM     27  O   UNL     1     161.774 174.411  77.248  1.00  0.00    -0.387 OA
ATOM     28  H   UNL     1     161.399 174.176  76.360  1.00  0.00     0.211 HD
ENDBRANCH  20  27
BRANCH  21  29
ATOM     29  C   UNL     1     163.653 172.530  78.177  1.00  0.00     0.191 C 
BRANCH  29  30
ATOM     30  O   UNL     1     164.406 172.678  79.350  1.00  0.00    -0.394 OA
ATOM     31  H   UNL     1     164.655 173.637  79.411  1.00  0.00     0.210 HD
ENDBRANCH  29  30
ENDBRANCH  21  29
ENDBRANCH   1  17
TORSDOF 13
ENDMDL
MODEL 5
REMARK VINA RESULT:    -4.949      1.634      6.327
REMARK INTER + INTRA:          -8.953
REMARK INTER:                  -7.700
REMARK INTRA:                  -1.253
REMARK UNBOUND:                -1.401
REMARK SMILES OC[C@@H]1O[C@@H](O[C@@]2(CO)O[C@H](CO)[C@H](O)[C@@H]2O)[C@@H](O)[C@H](O)[C@H]1O
REMARK SMILES IDX 6 1 5 2 3 3 22 4 4 5 20 6 18 7 2 8 1 9 23 11 21 13 19 15
REMARK SMILES IDX 7 17 16 18 10 19 14 20 11 21 8 22 9 23 17 25 15 27 12 29
REMARK SMILES IDX 13 30
REMARK H PARENT 1 10 23 12 21 14 19 16 9 24 17 26 15 28 13 31
REMARK Flexibility Score: inf
ROOT
ATOM      1  O   UNL     1     164.691 174.975  74.194  1.00  0.00    -0.313 OA
ENDROOT
BRANCH   1   2
ATOM      2  C   UNL     1     164.354 175.080  75.573  1.00  0.00     0.285 C 
ATOM      3  C   UNL     1     162.058 174.656  75.407  1.00  0.00     0.178 C 
ATOM      4  C   UNL     1     161.576 175.815  76.316  1.00  0.00     0.177 C 
ATOM      5  O   UNL     1     163.301 174.176  75.879  1.00  0.00    -0.341 OA
ATOM      6  C   UNL     1     162.759 176.678  76.837  1.00  0.00     0.179 C 
ATOM      7  C   UNL     1     164.018 176.563  75.943  1.00  0.00     0.202 C 
BRANCH   3   8
ATOM      8  C   UNL     1     161.049 173.504  75.407  1.00  0.00     0.191 C 
BRANCH   8   9
ATOM      9  O   UNL     1     159.881 173.901  76.071  1.00  0.00    -0.394 OA
ATOM     10  H   UNL     1     160.177 174.427  76.858  1.00  0.00     0.210 HD
ENDBRANCH   8   9
ENDBRANCH   3   8
BRANCH   4  11
ATOM     11  O   UNL     1     160.612 176.602  75.659  1.00  0.00    -0.387 OA
ATOM     12  H   UNL     1     159.723 176.368  76.030  1.00  0.00     0.211 HD
ENDBRANCH   4  11
BRANCH   6  13
ATOM     13  O   UNL     1     163.083 176.260  78.141  1.00  0.00    -0.387 OA
ATOM     14  H   UNL     1     164.018 176.545  78.315  1.00  0.00     0.211 HD
ENDBRANCH   6  13
BRANCH   7  15
ATOM     15  O   UNL     1     163.912 177.392  74.810  1.00  0.00    -0.385 OA
ATOM     16  H   UNL     1     164.216 176.881  74.019  1.00  0.00     0.211 HD
ENDBRANCH   7  15
ENDBRANCH   1   2
BRANCH   1  17
ATOM     17  C   UNL     1     166.050 174.634  73.924  1.00  0.00     0.224 C 
ATOM     18  C   UNL     1     167.014 175.823  74.237  1.00  0.00     0.208 C 
ATOM     19  O   UNL     1     166.122 174.397  72.527  1.00  0.00    -0.337 OA
ATOM     20  C   UNL     1     167.713 176.093  72.921  1.00  0.00     0.180 C 
ATOM     21  C   UNL     1     166.717 175.520  71.925  1.00  0.00     0.179 C 
BRANCH  17  22
ATOM     22  C   UNL     1     166.448 173.284  74.586  1.00  0.00     0.225 C 
BRANCH  22  23
ATOM     23  O   UNL     1     167.753 172.888  74.266  1.00  0.00    -0.391 OA
ATOM     24  H   UNL     1     168.191 173.678  73.855  1.00  0.00     0.210 HD
ENDBRANCH  22  23
ENDBRANCH  17  22
BRANCH  18  25
ATOM     25  O   UNL     1     167.930 175.541  75.265  1.00  0.00    -0.385 OA
ATOM     26  H   UNL     1     167.397 175.250  76.050  1.00  0.00     0.211 HD
ENDBRANCH  18  25
BRANCH  20  27
ATOM     27  O   UNL     1     168.975 175.465  72.850  1.00  0.00    -0.387 OA
ATOM     28  H   UNL     1     168.866 174.515  73.117  1.00  0.00     0.211 HD
ENDBRANCH  20  27
BRANCH  21  29
ATOM     29  C   UNL     1     167.346 175.139  70.576  1.00  0.00     0.191 C 
BRANCH  29  30
ATOM     30  O   UNL     1     167.058 176.116  69.613  1.00  0.00    -0.394 OA
ATOM     31  H   UNL     1     167.796 176.780  69.649  1.00  0.00     0.210 HD
ENDBRANCH  29  30
ENDBRANCH  21  29
ENDBRANCH   1  17
TORSDOF 13
ENDMDL
MODEL 6
REMARK VINA RESULT:    -4.856      1.694      2.164
REMARK INTER + INTRA:          -8.812
REMARK INTER:                  -7.494
REMARK INTRA:                  -1.318
REMARK UNBOUND:                -1.401
REMARK SMILES OC[C@@H]1O[C@@H](O[C@@]2(CO)O[C@H](CO)[C@H](O)[C@@H]2O)[C@@H](O)[C@H](O)[C@H]1O
REMARK SMILES IDX 6 1 5 2 3 3 22 4 4 5 20 6 18 7 2 8 1 9 23 11 21 13 19 15
REMARK SMILES IDX 7 17 16 18 10 19 14 20 11 21 8 22 9 23 17 25 15 27 12 29
REMARK SMILES IDX 13 30
REMARK H PARENT 1 10 23 12 21 14 19 16 9 24 17 26 15 28 13 31
REMARK Flexibility Score: inf
ROOT
ATOM      1  O   UNL     1     165.970 175.182  74.047  1.00  0.00    -0.313 OA
ENDROOT
BRANCH   1   2
ATOM      2  C   UNL     1     166.893 174.410  73.285  1.00  0.00     0.285 C 
ATOM      3  C   UNL     1     168.199 176.157  72.437  1.00  0.00     0.178 C 
ATOM      4  C   UNL     1     168.246 175.673  70.966  1.00  0.00     0.177 C 
ATOM      5  O   UNL     1     168.169 175.037  73.299  1.00  0.00    -0.341 OA
ATOM      6  C   UNL     1     167.426 174.370  70.754  1.00  0.00     0.179 C 
ATOM      7  C   UNL     1     166.342 174.166  71.841  1.00  0.00     0.202 C 
BRANCH   3   8
ATOM      8  C   UNL     1     169.426 177.009  72.774  1.00  0.00     0.191 C 
BRANCH   8   9
ATOM      9  O   UNL     1     169.671 176.955  74.153  1.00  0.00    -0.394 OA
ATOM     10  H   UNL     1     168.786 177.035  74.594  1.00  0.00     0.210 HD
ENDBRANCH   8   9
ENDBRANCH   3   8
BRANCH   4  11
ATOM     11  O   UNL     1     167.835 176.692  70.087  1.00  0.00    -0.387 OA
ATOM     12  H   UNL     1     168.354 176.600  69.248  1.00  0.00     0.211 HD
ENDBRANCH   4  11
BRANCH   6  13
ATOM     13  O   UNL     1     168.308 173.273  70.774  1.00  0.00    -0.387 OA
ATOM     14  H   UNL     1     168.318 172.923  71.703  1.00  0.00     0.211 HD
ENDBRANCH   6  13
BRANCH   7  15
ATOM     15  O   UNL     1     165.195 174.934  71.563  1.00  0.00    -0.385 OA
ATOM     16  H   UNL     1     165.279 175.299  70.647  1.00  0.00     0.211 HD
ENDBRANCH   7  15
ENDBRANCH   1   2
BRANCH   1  17
ATOM     17  C   UNL     1     165.356 174.497  75.137  1.00  0.00     0.224 C 
ATOM     18  C   UNL     1     164.302 173.455  74.640  1.00  0.00     0.208 C 
ATOM     19  O   UNL     1     164.651 175.484  75.871  1.00  0.00    -0.337 OA
ATOM     20  C   UNL     1     163.009 173.891  75.299  1.00  0.00     0.180 C 
ATOM     21  C   UNL     1     163.284 175.363  75.565  1.00  0.00     0.179 C 
BRANCH  17  22
ATOM     22  C   UNL     1     166.412 173.929  76.128  1.00  0.00     0.225 C 
BRANCH  22  23
ATOM     23  O   UNL     1     165.830 173.315  77.245  1.00  0.00    -0.391 OA
ATOM     24  H   UNL     1     166.173 173.801  78.040  1.00  0.00     0.210 HD
ENDBRANCH  22  23
ENDBRANCH  17  22
BRANCH  18  25
ATOM     25  O   UNL     1     164.632 172.129  74.968  1.00  0.00    -0.385 OA
ATOM     26  H   UNL     1     164.729 172.096  75.955  1.00  0.00     0.211 HD
ENDBRANCH  18  25
BRANCH  20  27
ATOM     27  O   UNL     1     162.744 173.166  76.481  1.00  0.00    -0.387 OA
ATOM     28  H   UNL     1     162.130 173.703  77.045  1.00  0.00     0.211 HD
ENDBRANCH  20  27
BRANCH  21  29
ATOM     29  C   UNL     1     162.424 175.955  76.690  1.00  0.00     0.191 C 
BRANCH  29  30
ATOM     30  O   UNL     1     162.875 175.501  77.937  1.00  0.00    -0.394 OA
ATOM     31  H   UNL     1     163.106 176.308  78.469  1.00  0.00     0.210 HD
ENDBRANCH  29  30
ENDBRANCH  21  29
ENDBRANCH   1  17
TORSDOF 13
ENDMDL
MODEL 7
REMARK VINA RESULT:    -4.738      1.996      6.499
REMARK INTER + INTRA:          -8.632
REMARK INTER:                  -7.157
REMARK INTRA:                  -1.475
REMARK UNBOUND:                -1.401
REMARK SMILES OC[C@@H]1O[C@@H](O[C@@]2(CO)O[C@H](CO)[C@H](O)[C@@H]2O)[C@@H](O)[C@H](O)[C@H]1O
REMARK SMILES IDX 6 1 5 2 3 3 22 4 4 5 20 6 18 7 2 8 1 9 23 11 21 13 19 15
REMARK SMILES IDX 7 17 16 18 10 19 14 20 11 21 8 22 9 23 17 25 15 27 12 29
REMARK SMILES IDX 13 30
REMARK H PARENT 1 10 23 12 21 14 19 16 9 24 17 26 15 28 13 31
REMARK Flexibility Score: inf
ROOT
ATOM      1  O   UNL     1     164.876 175.159  75.960  1.00  0.00    -0.313 OA
ENDROOT
BRANCH   1   2
ATOM      2  C   UNL     1     164.457 173.800  75.898  1.00  0.00     0.285 C 
ATOM      3  C   UNL     1     163.413 173.657  77.988  1.00  0.00     0.178 C 
ATOM      4  C   UNL     1     164.042 172.312  78.431  1.00  0.00     0.177 C 
ATOM      5  O   UNL     1     163.224 173.647  76.587  1.00  0.00    -0.341 OA
ATOM      6  C   UNL     1     165.032 171.753  77.372  1.00  0.00     0.179 C 
ATOM      7  C   UNL     1     165.583 172.855  76.434  1.00  0.00     0.202 C 
BRANCH   3   8
ATOM      8  C   UNL     1     162.061 173.882  78.669  1.00  0.00     0.191 C 
BRANCH   8   9
ATOM      9  O   UNL     1     161.631 172.690  79.268  1.00  0.00    -0.394 OA
ATOM     10  H   UNL     1     160.738 172.883  79.655  1.00  0.00     0.210 HD
ENDBRANCH   8   9
ENDBRANCH   3   8
BRANCH   4  11
ATOM     11  O   UNL     1     164.649 172.433  79.695  1.00  0.00    -0.387 OA
ATOM     12  H   UNL     1     163.961 172.249  80.384  1.00  0.00     0.211 HD
ENDBRANCH   4  11
BRANCH   6  13
ATOM     13  O   UNL     1     164.367 170.783  76.599  1.00  0.00    -0.387 OA
ATOM     14  H   UNL     1     164.675 170.895  75.662  1.00  0.00     0.211 HD
ENDBRANCH   6  13
BRANCH   7  15
ATOM     15  O   UNL     1     166.636 173.561  77.047  1.00  0.00    -0.385 OA
ATOM     16  H   UNL     1     166.247 174.281  77.602  1.00  0.00     0.211 HD
ENDBRANCH   7  15
ENDBRANCH   1   2
BRANCH   1  17
ATOM     17  C   UNL     1     165.013 175.813  74.699  1.00  0.00     0.224 C 
ATOM     18  C   UNL     1     164.928 174.799  73.514  1.00  0.00     0.208 C 
ATOM     19  O   UNL     1     166.320 176.362  74.684  1.00  0.00    -0.337 OA
ATOM     20  C   UNL     1     166.243 174.970  72.781  1.00  0.00     0.180 C 
ATOM     21  C   UNL     1     167.129 175.541  73.878  1.00  0.00     0.179 C 
BRANCH  17  22
ATOM     22  C   UNL     1     164.057 177.034  74.578  1.00  0.00     0.225 C 
BRANCH  22  23
ATOM     23  O   UNL     1     162.719 176.702  74.828  1.00  0.00    -0.391 OA
ATOM     24  H   UNL     1     162.683 175.711  74.875  1.00  0.00     0.210 HD
ENDBRANCH  22  23
ENDBRANCH  17  22
BRANCH  18  25
ATOM     25  O   UNL     1     163.828 175.022  72.667  1.00  0.00    -0.385 OA
ATOM     26  H   UNL     1     164.108 175.716  72.014  1.00  0.00     0.211 HD
ENDBRANCH  18  25
BRANCH  20  27
ATOM     27  O   UNL     1     166.126 175.835  71.673  1.00  0.00    -0.387 OA
ATOM     28  H   UNL     1     165.472 175.442  71.038  1.00  0.00     0.211 HD
ENDBRANCH  20  27
BRANCH  21  29
ATOM     29  C   UNL     1     168.336 176.327  73.346  1.00  0.00     0.191 C 
BRANCH  29  30
ATOM     30  O   UNL     1     168.931 175.640  72.279  1.00  0.00    -0.394 OA
ATOM     31  H   UNL     1     168.202 175.157  71.808  1.00  0.00     0.210 HD
ENDBRANCH  29  30
ENDBRANCH  21  29
ENDBRANCH   1  17
TORSDOF 13
ENDMDL
MODEL 8
REMARK VINA RESULT:    -4.651      1.527      6.282
REMARK INTER + INTRA:          -8.499
REMARK INTER:                  -7.131
REMARK INTRA:                  -1.367
REMARK UNBOUND:                -1.401
REMARK SMILES OC[C@@H]1O[C@@H](O[C@@]2(CO)O[C@H](CO)[C@H](O)[C@@H]2O)[C@@H](O)[C@H](O)[C@H]1O
REMARK SMILES IDX 6 1 5 2 3 3 22 4 4 5 20 6 18 7 2 8 1 9 23 11 21 13 19 15
REMARK SMILES IDX 7 17 16 18 10 19 14 20 11 21 8 22 9 23 17 25 15 27 12 29
REMARK SMILES IDX 13 30
REMARK H PARENT 1 10 23 12 21 14 19 16 9 24 17 26 15 28 13 31
REMARK Flexibility Score: inf
ROOT
ATOM      1  O   UNL     1     164.917 173.867  73.119  1.00  0.00    -0.313 OA
ENDROOT
BRANCH   1   2
ATOM      2  C   UNL     1     165.352 174.800  74.102  1.00  0.00     0.285 C 
ATOM      3  C   UNL     1     163.518 174.669  75.550  1.00  0.00     0.178 C 
ATOM      4  C   UNL     1     163.319 176.192  75.756  1.00  0.00     0.177 C 
ATOM      5  O   UNL     1     164.894 174.394  75.385  1.00  0.00    -0.341 OA
ATOM      6  C   UNL     1     164.333 177.030  74.928  1.00  0.00     0.179 C 
ATOM      7  C   UNL     1     164.902 176.249  73.718  1.00  0.00     0.202 C 
BRANCH   3   8
ATOM      8  C   UNL     1     162.995 173.879  76.753  1.00  0.00     0.191 C 
BRANCH   8   9
ATOM      9  O   UNL     1     162.580 174.768  77.754  1.00  0.00    -0.394 OA
ATOM     10  H   UNL     1     161.942 174.263  78.322  1.00  0.00     0.210 HD
ENDBRANCH   8   9
ENDBRANCH   3   8
BRANCH   4  11
ATOM     11  O   UNL     1     161.991 176.568  75.481  1.00  0.00    -0.387 OA
ATOM     12  H   UNL     1     161.637 177.044  76.276  1.00  0.00     0.211 HD
ENDBRANCH   4  11
BRANCH   6  13
ATOM     13  O   UNL     1     165.396 177.412  75.768  1.00  0.00    -0.387 OA
ATOM     14  H   UNL     1     166.092 176.709  75.696  1.00  0.00     0.211 HD
ENDBRANCH   6  13
BRANCH   7  15
ATOM     15  O   UNL     1     164.002 176.267  72.635  1.00  0.00    -0.385 OA
ATOM     16  H   UNL     1     163.509 175.410  72.625  1.00  0.00     0.211 HD
ENDBRANCH   7  15
ENDBRANCH   1   2
BRANCH   1  17
ATOM     17  C   UNL     1     165.928 173.409  72.223  1.00  0.00     0.224 C 
ATOM     18  C   UNL     1     166.867 174.573  71.772  1.00  0.00     0.208 C 
ATOM     19  O   UNL     1     165.246 172.952  71.066  1.00  0.00    -0.337 OA
ATOM     20  C   UNL     1     166.739 174.592  70.262  1.00  0.00     0.180 C 
ATOM     21  C   UNL     1     165.385 173.929  70.064  1.00  0.00     0.179 C 
BRANCH  17  22
ATOM     22  C   UNL     1     166.667 172.158  72.780  1.00  0.00     0.225 C 
BRANCH  22  23
ATOM     23  O   UNL     1     167.518 171.567  71.837  1.00  0.00    -0.391 OA
ATOM     24  H   UNL     1     167.145 170.665  71.653  1.00  0.00     0.210 HD
ENDBRANCH  22  23
ENDBRANCH  17  22
BRANCH  18  25
ATOM     25  O   UNL     1     168.201 174.403  72.179  1.00  0.00    -0.385 OA
ATOM     26  H   UNL     1     168.556 173.625  71.673  1.00  0.00     0.211 HD
ENDBRANCH  18  25
BRANCH  20  27
ATOM     27  O   UNL     1     167.786 173.888  69.631  1.00  0.00    -0.387 OA
ATOM     28  H   UNL     1     167.441 173.513  68.779  1.00  0.00     0.211 HD
ENDBRANCH  20  27
BRANCH  21  29
ATOM     29  C   UNL     1     165.203 173.305  68.673  1.00  0.00     0.191 C 
BRANCH  29  30
ATOM     30  O   UNL     1     165.786 172.031  68.632  1.00  0.00    -0.394 OA
ATOM     31  H   UNL     1     166.740 172.161  68.389  1.00  0.00     0.210 HD
ENDBRANCH  29  30
ENDBRANCH  21  29
ENDBRANCH   1  17
TORSDOF 13
ENDMDL
MODEL 9
REMARK VINA RESULT:    -4.577      2.344      6.437
REMARK INTER + INTRA:          -8.387
REMARK INTER:                  -7.000
REMARK INTRA:                  -1.387
REMARK UNBOUND:                -1.401
REMARK SMILES OC[C@@H]1O[C@@H](O[C@@]2(CO)O[C@H](CO)[C@H](O)[C@@H]2O)[C@@H](O)[C@H](O)[C@H]1O
REMARK SMILES IDX 6 1 5 2 3 3 22 4 4 5 20 6 18 7 2 8 1 9 23 11 21 13 19 15
REMARK SMILES IDX 7 17 16 18 10 19 14 20 11 21 8 22 9 23 17 25 15 27 12 29
REMARK SMILES IDX 13 30
REMARK H PARENT 1 10 23 12 21 14 19 16 9 24 17 26 15 28 13 31
REMARK Flexibility Score: inf
ROOT
ATOM      1  O   UNL     1     163.304 174.092  75.364  1.00  0.00    -0.313 OA
ENDROOT
BRANCH   1   2
ATOM      2  C   UNL     1     162.183 174.397  76.188  1.00  0.00     0.285 C 
ATOM      3  C   UNL     1     162.382 172.636  77.718  1.00  0.00     0.178 C 
ATOM      4  C   UNL     1     160.893 172.206  77.718  1.00  0.00     0.177 C 
ATOM      5  O   UNL     1     162.465 174.035  77.533  1.00  0.00    -0.341 OA
ATOM      6  C   UNL     1     160.039 173.058  76.739  1.00  0.00     0.179 C 
ATOM      7  C   UNL     1     160.891 173.718  75.626  1.00  0.00     0.202 C 
BRANCH   3   8
ATOM      8  C   UNL     1     163.059 172.269  79.040  1.00  0.00     0.191 C 
BRANCH   8   9
ATOM      9  O   UNL     1     164.326 172.867  79.102  1.00  0.00    -0.394 OA
ATOM     10  H   UNL     1     164.185 173.829  78.902  1.00  0.00     0.210 HD
ENDBRANCH   8   9
ENDBRANCH   3   8
BRANCH   4  11
ATOM     11  O   UNL     1     160.767 170.830  77.451  1.00  0.00    -0.387 OA
ATOM     12  H   UNL     1     159.804 170.630  77.324  1.00  0.00     0.211 HD
ENDBRANCH   4  11
BRANCH   6  13
ATOM     13  O   UNL     1     159.383 174.066  77.471  1.00  0.00    -0.387 OA
ATOM     14  H   UNL     1     160.079 174.557  77.980  1.00  0.00     0.211 HD
ENDBRANCH   6  13
BRANCH   7  15
ATOM     15  O   UNL     1     161.166 172.803  74.591  1.00  0.00    -0.385 OA
ATOM     16  H   UNL     1     161.460 173.312  73.795  1.00  0.00     0.211 HD
ENDBRANCH   7  15
ENDBRANCH   1   2
BRANCH   1  17
ATOM     17  C   UNL     1     164.042 175.220  74.897  1.00  0.00     0.224 C 
ATOM     18  C   UNL     1     164.528 175.020  73.426  1.00  0.00     0.208 C 
ATOM     19  O   UNL     1     165.200 175.294  75.712  1.00  0.00    -0.337 OA
ATOM     20  C   UNL     1     166.036 175.146  73.512  1.00  0.00     0.180 C 
ATOM     21  C   UNL     1     166.287 174.798  74.971  1.00  0.00     0.179 C 
BRANCH  17  22
ATOM     22  C   UNL     1     163.280 176.552  75.153  1.00  0.00     0.225 C 
BRANCH  22  23
ATOM     23  O   UNL     1     164.049 177.683  74.849  1.00  0.00    -0.391 OA
ATOM     24  H   UNL     1     164.984 177.365  74.749  1.00  0.00     0.210 HD
ENDBRANCH  22  23
ENDBRANCH  17  22
BRANCH  18  25
ATOM     25  O   UNL     1     163.979 175.949  72.526  1.00  0.00    -0.385 OA
ATOM     26  H   UNL     1     163.187 175.514  72.116  1.00  0.00     0.211 HD
ENDBRANCH  18  25
BRANCH  20  27
ATOM     27  O   UNL     1     166.481 176.443  73.178  1.00  0.00    -0.387 OA
ATOM     28  H   UNL     1     166.985 176.809  73.951  1.00  0.00     0.211 HD
ENDBRANCH  20  27
BRANCH  21  29
ATOM     29  C   UNL     1     167.611 175.354  75.516  1.00  0.00     0.191 C 
BRANCH  29  30
ATOM     30  O   UNL     1     167.488 176.724  75.787  1.00  0.00    -0.394 OA
ATOM     31  H   UNL     1     168.267 177.171  75.362  1.00  0.00     0.210 HD
ENDBRANCH  29  30
ENDBRANCH  21  29
ENDBRANCH   1  17
TORSDOF 13
ENDMDL
