MODEL 1
REMARK VINA RESULT:    -4.175      0.000      0.000
REMARK INTER + INTRA:          -4.899
REMARK INTER:                  -4.786
REMARK INTRA:                  -0.113
REMARK UNBOUND:                -0.113
REMARK SMILES COc1cc(C(C)=O)ccc1O
REMARK SMILES IDX 5 1 4 2 3 3 11 4 10 5 9 6 6 7 7 8 8 9 2 10 1 11 12 12
REMARK H PARENT 12 13
REMARK Flexibility Score: inf
ROOT
ATOM      1  C   UNL     1      65.879  40.889  46.506  1.00  0.00     0.021 A 
ATOM      2  C   UNL     1      64.589  40.616  47.000  1.00  0.00     0.062 A 
ATOM      3  C   UNL     1      63.777  39.629  46.404  1.00  0.00     0.161 A 
ATOM      4  C   UNL     1      64.269  38.911  45.300  1.00  0.00     0.157 A 
ATOM      5  C   UNL     1      65.548  39.178  44.806  1.00  0.00     0.051 A 
ATOM      6  C   UNL     1      66.348  40.155  45.400  1.00  0.00     0.016 A 
ENDROOT
BRANCH   1   7
ATOM      7  C   UNL     1      66.720  41.934  47.151  1.00  0.00     0.159 C 
ATOM      8  C   UNL     1      67.174  43.156  46.410  1.00  0.00     0.093 C 
ATOM      9  O   UNL     1      67.068  41.802  48.357  1.00  0.00    -0.295 OA
ENDBRANCH   1   7
BRANCH   3  10
ATOM     10  O   UNL     1      62.487  39.341  46.878  1.00  0.00    -0.493 OA
ATOM     11  C   UNL     1      61.440  40.296  47.011  1.00  0.00     0.278 C 
ENDBRANCH   3  10
BRANCH   4  12
ATOM     12  O   UNL     1      63.500  37.927  44.679  1.00  0.00    -0.504 OA
ATOM     13  H   UNL     1      63.498  37.797  43.674  1.00  0.00     0.293 HD
ENDBRANCH   4  12
TORSDOF 3
ENDMDL
MODEL 2
REMARK VINA RESULT:    -3.973      1.144      2.824
REMARK INTER + INTRA:          -4.667
REMARK INTER:                  -4.569
REMARK INTRA:                  -0.097
REMARK UNBOUND:                -0.113
REMARK SMILES COc1cc(C(C)=O)ccc1O
REMARK SMILES IDX 5 1 4 2 3 3 11 4 10 5 9 6 6 7 7 8 8 9 2 10 1 11 12 12
REMARK H PARENT 12 13
REMARK Flexibility Score: inf
ROOT
ATOM      1  C   UNL     1      65.870  40.808  46.515  1.00  0.00     0.021 A 
ATOM      2  C   UNL     1      66.319  40.202  45.326  1.00  0.00     0.062 A 
ATOM      3  C   UNL     1      65.559  39.200  44.689  1.00  0.00     0.161 A 
ATOM      4  C   UNL     1      64.336  38.803  45.256  1.00  0.00     0.157 A 
ATOM      5  C   UNL     1      63.885  39.401  46.436  1.00  0.00     0.051 A 
ATOM      6  C   UNL     1      64.641  40.393  47.061  1.00  0.00     0.016 A 
ENDROOT
BRANCH   1   7
ATOM      7  C   UNL     1      66.688  41.866  47.170  1.00  0.00     0.159 C 
ATOM      8  C   UNL     1      67.081  43.123  46.452  1.00  0.00     0.093 C 
ATOM      9  O   UNL     1      67.067  41.714  48.363  1.00  0.00    -0.295 OA
ENDBRANCH   1   7
BRANCH   3  10
ATOM     10  O   UNL     1      65.987  38.582  43.504  1.00  0.00    -0.493 OA
ATOM     11  C   UNL     1      66.467  39.275  42.357  1.00  0.00     0.278 C 
ENDBRANCH   3  10
BRANCH   4  12
ATOM     12  O   UNL     1      63.552  37.815  44.661  1.00  0.00    -0.504 OA
ATOM     13  H   UNL     1      63.957  37.037  44.153  1.00  0.00     0.293 HD
ENDBRANCH   4  12
TORSDOF 3
ENDMDL
MODEL 3
REMARK VINA RESULT:    -3.941      1.236      3.841
REMARK INTER + INTRA:          -4.630
REMARK INTER:                  -4.503
REMARK INTRA:                  -0.126
REMARK UNBOUND:                -0.113
REMARK SMILES COc1cc(C(C)=O)ccc1O
REMARK SMILES IDX 5 1 4 2 3 3 11 4 10 5 9 6 6 7 7 8 8 9 2 10 1 11 12 12
REMARK H PARENT 12 13
REMARK Flexibility Score: inf
ROOT
ATOM      1  C   UNL     1      65.166  39.422  45.289  1.00  0.00     0.021 A 
ATOM      2  C   UNL     1      64.185  39.691  46.263  1.00  0.00     0.062 A 
ATOM      3  C   UNL     1      64.361  40.727  47.203  1.00  0.00     0.161 A 
ATOM      4  C   UNL     1      65.536  41.497  47.163  1.00  0.00     0.157 A 
ATOM      5  C   UNL     1      66.512  41.234  46.199  1.00  0.00     0.051 A 
ATOM      6  C   UNL     1      66.332  40.208  45.270  1.00  0.00     0.016 A 
ENDROOT
BRANCH   1   7
ATOM      7  C   UNL     1      64.959  38.324  44.305  1.00  0.00     0.159 C 
ATOM      8  C   UNL     1      65.882  38.117  43.141  1.00  0.00     0.093 C 
ATOM      9  O   UNL     1      63.983  37.536  44.442  1.00  0.00    -0.295 OA
ENDBRANCH   1   7
BRANCH   3  10
ATOM     10  O   UNL     1      63.397  41.014  48.183  1.00  0.00    -0.493 OA
ATOM     11  C   UNL     1      62.029  41.302  47.914  1.00  0.00     0.278 C 
ENDBRANCH   3  10
BRANCH   4  12
ATOM     12  O   UNL     1      65.752  42.531  48.074  1.00  0.00    -0.504 OA
ATOM     13  H   UNL     1      66.117  42.363  49.005  1.00  0.00     0.293 HD
ENDBRANCH   4  12
TORSDOF 3
ENDMDL
MODEL 4
REMARK VINA RESULT:    -3.819      8.473      9.775
REMARK INTER + INTRA:          -4.490
REMARK INTER:                  -4.366
REMARK INTRA:                  -0.124
REMARK UNBOUND:                -0.113
REMARK SMILES COc1cc(C(C)=O)ccc1O
REMARK SMILES IDX 5 1 4 2 3 3 11 4 10 5 9 6 6 7 7 8 8 9 2 10 1 11 12 12
REMARK H PARENT 12 13
REMARK Flexibility Score: inf
ROOT
ATOM      1  C   UNL     1      64.717  39.740  55.128  1.00  0.00     0.021 A 
ATOM      2  C   UNL     1      63.473  40.354  55.368  1.00  0.00     0.062 A 
ATOM      3  C   UNL     1      63.391  41.720  55.709  1.00  0.00     0.161 A 
ATOM      4  C   UNL     1      64.573  42.474  55.809  1.00  0.00     0.157 A 
ATOM      5  C   UNL     1      65.810  41.870  55.572  1.00  0.00     0.051 A 
ATOM      6  C   UNL     1      65.885  40.518  55.234  1.00  0.00     0.016 A 
ENDROOT
BRANCH   1   7
ATOM      7  C   UNL     1      64.781  38.297  54.768  1.00  0.00     0.159 C 
ATOM      8  C   UNL     1      65.427  37.823  53.500  1.00  0.00     0.093 C 
ATOM      9  O   UNL     1      64.282  37.436  55.544  1.00  0.00    -0.295 OA
ENDBRANCH   1   7
BRANCH   3  10
ATOM     10  O   UNL     1      62.162  42.353  55.953  1.00  0.00    -0.493 OA
ATOM     11  C   UNL     1      61.314  42.892  54.945  1.00  0.00     0.278 C 
ENDBRANCH   3  10
BRANCH   4  12
ATOM     12  O   UNL     1      64.538  43.827  56.144  1.00  0.00    -0.504 OA
ATOM     13  H   UNL     1      64.138  44.158  57.014  1.00  0.00     0.293 HD
ENDBRANCH   4  12
TORSDOF 3
ENDMDL
MODEL 5
REMARK VINA RESULT:    -3.781      1.780      4.626
REMARK INTER + INTRA:          -4.447
REMARK INTER:                  -4.334
REMARK INTRA:                  -0.113
REMARK UNBOUND:                -0.113
REMARK SMILES COc1cc(C(C)=O)ccc1O
REMARK SMILES IDX 5 1 4 2 3 3 11 4 10 5 9 6 6 7 7 8 8 9 2 10 1 11 12 12
REMARK H PARENT 12 13
REMARK Flexibility Score: inf
ROOT
ATOM      1  C   UNL     1      65.571  39.782  45.146  1.00  0.00     0.021 A 
ATOM      2  C   UNL     1      66.563  40.749  45.398  1.00  0.00     0.062 A 
ATOM      3  C   UNL     1      66.458  41.628  46.496  1.00  0.00     0.161 A 
ATOM      4  C   UNL     1      65.343  41.533  47.346  1.00  0.00     0.157 A 
ATOM      5  C   UNL     1      64.356  40.576  47.100  1.00  0.00     0.051 A 
ATOM      6  C   UNL     1      64.465  39.708  46.012  1.00  0.00     0.016 A 
ENDROOT
BRANCH   1   7
ATOM      7  C   UNL     1      65.703  38.864  43.982  1.00  0.00     0.159 C 
ATOM      8  C   UNL     1      66.459  39.252  42.746  1.00  0.00     0.093 C 
ATOM      9  O   UNL     1      65.168  37.722  44.022  1.00  0.00    -0.295 OA
ENDBRANCH   1   7
BRANCH   3  10
ATOM     10  O   UNL     1      67.435  42.600  46.767  1.00  0.00    -0.493 OA
ATOM     11  C   UNL     1      67.493  43.882  46.153  1.00  0.00     0.278 C 
ENDBRANCH   3  10
BRANCH   4  12
ATOM     12  O   UNL     1      65.198  42.382  48.443  1.00  0.00    -0.504 OA
ATOM     13  H   UNL     1      64.525  42.203  49.179  1.00  0.00     0.293 HD
ENDBRANCH   4  12
TORSDOF 3
ENDMDL
MODEL 6
REMARK VINA RESULT:    -3.712      2.585      4.214
REMARK INTER + INTRA:          -4.367
REMARK INTER:                  -4.278
REMARK INTRA:                  -0.089
REMARK UNBOUND:                -0.113
REMARK SMILES COc1cc(C(C)=O)ccc1O
REMARK SMILES IDX 5 1 4 2 3 3 11 4 10 5 9 6 6 7 7 8 8 9 2 10 1 11 12 12
REMARK H PARENT 12 13
REMARK Flexibility Score: inf
ROOT
ATOM      1  C   UNL     1      66.761  39.490  48.532  1.00  0.00     0.021 A 
ATOM      2  C   UNL     1      66.998  40.759  47.971  1.00  0.00     0.062 A 
ATOM      3  C   UNL     1      65.933  41.558  47.505  1.00  0.00     0.161 A 
ATOM      4  C   UNL     1      64.618  41.072  47.605  1.00  0.00     0.157 A 
ATOM      5  C   UNL     1      64.377  39.813  48.161  1.00  0.00     0.051 A 
ATOM      6  C   UNL     1      65.435  39.028  48.621  1.00  0.00     0.016 A 
ENDROOT
BRANCH   1   7
ATOM      7  C   UNL     1      67.900  38.664  49.019  1.00  0.00     0.159 C 
ATOM      8  C   UNL     1      69.071  38.332  48.142  1.00  0.00     0.093 C 
ATOM      9  O   UNL     1      67.894  38.223  50.201  1.00  0.00    -0.295 OA
ENDBRANCH   1   7
BRANCH   3  10
ATOM     10  O   UNL     1      66.145  42.826  46.942  1.00  0.00    -0.493 OA
ATOM     11  C   UNL     1      67.414  43.331  46.538  1.00  0.00     0.278 C 
ENDBRANCH   3  10
BRANCH   4  12
ATOM     12  O   UNL     1      63.535  41.828  47.156  1.00  0.00    -0.504 OA
ATOM     13  H   UNL     1      63.012  41.581  46.323  1.00  0.00     0.293 HD
ENDBRANCH   4  12
TORSDOF 3
ENDMDL
MODEL 7
REMARK VINA RESULT:    -3.622     10.063     10.686
REMARK INTER + INTRA:          -4.265
REMARK INTER:                  -4.148
REMARK INTRA:                  -0.117
REMARK UNBOUND:                -0.113
REMARK SMILES COc1cc(C(C)=O)ccc1O
REMARK SMILES IDX 5 1 4 2 3 3 11 4 10 5 9 6 6 7 7 8 8 9 2 10 1 11 12 12
REMARK H PARENT 12 13
REMARK Flexibility Score: inf
ROOT
ATOM      1  C   UNL     1      68.013  50.378  47.487  1.00  0.00     0.021 A 
ATOM      2  C   UNL     1      67.723  50.458  48.863  1.00  0.00     0.062 A 
ATOM      3  C   UNL     1      66.402  50.316  49.336  1.00  0.00     0.161 A 
ATOM      4  C   UNL     1      65.364  50.091  48.415  1.00  0.00     0.157 A 
ATOM      5  C   UNL     1      65.646  50.011  47.049  1.00  0.00     0.051 A 
ATOM      6  C   UNL     1      66.955  50.152  46.586  1.00  0.00     0.016 A 
ENDROOT
BRANCH   1   7
ATOM      7  C   UNL     1      69.414  50.530  47.009  1.00  0.00     0.159 C 
ATOM      8  C   UNL     1      69.945  51.841  46.512  1.00  0.00     0.093 C 
ATOM      9  O   UNL     1      70.190  49.535  47.017  1.00  0.00    -0.295 OA
ENDBRANCH   1   7
BRANCH   3  10
ATOM     10  O   UNL     1      66.090  50.393  50.702  1.00  0.00    -0.493 OA
ATOM     11  C   UNL     1      66.329  49.355  51.647  1.00  0.00     0.278 C 
ENDBRANCH   3  10
BRANCH   4  12
ATOM     12  O   UNL     1      64.044  49.946  48.839  1.00  0.00    -0.504 OA
ATOM     13  H   UNL     1      63.778  49.288  49.563  1.00  0.00     0.293 HD
ENDBRANCH   4  12
TORSDOF 3
ENDMDL
MODEL 8
REMARK VINA RESULT:    -3.612      1.981      2.289
REMARK INTER + INTRA:          -4.253
REMARK INTER:                  -4.142
REMARK INTRA:                  -0.111
REMARK UNBOUND:                -0.113
REMARK SMILES COc1cc(C(C)=O)ccc1O
REMARK SMILES IDX 5 1 4 2 3 3 11 4 10 5 9 6 6 7 7 8 8 9 2 10 1 11 12 12
REMARK H PARENT 12 13
REMARK Flexibility Score: inf
ROOT
ATOM      1  C   UNL     1      65.220  40.488  47.724  1.00  0.00     0.021 A 
ATOM      2  C   UNL     1      64.100  41.333  47.592  1.00  0.00     0.062 A 
ATOM      3  C   UNL     1      62.802  40.800  47.451  1.00  0.00     0.161 A 
ATOM      4  C   UNL     1      62.630  39.406  47.442  1.00  0.00     0.157 A 
ATOM      5  C   UNL     1      63.737  38.563  47.572  1.00  0.00     0.051 A 
ATOM      6  C   UNL     1      65.020  39.095  47.712  1.00  0.00     0.016 A 
ENDROOT
BRANCH   1   7
ATOM      7  C   UNL     1      66.581  41.071  47.872  1.00  0.00     0.159 C 
ATOM      8  C   UNL     1      66.893  42.477  47.453  1.00  0.00     0.093 C 
ATOM      9  O   UNL     1      67.511  40.374  48.364  1.00  0.00    -0.295 OA
ENDBRANCH   1   7
BRANCH   3  10
ATOM     10  O   UNL     1      61.672  41.622  47.318  1.00  0.00    -0.493 OA
ATOM     11  C   UNL     1      60.938  42.173  48.406  1.00  0.00     0.278 C 
ENDBRANCH   3  10
BRANCH   4  12
ATOM     12  O   UNL     1      61.364  38.836  47.304  1.00  0.00    -0.504 OA
ATOM     13  H   UNL     1      60.652  38.924  48.020  1.00  0.00     0.293 HD
ENDBRANCH   4  12
TORSDOF 3
ENDMDL
MODEL 9
REMARK VINA RESULT:    -3.546     11.592     12.892
REMARK INTER + INTRA:          -4.178
REMARK INTER:                  -4.061
REMARK INTRA:                  -0.116
REMARK UNBOUND:                -0.113
REMARK SMILES COc1cc(C(C)=O)ccc1O
REMARK SMILES IDX 5 1 4 2 3 3 11 4 10 5 9 6 6 7 7 8 8 9 2 10 1 11 12 12
REMARK H PARENT 12 13
REMARK Flexibility Score: inf
ROOT
ATOM      1  C   UNL     1      64.334  52.303  48.096  1.00  0.00     0.021 A 
ATOM      2  C   UNL     1      63.202  52.375  48.931  1.00  0.00     0.062 A 
ATOM      3  C   UNL     1      61.995  52.942  48.470  1.00  0.00     0.161 A 
ATOM      4  C   UNL     1      61.929  53.441  47.158  1.00  0.00     0.157 A 
ATOM      5  C   UNL     1      63.050  53.372  46.326  1.00  0.00     0.051 A 
ATOM      6  C   UNL     1      64.241  52.809  46.787  1.00  0.00     0.016 A 
ENDROOT
BRANCH   1   7
ATOM      7  C   UNL     1      65.597  51.699  48.602  1.00  0.00     0.159 C 
ATOM      8  C   UNL     1      66.736  52.540  49.096  1.00  0.00     0.093 C 
ATOM      9  O   UNL     1      65.727  50.444  48.622  1.00  0.00    -0.295 OA
ENDBRANCH   1   7
BRANCH   3  10
ATOM     10  O   UNL     1      60.855  53.025  49.284  1.00  0.00    -0.493 OA
ATOM     11  C   UNL     1      60.707  53.918  50.383  1.00  0.00     0.278 C 
ENDBRANCH   3  10
BRANCH   4  12
ATOM     12  O   UNL     1      60.757  54.011  46.662  1.00  0.00    -0.504 OA
ATOM     13  H   UNL     1      60.766  54.722  45.939  1.00  0.00     0.293 HD
ENDBRANCH   4  12
TORSDOF 3
ENDMDL
