MODEL 1
REMARK VINA RESULT:    -5.709      0.000      0.000
REMARK INTER + INTRA:          -6.141
REMARK INTER:                  -6.042
REMARK INTRA:                  -0.098
REMARK UNBOUND:                -0.098
REMARK SMILES C=C(C)[C@@H]1CC=C(C)C(=O)C1
REMARK SMILES IDX 8 1 7 2 6 3 5 4 4 5 11 6 9 7 10 8 2 9 1 10 3 11
REMARK H PARENT
REMARK Flexibility Score: inf
ROOT
ATOM      1  C   UNL     1     -11.109 -17.372  26.008  1.00  0.00     0.048 C 
ATOM      2  C   UNL     1     -11.484 -16.832  27.361  1.00  0.00    -0.012 C 
ATOM      3  C   UNL     1     -10.651 -17.000  28.403  1.00  0.00    -0.019 C 
ATOM      4  C   UNL     1     -10.969 -16.464  29.774  1.00  0.00     0.036 C 
ATOM      5  C   UNL     1     -12.487 -16.482  30.037  1.00  0.00     0.025 C 
ATOM      6  C   UNL     1     -13.230 -15.718  28.926  1.00  0.00     0.089 C 
ATOM      7  C   UNL     1     -12.823 -16.227  27.570  1.00  0.00     0.158 C 
ATOM      8  O   UNL     1     -13.620 -16.100  26.602  1.00  0.00    -0.295 OA
ENDROOT
BRANCH   5   9
ATOM      9  C   UNL     1     -12.819 -15.924  31.414  1.00  0.00    -0.077 C 
ATOM     10  C   UNL     1     -13.987 -15.294  31.621  1.00  0.00     0.008 C 
ATOM     11  C   UNL     1     -11.859 -16.059  32.570  1.00  0.00     0.039 C 
ENDBRANCH   5   9
TORSDOF 1
ENDMDL
MODEL 2
REMARK VINA RESULT:    -5.685      2.892      4.847
REMARK INTER + INTRA:          -6.115
REMARK INTER:                  -6.026
REMARK INTRA:                  -0.089
REMARK UNBOUND:                -0.098
REMARK SMILES C=C(C)[C@@H]1CC=C(C)C(=O)C1
REMARK SMILES IDX 8 1 7 2 6 3 5 4 4 5 11 6 9 7 10 8 2 9 1 10 3 11
REMARK H PARENT
REMARK Flexibility Score: inf
ROOT
ATOM      1  C   UNL     1     -12.139 -20.244  31.951  1.00  0.00     0.048 C 
ATOM      2  C   UNL     1     -12.271 -19.369  30.734  1.00  0.00    -0.012 C 
ATOM      3  C   UNL     1     -13.151 -19.692  29.771  1.00  0.00    -0.019 C 
ATOM      4  C   UNL     1     -13.337 -18.841  28.541  1.00  0.00     0.036 C 
ATOM      5  C   UNL     1     -12.015 -18.164  28.132  1.00  0.00     0.025 C 
ATOM      6  C   UNL     1     -11.437 -17.363  29.313  1.00  0.00     0.089 C 
ATOM      7  C   UNL     1     -11.346 -18.225  30.542  1.00  0.00     0.158 C 
ATOM      8  O   UNL     1     -10.496 -17.942  31.429  1.00  0.00    -0.295 OA
ENDROOT
BRANCH   5   9
ATOM      9  C   UNL     1     -12.197 -17.287  26.901  1.00  0.00    -0.077 C 
ATOM     10  C   UNL     1     -11.238 -17.237  25.962  1.00  0.00     0.008 C 
ATOM     11  C   UNL     1     -13.443 -16.459  26.703  1.00  0.00     0.039 C 
ENDBRANCH   5   9
TORSDOF 1
ENDMDL
MODEL 3
REMARK VINA RESULT:    -5.615      2.021      4.316
REMARK INTER + INTRA:          -6.041
REMARK INTER:                  -5.950
REMARK INTRA:                  -0.091
REMARK UNBOUND:                -0.098
REMARK SMILES C=C(C)[C@@H]1CC=C(C)C(=O)C1
REMARK SMILES IDX 8 1 7 2 6 3 5 4 4 5 11 6 9 7 10 8 2 9 1 10 3 11
REMARK H PARENT
REMARK Flexibility Score: inf
ROOT
ATOM      1  C   UNL     1     -11.108 -16.173  32.737  1.00  0.00     0.048 C 
ATOM      2  C   UNL     1     -11.350 -16.450  31.278  1.00  0.00    -0.012 C 
ATOM      3  C   UNL     1     -10.566 -15.876  30.349  1.00  0.00    -0.019 C 
ATOM      4  C   UNL     1     -10.752 -16.133  28.877  1.00  0.00     0.036 C 
ATOM      5  C   UNL     1     -12.237 -16.371  28.540  1.00  0.00     0.025 C 
ATOM      6  C   UNL     1     -12.805 -17.509  29.407  1.00  0.00     0.089 C 
ATOM      7  C   UNL     1     -12.526 -17.255  30.863  1.00  0.00     0.158 C 
ATOM      8  O   UNL     1     -13.282 -17.766  31.732  1.00  0.00    -0.295 OA
ENDROOT
BRANCH   5   9
ATOM      9  C   UNL     1     -12.433 -16.651  27.057  1.00  0.00    -0.077 C 
ATOM     10  C   UNL     1     -13.593 -16.336  26.460  1.00  0.00     0.008 C 
ATOM     11  C   UNL     1     -11.344 -17.284  26.226  1.00  0.00     0.039 C 
ENDBRANCH   5   9
TORSDOF 1
ENDMDL
MODEL 4
REMARK VINA RESULT:    -5.581      2.172      2.894
REMARK INTER + INTRA:          -6.005
REMARK INTER:                  -5.909
REMARK INTRA:                  -0.097
REMARK UNBOUND:                -0.098
REMARK SMILES C=C(C)[C@@H]1CC=C(C)C(=O)C1
REMARK SMILES IDX 8 1 7 2 6 3 5 4 4 5 11 6 9 7 10 8 2 9 1 10 3 11
REMARK H PARENT
REMARK Flexibility Score: inf
ROOT
ATOM      1  C   UNL     1     -13.321 -20.226  28.621  1.00  0.00     0.048 C 
ATOM      2  C   UNL     1     -13.050 -19.137  29.621  1.00  0.00    -0.012 C 
ATOM      3  C   UNL     1     -13.060 -19.418  30.936  1.00  0.00    -0.019 C 
ATOM      4  C   UNL     1     -12.778 -18.370  31.980  1.00  0.00     0.036 C 
ATOM      5  C   UNL     1     -13.273 -16.985  31.521  1.00  0.00     0.025 C 
ATOM      6  C   UNL     1     -12.664 -16.625  30.154  1.00  0.00     0.089 C 
ATOM      7  C   UNL     1     -12.896 -17.734  29.164  1.00  0.00     0.158 C 
ATOM      8  O   UNL     1     -12.921 -17.462  27.933  1.00  0.00    -0.295 OA
ENDROOT
BRANCH   5   9
ATOM      9  C   UNL     1     -12.974 -15.915  32.562  1.00  0.00    -0.077 C 
ATOM     10  C   UNL     1     -11.730 -15.776  33.048  1.00  0.00     0.008 C 
ATOM     11  C   UNL     1     -14.054 -14.992  33.073  1.00  0.00     0.039 C 
ENDBRANCH   5   9
TORSDOF 1
ENDMDL
MODEL 5
REMARK VINA RESULT:    -5.438      1.728      2.255
REMARK INTER + INTRA:          -5.854
REMARK INTER:                  -5.756
REMARK INTRA:                  -0.098
REMARK UNBOUND:                -0.098
REMARK SMILES C=C(C)[C@@H]1CC=C(C)C(=O)C1
REMARK SMILES IDX 8 1 7 2 6 3 5 4 4 5 11 6 9 7 10 8 2 9 1 10 3 11
REMARK H PARENT
REMARK Flexibility Score: inf
ROOT
ATOM      1  C   UNL     1     -11.270 -17.323  26.724  1.00  0.00     0.048 C 
ATOM      2  C   UNL     1     -12.090 -17.019  27.948  1.00  0.00    -0.012 C 
ATOM      3  C   UNL     1     -12.436 -15.749  28.222  1.00  0.00    -0.019 C 
ATOM      4  C   UNL     1     -13.270 -15.390  29.423  1.00  0.00     0.036 C 
ATOM      5  C   UNL     1     -12.987 -16.344  30.599  1.00  0.00     0.025 C 
ATOM      6  C   UNL     1     -13.192 -17.806  30.162  1.00  0.00     0.089 C 
ATOM      7  C   UNL     1     -12.408 -18.100  28.913  1.00  0.00     0.158 C 
ATOM      8  O   UNL     1     -12.053 -19.286  28.675  1.00  0.00    -0.295 OA
ENDROOT
BRANCH   5   9
ATOM      9  C   UNL     1     -13.840 -16.001  31.812  1.00  0.00    -0.077 C 
ATOM     10  C   UNL     1     -14.037 -16.914  32.777  1.00  0.00     0.008 C 
ATOM     11  C   UNL     1     -14.483 -14.644  31.963  1.00  0.00     0.039 C 
ENDBRANCH   5   9
TORSDOF 1
ENDMDL
MODEL 6
REMARK VINA RESULT:    -5.344      2.140      4.609
REMARK INTER + INTRA:          -5.755
REMARK INTER:                  -5.667
REMARK INTRA:                  -0.088
REMARK UNBOUND:                -0.098
REMARK SMILES C=C(C)[C@@H]1CC=C(C)C(=O)C1
REMARK SMILES IDX 8 1 7 2 6 3 5 4 4 5 11 6 9 7 10 8 2 9 1 10 3 11
REMARK H PARENT
REMARK Flexibility Score: inf
ROOT
ATOM      1  C   UNL     1     -13.722 -16.905  32.673  1.00  0.00     0.048 C 
ATOM      2  C   UNL     1     -13.220 -16.895  31.255  1.00  0.00    -0.012 C 
ATOM      3  C   UNL     1     -13.197 -15.743  30.562  1.00  0.00    -0.019 C 
ATOM      4  C   UNL     1     -12.687 -15.673  29.146  1.00  0.00     0.036 C 
ATOM      5  C   UNL     1     -12.979 -16.981  28.387  1.00  0.00     0.025 C 
ATOM      6  C   UNL     1     -12.403 -18.185  29.155  1.00  0.00     0.089 C 
ATOM      7  C   UNL     1     -12.869 -18.171  30.585  1.00  0.00     0.158 C 
ATOM      8  O   UNL     1     -12.924 -19.257  31.223  1.00  0.00    -0.295 OA
ENDROOT
BRANCH   5   9
ATOM      9  C   UNL     1     -12.451 -16.927  26.961  1.00  0.00    -0.077 C 
ATOM     10  C   UNL     1     -13.232 -16.466  25.970  1.00  0.00     0.008 C 
ATOM     11  C   UNL     1     -11.054 -17.385  26.622  1.00  0.00     0.039 C 
ENDBRANCH   5   9
TORSDOF 1
ENDMDL
MODEL 7
REMARK VINA RESULT:    -5.242      2.576      4.556
REMARK INTER + INTRA:          -5.646
REMARK INTER:                  -5.550
REMARK INTRA:                  -0.096
REMARK UNBOUND:                -0.098
REMARK SMILES C=C(C)[C@@H]1CC=C(C)C(=O)C1
REMARK SMILES IDX 8 1 7 2 6 3 5 4 4 5 11 6 9 7 10 8 2 9 1 10 3 11
REMARK H PARENT
REMARK Flexibility Score: inf
ROOT
ATOM      1  C   UNL     1     -10.289 -17.558  32.454  1.00  0.00     0.048 C 
ATOM      2  C   UNL     1     -10.638 -17.459  30.994  1.00  0.00    -0.012 C 
ATOM      3  C   UNL     1     -10.425 -16.309  30.332  1.00  0.00    -0.019 C 
ATOM      4  C   UNL     1     -10.739 -16.162  28.866  1.00  0.00     0.036 C 
ATOM      5  C   UNL     1     -11.953 -17.024  28.470  1.00  0.00     0.025 C 
ATOM      6  C   UNL     1     -11.719 -18.492  28.872  1.00  0.00     0.089 C 
ATOM      7  C   UNL     1     -11.327 -18.588  30.321  1.00  0.00     0.158 C 
ATOM      8  O   UNL     1     -11.559 -19.655  30.950  1.00  0.00    -0.295 OA
ENDROOT
BRANCH   5   9
ATOM      9  C   UNL     1     -12.266 -16.896  26.986  1.00  0.00    -0.077 C 
ATOM     10  C   UNL     1     -11.343 -17.235  26.072  1.00  0.00     0.008 C 
ATOM     11  C   UNL     1     -13.604 -16.390  26.506  1.00  0.00     0.039 C 
ENDBRANCH   5   9
TORSDOF 1
ENDMDL
MODEL 8
REMARK VINA RESULT:    -5.167      2.375      3.391
REMARK INTER + INTRA:          -5.567
REMARK INTER:                  -5.471
REMARK INTRA:                  -0.096
REMARK UNBOUND:                -0.098
REMARK SMILES C=C(C)[C@@H]1CC=C(C)C(=O)C1
REMARK SMILES IDX 8 1 7 2 6 3 5 4 4 5 11 6 9 7 10 8 2 9 1 10 3 11
REMARK H PARENT
REMARK Flexibility Score: inf
ROOT
ATOM      1  C   UNL     1     -13.982 -14.266  28.298  1.00  0.00     0.048 C 
ATOM      2  C   UNL     1     -13.289 -15.289  29.157  1.00  0.00    -0.012 C 
ATOM      3  C   UNL     1     -12.450 -16.176  28.595  1.00  0.00    -0.019 C 
ATOM      4  C   UNL     1     -11.717 -17.209  29.409  1.00  0.00     0.036 C 
ATOM      5  C   UNL     1     -12.558 -17.658  30.620  1.00  0.00     0.025 C 
ATOM      6  C   UNL     1     -12.974 -16.439  31.463  1.00  0.00     0.089 C 
ATOM      7  C   UNL     1     -13.628 -15.396  30.598  1.00  0.00     0.158 C 
ATOM      8  O   UNL     1     -14.441 -14.587  31.120  1.00  0.00    -0.295 OA
ENDROOT
BRANCH   5   9
ATOM      9  C   UNL     1     -11.817 -18.689  31.460  1.00  0.00    -0.077 C 
ATOM     10  C   UNL     1     -10.656 -18.366  32.052  1.00  0.00     0.008 C 
ATOM     11  C   UNL     1     -12.357 -20.085  31.648  1.00  0.00     0.039 C 
ENDBRANCH   5   9
TORSDOF 1
ENDMDL
MODEL 9
REMARK VINA RESULT:    -5.065      1.983      2.937
REMARK INTER + INTRA:          -5.460
REMARK INTER:                  -5.361
REMARK INTRA:                  -0.098
REMARK UNBOUND:                -0.098
REMARK SMILES C=C(C)[C@@H]1CC=C(C)C(=O)C1
REMARK SMILES IDX 8 1 7 2 6 3 5 4 4 5 11 6 9 7 10 8 2 9 1 10 3 11
REMARK H PARENT
REMARK Flexibility Score: inf
ROOT
ATOM      1  C   UNL     1      -9.916 -18.753  30.512  1.00  0.00     0.048 C 
ATOM      2  C   UNL     1     -10.890 -17.654  30.837  1.00  0.00    -0.012 C 
ATOM      3  C   UNL     1     -11.054 -17.261  32.112  1.00  0.00    -0.019 C 
ATOM      4  C   UNL     1     -12.002 -16.153  32.491  1.00  0.00     0.036 C 
ATOM      5  C   UNL     1     -13.221 -16.122  31.550  1.00  0.00     0.025 C 
ATOM      6  C   UNL     1     -12.763 -16.021  30.084  1.00  0.00     0.089 C 
ATOM      7  C   UNL     1     -11.755 -17.093  29.770  1.00  0.00     0.158 C 
ATOM      8  O   UNL     1     -11.627 -17.485  28.579  1.00  0.00    -0.295 OA
ENDROOT
BRANCH   5   9
ATOM      9  C   UNL     1     -14.176 -14.993  31.913  1.00  0.00    -0.077 C 
ATOM     10  C   UNL     1     -14.788 -14.292  30.946  1.00  0.00     0.008 C 
ATOM     11  C   UNL     1     -14.456 -14.633  33.352  1.00  0.00     0.039 C 
ENDBRANCH   5   9
TORSDOF 1
ENDMDL
