MODEL 1
REMARK VINA RESULT:    -4.470      0.000      0.000
REMARK INTER + INTRA:          -8.160
REMARK INTER:                  -6.822
REMARK INTRA:                  -1.339
REMARK UNBOUND:                -1.339
REMARK SMILES OC[C@@H]1O[C@H](O[C@]2(CO)O[C@@H](CO)[C@@H](O)[C@H]2O)[C@H](O)[C@@H](O)[C@H]1O
REMARK SMILES IDX 6 1 5 2 3 3 22 4 4 5 20 6 18 7 2 8 1 9 23 11 21 13 19 15
REMARK SMILES IDX 7 17 16 18 10 19 14 20 11 21 8 22 9 23 17 25 15 27 12 29
REMARK SMILES IDX 13 30
REMARK H PARENT 1 10 23 12 21 14 19 16 9 24 17 26 15 28 13 31
REMARK Flexibility Score: inf
ROOT
ATOM      1  O   UNL     1     115.871 119.119 109.261  1.00  0.00    -0.313 OA
ENDROOT
BRANCH   1   2
ATOM      2  C   UNL     1     114.877 118.270 109.818  1.00  0.00     0.285 C 
ATOM      3  C   UNL     1     113.316 116.626 109.264  1.00  0.00     0.178 C 
ATOM      4  C   UNL     1     113.801 115.643 110.360  1.00  0.00     0.177 C 
ATOM      5  O   UNL     1     114.394 117.419 108.793  1.00  0.00    -0.341 OA
ATOM      6  C   UNL     1     114.538 116.391 111.496  1.00  0.00     0.179 C 
ATOM      7  C   UNL     1     115.528 117.434 110.940  1.00  0.00     0.202 C 
BRANCH   3   8
ATOM      8  C   UNL     1     112.711 115.864 108.077  1.00  0.00     0.191 C 
BRANCH   8   9
ATOM      9  O   UNL     1     112.524 116.728 106.988  1.00  0.00    -0.394 OA
ATOM     10  H   UNL     1     113.376 117.231 106.873  1.00  0.00     0.210 HD
ENDBRANCH   8   9
ENDBRANCH   3   8
BRANCH   4  11
ATOM     11  O   UNL     1     112.709 114.927 110.881  1.00  0.00    -0.387 OA
ATOM     12  H   UNL     1     112.928 114.714 111.827  1.00  0.00     0.211 HD
ENDBRANCH   4  11
BRANCH   6  13
ATOM     13  O   UNL     1     113.640 116.973 112.411  1.00  0.00    -0.387 OA
ATOM     14  H   UNL     1     112.946 117.462 111.901  1.00  0.00     0.211 HD
ENDBRANCH   6  13
BRANCH   7  15
ATOM     15  O   UNL     1     116.663 116.769 110.439  1.00  0.00    -0.385 OA
ATOM     16  H   UNL     1     116.333 116.014 109.885  1.00  0.00     0.211 HD
ENDBRANCH   7  15
ENDBRANCH   1   2
BRANCH   1  17
ATOM     17  C   UNL     1     115.601 120.511 109.414  1.00  0.00     0.224 C 
ATOM     18  C   UNL     1     114.174 120.645 110.008  1.00  0.00     0.208 C 
ATOM     19  O   UNL     1     116.509 121.109 110.332  1.00  0.00    -0.337 OA
ATOM     20  C   UNL     1     114.342 121.647 111.130  1.00  0.00     0.180 C 
ATOM     21  C   UNL     1     115.800 121.424 111.505  1.00  0.00     0.179 C 
BRANCH  17  22
ATOM     22  C   UNL     1     115.737 121.214 108.035  1.00  0.00     0.225 C 
BRANCH  22  23
ATOM     23  O   UNL     1     115.622 122.608 108.151  1.00  0.00    -0.391 OA
ATOM     24  H   UNL     1     116.290 123.003 107.531  1.00  0.00     0.210 HD
ENDBRANCH  22  23
ENDBRANCH  17  22
BRANCH  18  25
ATOM     25  O   UNL     1     113.217 121.051 109.061  1.00  0.00    -0.385 OA
ATOM     26  H   UNL     1     112.419 120.474 109.192  1.00  0.00     0.211 HD
ENDBRANCH  18  25
BRANCH  20  27
ATOM     27  O   UNL     1     114.137 122.960 110.666  1.00  0.00    -0.387 OA
ATOM     28  H   UNL     1     114.832 123.527 111.096  1.00  0.00     0.211 HD
ENDBRANCH  20  27
BRANCH  21  29
ATOM     29  C   UNL     1     116.445 122.624 112.208  1.00  0.00     0.191 C 
BRANCH  29  30
ATOM     30  O   UNL     1     117.178 123.384 111.288  1.00  0.00    -0.394 OA
ATOM     31  H   UNL     1     117.852 123.895 111.809  1.00  0.00     0.210 HD
ENDBRANCH  29  30
ENDBRANCH  21  29
ENDBRANCH   1  17
TORSDOF 13
ENDMDL
MODEL 2
REMARK VINA RESULT:    -4.470      7.699     10.145
REMARK INTER + INTRA:          -8.160
REMARK INTER:                  -6.824
REMARK INTRA:                  -1.337
REMARK UNBOUND:                -1.339
REMARK SMILES OC[C@@H]1O[C@H](O[C@]2(CO)O[C@@H](CO)[C@@H](O)[C@H]2O)[C@H](O)[C@@H](O)[C@H]1O
REMARK SMILES IDX 6 1 5 2 3 3 22 4 4 5 20 6 18 7 2 8 1 9 23 11 21 13 19 15
REMARK SMILES IDX 7 17 16 18 10 19 14 20 11 21 8 22 9 23 17 25 15 27 12 29
REMARK SMILES IDX 13 30
REMARK H PARENT 1 10 23 12 21 14 19 16 9 24 17 26 15 28 13 31
REMARK Flexibility Score: inf
ROOT
ATOM      1  O   UNL     1     122.337 116.812 109.094  1.00  0.00    -0.313 OA
ENDROOT
BRANCH   1   2
ATOM      2  C   UNL     1     123.552 116.357 109.674  1.00  0.00     0.285 C 
ATOM      3  C   UNL     1     125.748 115.762 109.156  1.00  0.00     0.178 C 
ATOM      4  C   UNL     1     126.367 116.681 110.240  1.00  0.00     0.177 C 
ATOM      5  O   UNL     1     124.542 116.319 108.661  1.00  0.00    -0.341 OA
ATOM      6  C   UNL     1     125.345 116.993 111.359  1.00  0.00     0.179 C 
ATOM      7  C   UNL     1     123.961 117.352 110.781  1.00  0.00     0.202 C 
BRANCH   3   8
ATOM      8  C   UNL     1     126.720 115.572 107.984  1.00  0.00     0.191 C 
BRANCH   8   9
ATOM      9  O   UNL     1     126.026 115.153 106.840  1.00  0.00    -0.394 OA
ATOM     10  H   UNL     1     125.071 115.053 107.105  1.00  0.00     0.210 HD
ENDBRANCH   8   9
ENDBRANCH   3   8
BRANCH   4  11
ATOM     11  O   UNL     1     127.513 116.076 110.786  1.00  0.00    -0.387 OA
ATOM     12  H   UNL     1     128.298 116.497 110.346  1.00  0.00     0.211 HD
ENDBRANCH   4  11
BRANCH   6  13
ATOM     13  O   UNL     1     125.254 115.945 112.295  1.00  0.00    -0.387 OA
ATOM     14  H   UNL     1     125.959 115.281 112.091  1.00  0.00     0.211 HD
ENDBRANCH   6  13
BRANCH   7  15
ATOM     15  O   UNL     1     124.008 118.656 110.253  1.00  0.00    -0.385 OA
ATOM     16  H   UNL     1     123.085 118.883 109.965  1.00  0.00     0.211 HD
ENDBRANCH   7  15
ENDBRANCH   1   2
BRANCH   1  17
ATOM     17  C   UNL     1     121.253 115.893 109.218  1.00  0.00     0.224 C 
ATOM     18  C   UNL     1     121.834 114.556 109.748  1.00  0.00     0.208 C 
ATOM     19  O   UNL     1     120.298 116.355 110.167  1.00  0.00    -0.337 OA
ATOM     20  C   UNL     1     120.888 114.167 110.863  1.00  0.00     0.180 C 
ATOM     21  C   UNL     1     120.379 115.531 111.304  1.00  0.00     0.179 C 
BRANCH  17  22
ATOM     22  C   UNL     1     120.558 115.732 107.837  1.00  0.00     0.225 C 
BRANCH  22  23
ATOM     23  O   UNL     1     119.394 114.954 107.931  1.00  0.00    -0.391 OA
ATOM     24  H   UNL     1     118.688 115.431 107.422  1.00  0.00     0.210 HD
ENDBRANCH  22  23
ENDBRANCH  17  22
BRANCH  18  25
ATOM     25  O   UNL     1     121.934 113.565 108.754  1.00  0.00    -0.385 OA
ATOM     26  H   UNL     1     121.094 113.035 108.790  1.00  0.00     0.211 HD
ENDBRANCH  18  25
BRANCH  20  27
ATOM     27  O   UNL     1     119.835 113.371 110.375  1.00  0.00    -0.387 OA
ATOM     28  H   UNL     1     120.251 112.633 109.855  1.00  0.00     0.211 HD
ENDBRANCH  20  27
BRANCH  21  29
ATOM     29  C   UNL     1     119.024 115.482 112.020  1.00  0.00     0.191 C 
BRANCH  29  30
ATOM     30  O   UNL     1     117.997 115.821 111.130  1.00  0.00    -0.394 OA
ATOM     31  H   UNL     1     117.248 116.175 111.677  1.00  0.00     0.210 HD
ENDBRANCH  29  30
ENDBRANCH  21  29
ENDBRANCH   1  17
TORSDOF 13
ENDMDL
MODEL 3
REMARK VINA RESULT:    -4.464      7.728     10.177
REMARK INTER + INTRA:          -8.151
REMARK INTER:                  -6.808
REMARK INTRA:                  -1.343
REMARK UNBOUND:                -1.339
REMARK SMILES OC[C@@H]1O[C@H](O[C@]2(CO)O[C@@H](CO)[C@@H](O)[C@H]2O)[C@H](O)[C@@H](O)[C@H]1O
REMARK SMILES IDX 6 1 5 2 3 3 22 4 4 5 20 6 18 7 2 8 1 9 23 11 21 13 19 15
REMARK SMILES IDX 7 17 16 18 10 19 14 20 11 21 8 22 9 23 17 25 15 27 12 29
REMARK SMILES IDX 13 30
REMARK H PARENT 1 10 23 12 21 14 19 16 9 24 17 26 15 28 13 31
REMARK Flexibility Score: inf
ROOT
ATOM      1  O   UNL     1     121.077 123.515 109.350  1.00  0.00    -0.313 OA
ENDROOT
BRANCH   1   2
ATOM      2  C   UNL     1     120.893 124.811 109.902  1.00  0.00     0.285 C 
ATOM      3  C   UNL     1     120.362 127.012 109.334  1.00  0.00     0.178 C 
ATOM      4  C   UNL     1     119.260 127.139 110.416  1.00  0.00     0.177 C 
ATOM      5  O   UNL     1     120.451 125.675 108.868  1.00  0.00    -0.341 OA
ATOM      6  C   UNL     1     119.476 126.118 111.558  1.00  0.00     0.179 C 
ATOM      7  C   UNL     1     119.825 124.719 111.011  1.00  0.00     0.202 C 
BRANCH   3   8
ATOM      8  C   UNL     1     120.062 127.929 108.141  1.00  0.00     0.191 C 
BRANCH   8   9
ATOM      9  O   UNL     1     120.775 127.504 107.010  1.00  0.00    -0.394 OA
ATOM     10  H   UNL     1     120.174 126.888 106.509  1.00  0.00     0.210 HD
ENDBRANCH   8   9
ENDBRANCH   3   8
BRANCH   4  11
ATOM     11  O   UNL     1     119.241 128.446 110.933  1.00  0.00    -0.387 OA
ATOM     12  H   UNL     1     118.804 129.020 110.248  1.00  0.00     0.211 HD
ENDBRANCH   4  11
BRANCH   6  13
ATOM     13  O   UNL     1     120.439 126.561 112.483  1.00  0.00    -0.387 OA
ATOM     14  H   UNL     1     121.040 127.203 112.028  1.00  0.00     0.211 HD
ENDBRANCH   6  13
BRANCH   7  15
ATOM     15  O   UNL     1     118.657 124.122 110.497  1.00  0.00    -0.385 OA
ATOM     16  H   UNL     1     118.418 123.381 111.113  1.00  0.00     0.211 HD
ENDBRANCH   7  15
ENDBRANCH   1   2
BRANCH   1  17
ATOM     17  C   UNL     1     122.409 123.017 109.463  1.00  0.00     0.224 C 
ATOM     18  C   UNL     1     123.291 124.169 110.012  1.00  0.00     0.208 C 
ATOM     19  O   UNL     1     122.476 121.941 110.391  1.00  0.00    -0.337 OA
ATOM     20  C   UNL     1     124.095 123.514 111.114  1.00  0.00     0.180 C 
ATOM     21  C   UNL     1     123.156 122.394 111.536  1.00  0.00     0.179 C 
BRANCH  17  22
ATOM     22  C   UNL     1     122.887 122.516 108.071  1.00  0.00     0.225 C 
BRANCH  22  23
ATOM     23  O   UNL     1     124.148 121.904 108.147  1.00  0.00    -0.391 OA
ATOM     24  H   UNL     1     124.004 120.997 108.525  1.00  0.00     0.210 HD
ENDBRANCH  22  23
ENDBRANCH  17  22
BRANCH  18  25
ATOM     25  O   UNL     1     124.104 124.760 109.028  1.00  0.00    -0.385 OA
ATOM     26  H   UNL     1     124.891 124.166 108.910  1.00  0.00     0.211 HD
ENDBRANCH  18  25
BRANCH  20  27
ATOM     27  O   UNL     1     125.304 122.995 110.614  1.00  0.00    -0.387 OA
ATOM     28  H   UNL     1     125.137 122.041 110.393  1.00  0.00     0.211 HD
ENDBRANCH  20  27
BRANCH  21  29
ATOM     29  C   UNL     1     123.864 121.224 112.229  1.00  0.00     0.191 C 
BRANCH  29  30
ATOM     30  O   UNL     1     124.113 120.199 111.307  1.00  0.00    -0.394 OA
ATOM     31  H   UNL     1     123.452 119.480 111.491  1.00  0.00     0.210 HD
ENDBRANCH  29  30
ENDBRANCH  21  29
ENDBRANCH   1  17
TORSDOF 13
ENDMDL
MODEL 4
REMARK VINA RESULT:    -4.430      1.707      6.085
REMARK INTER + INTRA:          -8.099
REMARK INTER:                  -6.574
REMARK INTRA:                  -1.525
REMARK UNBOUND:                -1.339
REMARK SMILES OC[C@@H]1O[C@H](O[C@]2(CO)O[C@@H](CO)[C@@H](O)[C@H]2O)[C@H](O)[C@@H](O)[C@H]1O
REMARK SMILES IDX 6 1 5 2 3 3 22 4 4 5 20 6 18 7 2 8 1 9 23 11 21 13 19 15
REMARK SMILES IDX 7 17 16 18 10 19 14 20 11 21 8 22 9 23 17 25 15 27 12 29
REMARK SMILES IDX 13 30
REMARK H PARENT 1 10 23 12 21 14 19 16 9 24 17 26 15 28 13 31
REMARK Flexibility Score: inf
ROOT
ATOM      1  O   UNL     1     113.213 120.434 108.922  1.00  0.00    -0.313 OA
ENDROOT
BRANCH   1   2
ATOM      2  C   UNL     1     114.472 120.913 109.373  1.00  0.00     0.285 C 
ATOM      3  C   UNL     1     116.094 122.541 108.964  1.00  0.00     0.178 C 
ATOM      4  C   UNL     1     116.153 123.007 110.440  1.00  0.00     0.177 C 
ATOM      5  O   UNL     1     114.792 122.082 108.638  1.00  0.00    -0.341 OA
ATOM      6  C   UNL     1     115.649 121.901 111.397  1.00  0.00     0.179 C 
ATOM      7  C   UNL     1     114.354 121.245 110.875  1.00  0.00     0.202 C 
BRANCH   3   8
ATOM      8  C   UNL     1     116.462 123.689 108.014  1.00  0.00     0.191 C 
BRANCH   8   9
ATOM      9  O   UNL     1     117.855 123.790 107.889  1.00  0.00    -0.394 OA
ATOM     10  H   UNL     1     118.154 124.466 108.556  1.00  0.00     0.210 HD
ENDBRANCH   8   9
ENDBRANCH   3   8
BRANCH   4  11
ATOM     11  O   UNL     1     117.467 123.375 110.776  1.00  0.00    -0.387 OA
ATOM     12  H   UNL     1     117.790 122.714 111.445  1.00  0.00     0.211 HD
ENDBRANCH   4  11
BRANCH   6  13
ATOM     13  O   UNL     1     116.642 120.939 111.658  1.00  0.00    -0.387 OA
ATOM     14  H   UNL     1     116.225 120.180 112.139  1.00  0.00     0.211 HD
ENDBRANCH   6  13
BRANCH   7  15
ATOM     15  O   UNL     1     113.276 122.125 111.084  1.00  0.00    -0.385 OA
ATOM     16  H   UNL     1     112.519 121.788 110.537  1.00  0.00     0.211 HD
ENDBRANCH   7  15
ENDBRANCH   1   2
BRANCH   1  17
ATOM     17  C   UNL     1     113.252 119.116 108.376  1.00  0.00     0.224 C 
ATOM     18  C   UNL     1     114.705 118.852 107.901  1.00  0.00     0.208 C 
ATOM     19  O   UNL     1     112.938 118.144 109.366  1.00  0.00    -0.337 OA
ATOM     20  C   UNL     1     115.021 117.479 108.452  1.00  0.00     0.180 C 
ATOM     21  C   UNL     1     114.115 117.437 109.673  1.00  0.00     0.179 C 
BRANCH  17  22
ATOM     22  C   UNL     1     112.221 119.011 107.218  1.00  0.00     0.225 C 
BRANCH  22  23
ATOM     23  O   UNL     1     112.100 117.693 106.751  1.00  0.00    -0.391 OA
ATOM     24  H   UNL     1     111.155 117.425 106.892  1.00  0.00     0.210 HD
ENDBRANCH  22  23
ENDBRANCH  17  22
BRANCH  18  25
ATOM     25  O   UNL     1     114.850 118.921 106.504  1.00  0.00    -0.385 OA
ATOM     26  H   UNL     1     114.706 119.869 106.245  1.00  0.00     0.211 HD
ENDBRANCH  18  25
BRANCH  20  27
ATOM     27  O   UNL     1     114.671 116.475 107.531  1.00  0.00    -0.387 OA
ATOM     28  H   UNL     1     114.381 115.686 108.062  1.00  0.00     0.211 HD
ENDBRANCH  20  27
BRANCH  21  29
ATOM     29  C   UNL     1     113.773 116.017 110.139  1.00  0.00     0.191 C 
BRANCH  29  30
ATOM     30  O   UNL     1     112.722 115.499 109.372  1.00  0.00    -0.394 OA
ATOM     31  H   UNL     1     113.068 114.682 108.925  1.00  0.00     0.210 HD
ENDBRANCH  29  30
ENDBRANCH  21  29
ENDBRANCH   1  17
TORSDOF 13
ENDMDL
MODEL 5
REMARK VINA RESULT:    -4.412      7.400      9.154
REMARK INTER + INTRA:          -8.072
REMARK INTER:                  -6.547
REMARK INTRA:                  -1.524
REMARK UNBOUND:                -1.339
REMARK SMILES OC[C@@H]1O[C@H](O[C@]2(CO)O[C@@H](CO)[C@@H](O)[C@H]2O)[C@H](O)[C@@H](O)[C@H]1O
REMARK SMILES IDX 6 1 5 2 3 3 22 4 4 5 20 6 18 7 2 8 1 9 23 11 21 13 19 15
REMARK SMILES IDX 7 17 16 18 10 19 14 20 11 21 8 22 9 23 17 25 15 27 12 29
REMARK SMILES IDX 13 30
REMARK H PARENT 1 10 23 12 21 14 19 16 9 24 17 26 15 28 13 31
REMARK Flexibility Score: inf
ROOT
ATOM      1  O   UNL     1     122.566 113.885 108.948  1.00  0.00    -0.313 OA
ENDROOT
BRANCH   1   2
ATOM      2  C   UNL     1     121.551 114.746 109.446  1.00  0.00     0.285 C 
ATOM      3  C   UNL     1     119.328 115.377 109.119  1.00  0.00     0.178 C 
ATOM      4  C   UNL     1     118.941 115.179 110.607  1.00  0.00     0.177 C 
ATOM      5  O   UNL     1     120.350 114.468 108.745  1.00  0.00    -0.341 OA
ATOM      6  C   UNL     1     120.183 115.263 111.524  1.00  0.00     0.179 C 
ATOM      7  C   UNL     1     121.368 114.459 110.950  1.00  0.00     0.202 C 
BRANCH   3   8
ATOM      8  C   UNL     1     118.115 115.155 108.206  1.00  0.00     0.191 C 
BRANCH   8   9
ATOM      9  O   UNL     1     117.337 116.319 108.138  1.00  0.00    -0.394 OA
ATOM     10  H   UNL     1     116.470 116.059 107.722  1.00  0.00     0.210 HD
ENDBRANCH   8   9
ENDBRANCH   3   8
BRANCH   4  11
ATOM     11  O   UNL     1     117.991 116.144 110.989  1.00  0.00    -0.387 OA
ATOM     12  H   UNL     1     117.124 115.669 111.092  1.00  0.00     0.211 HD
ENDBRANCH   4  11
BRANCH   6  13
ATOM     13  O   UNL     1     120.550 116.594 111.794  1.00  0.00    -0.387 OA
ATOM     14  H   UNL     1     120.682 117.063 110.932  1.00  0.00     0.211 HD
ENDBRANCH   6  13
BRANCH   7  15
ATOM     15  O   UNL     1     121.130 113.085 111.147  1.00  0.00    -0.385 OA
ATOM     16  H   UNL     1     120.440 113.012 111.857  1.00  0.00     0.211 HD
ENDBRANCH   7  15
ENDBRANCH   1   2
BRANCH   1  17
ATOM     17  C   UNL     1     123.686 114.569 108.387  1.00  0.00     0.224 C 
ATOM     18  C   UNL     1     123.201 115.976 107.950  1.00  0.00     0.208 C 
ATOM     19  O   UNL     1     124.713 114.748 109.356  1.00  0.00    -0.337 OA
ATOM     20  C   UNL     1     124.262 116.909 108.492  1.00  0.00     0.180 C 
ATOM     21  C   UNL     1     124.767 116.114 109.687  1.00  0.00     0.179 C 
BRANCH  17  22
ATOM     22  C   UNL     1     124.250 113.740 107.200  1.00  0.00     0.225 C 
BRANCH  22  23
ATOM     23  O   UNL     1     125.452 114.279 106.717  1.00  0.00    -0.391 OA
ATOM     24  H   UNL     1     125.761 113.682 105.987  1.00  0.00     0.210 HD
ENDBRANCH  22  23
ENDBRANCH  17  22
BRANCH  18  25
ATOM     25  O   UNL     1     123.037 116.096 106.558  1.00  0.00    -0.385 OA
ATOM     26  H   UNL     1     122.069 115.972 106.370  1.00  0.00     0.211 HD
ENDBRANCH  18  25
BRANCH  20  27
ATOM     27  O   UNL     1     125.287 117.107 107.549  1.00  0.00    -0.387 OA
ATOM     28  H   UNL     1     125.036 117.908 107.016  1.00  0.00     0.211 HD
ENDBRANCH  20  27
BRANCH  21  29
ATOM     29  C   UNL     1     126.186 116.496 110.126  1.00  0.00     0.191 C 
BRANCH  29  30
ATOM     30  O   UNL     1     127.130 115.824 109.339  1.00  0.00    -0.394 OA
ATOM     31  H   UNL     1     126.778 115.818 108.410  1.00  0.00     0.210 HD
ENDBRANCH  29  30
ENDBRANCH  21  29
ENDBRANCH   1  17
TORSDOF 13
ENDMDL
MODEL 6
REMARK VINA RESULT:    -4.386      8.602      9.675
REMARK INTER + INTRA:          -8.032
REMARK INTER:                  -6.502
REMARK INTRA:                  -1.530
REMARK UNBOUND:                -1.339
REMARK SMILES OC[C@@H]1O[C@H](O[C@]2(CO)O[C@@H](CO)[C@@H](O)[C@H]2O)[C@H](O)[C@@H](O)[C@H]1O
REMARK SMILES IDX 6 1 5 2 3 3 22 4 4 5 20 6 18 7 2 8 1 9 23 11 21 13 19 15
REMARK SMILES IDX 7 17 16 18 10 19 14 20 11 21 8 22 9 23 17 25 15 27 12 29
REMARK SMILES IDX 13 30
REMARK H PARENT 1 10 23 12 21 14 19 16 9 24 17 26 15 28 13 31
REMARK Flexibility Score: inf
ROOT
ATOM      1  O   UNL     1     123.532 125.162 108.971  1.00  0.00    -0.313 OA
ENDROOT
BRANCH   1   2
ATOM      2  C   UNL     1     123.282 123.879 109.530  1.00  0.00     0.285 C 
ATOM      3  C   UNL     1     123.861 121.626 109.340  1.00  0.00     0.178 C 
ATOM      4  C   UNL     1     124.180 121.470 110.848  1.00  0.00     0.177 C 
ATOM      5  O   UNL     1     124.146 122.946 108.905  1.00  0.00    -0.341 OA
ATOM      6  C   UNL     1     123.457 122.549 111.689  1.00  0.00     0.179 C 
ATOM      7  C   UNL     1     123.575 123.945 111.043  1.00  0.00     0.202 C 
BRANCH   3   8
ATOM      8  C   UNL     1     124.690 120.643 108.503  1.00  0.00     0.191 C 
BRANCH   8   9
ATOM      9  O   UNL     1     124.120 119.363 108.550  1.00  0.00    -0.394 OA
ATOM     10  H   UNL     1     123.637 119.297 109.418  1.00  0.00     0.210 HD
ENDBRANCH   8   9
ENDBRANCH   3   8
BRANCH   4  11
ATOM     11  O   UNL     1     123.811 120.187 111.288  1.00  0.00    -0.387 OA
ATOM     12  H   UNL     1     123.721 119.619 110.476  1.00  0.00     0.211 HD
ENDBRANCH   4  11
BRANCH   6  13
ATOM     13  O   UNL     1     122.114 122.211 111.935  1.00  0.00    -0.387 OA
ATOM     14  H   UNL     1     122.083 121.588 112.704  1.00  0.00     0.211 HD
ENDBRANCH   6  13
BRANCH   7  15
ATOM     15  O   UNL     1     124.876 124.440 111.254  1.00  0.00    -0.385 OA
ATOM     16  H   UNL     1     125.166 124.116 112.146  1.00  0.00     0.211 HD
ENDBRANCH   7  15
ENDBRANCH   1   2
BRANCH   1  17
ATOM     17  C   UNL     1     122.371 125.806 108.450  1.00  0.00     0.224 C 
ATOM     18  C   UNL     1     121.382 124.697 108.005  1.00  0.00     0.208 C 
ATOM     19  O   UNL     1     121.725 126.584 109.452  1.00  0.00    -0.337 OA
ATOM     20  C   UNL     1     120.057 125.139 108.586  1.00  0.00     0.180 C 
ATOM     21  C   UNL     1     120.520 125.944 109.791  1.00  0.00     0.179 C 
BRANCH  17  22
ATOM     22  C   UNL     1     122.785 126.736 107.276  1.00  0.00     0.225 C 
BRANCH  22  23
ATOM     23  O   UNL     1     121.717 127.540 106.850  1.00  0.00    -0.391 OA
ATOM     24  H   UNL     1     121.708 128.340 107.438  1.00  0.00     0.210 HD
ENDBRANCH  22  23
ENDBRANCH  17  22
BRANCH  18  25
ATOM     25  O   UNL     1     121.331 124.529 106.610  1.00  0.00    -0.385 OA
ATOM     26  H   UNL     1     120.375 124.412 106.368  1.00  0.00     0.211 HD
ENDBRANCH  18  25
BRANCH  20  27
ATOM     27  O   UNL     1     119.356 125.953 107.677  1.00  0.00    -0.387 OA
ATOM     28  H   UNL     1     119.062 125.364 106.932  1.00  0.00     0.211 HD
ENDBRANCH  20  27
BRANCH  21  29
ATOM     29  C   UNL     1     119.492 126.973 110.276  1.00  0.00     0.191 C 
BRANCH  29  30
ATOM     30  O   UNL     1     119.656 128.179 109.583  1.00  0.00    -0.394 OA
ATOM     31  H   UNL     1     118.747 128.491 109.330  1.00  0.00     0.210 HD
ENDBRANCH  29  30
ENDBRANCH  21  29
ENDBRANCH   1  17
TORSDOF 13
ENDMDL
MODEL 7
REMARK VINA RESULT:    -4.346      7.911      9.754
REMARK INTER + INTRA:          -7.972
REMARK INTER:                  -6.617
REMARK INTRA:                  -1.354
REMARK UNBOUND:                -1.339
REMARK SMILES OC[C@@H]1O[C@H](O[C@]2(CO)O[C@@H](CO)[C@@H](O)[C@H]2O)[C@H](O)[C@@H](O)[C@H]1O
REMARK SMILES IDX 6 1 5 2 3 3 22 4 4 5 20 6 18 7 2 8 1 9 23 11 21 13 19 15
REMARK SMILES IDX 7 17 16 18 10 19 14 20 11 21 8 22 9 23 17 25 15 27 12 29
REMARK SMILES IDX 13 30
REMARK H PARENT 1 10 23 12 21 14 19 16 9 24 17 26 15 28 13 31
REMARK Flexibility Score: inf
ROOT
ATOM      1  O   UNL     1     122.200 124.516 108.227  1.00  0.00    -0.313 OA
ENDROOT
BRANCH   1   2
ATOM      2  C   UNL     1     122.850 123.946 109.355  1.00  0.00     0.285 C 
ATOM      3  C   UNL     1     122.522 122.485 111.145  1.00  0.00     0.178 C 
ATOM      4  C   UNL     1     123.800 121.662 110.847  1.00  0.00     0.177 C 
ATOM      5  O   UNL     1     121.972 123.003 109.944  1.00  0.00    -0.341 OA
ATOM      6  C   UNL     1     124.819 122.488 110.026  1.00  0.00     0.179 C 
ATOM      7  C   UNL     1     124.136 123.246 108.870  1.00  0.00     0.202 C 
BRANCH   3   8
ATOM      8  C   UNL     1     121.462 121.615 111.835  1.00  0.00     0.191 C 
BRANCH   8   9
ATOM      9  O   UNL     1     121.693 120.259 111.564  1.00  0.00    -0.394 OA
ATOM     10  H   UNL     1     122.449 119.976 112.146  1.00  0.00     0.210 HD
ENDBRANCH   8   9
ENDBRANCH   3   8
BRANCH   4  11
ATOM     11  O   UNL     1     124.385 121.229 112.050  1.00  0.00    -0.387 OA
ATOM     12  H   UNL     1     123.650 121.152 112.716  1.00  0.00     0.211 HD
ENDBRANCH   4  11
BRANCH   6  13
ATOM     13  O   UNL     1     125.566 123.359 110.841  1.00  0.00    -0.387 OA
ATOM     14  H   UNL     1     125.569 124.255 110.421  1.00  0.00     0.211 HD
ENDBRANCH   6  13
BRANCH   7  15
ATOM     15  O   UNL     1     123.823 122.335 107.844  1.00  0.00    -0.385 OA
ATOM     16  H   UNL     1     123.022 122.691 107.378  1.00  0.00     0.211 HD
ENDBRANCH   7  15
ENDBRANCH   1   2
BRANCH   1  17
ATOM     17  C   UNL     1     121.936 125.912 108.350  1.00  0.00     0.224 C 
ATOM     18  C   UNL     1     120.653 126.218 107.533  1.00  0.00     0.208 C 
ATOM     19  O   UNL     1     121.679 126.266 109.704  1.00  0.00    -0.337 OA
ATOM     20  C   UNL     1     119.821 127.067 108.468  1.00  0.00     0.180 C 
ATOM     21  C   UNL     1     120.313 126.577 109.823  1.00  0.00     0.179 C 
BRANCH  17  22
ATOM     22  C   UNL     1     123.167 126.713 107.842  1.00  0.00     0.225 C 
BRANCH  22  23
ATOM     23  O   UNL     1     123.735 126.121 106.703  1.00  0.00    -0.391 OA
ATOM     24  H   UNL     1     124.710 126.298 106.743  1.00  0.00     0.210 HD
ENDBRANCH  22  23
ENDBRANCH  17  22
BRANCH  18  25
ATOM     25  O   UNL     1     120.917 126.861 106.310  1.00  0.00    -0.385 OA
ATOM     26  H   UNL     1     120.357 126.413 105.622  1.00  0.00     0.211 HD
ENDBRANCH  18  25
BRANCH  20  27
ATOM     27  O   UNL     1     120.107 128.434 108.294  1.00  0.00    -0.387 OA
ATOM     28  H   UNL     1     120.939 128.486 107.752  1.00  0.00     0.211 HD
ENDBRANCH  20  27
BRANCH  21  29
ATOM     29  C   UNL     1     120.096 127.585 110.958  1.00  0.00     0.191 C 
BRANCH  29  30
ATOM     30  O   UNL     1     118.844 128.199 110.824  1.00  0.00    -0.394 OA
ATOM     31  H   UNL     1     118.833 128.969 111.451  1.00  0.00     0.210 HD
ENDBRANCH  29  30
ENDBRANCH  21  29
ENDBRANCH   1  17
TORSDOF 13
ENDMDL
MODEL 8
REMARK VINA RESULT:    -4.345      1.715      3.412
REMARK INTER + INTRA:          -7.970
REMARK INTER:                  -6.446
REMARK INTRA:                  -1.523
REMARK UNBOUND:                -1.339
REMARK SMILES OC[C@@H]1O[C@H](O[C@]2(CO)O[C@@H](CO)[C@@H](O)[C@H]2O)[C@H](O)[C@@H](O)[C@H]1O
REMARK SMILES IDX 6 1 5 2 3 3 22 4 4 5 20 6 18 7 2 8 1 9 23 11 21 13 19 15
REMARK SMILES IDX 7 17 16 18 10 19 14 20 11 21 8 22 9 23 17 25 15 27 12 29
REMARK SMILES IDX 13 30
REMARK H PARENT 1 10 23 12 21 14 19 16 9 24 17 26 15 28 13 31
REMARK Flexibility Score: inf
ROOT
ATOM      1  O   UNL     1     113.333 121.246 108.933  1.00  0.00    -0.313 OA
ENDROOT
BRANCH   1   2
ATOM      2  C   UNL     1     113.559 119.947 108.403  1.00  0.00     0.285 C 
ATOM      3  C   UNL     1     113.464 117.679 108.945  1.00  0.00     0.178 C 
ATOM      4  C   UNL     1     112.632 117.304 107.692  1.00  0.00     0.177 C 
ATOM      5  O   UNL     1     113.155 118.996 109.373  1.00  0.00    -0.341 OA
ATOM      6  C   UNL     1     112.804 118.356 106.571  1.00  0.00     0.179 C 
ATOM      7  C   UNL     1     112.713 119.794 107.122  1.00  0.00     0.202 C 
BRANCH   3   8
ATOM      8  C   UNL     1     113.180 116.709 110.099  1.00  0.00     0.191 C 
BRANCH   8   9
ATOM      9  O   UNL     1     113.869 115.503 109.902  1.00  0.00    -0.394 OA
ATOM     10  H   UNL     1     114.518 115.662 109.164  1.00  0.00     0.210 HD
ENDBRANCH   8   9
ENDBRANCH   3   8
BRANCH   4  11
ATOM     11  O   UNL     1     113.012 116.033 107.226  1.00  0.00    -0.387 OA
ATOM     12  H   UNL     1     112.577 115.909 106.341  1.00  0.00     0.211 HD
ENDBRANCH   4  11
BRANCH   6  13
ATOM     13  O   UNL     1     113.993 118.160 105.844  1.00  0.00    -0.387 OA
ATOM     14  H   UNL     1     114.758 118.235 106.467  1.00  0.00     0.211 HD
ENDBRANCH   6  13
BRANCH   7  15
ATOM     15  O   UNL     1     111.366 120.094 107.403  1.00  0.00    -0.385 OA
ATOM     16  H   UNL     1     111.080 119.479 108.128  1.00  0.00     0.211 HD
ENDBRANCH   7  15
ENDBRANCH   1   2
BRANCH   1  17
ATOM     17  C   UNL     1     114.514 121.898 109.398  1.00  0.00     0.224 C 
ATOM     18  C   UNL     1     114.236 122.390 110.843  1.00  0.00     0.208 C 
ATOM     19  O   UNL     1     115.610 120.993 109.453  1.00  0.00    -0.337 OA
ATOM     20  C   UNL     1     115.461 121.953 111.615  1.00  0.00     0.180 C 
ATOM     21  C   UNL     1     115.901 120.742 110.806  1.00  0.00     0.179 C 
BRANCH  17  22
ATOM     22  C   UNL     1     114.868 123.064 108.434  1.00  0.00     0.225 C 
BRANCH  22  23
ATOM     23  O   UNL     1     116.087 123.669 108.778  1.00  0.00    -0.391 OA
ATOM     24  H   UNL     1     116.001 124.633 108.557  1.00  0.00     0.210 HD
ENDBRANCH  22  23
ENDBRANCH  17  22
BRANCH  18  25
ATOM     25  O   UNL     1     114.013 123.776 110.922  1.00  0.00    -0.385 OA
ATOM     26  H   UNL     1     113.031 123.914 110.866  1.00  0.00     0.211 HD
ENDBRANCH  18  25
BRANCH  20  27
ATOM     27  O   UNL     1     116.449 122.955 111.599  1.00  0.00    -0.387 OA
ATOM     28  H   UNL     1     115.985 123.818 111.764  1.00  0.00     0.211 HD
ENDBRANCH  20  27
BRANCH  21  29
ATOM     29  C   UNL     1     117.386 120.396 110.972  1.00  0.00     0.191 C 
BRANCH  29  30
ATOM     30  O   UNL     1     118.159 121.155 110.085  1.00  0.00    -0.394 OA
ATOM     31  H   UNL     1     117.904 120.874 109.168  1.00  0.00     0.210 HD
ENDBRANCH  29  30
ENDBRANCH  21  29
ENDBRANCH   1  17
TORSDOF 13
ENDMDL
MODEL 9
REMARK VINA RESULT:    -4.337      8.703     11.299
REMARK INTER + INTRA:          -7.957
REMARK INTER:                  -6.663
REMARK INTRA:                  -1.294
REMARK UNBOUND:                -1.339
REMARK SMILES OC[C@@H]1O[C@H](O[C@]2(CO)O[C@@H](CO)[C@@H](O)[C@H]2O)[C@H](O)[C@@H](O)[C@H]1O
REMARK SMILES IDX 6 1 5 2 3 3 22 4 4 5 20 6 18 7 2 8 1 9 23 11 21 13 19 15
REMARK SMILES IDX 7 17 16 18 10 19 14 20 11 21 8 22 9 23 17 25 15 27 12 29
REMARK SMILES IDX 13 30
REMARK H PARENT 1 10 23 12 21 14 19 16 9 24 17 26 15 28 13 31
REMARK Flexibility Score: inf
ROOT
ATOM      1  O   UNL     1     124.422 124.603 108.545  1.00  0.00    -0.313 OA
ENDROOT
BRANCH   1   2
ATOM      2  C   UNL     1     123.146 125.144 108.233  1.00  0.00     0.285 C 
ATOM      3  C   UNL     1     121.323 126.261 109.169  1.00  0.00     0.178 C 
ATOM      4  C   UNL     1     121.302 127.363 108.080  1.00  0.00     0.177 C 
ATOM      5  O   UNL     1     122.647 125.800 109.386  1.00  0.00    -0.341 OA
ATOM      6  C   UNL     1     121.989 126.880 106.781  1.00  0.00     0.179 C 
ATOM      7  C   UNL     1     123.317 126.153 107.078  1.00  0.00     0.202 C 
BRANCH   3   8
ATOM      8  C   UNL     1     120.765 126.794 110.495  1.00  0.00     0.191 C 
BRANCH   8   9
ATOM      9  O   UNL     1     119.364 126.797 110.469  1.00  0.00    -0.394 OA
ATOM     10  H   UNL     1     119.066 126.040 111.043  1.00  0.00     0.210 HD
ENDBRANCH   8   9
ENDBRANCH   3   8
BRANCH   4  11
ATOM     11  O   UNL     1     119.976 127.748 107.811  1.00  0.00    -0.387 OA
ATOM     12  H   UNL     1     119.568 127.020 107.271  1.00  0.00     0.211 HD
ENDBRANCH   4  11
BRANCH   6  13
ATOM     13  O   UNL     1     121.133 126.085 105.997  1.00  0.00    -0.387 OA
ATOM     14  H   UNL     1     121.636 125.770 105.205  1.00  0.00     0.211 HD
ENDBRANCH   6  13
BRANCH   7  15
ATOM     15  O   UNL     1     124.296 127.104 107.420  1.00  0.00    -0.385 OA
ATOM     16  H   UNL     1     123.927 127.995 107.182  1.00  0.00     0.211 HD
ENDBRANCH   7  15
ENDBRANCH   1   2
BRANCH   1  17
ATOM     17  C   UNL     1     124.378 123.290 109.103  1.00  0.00     0.224 C 
ATOM     18  C   UNL     1     122.885 122.891 109.236  1.00  0.00     0.208 C 
ATOM     19  O   UNL     1     125.001 122.347 108.239  1.00  0.00    -0.337 OA
ATOM     20  C   UNL     1     122.832 121.491 108.665  1.00  0.00     0.180 C 
ATOM     21  C   UNL     1     123.998 121.530 107.688  1.00  0.00     0.179 C 
BRANCH  17  22
ATOM     22  C   UNL     1     125.116 123.291 110.470  1.00  0.00     0.225 C 
BRANCH  22  23
ATOM     23  O   UNL     1     124.883 124.476 111.184  1.00  0.00    -0.391 OA
ATOM     24  H   UNL     1     125.586 125.120 110.908  1.00  0.00     0.210 HD
ENDBRANCH  22  23
ENDBRANCH  17  22
BRANCH  18  25
ATOM     25  O   UNL     1     122.412 122.953 110.559  1.00  0.00    -0.385 OA
ATOM     26  H   UNL     1     121.511 123.370 110.525  1.00  0.00     0.211 HD
ENDBRANCH  18  25
BRANCH  20  27
ATOM     27  O   UNL     1     123.049 120.530 109.669  1.00  0.00    -0.387 OA
ATOM     28  H   UNL     1     122.421 119.781 109.490  1.00  0.00     0.211 HD
ENDBRANCH  20  27
BRANCH  21  29
ATOM     29  C   UNL     1     124.567 120.146 107.353  1.00  0.00     0.191 C 
BRANCH  29  30
ATOM     30  O   UNL     1     123.532 119.273 106.996  1.00  0.00    -0.394 OA
ATOM     31  H   UNL     1     123.355 118.699 107.786  1.00  0.00     0.210 HD
ENDBRANCH  29  30
ENDBRANCH  21  29
ENDBRANCH   1  17
TORSDOF 13
ENDMDL
