MODEL 1
REMARK VINA RESULT:    -3.910      0.000      0.000
REMARK INTER + INTRA:          -5.311
REMARK INTER:                  -5.167
REMARK INTRA:                  -0.144
REMARK UNBOUND:                -0.144
REMARK SMILES CCCCCCCO
REMARK SMILES IDX 5 1 4 2 3 3 2 4 1 5 6 6 7 7 8 8
REMARK H PARENT 8 9
REMARK Flexibility Score: inf
ROOT
ATOM      1  C   UNL     1      21.759 -22.872  18.320  1.00  0.00     0.002 C 
ENDROOT
BRANCH   1   2
ATOM      2  C   UNL     1      23.296 -22.805  18.294  1.00  0.00     0.000 C 
BRANCH   2   3
ATOM      3  C   UNL     1      23.819 -21.400  17.953  1.00  0.00    -0.000 C 
BRANCH   3   4
ATOM      4  C   UNL     1      22.686 -20.390  17.711  1.00  0.00    -0.003 C 
ATOM      5  C   UNL     1      23.141 -19.270  16.778  1.00  0.00     0.004 C 
ENDBRANCH   3   4
ENDBRANCH   2   3
ENDBRANCH   1   2
BRANCH   1   6
ATOM      6  C   UNL     1      21.213 -24.255  17.928  1.00  0.00     0.028 C 
BRANCH   6   7
ATOM      7  C   UNL     1      19.792 -24.214  17.345  1.00  0.00     0.156 C 
BRANCH   7   8
ATOM      8  O   UNL     1      18.828 -24.136  18.360  1.00  0.00    -0.396 OA
ATOM      9  H   UNL     1      18.562 -25.068  18.573  1.00  0.00     0.210 HD
ENDBRANCH   7   8
ENDBRANCH   6   7
ENDBRANCH   1   6
TORSDOF 6
ENDMDL
MODEL 2
REMARK VINA RESULT:    -3.846      2.996      4.968
REMARK INTER + INTRA:          -5.226
REMARK INTER:                  -5.048
REMARK INTRA:                  -0.178
REMARK UNBOUND:                -0.144
REMARK SMILES CCCCCCCO
REMARK SMILES IDX 5 1 4 2 3 3 2 4 1 5 6 6 7 7 8 8
REMARK H PARENT 8 9
REMARK Flexibility Score: inf
ROOT
ATOM      1  C   UNL     1      21.481 -23.544  17.979  1.00  0.00     0.002 C 
ENDROOT
BRANCH   1   2
ATOM      2  C   UNL     1      21.899 -24.624  18.992  1.00  0.00     0.000 C 
BRANCH   2   3
ATOM      3  C   UNL     1      20.769 -24.981  19.971  1.00  0.00    -0.000 C 
BRANCH   3   4
ATOM      4  C   UNL     1      21.295 -25.472  21.329  1.00  0.00    -0.003 C 
ATOM      5  C   UNL     1      22.747 -25.928  21.222  1.00  0.00     0.004 C 
ENDBRANCH   3   4
ENDBRANCH   2   3
ENDBRANCH   1   2
BRANCH   1   6
ATOM      6  C   UNL     1      22.184 -22.197  18.216  1.00  0.00     0.028 C 
BRANCH   6   7
ATOM      7  C   UNL     1      23.621 -22.334  18.740  1.00  0.00     0.156 C 
BRANCH   7   8
ATOM      8  O   UNL     1      23.846 -21.486  19.834  1.00  0.00    -0.396 OA
ATOM      9  H   UNL     1      24.516 -21.937  20.411  1.00  0.00     0.210 HD
ENDBRANCH   7   8
ENDBRANCH   6   7
ENDBRANCH   1   6
TORSDOF 6
ENDMDL
MODEL 3
REMARK VINA RESULT:    -3.817      1.752      2.404
REMARK INTER + INTRA:          -5.188
REMARK INTER:                  -4.968
REMARK INTRA:                  -0.220
REMARK UNBOUND:                -0.144
REMARK SMILES CCCCCCCO
REMARK SMILES IDX 5 1 4 2 3 3 2 4 1 5 6 6 7 7 8 8
REMARK H PARENT 8 9
REMARK Flexibility Score: inf
ROOT
ATOM      1  C   UNL     1      20.820 -24.556  18.503  1.00  0.00     0.002 C 
ENDROOT
BRANCH   1   2
ATOM      2  C   UNL     1      21.563 -23.321  17.967  1.00  0.00     0.000 C 
BRANCH   2   3
ATOM      3  C   UNL     1      22.959 -23.157  18.589  1.00  0.00    -0.000 C 
BRANCH   3   4
ATOM      4  C   UNL     1      23.661 -21.866  18.137  1.00  0.00    -0.003 C 
ATOM      5  C   UNL     1      22.651 -20.747  17.901  1.00  0.00     0.004 C 
ENDBRANCH   3   4
ENDBRANCH   2   3
ENDBRANCH   1   2
BRANCH   1   6
ATOM      6  C   UNL     1      21.586 -25.274  19.628  1.00  0.00     0.028 C 
BRANCH   6   7
ATOM      7  C   UNL     1      20.868 -25.233  20.986  1.00  0.00     0.156 C 
BRANCH   7   8
ATOM      8  O   UNL     1      19.928 -24.194  21.032  1.00  0.00    -0.396 OA
ATOM      9  H   UNL     1      19.176 -24.463  20.443  1.00  0.00     0.210 HD
ENDBRANCH   7   8
ENDBRANCH   6   7
ENDBRANCH   1   6
TORSDOF 6
ENDMDL
MODEL 4
REMARK VINA RESULT:    -3.762      2.620      4.710
REMARK INTER + INTRA:          -5.115
REMARK INTER:                  -4.988
REMARK INTRA:                  -0.127
REMARK UNBOUND:                -0.144
REMARK SMILES CCCCCCCO
REMARK SMILES IDX 5 1 4 2 3 3 2 4 1 5 6 6 7 7 8 8
REMARK H PARENT 8 9
REMARK Flexibility Score: inf
ROOT
ATOM      1  C   UNL     1      23.910 -21.278  17.912  1.00  0.00     0.002 C 
ENDROOT
BRANCH   1   2
ATOM      2  C   UNL     1      23.432 -22.708  18.218  1.00  0.00     0.000 C 
BRANCH   2   3
ATOM      3  C   UNL     1      21.900 -22.822  18.252  1.00  0.00    -0.000 C 
BRANCH   3   4
ATOM      4  C   UNL     1      21.412 -24.276  18.142  1.00  0.00    -0.003 C 
ATOM      5  C   UNL     1      20.010 -24.340  17.542  1.00  0.00     0.004 C 
ENDBRANCH   3   4
ENDBRANCH   2   3
ENDBRANCH   1   2
BRANCH   1   6
ATOM      6  C   UNL     1      22.752 -20.312  17.608  1.00  0.00     0.028 C 
BRANCH   6   7
ATOM      7  C   UNL     1      23.194 -19.024  16.897  1.00  0.00     0.156 C 
BRANCH   7   8
ATOM      8  O   UNL     1      22.683 -17.888  17.541  1.00  0.00    -0.396 OA
ATOM      9  H   UNL     1      23.395 -17.560  18.150  1.00  0.00     0.210 HD
ENDBRANCH   7   8
ENDBRANCH   6   7
ENDBRANCH   1   6
TORSDOF 6
ENDMDL
MODEL 5
REMARK VINA RESULT:    -3.639     13.465     15.076
REMARK INTER + INTRA:          -4.953
REMARK INTER:                  -4.749
REMARK INTRA:                  -0.205
REMARK UNBOUND:                -0.144
REMARK SMILES CCCCCCCO
REMARK SMILES IDX 5 1 4 2 3 3 2 4 1 5 6 6 7 7 8 8
REMARK H PARENT 8 9
REMARK Flexibility Score: inf
ROOT
ATOM      1  C   UNL     1       7.381 -24.075  15.519  1.00  0.00     0.002 C 
ENDROOT
BRANCH   1   2
ATOM      2  C   UNL     1       6.833 -25.294  14.758  1.00  0.00     0.000 C 
BRANCH   2   3
ATOM      3  C   UNL     1       7.853 -25.879  13.768  1.00  0.00    -0.000 C 
BRANCH   3   4
ATOM      4  C   UNL     1       9.276 -25.346  14.001  1.00  0.00    -0.003 C 
ATOM      5  C   UNL     1      10.299 -26.478  13.961  1.00  0.00     0.004 C 
ENDBRANCH   3   4
ENDBRANCH   2   3
ENDBRANCH   1   2
BRANCH   1   6
ATOM      6  C   UNL     1       7.233 -24.204  17.044  1.00  0.00     0.028 C 
BRANCH   6   7
ATOM      7  C   UNL     1       5.827 -23.862  17.559  1.00  0.00     0.156 C 
BRANCH   7   8
ATOM      8  O   UNL     1       5.352 -22.674  16.987  1.00  0.00    -0.396 OA
ATOM      9  H   UNL     1       4.583 -22.377  17.541  1.00  0.00     0.210 HD
ENDBRANCH   7   8
ENDBRANCH   6   7
ENDBRANCH   1   6
TORSDOF 6
ENDMDL
MODEL 6
REMARK VINA RESULT:    -3.519     13.323     14.763
REMARK INTER + INTRA:          -4.793
REMARK INTER:                  -4.605
REMARK INTRA:                  -0.189
REMARK UNBOUND:                -0.144
REMARK SMILES CCCCCCCO
REMARK SMILES IDX 5 1 4 2 3 3 2 4 1 5 6 6 7 7 8 8
REMARK H PARENT 8 9
REMARK Flexibility Score: inf
ROOT
ATOM      1  C   UNL     1       6.925 -25.247  14.471  1.00  0.00     0.002 C 
ENDROOT
BRANCH   1   2
ATOM      2  C   UNL     1       7.996 -25.928  13.601  1.00  0.00     0.000 C 
BRANCH   2   3
ATOM      3  C   UNL     1       9.420 -25.472  13.957  1.00  0.00    -0.000 C 
BRANCH   3   4
ATOM      4  C   UNL     1      10.412 -26.643  14.043  1.00  0.00    -0.003 C 
ATOM      5  C   UNL     1       9.864 -27.880  13.336  1.00  0.00     0.004 C 
ENDBRANCH   3   4
ENDBRANCH   2   3
ENDBRANCH   1   2
BRANCH   1   6
ATOM      6  C   UNL     1       7.487 -24.095  15.321  1.00  0.00     0.028 C 
BRANCH   6   7
ATOM      7  C   UNL     1       6.825 -23.968  16.701  1.00  0.00     0.156 C 
BRANCH   7   8
ATOM      8  O   UNL     1       6.026 -22.819  16.778  1.00  0.00    -0.396 OA
ATOM      9  H   UNL     1       5.781 -22.579  15.846  1.00  0.00     0.210 HD
ENDBRANCH   7   8
ENDBRANCH   6   7
ENDBRANCH   1   6
TORSDOF 6
ENDMDL
MODEL 7
REMARK VINA RESULT:    -3.453     11.732     13.953
REMARK INTER + INTRA:          -4.707
REMARK INTER:                  -4.517
REMARK INTRA:                  -0.189
REMARK UNBOUND:                -0.144
REMARK SMILES CCCCCCCO
REMARK SMILES IDX 5 1 4 2 3 3 2 4 1 5 6 6 7 7 8 8
REMARK H PARENT 8 9
REMARK Flexibility Score: inf
ROOT
ATOM      1  C   UNL     1       9.369 -25.405  13.972  1.00  0.00     0.002 C 
ENDROOT
BRANCH   1   2
ATOM      2  C   UNL     1       7.939 -25.878  13.662  1.00  0.00     0.000 C 
BRANCH   2   3
ATOM      3  C   UNL     1       6.896 -25.258  14.606  1.00  0.00    -0.000 C 
BRANCH   3   4
ATOM      4  C   UNL     1       7.466 -24.099  15.439  1.00  0.00    -0.003 C 
ATOM      5  C   UNL     1       7.393 -24.410  16.932  1.00  0.00     0.004 C 
ENDBRANCH   3   4
ENDBRANCH   2   3
ENDBRANCH   1   2
BRANCH   1   6
ATOM      6  C   UNL     1      10.320 -26.562  14.324  1.00  0.00     0.028 C 
BRANCH   6   7
ATOM      7  C   UNL     1      11.733 -26.396  13.747  1.00  0.00     0.156 C 
BRANCH   7   8
ATOM      8  O   UNL     1      12.637 -25.969  14.730  1.00  0.00    -0.396 OA
ATOM      9  H   UNL     1      12.616 -26.650  15.452  1.00  0.00     0.210 HD
ENDBRANCH   7   8
ENDBRANCH   6   7
ENDBRANCH   1   6
TORSDOF 6
ENDMDL
MODEL 8
REMARK VINA RESULT:    -3.377      7.930     10.054
REMARK INTER + INTRA:          -4.606
REMARK INTER:                  -4.398
REMARK INTRA:                  -0.209
REMARK UNBOUND:                -0.144
REMARK SMILES CCCCCCCO
REMARK SMILES IDX 5 1 4 2 3 3 2 4 1 5 6 6 7 7 8 8
REMARK H PARENT 8 9
REMARK Flexibility Score: inf
ROOT
ATOM      1  C   UNL     1      13.036 -25.310  11.863  1.00  0.00     0.002 C 
ENDROOT
BRANCH   1   2
ATOM      2  C   UNL     1      13.315 -23.914  11.279  1.00  0.00     0.000 C 
BRANCH   2   3
ATOM      3  C   UNL     1      14.491 -23.210  11.975  1.00  0.00    -0.000 C 
BRANCH   3   4
ATOM      4  C   UNL     1      15.808 -23.993  11.852  1.00  0.00    -0.003 C 
ATOM      5  C   UNL     1      16.405 -24.280  13.227  1.00  0.00     0.004 C 
ENDBRANCH   3   4
ENDBRANCH   2   3
ENDBRANCH   1   2
BRANCH   1   6
ATOM      6  C   UNL     1      12.220 -25.263  13.165  1.00  0.00     0.028 C 
BRANCH   6   7
ATOM      7  C   UNL     1      12.319 -26.547  14.002  1.00  0.00     0.156 C 
BRANCH   7   8
ATOM      8  O   UNL     1      12.448 -26.255  15.367  1.00  0.00    -0.396 OA
ATOM      9  H   UNL     1      12.492 -27.126  15.843  1.00  0.00     0.210 HD
ENDBRANCH   7   8
ENDBRANCH   6   7
ENDBRANCH   1   6
TORSDOF 6
ENDMDL
MODEL 9
REMARK VINA RESULT:    -3.357     12.278     13.730
REMARK INTER + INTRA:          -4.580
REMARK INTER:                  -4.304
REMARK INTRA:                  -0.276
REMARK UNBOUND:                -0.144
REMARK SMILES CCCCCCCO
REMARK SMILES IDX 5 1 4 2 3 3 2 4 1 5 6 6 7 7 8 8
REMARK H PARENT 8 9
REMARK Flexibility Score: inf
ROOT
ATOM      1  C   UNL     1      10.031 -27.137  14.584  1.00  0.00     0.002 C 
ENDROOT
BRANCH   1   2
ATOM      2  C   UNL     1       9.481 -25.808  14.038  1.00  0.00     0.000 C 
BRANCH   2   3
ATOM      3  C   UNL     1       7.976 -25.875  13.731  1.00  0.00    -0.000 C 
BRANCH   3   4
ATOM      4  C   UNL     1       7.215 -24.635  14.228  1.00  0.00    -0.003 C 
ATOM      5  C   UNL     1       7.678 -24.231  15.625  1.00  0.00     0.004 C 
ENDBRANCH   3   4
ENDBRANCH   2   3
ENDBRANCH   1   2
BRANCH   1   6
ATOM      6  C   UNL     1      10.835 -26.964  15.883  1.00  0.00     0.028 C 
BRANCH   6   7
ATOM      7  C   UNL     1       9.959 -26.827  17.137  1.00  0.00     0.156 C 
BRANCH   7   8
ATOM      8  O   UNL     1      10.374 -25.749  17.932  1.00  0.00    -0.396 OA
ATOM      9  H   UNL     1      10.161 -24.922  17.425  1.00  0.00     0.210 HD
ENDBRANCH   7   8
ENDBRANCH   6   7
ENDBRANCH   1   6
TORSDOF 6
ENDMDL
