MODEL 1
REMARK VINA RESULT:    -4.784      0.000      0.000
REMARK INTER + INTRA:          -8.462
REMARK INTER:                  -7.301
REMARK INTRA:                  -1.161
REMARK UNBOUND:                -1.161
REMARK SMILES CCCCCCCCCCC(=O)[O-]
REMARK SMILES IDX 7 1 8 2 9 3 10 4 11 5 12 6 13 7 6 8 5 9 4 10 3 11 2 12 1 13
REMARK H PARENT
REMARK Flexibility Score: inf
ROOT
ATOM      1  C   UNL     1      31.266  17.180   7.480  1.00  0.00     0.000 C 
ENDROOT
BRANCH   1   2
ATOM      2  C   UNL     1      31.740  18.596   7.131  1.00  0.00     0.000 C 
BRANCH   2   3
ATOM      3  C   UNL     1      32.205  19.346   8.388  1.00  0.00     0.006 C 
BRANCH   3   4
ATOM      4  C   UNL     1      32.250  18.437   9.623  1.00  0.00     0.053 C 
BRANCH   4   5
ATOM      5  C   UNL     1      31.995  19.202  10.885  1.00  0.00     0.041 C 
ATOM      6  O   UNL     1      32.942  19.785  11.476  1.00  0.00    -0.550 OA
ATOM      7  O   UNL     1      30.715  19.245  11.425  1.00  0.00    -0.550 OA
ENDBRANCH   4   5
ENDBRANCH   3   4
ENDBRANCH   2   3
ENDBRANCH   1   2
BRANCH   1   8
ATOM      8  C   UNL     1      30.394  16.601   6.360  1.00  0.00     0.000 C 
BRANCH   8   9
ATOM      9  C   UNL     1      29.596  17.705   5.655  1.00  0.00    -0.000 C 
BRANCH   9  10
ATOM     10  C   UNL     1      28.086  17.464   5.792  1.00  0.00    -0.000 C 
BRANCH  10  11
ATOM     11  C   UNL     1      27.480  18.178   7.010  1.00  0.00    -0.000 C 
BRANCH  11  12
ATOM     12  C   UNL     1      28.089  19.568   7.245  1.00  0.00    -0.003 C 
ATOM     13  C   UNL     1      28.529  19.737   8.696  1.00  0.00     0.004 C 
ENDBRANCH  11  12
ENDBRANCH  10  11
ENDBRANCH   9  10
ENDBRANCH   8   9
ENDBRANCH   1   8
TORSDOF 9
ENDMDL
MODEL 2
REMARK VINA RESULT:    -4.758     14.040     16.063
REMARK INTER + INTRA:          -8.422
REMARK INTER:                  -7.410
REMARK INTRA:                  -1.012
REMARK UNBOUND:                -1.161
REMARK SMILES CCCCCCCCCCC(=O)[O-]
REMARK SMILES IDX 7 1 8 2 9 3 10 4 11 5 12 6 13 7 6 8 5 9 4 10 3 11 2 12 1 13
REMARK H PARENT
REMARK Flexibility Score: inf
ROOT
ATOM      1  C   UNL     1      15.634  22.230  14.660  1.00  0.00     0.000 C 
ENDROOT
BRANCH   1   2
ATOM      2  C   UNL     1      15.304  20.773  15.004  1.00  0.00     0.000 C 
BRANCH   2   3
ATOM      3  C   UNL     1      16.224  20.249  16.117  1.00  0.00     0.006 C 
BRANCH   3   4
ATOM      4  C   UNL     1      16.482  21.303  17.201  1.00  0.00     0.053 C 
BRANCH   4   5
ATOM      5  C   UNL     1      16.030  20.834  18.550  1.00  0.00     0.041 C 
ATOM      6  O   UNL     1      14.892  21.153  18.983  1.00  0.00    -0.550 OA
ATOM      7  O   UNL     1      16.879  20.069  19.340  1.00  0.00    -0.550 OA
ENDBRANCH   4   5
ENDBRANCH   3   4
ENDBRANCH   2   3
ENDBRANCH   1   2
BRANCH   1   8
ATOM      8  C   UNL     1      15.378  22.516  13.175  1.00  0.00     0.000 C 
BRANCH   8   9
ATOM      9  C   UNL     1      15.577  21.252  12.328  1.00  0.00    -0.000 C 
BRANCH   9  10
ATOM     10  C   UNL     1      16.707  21.447  11.307  1.00  0.00    -0.000 C 
BRANCH  10  11
ATOM     11  C   UNL     1      17.970  20.646  11.662  1.00  0.00    -0.000 C 
BRANCH  11  12
ATOM     12  C   UNL     1      17.669  19.426  12.543  1.00  0.00    -0.003 C 
ATOM     13  C   UNL     1      18.760  19.221  13.591  1.00  0.00     0.004 C 
ENDBRANCH  11  12
ENDBRANCH  10  11
ENDBRANCH   9  10
ENDBRANCH   8   9
ENDBRANCH   1   8
TORSDOF 9
ENDMDL
MODEL 3
REMARK VINA RESULT:    -4.679     15.596     17.627
REMARK INTER + INTRA:          -8.301
REMARK INTER:                  -7.745
REMARK INTRA:                  -0.557
REMARK UNBOUND:                -1.161
REMARK SMILES CCCCCCCCCCC(=O)[O-]
REMARK SMILES IDX 7 1 8 2 9 3 10 4 11 5 12 6 13 7 6 8 5 9 4 10 3 11 2 12 1 13
REMARK H PARENT
REMARK Flexibility Score: inf
ROOT
ATOM      1  C   UNL     1      15.561  22.682  16.619  1.00  0.00     0.000 C 
ENDROOT
BRANCH   1   2
ATOM      2  C   UNL     1      14.086  22.820  17.015  1.00  0.00     0.000 C 
BRANCH   2   3
ATOM      3  C   UNL     1      13.901  22.612  18.527  1.00  0.00     0.006 C 
BRANCH   3   4
ATOM      4  C   UNL     1      14.054  21.140  18.933  1.00  0.00     0.053 C 
BRANCH   4   5
ATOM      5  C   UNL     1      15.195  20.943  19.883  1.00  0.00     0.041 C 
ATOM      6  O   UNL     1      15.046  21.179  21.111  1.00  0.00    -0.550 OA
ATOM      7  O   UNL     1      16.432  20.527  19.406  1.00  0.00    -0.550 OA
ENDBRANCH   4   5
ENDBRANCH   3   4
ENDBRANCH   2   3
ENDBRANCH   1   2
BRANCH   1   8
ATOM      8  C   UNL     1      15.747  21.588  15.562  1.00  0.00     0.000 C 
BRANCH   8   9
ATOM      9  C   UNL     1      14.728  21.741  14.425  1.00  0.00    -0.000 C 
BRANCH   9  10
ATOM     10  C   UNL     1      15.388  22.334  13.172  1.00  0.00    -0.000 C 
BRANCH  10  11
ATOM     11  C   UNL     1      15.486  21.323  12.019  1.00  0.00    -0.000 C 
BRANCH  11  12
ATOM     12  C   UNL     1      16.799  21.446  11.233  1.00  0.00    -0.003 C 
ATOM     13  C   UNL     1      17.889  20.568  11.841  1.00  0.00     0.004 C 
ENDBRANCH  11  12
ENDBRANCH  10  11
ENDBRANCH   9  10
ENDBRANCH   8   9
ENDBRANCH   1   8
TORSDOF 9
ENDMDL
MODEL 4
REMARK VINA RESULT:    -4.669     16.059     18.287
REMARK INTER + INTRA:          -8.287
REMARK INTER:                  -7.328
REMARK INTRA:                  -0.959
REMARK UNBOUND:                -1.161
REMARK SMILES CCCCCCCCCCC(=O)[O-]
REMARK SMILES IDX 7 1 8 2 9 3 10 4 11 5 12 6 13 7 6 8 5 9 4 10 3 11 2 12 1 13
REMARK H PARENT
REMARK Flexibility Score: inf
ROOT
ATOM      1  C   UNL     1      14.696  23.003  17.287  1.00  0.00     0.000 C 
ENDROOT
BRANCH   1   2
ATOM      2  C   UNL     1      14.263  22.168  16.077  1.00  0.00     0.000 C 
BRANCH   2   3
ATOM      3  C   UNL     1      15.481  21.723  15.252  1.00  0.00     0.006 C 
BRANCH   3   4
ATOM      4  C   UNL     1      15.598  22.493  13.930  1.00  0.00     0.053 C 
BRANCH   4   5
ATOM      5  C   UNL     1      15.307  21.616  12.751  1.00  0.00     0.041 C 
ATOM      6  O   UNL     1      14.554  20.615  12.876  1.00  0.00    -0.550 OA
ATOM      7  O   UNL     1      15.893  21.888  11.521  1.00  0.00    -0.550 OA
ENDBRANCH   4   5
ENDBRANCH   3   4
ENDBRANCH   2   3
ENDBRANCH   1   2
BRANCH   1   8
ATOM      8  C   UNL     1      13.899  22.614  18.538  1.00  0.00     0.000 C 
BRANCH   8   9
ATOM      9  C   UNL     1      14.044  21.117  18.840  1.00  0.00    -0.000 C 
BRANCH   9  10
ATOM     10  C   UNL     1      14.776  20.894  20.171  1.00  0.00    -0.000 C 
BRANCH  10  11
ATOM     11  C   UNL     1      16.213  20.384  19.979  1.00  0.00    -0.000 C 
BRANCH  11  12
ATOM     12  C   UNL     1      16.487  19.915  18.543  1.00  0.00    -0.003 C 
ATOM     13  C   UNL     1      17.785  20.513  18.008  1.00  0.00     0.004 C 
ENDBRANCH  11  12
ENDBRANCH  10  11
ENDBRANCH   9  10
ENDBRANCH   8   9
ENDBRANCH   1   8
TORSDOF 9
ENDMDL
MODEL 5
REMARK VINA RESULT:    -4.664     13.508     15.566
REMARK INTER + INTRA:          -8.279
REMARK INTER:                  -7.425
REMARK INTRA:                  -0.855
REMARK UNBOUND:                -1.161
REMARK SMILES CCCCCCCCCCC(=O)[O-]
REMARK SMILES IDX 7 1 8 2 9 3 10 4 11 5 12 6 13 7 6 8 5 9 4 10 3 11 2 12 1 13
REMARK H PARENT
REMARK Flexibility Score: inf
ROOT
ATOM      1  C   UNL     1      15.357  21.300  12.512  1.00  0.00     0.000 C 
ENDROOT
BRANCH   1   2
ATOM      2  C   UNL     1      15.392  22.583  13.350  1.00  0.00     0.000 C 
BRANCH   2   3
ATOM      3  C   UNL     1      15.382  22.258  14.852  1.00  0.00     0.006 C 
BRANCH   3   4
ATOM      4  C   UNL     1      15.457  20.749  15.120  1.00  0.00     0.053 C 
BRANCH   4   5
ATOM      5  C   UNL     1      15.479  20.448  16.587  1.00  0.00     0.041 C 
ATOM      6  O   UNL     1      16.384  19.717  17.071  1.00  0.00    -0.550 OA
ATOM      7  O   UNL     1      14.483  20.949  17.415  1.00  0.00    -0.550 OA
ENDBRANCH   4   5
ENDBRANCH   3   4
ENDBRANCH   2   3
ENDBRANCH   1   2
BRANCH   1   8
ATOM      8  C   UNL     1      16.104  21.489  11.186  1.00  0.00     0.000 C 
BRANCH   8   9
ATOM      9  C   UNL     1      17.114  20.357  10.957  1.00  0.00    -0.000 C 
BRANCH   9  10
ATOM     10  C   UNL     1      18.191  20.352  12.052  1.00  0.00    -0.000 C 
BRANCH  10  11
ATOM     11  C   UNL     1      18.215  19.041  12.853  1.00  0.00    -0.000 C 
BRANCH  11  12
ATOM     12  C   UNL     1      18.671  19.242  14.305  1.00  0.00    -0.003 C 
ATOM     13  C   UNL     1      19.560  18.090  14.767  1.00  0.00     0.004 C 
ENDBRANCH  11  12
ENDBRANCH  10  11
ENDBRANCH   9  10
ENDBRANCH   8   9
ENDBRANCH   1   8
TORSDOF 9
ENDMDL
MODEL 6
REMARK VINA RESULT:    -4.660     13.670     15.343
REMARK INTER + INTRA:          -8.274
REMARK INTER:                  -7.288
REMARK INTRA:                  -0.986
REMARK UNBOUND:                -1.161
REMARK SMILES CCCCCCCCCCC(=O)[O-]
REMARK SMILES IDX 7 1 8 2 9 3 10 4 11 5 12 6 13 7 6 8 5 9 4 10 3 11 2 12 1 13
REMARK H PARENT
REMARK Flexibility Score: inf
ROOT
ATOM      1  C   UNL     1      18.702  18.991  13.621  1.00  0.00     0.000 C 
ENDROOT
BRANCH   1   2
ATOM      2  C   UNL     1      18.188  19.588  14.936  1.00  0.00     0.000 C 
BRANCH   2   3
ATOM      3  C   UNL     1      16.701  19.262  15.144  1.00  0.00     0.006 C 
BRANCH   3   4
ATOM      4  C   UNL     1      16.223  19.609  16.560  1.00  0.00     0.053 C 
BRANCH   4   5
ATOM      5  C   UNL     1      16.230  18.410  17.457  1.00  0.00     0.041 C 
ATOM      6  O   UNL     1      16.045  18.543  18.695  1.00  0.00    -0.550 OA
ATOM      7  O   UNL     1      16.472  17.148  16.928  1.00  0.00    -0.550 OA
ENDBRANCH   4   5
ENDBRANCH   3   4
ENDBRANCH   2   3
ENDBRANCH   1   2
BRANCH   1   8
ATOM      8  C   UNL     1      17.717  19.255  12.476  1.00  0.00     0.000 C 
BRANCH   8   9
ATOM      9  C   UNL     1      18.050  20.567  11.754  1.00  0.00    -0.000 C 
BRANCH   9  10
ATOM     10  C   UNL     1      16.790  21.188  11.133  1.00  0.00    -0.000 C 
BRANCH  10  11
ATOM     11  C   UNL     1      15.589  21.173  12.091  1.00  0.00    -0.000 C 
BRANCH  11  12
ATOM     12  C   UNL     1      15.434  22.488  12.868  1.00  0.00    -0.003 C 
ATOM     13  C   UNL     1      14.849  22.242  14.255  1.00  0.00     0.004 C 
ENDBRANCH  11  12
ENDBRANCH  10  11
ENDBRANCH   9  10
ENDBRANCH   8   9
ENDBRANCH   1   8
TORSDOF 9
ENDMDL
MODEL 7
REMARK VINA RESULT:    -4.646      1.905      3.227
REMARK INTER + INTRA:          -8.251
REMARK INTER:                  -7.276
REMARK INTRA:                  -0.976
REMARK UNBOUND:                -1.161
REMARK SMILES CCCCCCCCCCC(=O)[O-]
REMARK SMILES IDX 7 1 8 2 9 3 10 4 11 5 12 6 13 7 6 8 5 9 4 10 3 11 2 12 1 13
REMARK H PARENT
REMARK Flexibility Score: inf
ROOT
ATOM      1  C   UNL     1      28.245  19.305   8.232  1.00  0.00     0.000 C 
ENDROOT
BRANCH   1   2
ATOM      2  C   UNL     1      29.324  20.382   8.064  1.00  0.00     0.000 C 
BRANCH   2   3
ATOM      3  C   UNL     1      30.539  20.086   8.956  1.00  0.00     0.006 C 
BRANCH   3   4
ATOM      4  C   UNL     1      31.832  20.691   8.394  1.00  0.00     0.053 C 
BRANCH   4   5
ATOM      5  C   UNL     1      32.342  21.807   9.253  1.00  0.00     0.041 C 
ATOM      6  O   UNL     1      33.578  21.945   9.445  1.00  0.00    -0.550 OA
ATOM      7  O   UNL     1      31.448  22.675   9.866  1.00  0.00    -0.550 OA
ENDBRANCH   4   5
ENDBRANCH   3   4
ENDBRANCH   2   3
ENDBRANCH   1   2
BRANCH   1   8
ATOM      8  C   UNL     1      27.459  19.107   6.930  1.00  0.00     0.000 C 
BRANCH   8   9
ATOM      9  C   UNL     1      27.473  17.635   6.497  1.00  0.00    -0.000 C 
BRANCH   9  10
ATOM     10  C   UNL     1      28.506  17.398   5.387  1.00  0.00    -0.000 C 
BRANCH  10  11
ATOM     11  C   UNL     1      29.882  16.990   5.935  1.00  0.00    -0.000 C 
BRANCH  11  12
ATOM     12  C   UNL     1      30.956  18.061   5.699  1.00  0.00    -0.003 C 
ATOM     13  C   UNL     1      32.322  17.586   6.186  1.00  0.00     0.004 C 
ENDBRANCH  11  12
ENDBRANCH  10  11
ENDBRANCH   9  10
ENDBRANCH   8   9
ENDBRANCH   1   8
TORSDOF 9
ENDMDL
MODEL 8
REMARK VINA RESULT:    -4.643     13.846     15.894
REMARK INTER + INTRA:          -8.246
REMARK INTER:                  -7.301
REMARK INTRA:                  -0.945
REMARK UNBOUND:                -1.161
REMARK SMILES CCCCCCCCCCC(=O)[O-]
REMARK SMILES IDX 7 1 8 2 9 3 10 4 11 5 12 6 13 7 6 8 5 9 4 10 3 11 2 12 1 13
REMARK H PARENT
REMARK Flexibility Score: inf
ROOT
ATOM      1  C   UNL     1      15.110  20.960  15.337  1.00  0.00     0.000 C 
ENDROOT
BRANCH   1   2
ATOM      2  C   UNL     1      16.257  21.166  16.334  1.00  0.00     0.000 C 
BRANCH   2   3
ATOM      3  C   UNL     1      17.414  20.196  16.048  1.00  0.00     0.006 C 
BRANCH   3   4
ATOM      4  C   UNL     1      16.916  18.804  15.637  1.00  0.00     0.053 C 
BRANCH   4   5
ATOM      5  C   UNL     1      16.867  17.866  16.803  1.00  0.00     0.041 C 
ATOM      6  O   UNL     1      15.903  17.910  17.612  1.00  0.00    -0.550 OA
ATOM      7  O   UNL     1      17.903  16.964  17.013  1.00  0.00    -0.550 OA
ENDBRANCH   4   5
ENDBRANCH   3   4
ENDBRANCH   2   3
ENDBRANCH   1   2
BRANCH   1   8
ATOM      8  C   UNL     1      14.670  22.295  14.723  1.00  0.00     0.000 C 
BRANCH   8   9
ATOM      9  C   UNL     1      15.298  22.497  13.338  1.00  0.00    -0.000 C 
BRANCH   9  10
ATOM     10  C   UNL     1      15.498  21.152  12.624  1.00  0.00    -0.000 C 
BRANCH  10  11
ATOM     11  C   UNL     1      15.974  21.318  11.172  1.00  0.00    -0.000 C 
BRANCH  11  12
ATOM     12  C   UNL     1      17.407  20.812  10.957  1.00  0.00    -0.003 C 
ATOM     13  C   UNL     1      17.916  20.062  12.185  1.00  0.00     0.004 C 
ENDBRANCH  11  12
ENDBRANCH  10  11
ENDBRANCH   9  10
ENDBRANCH   8   9
ENDBRANCH   1   8
TORSDOF 9
ENDMDL
MODEL 9
REMARK VINA RESULT:    -4.579     15.157     17.048
REMARK INTER + INTRA:          -8.150
REMARK INTER:                  -7.430
REMARK INTRA:                  -0.720
REMARK UNBOUND:                -1.161
REMARK SMILES CCCCCCCCCCC(=O)[O-]
REMARK SMILES IDX 7 1 8 2 9 3 10 4 11 5 12 6 13 7 6 8 5 9 4 10 3 11 2 12 1 13
REMARK H PARENT
REMARK Flexibility Score: inf
ROOT
ATOM      1  C   UNL     1      17.492  20.412  16.268  1.00  0.00     0.000 C 
ENDROOT
BRANCH   1   2
ATOM      2  C   UNL     1      17.244  21.100  17.615  1.00  0.00     0.000 C 
BRANCH   2   3
ATOM      3  C   UNL     1      16.975  20.066  18.719  1.00  0.00     0.006 C 
BRANCH   3   4
ATOM      4  C   UNL     1      15.885  20.528  19.695  1.00  0.00     0.053 C 
BRANCH   4   5
ATOM      5  C   UNL     1      14.663  21.007  18.974  1.00  0.00     0.041 C 
ATOM      6  O   UNL     1      14.322  22.218  19.040  1.00  0.00    -0.550 OA
ATOM      7  O   UNL     1      13.884  20.110  18.254  1.00  0.00    -0.550 OA
ENDBRANCH   4   5
ENDBRANCH   3   4
ENDBRANCH   2   3
ENDBRANCH   1   2
BRANCH   1   8
ATOM      8  C   UNL     1      16.171  20.119  15.548  1.00  0.00     0.000 C 
BRANCH   8   9
ATOM      9  C   UNL     1      15.454  21.419  15.160  1.00  0.00    -0.000 C 
BRANCH   9  10
ATOM     10  C   UNL     1      14.840  21.309  13.757  1.00  0.00    -0.000 C 
BRANCH  10  11
ATOM     11  C   UNL     1      15.509  22.250  12.742  1.00  0.00    -0.000 C 
BRANCH  11  12
ATOM     12  C   UNL     1      15.944  21.526  11.460  1.00  0.00    -0.003 C 
ATOM     13  C   UNL     1      17.425  21.159  11.511  1.00  0.00     0.004 C 
ENDBRANCH  11  12
ENDBRANCH  10  11
ENDBRANCH   9  10
ENDBRANCH   8   9
ENDBRANCH   1   8
TORSDOF 9
ENDMDL
