MODEL 1
REMARK VINA RESULT:    -6.130      0.000      0.000
REMARK INTER + INTRA:          -9.129
REMARK INTER:                  -8.280
REMARK INTRA:                  -0.849
REMARK UNBOUND:                -0.849
REMARK SMILES CC(=O)CCC=C(C)CCC=C(C)C
REMARK SMILES IDX 7 1 6 2 8 3 9 4 10 5 11 6 13 7 12 8 14 9 5 10 4 11 2 12 3 13
REMARK SMILES IDX 1 14
REMARK H PARENT
REMARK Flexibility Score: inf
ROOT
ATOM      1  C   UNL     1     -12.827 -34.199  32.010  1.00  0.00    -0.077 C 
ATOM      2  C   UNL     1     -12.587 -35.477  31.637  1.00  0.00    -0.028 C 
ATOM      3  C   UNL     1     -11.651 -33.320  32.348  1.00  0.00     0.039 C 
ENDROOT
BRANCH   1   4
ATOM      4  C   UNL     1     -14.222 -33.599  32.054  1.00  0.00     0.034 C 
BRANCH   4   5
ATOM      5  C   UNL     1     -14.358 -32.390  31.116  1.00  0.00     0.032 C 
BRANCH   5   6
ATOM      6  C   UNL     1     -14.132 -32.764  29.669  1.00  0.00    -0.028 C 
ATOM      7  C   UNL     1     -14.285 -32.555  27.226  1.00  0.00     0.039 C 
ATOM      8  C   UNL     1     -14.525 -32.019  28.614  1.00  0.00    -0.080 C 
ATOM      9  C   UNL     1     -15.198 -30.678  28.787  1.00  0.00     0.039 C 
ENDBRANCH   5   6
ENDBRANCH   4   5
ENDBRANCH   1   4
BRANCH   2  10
ATOM     10  C   UNL     1     -13.670 -36.465  31.276  1.00  0.00     0.035 C 
BRANCH  10  11
ATOM     11  C   UNL     1     -13.194 -37.448  30.203  1.00  0.00     0.079 C 
BRANCH  11  12
ATOM     12  C   UNL     1     -13.588 -36.961  28.833  1.00  0.00     0.130 C 
ATOM     13  O   UNL     1     -14.525 -37.490  28.254  1.00  0.00    -0.300 OA
ATOM     14  C   UNL     1     -12.854 -35.837  28.163  1.00  0.00     0.087 C 
ENDBRANCH  11  12
ENDBRANCH  10  11
ENDBRANCH   2  10
TORSDOF 6
ENDMDL
MODEL 2
REMARK VINA RESULT:    -6.124      2.148      5.079
REMARK INTER + INTRA:          -9.121
REMARK INTER:                  -7.850
REMARK INTRA:                  -1.271
REMARK UNBOUND:                -0.849
REMARK SMILES CC(=O)CCC=C(C)CCC=C(C)C
REMARK SMILES IDX 7 1 6 2 8 3 9 4 10 5 11 6 13 7 12 8 14 9 5 10 4 11 2 12 3 13
REMARK SMILES IDX 1 14
REMARK H PARENT
REMARK Flexibility Score: inf
ROOT
ATOM      1  C   UNL     1     -13.544 -33.019  28.410  1.00  0.00    -0.077 C 
ATOM      2  C   UNL     1     -14.049 -32.796  29.645  1.00  0.00    -0.028 C 
ATOM      3  C   UNL     1     -14.406 -32.699  27.216  1.00  0.00     0.039 C 
ENDROOT
BRANCH   1   4
ATOM      4  C   UNL     1     -12.133 -33.530  28.173  1.00  0.00     0.034 C 
BRANCH   4   5
ATOM      5  C   UNL     1     -12.116 -35.022  27.808  1.00  0.00     0.032 C 
BRANCH   5   6
ATOM      6  C   UNL     1     -12.112 -35.908  29.031  1.00  0.00    -0.028 C 
ATOM      7  C   UNL     1     -12.991 -37.528  30.657  1.00  0.00     0.039 C 
ATOM      8  C   UNL     1     -13.110 -36.754  29.369  1.00  0.00    -0.080 C 
ATOM      9  C   UNL     1     -14.332 -36.937  28.501  1.00  0.00     0.039 C 
ENDBRANCH   5   6
ENDBRANCH   4   5
ENDBRANCH   1   4
BRANCH   2  10
ATOM     10  C   UNL     1     -13.297 -33.076  30.923  1.00  0.00     0.035 C 
BRANCH  10  11
ATOM     11  C   UNL     1     -14.034 -34.101  31.791  1.00  0.00     0.079 C 
BRANCH  11  12
ATOM     12  C   UNL     1     -14.930 -33.404  32.781  1.00  0.00     0.130 C 
ATOM     13  O   UNL     1     -15.775 -34.048  33.383  1.00  0.00    -0.300 OA
ATOM     14  C   UNL     1     -14.805 -31.933  33.045  1.00  0.00     0.087 C 
ENDBRANCH  11  12
ENDBRANCH  10  11
ENDBRANCH   2  10
TORSDOF 6
ENDMDL
MODEL 3
REMARK VINA RESULT:    -6.077      2.645      5.505
REMARK INTER + INTRA:          -9.057
REMARK INTER:                  -7.713
REMARK INTRA:                  -1.345
REMARK UNBOUND:                -0.849
REMARK SMILES CC(=O)CCC=C(C)CCC=C(C)C
REMARK SMILES IDX 7 1 6 2 8 3 9 4 10 5 11 6 13 7 12 8 14 9 5 10 4 11 2 12 3 13
REMARK SMILES IDX 1 14
REMARK H PARENT
REMARK Flexibility Score: inf
ROOT
ATOM      1  C   UNL     1     -12.062 -33.976  26.970  1.00  0.00    -0.077 C 
ATOM      2  C   UNL     1     -13.403 -33.862  26.840  1.00  0.00    -0.028 C 
ATOM      3  C   UNL     1     -11.278 -34.557  25.822  1.00  0.00     0.039 C 
ENDROOT
BRANCH   1   4
ATOM      4  C   UNL     1     -11.307 -33.502  28.201  1.00  0.00     0.034 C 
BRANCH   4   5
ATOM      5  C   UNL     1     -10.871 -34.673  29.095  1.00  0.00     0.032 C 
BRANCH   5   6
ATOM      6  C   UNL     1     -11.821 -34.894  30.248  1.00  0.00    -0.028 C 
ATOM      7  C   UNL     1     -13.697 -35.898  31.475  1.00  0.00     0.039 C 
ATOM      8  C   UNL     1     -12.783 -35.842  30.280  1.00  0.00    -0.080 C 
ATOM      9  C   UNL     1     -12.966 -36.833  29.155  1.00  0.00     0.039 C 
ENDBRANCH   5   6
ENDBRANCH   4   5
ENDBRANCH   1   4
BRANCH   2  10
ATOM     10  C   UNL     1     -14.307 -33.303  27.911  1.00  0.00     0.035 C 
BRANCH  10  11
ATOM     11  C   UNL     1     -14.672 -31.843  27.628  1.00  0.00     0.079 C 
BRANCH  11  12
ATOM     12  C   UNL     1     -15.020 -31.131  28.909  1.00  0.00     0.130 C 
ATOM     13  O   UNL     1     -15.550 -30.031  28.860  1.00  0.00    -0.300 OA
ATOM     14  C   UNL     1     -14.730 -31.745  30.246  1.00  0.00     0.087 C 
ENDBRANCH  11  12
ENDBRANCH  10  11
ENDBRANCH   2  10
TORSDOF 6
ENDMDL
MODEL 4
REMARK VINA RESULT:    -6.073      1.785      2.603
REMARK INTER + INTRA:          -9.052
REMARK INTER:                  -7.906
REMARK INTRA:                  -1.146
REMARK UNBOUND:                -0.849
REMARK SMILES CC(=O)CCC=C(C)CCC=C(C)C
REMARK SMILES IDX 7 1 6 2 8 3 9 4 10 5 11 6 13 7 12 8 14 9 5 10 4 11 2 12 3 13
REMARK SMILES IDX 1 14
REMARK H PARENT
REMARK Flexibility Score: inf
ROOT
ATOM      1  C   UNL     1     -13.335 -33.839  31.116  1.00  0.00    -0.077 C 
ATOM      2  C   UNL     1     -13.658 -35.033  31.664  1.00  0.00    -0.028 C 
ATOM      3  C   UNL     1     -14.340 -32.720  31.195  1.00  0.00     0.039 C 
ENDROOT
BRANCH   1   4
ATOM      4  C   UNL     1     -11.988 -33.564  30.469  1.00  0.00     0.034 C 
BRANCH   4   5
ATOM      5  C   UNL     1     -12.127 -32.743  29.178  1.00  0.00     0.032 C 
BRANCH   5   6
ATOM      6  C   UNL     1     -11.449 -33.409  28.003  1.00  0.00    -0.028 C 
ATOM      7  C   UNL     1     -11.286 -34.610  25.866  1.00  0.00     0.039 C 
ATOM      8  C   UNL     1     -12.095 -33.916  26.931  1.00  0.00    -0.080 C 
ATOM      9  C   UNL     1     -13.594 -33.813  26.778  1.00  0.00     0.039 C 
ENDBRANCH   5   6
ENDBRANCH   4   5
ENDBRANCH   1   4
BRANCH   2  10
ATOM     10  C   UNL     1     -12.748 -36.237  31.651  1.00  0.00     0.035 C 
BRANCH  10  11
ATOM     11  C   UNL     1     -13.334 -37.370  30.804  1.00  0.00     0.079 C 
BRANCH  11  12
ATOM     12  C   UNL     1     -13.206 -37.051  29.338  1.00  0.00     0.130 C 
ATOM     13  O   UNL     1     -12.130 -36.679  28.895  1.00  0.00    -0.300 OA
ATOM     14  C   UNL     1     -14.375 -37.182  28.406  1.00  0.00     0.087 C 
ENDBRANCH  11  12
ENDBRANCH  10  11
ENDBRANCH   2  10
TORSDOF 6
ENDMDL
MODEL 5
REMARK VINA RESULT:    -5.997      1.789      2.407
REMARK INTER + INTRA:          -8.949
REMARK INTER:                  -7.553
REMARK INTRA:                  -1.397
REMARK UNBOUND:                -0.849
REMARK SMILES CC(=O)CCC=C(C)CCC=C(C)C
REMARK SMILES IDX 7 1 6 2 8 3 9 4 10 5 11 6 13 7 12 8 14 9 5 10 4 11 2 12 3 13
REMARK SMILES IDX 1 14
REMARK H PARENT
REMARK Flexibility Score: inf
ROOT
ATOM      1  C   UNL     1     -11.264 -33.771  31.507  1.00  0.00    -0.077 C 
ATOM      2  C   UNL     1     -12.505 -34.029  31.979  1.00  0.00    -0.028 C 
ATOM      3  C   UNL     1     -10.280 -33.083  32.416  1.00  0.00     0.039 C 
ENDROOT
BRANCH   1   4
ATOM      4  C   UNL     1     -10.805 -34.188  30.119  1.00  0.00     0.034 C 
BRANCH   4   5
ATOM      5  C   UNL     1     -11.056 -33.089  29.076  1.00  0.00     0.032 C 
BRANCH   5   6
ATOM      6  C   UNL     1     -12.015 -33.535  27.998  1.00  0.00    -0.028 C 
ATOM      7  C   UNL     1     -14.136 -33.660  26.764  1.00  0.00     0.039 C 
ATOM      8  C   UNL     1     -13.275 -33.070  27.851  1.00  0.00    -0.080 C 
ATOM      9  C   UNL     1     -13.838 -31.991  28.745  1.00  0.00     0.039 C 
ENDBRANCH   5   6
ENDBRANCH   4   5
ENDBRANCH   1   4
BRANCH   2  10
ATOM     10  C   UNL     1     -13.587 -34.706  31.175  1.00  0.00     0.035 C 
BRANCH  10  11
ATOM     11  C   UNL     1     -13.801 -36.151  31.634  1.00  0.00     0.079 C 
BRANCH  11  12
ATOM     12  C   UNL     1     -13.091 -37.107  30.712  1.00  0.00     0.130 C 
ATOM     13  O   UNL     1     -12.453 -38.036  31.184  1.00  0.00    -0.300 OA
ATOM     14  C   UNL     1     -13.151 -36.943  29.222  1.00  0.00     0.087 C 
ENDBRANCH  11  12
ENDBRANCH  10  11
ENDBRANCH   2  10
TORSDOF 6
ENDMDL
MODEL 6
REMARK VINA RESULT:    -5.961      1.646      3.600
REMARK INTER + INTRA:          -8.902
REMARK INTER:                  -7.538
REMARK INTRA:                  -1.364
REMARK UNBOUND:                -0.849
REMARK SMILES CC(=O)CCC=C(C)CCC=C(C)C
REMARK SMILES IDX 7 1 6 2 8 3 9 4 10 5 11 6 13 7 12 8 14 9 5 10 4 11 2 12 3 13
REMARK SMILES IDX 1 14
REMARK H PARENT
REMARK Flexibility Score: inf
ROOT
ATOM      1  C   UNL     1     -13.587 -34.419  27.679  1.00  0.00    -0.077 C 
ATOM      2  C   UNL     1     -14.081 -35.634  28.009  1.00  0.00    -0.028 C 
ATOM      3  C   UNL     1     -14.487 -33.453  26.953  1.00  0.00     0.039 C 
ENDROOT
BRANCH   1   4
ATOM      4  C   UNL     1     -12.184 -33.968  28.051  1.00  0.00     0.034 C 
BRANCH   4   5
ATOM      5  C   UNL     1     -12.199 -32.859  29.113  1.00  0.00     0.032 C 
BRANCH   5   6
ATOM      6  C   UNL     1     -12.801 -33.328  30.417  1.00  0.00    -0.028 C 
ATOM      7  C   UNL     1     -14.380 -33.362  32.299  1.00  0.00     0.039 C 
ATOM      8  C   UNL     1     -13.938 -32.837  30.958  1.00  0.00    -0.080 C 
ATOM      9  C   UNL     1     -14.764 -31.781  30.261  1.00  0.00     0.039 C 
ENDBRANCH   5   6
ENDBRANCH   4   5
ENDBRANCH   1   4
BRANCH   2  10
ATOM     10  C   UNL     1     -13.289 -36.696  28.732  1.00  0.00     0.035 C 
BRANCH  10  11
ATOM     11  C   UNL     1     -13.806 -36.903  30.159  1.00  0.00     0.079 C 
BRANCH  11  12
ATOM     12  C   UNL     1     -12.678 -37.300  31.074  1.00  0.00     0.130 C 
ATOM     13  O   UNL     1     -12.600 -38.455  31.466  1.00  0.00    -0.300 OA
ATOM     14  C   UNL     1     -11.643 -36.307  31.513  1.00  0.00     0.087 C 
ENDBRANCH  11  12
ENDBRANCH  10  11
ENDBRANCH   2  10
TORSDOF 6
ENDMDL
MODEL 7
REMARK VINA RESULT:    -5.884      1.501      4.018
REMARK INTER + INTRA:          -8.797
REMARK INTER:                  -7.398
REMARK INTRA:                  -1.399
REMARK UNBOUND:                -0.849
REMARK SMILES CC(=O)CCC=C(C)CCC=C(C)C
REMARK SMILES IDX 7 1 6 2 8 3 9 4 10 5 11 6 13 7 12 8 14 9 5 10 4 11 2 12 3 13
REMARK SMILES IDX 1 14
REMARK H PARENT
REMARK Flexibility Score: inf
ROOT
ATOM      1  C   UNL     1     -14.723 -31.629  29.643  1.00  0.00    -0.077 C 
ATOM      2  C   UNL     1     -14.729 -31.982  30.948  1.00  0.00    -0.028 C 
ATOM      3  C   UNL     1     -15.824 -30.734  29.138  1.00  0.00     0.039 C 
ENDROOT
BRANCH   1   4
ATOM      4  C   UNL     1     -13.629 -32.054  28.676  1.00  0.00     0.034 C 
BRANCH   4   5
ATOM      5  C   UNL     1     -14.181 -32.906  27.523  1.00  0.00     0.032 C 
BRANCH   5   6
ATOM      6  C   UNL     1     -14.445 -34.332  27.945  1.00  0.00    -0.028 C 
ATOM      7  C   UNL     1     -13.935 -36.695  28.384  1.00  0.00     0.039 C 
ATOM      8  C   UNL     1     -13.506 -35.302  28.005  1.00  0.00    -0.080 C 
ATOM      9  C   UNL     1     -12.053 -35.027  27.698  1.00  0.00     0.039 C 
ENDBRANCH   5   6
ENDBRANCH   4   5
ENDBRANCH   1   4
BRANCH   2  10
ATOM     10  C   UNL     1     -13.690 -32.875  31.582  1.00  0.00     0.035 C 
BRANCH  10  11
ATOM     11  C   UNL     1     -14.174 -34.326  31.659  1.00  0.00     0.079 C 
BRANCH  11  12
ATOM     12  C   UNL     1     -13.004 -35.274  31.612  1.00  0.00     0.130 C 
ATOM     13  O   UNL     1     -13.193 -36.470  31.767  1.00  0.00    -0.300 OA
ATOM     14  C   UNL     1     -11.608 -34.778  31.376  1.00  0.00     0.087 C 
ENDBRANCH  11  12
ENDBRANCH  10  11
ENDBRANCH   2  10
TORSDOF 6
ENDMDL
MODEL 8
REMARK VINA RESULT:    -5.865      1.747      4.714
REMARK INTER + INTRA:          -8.771
REMARK INTER:                  -7.832
REMARK INTRA:                  -0.939
REMARK UNBOUND:                -0.849
REMARK SMILES CC(=O)CCC=C(C)CCC=C(C)C
REMARK SMILES IDX 7 1 6 2 8 3 9 4 10 5 11 6 13 7 12 8 14 9 5 10 4 11 2 12 3 13
REMARK SMILES IDX 1 14
REMARK H PARENT
REMARK Flexibility Score: inf
ROOT
ATOM      1  C   UNL     1     -13.407 -36.106  28.807  1.00  0.00    -0.077 C 
ATOM      2  C   UNL     1     -13.596 -35.070  27.957  1.00  0.00    -0.028 C 
ATOM      3  C   UNL     1     -14.387 -37.249  28.772  1.00  0.00     0.039 C 
ENDROOT
BRANCH   1   4
ATOM      4  C   UNL     1     -12.224 -36.189  29.758  1.00  0.00     0.034 C 
BRANCH   4   5
ATOM      5  C   UNL     1     -12.672 -36.273  31.225  1.00  0.00     0.032 C 
BRANCH   5   6
ATOM      6  C   UNL     1     -13.641 -35.173  31.589  1.00  0.00    -0.028 C 
ATOM      7  C   UNL     1     -14.365 -32.976  32.416  1.00  0.00     0.039 C 
ATOM      8  C   UNL     1     -13.281 -33.948  32.031  1.00  0.00    -0.080 C 
ATOM      9  C   UNL     1     -11.833 -33.537  32.156  1.00  0.00     0.039 C 
ENDBRANCH   5   6
ENDBRANCH   4   5
ENDBRANCH   1   4
BRANCH   2  10
ATOM     10  C   UNL     1     -12.694 -33.862  27.891  1.00  0.00     0.035 C 
BRANCH  10  11
ATOM     11  C   UNL     1     -13.242 -32.710  28.738  1.00  0.00     0.079 C 
BRANCH  11  12
ATOM     12  C   UNL     1     -14.351 -32.000  28.007  1.00  0.00     0.130 C 
ATOM     13  O   UNL     1     -14.649 -32.355  26.877  1.00  0.00    -0.300 OA
ATOM     14  C   UNL     1     -15.101 -30.865  28.640  1.00  0.00     0.087 C 
ENDBRANCH  11  12
ENDBRANCH  10  11
ENDBRANCH   2  10
TORSDOF 6
ENDMDL
MODEL 9
REMARK VINA RESULT:    -5.836      1.891      4.144
REMARK INTER + INTRA:          -8.733
REMARK INTER:                  -7.170
REMARK INTRA:                  -1.563
REMARK UNBOUND:                -0.849
REMARK SMILES CC(=O)CCC=C(C)CCC=C(C)C
REMARK SMILES IDX 7 1 6 2 8 3 9 4 10 5 11 6 13 7 12 8 14 9 5 10 4 11 2 12 3 13
REMARK SMILES IDX 1 14
REMARK H PARENT
REMARK Flexibility Score: inf
ROOT
ATOM      1  C   UNL     1     -11.043 -34.028  30.941  1.00  0.00    -0.077 C 
ATOM      2  C   UNL     1     -10.625 -33.677  29.703  1.00  0.00    -0.028 C 
ATOM      3  C   UNL     1     -10.124 -34.857  31.800  1.00  0.00     0.039 C 
ENDROOT
BRANCH   1   4
ATOM      4  C   UNL     1     -12.377 -33.583  31.519  1.00  0.00     0.034 C 
BRANCH   4   5
ATOM      5  C   UNL     1     -13.301 -34.773  31.814  1.00  0.00     0.032 C 
BRANCH   5   6
ATOM      6  C   UNL     1     -13.774 -35.454  30.551  1.00  0.00    -0.028 C 
ATOM      7  C   UNL     1     -13.962 -37.243  28.878  1.00  0.00     0.039 C 
ATOM      8  C   UNL     1     -13.469 -36.723  30.203  1.00  0.00    -0.080 C 
ATOM      9  C   UNL     1     -12.647 -37.622  31.096  1.00  0.00     0.039 C 
ENDBRANCH   5   6
ENDBRANCH   4   5
ENDBRANCH   1   4
BRANCH   2  10
ATOM     10  C   UNL     1     -11.445 -32.855  28.740  1.00  0.00     0.035 C 
BRANCH  10  11
ATOM     11  C   UNL     1     -12.213 -33.747  27.760  1.00  0.00     0.079 C 
BRANCH  11  12
ATOM     12  C   UNL     1     -13.642 -33.285  27.639  1.00  0.00     0.130 C 
ATOM     13  O   UNL     1     -14.411 -33.894  26.910  1.00  0.00    -0.300 OA
ATOM     14  C   UNL     1     -14.143 -32.092  28.397  1.00  0.00     0.087 C 
ENDBRANCH  11  12
ENDBRANCH  10  11
ENDBRANCH   2  10
TORSDOF 6
ENDMDL
