MODEL 1
REMARK VINA RESULT:    -3.599      0.000      0.000
REMARK INTER + INTRA:          -7.748
REMARK INTER:                  -6.545
REMARK INTRA:                  -1.204
REMARK UNBOUND:                -1.204
REMARK SMILES CCCCCCCCCCCCCC[C@H](C)C(=O)[O-]
REMARK SMILES IDX 9 1 10 2 11 3 12 4 13 5 14 6 15 7 16 8 17 9 18 10 19 11 8 12
REMARK SMILES IDX 7 13 6 14 5 15 4 16 3 17 2 18 1 19
REMARK H PARENT
REMARK Flexibility Score: inf
ROOT
ATOM      1  C   UNL     1      -4.206  25.197  25.461  1.00  0.00     0.000 C 
ENDROOT
BRANCH   1   2
ATOM      2  C   UNL     1      -3.297  26.178  26.226  1.00  0.00     0.000 C 
BRANCH   2   3
ATOM      3  C   UNL     1      -2.838  27.405  25.414  1.00  0.00     0.000 C 
BRANCH   3   4
ATOM      4  C   UNL     1      -1.514  28.037  25.885  1.00  0.00     0.000 C 
BRANCH   4   5
ATOM      5  C   UNL     1      -0.363  27.894  24.867  1.00  0.00     0.001 C 
BRANCH   5   6
ATOM      6  C   UNL     1       0.335  26.522  24.963  1.00  0.00     0.009 C 
BRANCH   6   7
ATOM      7  C   UNL     1      -0.093  25.515  23.873  1.00  0.00     0.032 C 
ATOM      8  C   UNL     1      -0.619  24.195  24.455  1.00  0.00     0.014 C 
BRANCH   7   9
ATOM      9  C   UNL     1       1.006  25.291  22.865  1.00  0.00     0.044 C 
ATOM     10  O   UNL     1       1.431  24.131  22.616  1.00  0.00    -0.550 OA
ATOM     11  O   UNL     1       1.598  26.381  22.242  1.00  0.00    -0.550 OA
ENDBRANCH   7   9
ENDBRANCH   6   7
ENDBRANCH   5   6
ENDBRANCH   4   5
ENDBRANCH   3   4
ENDBRANCH   2   3
ENDBRANCH   1   2
BRANCH   1  12
ATOM     12  C   UNL     1      -3.990  23.733  25.874  1.00  0.00     0.000 C 
BRANCH  12  13
ATOM     13  C   UNL     1      -5.226  23.179  26.599  1.00  0.00    -0.000 C 
BRANCH  13  14
ATOM     14  C   UNL     1      -6.545  23.617  25.943  1.00  0.00    -0.000 C 
BRANCH  14  15
ATOM     15  C   UNL     1      -7.772  22.919  26.559  1.00  0.00    -0.000 C 
BRANCH  15  16
ATOM     16  C   UNL     1      -9.037  23.087  25.702  1.00  0.00    -0.000 C 
BRANCH  16  17
ATOM     17  C   UNL     1      -9.003  24.353  24.832  1.00  0.00    -0.000 C 
BRANCH  17  18
ATOM     18  C   UNL     1      -9.969  24.230  23.650  1.00  0.00    -0.003 C 
ATOM     19  C   UNL     1     -10.732  22.908  23.696  1.00  0.00     0.004 C 
ENDBRANCH  17  18
ENDBRANCH  16  17
ENDBRANCH  15  16
ENDBRANCH  14  15
ENDBRANCH  13  14
ENDBRANCH  12  13
ENDBRANCH   1  12
TORSDOF 14
ENDMDL
MODEL 2
REMARK VINA RESULT:    -3.596      4.162      8.709
REMARK INTER + INTRA:          -7.743
REMARK INTER:                  -6.840
REMARK INTRA:                  -0.903
REMARK UNBOUND:                -1.204
REMARK SMILES CCCCCCCCCCCCCC[C@H](C)C(=O)[O-]
REMARK SMILES IDX 9 1 10 2 11 3 12 4 13 5 14 6 15 7 16 8 17 9 18 10 19 11 8 12
REMARK SMILES IDX 7 13 6 14 5 15 4 16 3 17 2 18 1 19
REMARK H PARENT
REMARK Flexibility Score: inf
ROOT
ATOM      1  C   UNL     1      -3.985  25.400  25.340  1.00  0.00     0.000 C 
ENDROOT
BRANCH   1   2
ATOM      2  C   UNL     1      -3.637  24.008  25.898  1.00  0.00     0.000 C 
BRANCH   2   3
ATOM      3  C   UNL     1      -4.816  23.251  26.539  1.00  0.00     0.000 C 
BRANCH   3   4
ATOM      4  C   UNL     1      -6.202  23.602  25.965  1.00  0.00     0.000 C 
BRANCH   4   5
ATOM      5  C   UNL     1      -7.357  22.791  26.590  1.00  0.00     0.001 C 
BRANCH   5   6
ATOM      6  C   UNL     1      -8.739  23.381  26.244  1.00  0.00     0.009 C 
BRANCH   6   7
ATOM      7  C   UNL     1      -9.002  23.540  24.730  1.00  0.00     0.032 C 
ATOM      8  C   UNL     1      -9.113  25.009  24.296  1.00  0.00     0.014 C 
BRANCH   7   9
ATOM      9  C   UNL     1     -10.192  22.728  24.288  1.00  0.00     0.044 C 
ATOM     10  O   UNL     1     -10.503  21.658  24.876  1.00  0.00    -0.550 OA
ATOM     11  O   UNL     1     -10.927  23.134  23.181  1.00  0.00    -0.550 OA
ENDBRANCH   7   9
ENDBRANCH   6   7
ENDBRANCH   5   6
ENDBRANCH   4   5
ENDBRANCH   3   4
ENDBRANCH   2   3
ENDBRANCH   1   2
BRANCH   1  12
ATOM     12  C   UNL     1      -3.500  26.546  26.241  1.00  0.00     0.000 C 
BRANCH  12  13
ATOM     13  C   UNL     1      -2.672  27.562  25.439  1.00  0.00    -0.000 C 
BRANCH  13  14
ATOM     14  C   UNL     1      -1.389  27.992  26.169  1.00  0.00    -0.000 C 
BRANCH  14  15
ATOM     15  C   UNL     1      -0.173  28.075  25.229  1.00  0.00    -0.000 C 
BRANCH  15  16
ATOM     16  C   UNL     1       0.454  26.700  24.952  1.00  0.00    -0.000 C 
BRANCH  16  17
ATOM     17  C   UNL     1       0.108  26.160  23.556  1.00  0.00    -0.000 C 
BRANCH  17  18
ATOM     18  C   UNL     1       0.791  24.810  23.307  1.00  0.00    -0.003 C 
ATOM     19  C   UNL     1      -0.154  23.649  23.609  1.00  0.00     0.004 C 
ENDBRANCH  17  18
ENDBRANCH  16  17
ENDBRANCH  15  16
ENDBRANCH  14  15
ENDBRANCH  13  14
ENDBRANCH  12  13
ENDBRANCH   1  12
TORSDOF 14
ENDMDL
MODEL 3
REMARK VINA RESULT:    -3.477      1.109      2.036
REMARK INTER + INTRA:          -7.526
REMARK INTER:                  -6.840
REMARK INTRA:                  -0.686
REMARK UNBOUND:                -1.204
REMARK SMILES CCCCCCCCCCCCCC[C@H](C)C(=O)[O-]
REMARK SMILES IDX 9 1 10 2 11 3 12 4 13 5 14 6 15 7 16 8 17 9 18 10 19 11 8 12
REMARK SMILES IDX 7 13 6 14 5 15 4 16 3 17 2 18 1 19
REMARK H PARENT
REMARK Flexibility Score: inf
ROOT
ATOM      1  C   UNL     1      -4.612  23.638  26.427  1.00  0.00     0.000 C 
ENDROOT
BRANCH   1   2
ATOM      2  C   UNL     1      -3.711  24.635  25.674  1.00  0.00     0.000 C 
BRANCH   2   3
ATOM      3  C   UNL     1      -3.553  26.008  26.354  1.00  0.00     0.000 C 
BRANCH   3   4
ATOM      4  C   UNL     1      -2.996  27.122  25.447  1.00  0.00     0.000 C 
BRANCH   4   5
ATOM      5  C   UNL     1      -1.726  27.799  26.004  1.00  0.00     0.001 C 
BRANCH   5   6
ATOM      6  C   UNL     1      -0.597  27.875  24.957  1.00  0.00     0.009 C 
BRANCH   6   7
ATOM      7  C   UNL     1       0.421  26.716  25.036  1.00  0.00     0.032 C 
ATOM      8  C   UNL     1       1.877  27.205  25.083  1.00  0.00     0.014 C 
BRANCH   7   9
ATOM      9  C   UNL     1       0.198  25.708  23.937  1.00  0.00     0.044 C 
ATOM     10  O   UNL     1      -0.533  24.699  24.121  1.00  0.00    -0.550 OA
ATOM     11  O   UNL     1       0.852  25.862  22.722  1.00  0.00    -0.550 OA
ENDBRANCH   7   9
ENDBRANCH   6   7
ENDBRANCH   5   6
ENDBRANCH   4   5
ENDBRANCH   3   4
ENDBRANCH   2   3
ENDBRANCH   1   2
BRANCH   1  12
ATOM     12  C   UNL     1      -6.061  23.633  25.915  1.00  0.00     0.000 C 
BRANCH  12  13
ATOM     13  C   UNL     1      -6.898  22.571  26.644  1.00  0.00    -0.000 C 
BRANCH  13  14
ATOM     14  C   UNL     1      -8.390  22.932  26.710  1.00  0.00    -0.000 C 
BRANCH  14  15
ATOM     15  C   UNL     1      -8.961  23.344  25.340  1.00  0.00    -0.000 C 
BRANCH  15  16
ATOM     16  C   UNL     1      -9.917  22.290  24.760  1.00  0.00    -0.000 C 
BRANCH  16  17
ATOM     17  C   UNL     1     -11.093  22.915  23.992  1.00  0.00    -0.000 C 
BRANCH  17  18
ATOM     18  C   UNL     1     -10.607  23.594  22.707  1.00  0.00    -0.003 C 
ATOM     19  C   UNL     1     -11.680  23.553  21.621  1.00  0.00     0.004 C 
ENDBRANCH  17  18
ENDBRANCH  16  17
ENDBRANCH  15  16
ENDBRANCH  14  15
ENDBRANCH  13  14
ENDBRANCH  12  13
ENDBRANCH   1  12
TORSDOF 14
ENDMDL
MODEL 4
REMARK VINA RESULT:    -3.447      4.590      7.343
REMARK INTER + INTRA:          -7.472
REMARK INTER:                  -6.361
REMARK INTRA:                  -1.110
REMARK UNBOUND:                -1.204
REMARK SMILES CCCCCCCCCCCCCC[C@H](C)C(=O)[O-]
REMARK SMILES IDX 9 1 10 2 11 3 12 4 13 5 14 6 15 7 16 8 17 9 18 10 19 11 8 12
REMARK SMILES IDX 7 13 6 14 5 15 4 16 3 17 2 18 1 19
REMARK H PARENT
REMARK Flexibility Score: inf
ROOT
ATOM      1  C   UNL     1      -0.499  22.598  23.443  1.00  0.00     0.000 C 
ENDROOT
BRANCH   1   2
ATOM      2  C   UNL     1       0.313  22.905  22.171  1.00  0.00     0.000 C 
BRANCH   2   3
ATOM      3  C   UNL     1       0.040  21.964  20.982  1.00  0.00     0.000 C 
BRANCH   3   4
ATOM      4  C   UNL     1       0.394  22.543  19.599  1.00  0.00     0.000 C 
BRANCH   4   5
ATOM      5  C   UNL     1       1.476  21.737  18.848  1.00  0.00     0.001 C 
BRANCH   5   6
ATOM      6  C   UNL     1       1.763  20.379  19.518  1.00  0.00     0.009 C 
BRANCH   6   7
ATOM      7  C   UNL     1       1.348  19.153  18.675  1.00  0.00     0.032 C 
ATOM      8  C   UNL     1       0.538  19.535  17.428  1.00  0.00     0.014 C 
BRANCH   7   9
ATOM      9  C   UNL     1       0.642  18.119  19.514  1.00  0.00     0.044 C 
ATOM     10  O   UNL     1       0.994  17.897  20.703  1.00  0.00    -0.550 OA
ATOM     11  O   UNL     1      -0.377  17.359  18.952  1.00  0.00    -0.550 OA
ENDBRANCH   7   9
ENDBRANCH   6   7
ENDBRANCH   5   6
ENDBRANCH   4   5
ENDBRANCH   3   4
ENDBRANCH   2   3
ENDBRANCH   1   2
BRANCH   1  12
ATOM     12  C   UNL     1      -0.574  23.789  24.410  1.00  0.00     0.000 C 
BRANCH  12  13
ATOM     13  C   UNL     1       0.013  25.055  23.767  1.00  0.00    -0.000 C 
BRANCH  13  14
ATOM     14  C   UNL     1      -0.434  26.344  24.476  1.00  0.00    -0.000 C 
BRANCH  14  15
ATOM     15  C   UNL     1      -1.934  26.634  24.287  1.00  0.00    -0.000 C 
BRANCH  15  16
ATOM     16  C   UNL     1      -2.577  27.254  25.537  1.00  0.00    -0.000 C 
BRANCH  16  17
ATOM     17  C   UNL     1      -3.519  26.281  26.265  1.00  0.00    -0.000 C 
BRANCH  17  18
ATOM     18  C   UNL     1      -3.705  24.993  25.456  1.00  0.00    -0.003 C 
ATOM     19  C   UNL     1      -4.428  23.926  26.276  1.00  0.00     0.004 C 
ENDBRANCH  17  18
ENDBRANCH  16  17
ENDBRANCH  15  16
ENDBRANCH  14  15
ENDBRANCH  13  14
ENDBRANCH  12  13
ENDBRANCH   1  12
TORSDOF 14
ENDMDL
MODEL 5
REMARK VINA RESULT:    -3.241     13.937     16.509
REMARK INTER + INTRA:          -7.097
REMARK INTER:                  -5.372
REMARK INTRA:                  -1.725
REMARK UNBOUND:                -1.204
REMARK SMILES CCCCCCCCCCCCCC[C@H](C)C(=O)[O-]
REMARK SMILES IDX 9 1 10 2 11 3 12 4 13 5 14 6 15 7 16 8 17 9 18 10 19 11 8 12
REMARK SMILES IDX 7 13 6 14 5 15 4 16 3 17 2 18 1 19
REMARK H PARENT
REMARK Flexibility Score: inf
ROOT
ATOM      1  C   UNL     1     -17.031  24.149  35.697  1.00  0.00     0.000 C 
ENDROOT
BRANCH   1   2
ATOM      2  C   UNL     1     -18.017  25.299  35.976  1.00  0.00     0.000 C 
BRANCH   2   3
ATOM      3  C   UNL     1     -17.365  26.610  36.458  1.00  0.00     0.000 C 
BRANCH   3   4
ATOM      4  C   UNL     1     -17.392  27.763  35.436  1.00  0.00     0.000 C 
BRANCH   4   5
ATOM      5  C   UNL     1     -17.992  27.369  34.070  1.00  0.00     0.001 C 
BRANCH   5   6
ATOM      6  C   UNL     1     -16.943  27.397  32.941  1.00  0.00     0.009 C 
BRANCH   6   7
ATOM      7  C   UNL     1     -17.039  26.212  31.954  1.00  0.00     0.032 C 
ATOM      8  C   UNL     1     -18.125  25.198  32.345  1.00  0.00     0.014 C 
BRANCH   7   9
ATOM      9  C   UNL     1     -15.699  25.554  31.749  1.00  0.00     0.044 C 
ATOM     10  O   UNL     1     -15.232  24.752  32.601  1.00  0.00    -0.550 OA
ATOM     11  O   UNL     1     -14.940  25.877  30.631  1.00  0.00    -0.550 OA
ENDBRANCH   7   9
ENDBRANCH   6   7
ENDBRANCH   5   6
ENDBRANCH   4   5
ENDBRANCH   3   4
ENDBRANCH   2   3
ENDBRANCH   1   2
BRANCH   1  12
ATOM     12  C   UNL     1     -17.562  22.781  36.150  1.00  0.00     0.000 C 
BRANCH  12  13
ATOM     13  C   UNL     1     -17.979  21.926  34.943  1.00  0.00    -0.000 C 
BRANCH  13  14
ATOM     14  C   UNL     1     -17.171  22.253  33.677  1.00  0.00    -0.000 C 
BRANCH  14  15
ATOM     15  C   UNL     1     -16.070  21.214  33.393  1.00  0.00    -0.000 C 
BRANCH  15  16
ATOM     16  C   UNL     1     -14.678  21.697  33.830  1.00  0.00    -0.000 C 
BRANCH  16  17
ATOM     17  C   UNL     1     -14.395  21.427  35.316  1.00  0.00    -0.000 C 
BRANCH  17  18
ATOM     18  C   UNL     1     -13.445  22.482  35.892  1.00  0.00    -0.003 C 
ATOM     19  C   UNL     1     -12.428  22.938  34.847  1.00  0.00     0.004 C 
ENDBRANCH  17  18
ENDBRANCH  16  17
ENDBRANCH  15  16
ENDBRANCH  14  15
ENDBRANCH  13  14
ENDBRANCH  12  13
ENDBRANCH   1  12
TORSDOF 14
ENDMDL
MODEL 6
REMARK VINA RESULT:    -3.208      4.451      7.125
REMARK INTER + INTRA:          -7.036
REMARK INTER:                  -6.140
REMARK INTRA:                  -0.896
REMARK UNBOUND:                -1.204
REMARK SMILES CCCCCCCCCCCCCC[C@H](C)C(=O)[O-]
REMARK SMILES IDX 9 1 10 2 11 3 12 4 13 5 14 6 15 7 16 8 17 9 18 10 19 11 8 12
REMARK SMILES IDX 7 13 6 14 5 15 4 16 3 17 2 18 1 19
REMARK H PARENT
REMARK Flexibility Score: inf
ROOT
ATOM      1  C   UNL     1      -0.003  24.534  23.645  1.00  0.00     0.000 C 
ENDROOT
BRANCH   1   2
ATOM      2  C   UNL     1       1.065  24.603  22.537  1.00  0.00     0.000 C 
BRANCH   2   3
ATOM      3  C   UNL     1       1.519  23.236  21.988  1.00  0.00     0.000 C 
BRANCH   3   4
ATOM      4  C   UNL     1       0.486  22.516  21.101  1.00  0.00     0.000 C 
BRANCH   4   5
ATOM      5  C   UNL     1       1.116  21.560  20.066  1.00  0.00     0.001 C 
BRANCH   5   6
ATOM      6  C   UNL     1       0.516  20.142  20.139  1.00  0.00     0.009 C 
BRANCH   6   7
ATOM      7  C   UNL     1       1.414  19.039  19.536  1.00  0.00     0.032 C 
ATOM      8  C   UNL     1       1.601  19.188  18.019  1.00  0.00     0.014 C 
BRANCH   7   9
ATOM      9  C   UNL     1       0.929  17.663  19.913  1.00  0.00     0.044 C 
ATOM     10  O   UNL     1       0.795  17.331  21.121  1.00  0.00    -0.550 OA
ATOM     11  O   UNL     1       0.679  16.727  18.918  1.00  0.00    -0.550 OA
ENDBRANCH   7   9
ENDBRANCH   6   7
ENDBRANCH   5   6
ENDBRANCH   4   5
ENDBRANCH   3   4
ENDBRANCH   2   3
ENDBRANCH   1   2
BRANCH   1  12
ATOM     12  C   UNL     1      -0.103  25.831  24.463  1.00  0.00     0.000 C 
BRANCH  12  13
ATOM     13  C   UNL     1      -0.706  26.966  23.620  1.00  0.00    -0.000 C 
BRANCH  13  14
ATOM     14  C   UNL     1      -2.043  27.476  24.180  1.00  0.00    -0.000 C 
BRANCH  14  15
ATOM     15  C   UNL     1      -2.057  27.533  25.719  1.00  0.00    -0.000 C 
BRANCH  15  16
ATOM     16  C   UNL     1      -3.244  26.771  26.326  1.00  0.00    -0.000 C 
BRANCH  16  17
ATOM     17  C   UNL     1      -3.820  25.711  25.374  1.00  0.00    -0.000 C 
BRANCH  17  18
ATOM     18  C   UNL     1      -3.677  24.306  25.969  1.00  0.00    -0.003 C 
ATOM     19  C   UNL     1      -5.019  23.576  25.989  1.00  0.00     0.004 C 
ENDBRANCH  17  18
ENDBRANCH  16  17
ENDBRANCH  15  16
ENDBRANCH  14  15
ENDBRANCH  13  14
ENDBRANCH  12  13
ENDBRANCH   1  12
TORSDOF 14
ENDMDL
MODEL 7
REMARK VINA RESULT:    -3.106     14.444     16.702
REMARK INTER + INTRA:          -6.851
REMARK INTER:                  -5.779
REMARK INTRA:                  -1.072
REMARK UNBOUND:                -1.204
REMARK SMILES CCCCCCCCCCCCCC[C@H](C)C(=O)[O-]
REMARK SMILES IDX 9 1 10 2 11 3 12 4 13 5 14 6 15 7 16 8 17 9 18 10 19 11 8 12
REMARK SMILES IDX 7 13 6 14 5 15 4 16 3 17 2 18 1 19
REMARK H PARENT
REMARK Flexibility Score: inf
ROOT
ATOM      1  C   UNL     1     -16.864  24.403  31.541  1.00  0.00     0.000 C 
ENDROOT
BRANCH   1   2
ATOM      2  C   UNL     1     -18.111  24.113  32.396  1.00  0.00     0.000 C 
BRANCH   2   3
ATOM      3  C   UNL     1     -17.838  23.346  33.704  1.00  0.00     0.000 C 
BRANCH   3   4
ATOM      4  C   UNL     1     -17.701  21.820  33.546  1.00  0.00     0.000 C 
BRANCH   4   5
ATOM      5  C   UNL     1     -16.512  21.391  32.661  1.00  0.00     0.001 C 
BRANCH   5   6
ATOM      6  C   UNL     1     -15.247  21.088  33.489  1.00  0.00     0.009 C 
BRANCH   6   7
ATOM      7  C   UNL     1     -14.782  22.254  34.390  1.00  0.00     0.032 C 
ATOM      8  C   UNL     1     -14.234  23.443  33.588  1.00  0.00     0.014 C 
BRANCH   7   9
ATOM      9  C   UNL     1     -13.810  21.785  35.443  1.00  0.00     0.044 C 
ATOM     10  O   UNL     1     -14.097  21.855  36.667  1.00  0.00    -0.550 OA
ATOM     11  O   UNL     1     -12.557  21.322  35.062  1.00  0.00    -0.550 OA
ENDBRANCH   7   9
ENDBRANCH   6   7
ENDBRANCH   5   6
ENDBRANCH   4   5
ENDBRANCH   3   4
ENDBRANCH   2   3
ENDBRANCH   1   2
BRANCH   1  12
ATOM     12  C   UNL     1     -16.223  25.764  31.855  1.00  0.00     0.000 C 
BRANCH  12  13
ATOM     13  C   UNL     1     -17.291  26.792  32.258  1.00  0.00    -0.000 C 
BRANCH  13  14
ATOM     14  C   UNL     1     -16.862  27.657  33.454  1.00  0.00    -0.000 C 
BRANCH  14  15
ATOM     15  C   UNL     1     -17.954  27.755  34.536  1.00  0.00    -0.000 C 
BRANCH  15  16
ATOM     16  C   UNL     1     -17.373  27.970  35.942  1.00  0.00    -0.000 C 
BRANCH  16  17
ATOM     17  C   UNL     1     -17.725  26.830  36.911  1.00  0.00    -0.000 C 
BRANCH  17  18
ATOM     18  C   UNL     1     -17.655  25.472  36.205  1.00  0.00    -0.003 C 
ATOM     19  C   UNL     1     -18.125  24.347  37.125  1.00  0.00     0.004 C 
ENDBRANCH  17  18
ENDBRANCH  16  17
ENDBRANCH  15  16
ENDBRANCH  14  15
ENDBRANCH  13  14
ENDBRANCH  12  13
ENDBRANCH   1  12
TORSDOF 14
ENDMDL
MODEL 8
REMARK VINA RESULT:    -3.092      3.739      8.643
REMARK INTER + INTRA:          -6.826
REMARK INTER:                  -5.724
REMARK INTRA:                  -1.102
REMARK UNBOUND:                -1.204
REMARK SMILES CCCCCCCCCCCCCC[C@H](C)C(=O)[O-]
REMARK SMILES IDX 9 1 10 2 11 3 12 4 13 5 14 6 15 7 16 8 17 9 18 10 19 11 8 12
REMARK SMILES IDX 7 13 6 14 5 15 4 16 3 17 2 18 1 19
REMARK H PARENT
REMARK Flexibility Score: inf
ROOT
ATOM      1  C   UNL     1      -2.536  26.617  24.835  1.00  0.00     0.000 C 
ENDROOT
BRANCH   1   2
ATOM      2  C   UNL     1      -3.488  26.040  25.900  1.00  0.00     0.000 C 
BRANCH   2   3
ATOM      3  C   UNL     1      -3.559  24.501  25.941  1.00  0.00     0.000 C 
BRANCH   3   4
ATOM      4  C   UNL     1      -4.936  23.905  25.592  1.00  0.00     0.000 C 
BRANCH   4   5
ATOM      5  C   UNL     1      -5.651  23.249  26.793  1.00  0.00     0.001 C 
BRANCH   5   6
ATOM      6  C   UNL     1      -6.911  22.469  26.367  1.00  0.00     0.009 C 
BRANCH   6   7
ATOM      7  C   UNL     1      -8.234  23.237  26.576  1.00  0.00     0.032 C 
ATOM      8  C   UNL     1      -9.082  22.662  27.721  1.00  0.00     0.014 C 
BRANCH   7   9
ATOM      9  C   UNL     1      -9.018  23.348  25.293  1.00  0.00     0.044 C 
ATOM     10  O   UNL     1      -9.013  24.414  24.621  1.00  0.00    -0.550 OA
ATOM     11  O   UNL     1      -9.801  22.281  24.873  1.00  0.00    -0.550 OA
ENDBRANCH   7   9
ENDBRANCH   6   7
ENDBRANCH   5   6
ENDBRANCH   4   5
ENDBRANCH   3   4
ENDBRANCH   2   3
ENDBRANCH   1   2
BRANCH   1  12
ATOM     12  C   UNL     1      -2.070  28.045  25.158  1.00  0.00     0.000 C 
BRANCH  12  13
ATOM     13  C   UNL     1      -0.839  28.026  26.077  1.00  0.00    -0.000 C 
BRANCH  13  14
ATOM     14  C   UNL     1       0.400  27.421  25.398  1.00  0.00    -0.000 C 
BRANCH  14  15
ATOM     15  C   UNL     1       0.667  28.025  24.007  1.00  0.00    -0.000 C 
BRANCH  15  16
ATOM     16  C   UNL     1       1.595  27.149  23.152  1.00  0.00    -0.000 C 
BRANCH  16  17
ATOM     17  C   UNL     1       0.846  26.017  22.431  1.00  0.00    -0.000 C 
BRANCH  17  18
ATOM     18  C   UNL     1       1.122  24.666  23.101  1.00  0.00    -0.003 C 
ATOM     19  C   UNL     1      -0.142  24.103  23.748  1.00  0.00     0.004 C 
ENDBRANCH  17  18
ENDBRANCH  16  17
ENDBRANCH  15  16
ENDBRANCH  14  15
ENDBRANCH  13  14
ENDBRANCH  12  13
ENDBRANCH   1  12
TORSDOF 14
ENDMDL
MODEL 9
REMARK VINA RESULT:    -3.047      3.577      6.544
REMARK INTER + INTRA:          -6.745
REMARK INTER:                  -5.511
REMARK INTRA:                  -1.233
REMARK UNBOUND:                -1.204
REMARK SMILES CCCCCCCCCCCCCC[C@H](C)C(=O)[O-]
REMARK SMILES IDX 9 1 10 2 11 3 12 4 13 5 14 6 15 7 16 8 17 9 18 10 19 11 8 12
REMARK SMILES IDX 7 13 6 14 5 15 4 16 3 17 2 18 1 19
REMARK H PARENT
REMARK Flexibility Score: inf
ROOT
ATOM      1  C   UNL     1      -0.065  24.654  23.801  1.00  0.00     0.000 C 
ENDROOT
BRANCH   1   2
ATOM      2  C   UNL     1       1.210  24.281  23.022  1.00  0.00     0.000 C 
BRANCH   2   3
ATOM      3  C   UNL     1       0.966  23.725  21.606  1.00  0.00     0.000 C 
BRANCH   3   4
ATOM      4  C   UNL     1       1.428  24.643  20.458  1.00  0.00     0.000 C 
BRANCH   4   5
ATOM      5  C   UNL     1       1.404  23.964  19.072  1.00  0.00     0.001 C 
BRANCH   5   6
ATOM      6  C   UNL     1       1.726  22.458  19.154  1.00  0.00     0.009 C 
BRANCH   6   7
ATOM      7  C   UNL     1       0.847  21.570  18.245  1.00  0.00     0.032 C 
ATOM      8  C   UNL     1      -0.490  22.232  17.879  1.00  0.00     0.014 C 
BRANCH   7   9
ATOM      9  C   UNL     1       0.655  20.196  18.834  1.00  0.00     0.044 C 
ATOM     10  O   UNL     1       0.567  19.180  18.094  1.00  0.00    -0.550 OA
ATOM     11  O   UNL     1       0.516  20.052  20.208  1.00  0.00    -0.550 OA
ENDBRANCH   7   9
ENDBRANCH   6   7
ENDBRANCH   5   6
ENDBRANCH   4   5
ENDBRANCH   3   4
ENDBRANCH   2   3
ENDBRANCH   1   2
BRANCH   1  12
ATOM     12  C   UNL     1      -0.033  26.087  24.354  1.00  0.00     0.000 C 
BRANCH  12  13
ATOM     13  C   UNL     1      -0.770  27.054  23.413  1.00  0.00    -0.000 C 
BRANCH  13  14
ATOM     14  C   UNL     1      -2.068  27.604  24.025  1.00  0.00    -0.000 C 
BRANCH  14  15
ATOM     15  C   UNL     1      -1.987  27.746  25.556  1.00  0.00    -0.000 C 
BRANCH  15  16
ATOM     16  C   UNL     1      -3.036  26.890  26.283  1.00  0.00    -0.000 C 
BRANCH  16  17
ATOM     17  C   UNL     1      -3.722  25.875  25.355  1.00  0.00    -0.000 C 
BRANCH  17  18
ATOM     18  C   UNL     1      -3.506  24.443  25.856  1.00  0.00    -0.003 C 
ATOM     19  C   UNL     1      -4.814  23.655  25.855  1.00  0.00     0.004 C 
ENDBRANCH  17  18
ENDBRANCH  16  17
ENDBRANCH  15  16
ENDBRANCH  14  15
ENDBRANCH  13  14
ENDBRANCH  12  13
ENDBRANCH   1  12
TORSDOF 14
ENDMDL
