MODEL 1
REMARK VINA RESULT:    -5.656      0.000      0.000
REMARK INTER + INTRA:          -7.478
REMARK INTER:                  -7.640
REMARK INTRA:                   0.161
REMARK UNBOUND:                 0.161
REMARK SMILES C=C1C(=O)O[C@H]2[C@@H]1CCC(C)=CCC[C@@]1(C)O[C@@H]21
REMARK SMILES IDX 6 1 7 2 2 3 1 4 3 5 4 6 5 7 8 8 9 9 10 10 11 11 12 12 18 14
REMARK SMILES IDX 15 15 17 16 16 17 14 18 13 19
REMARK H PARENT
REMARK Flexibility Score: 70.00
ROOT
ATOM      1  C   UNL     1      -3.048  -2.668  10.658  1.00  0.00     0.216 C 
ATOM      2  C   UNL     1      -4.092  -1.725   9.915  1.00  0.00     0.070 C 
ATOM      3  C   UNL     1      -4.851  -2.703   9.057  1.00  0.00     0.037 C 
ATOM      4  C   UNL     1      -5.670  -2.392   8.052  1.00  0.00     0.021 C 
ATOM      5  C   UNL     1      -4.469  -4.035   9.439  1.00  0.00     0.334 C 
ATOM      6  O   UNL     1      -4.957  -5.101   8.978  1.00  0.00    -0.247 OA
ATOM      7  O   UNL     1      -3.478  -4.002  10.391  1.00  0.00    -0.455 OA
ENDROOT
BRANCH   2   8
ATOM      8  C   UNL     1      -5.092  -0.884  10.767  1.00  0.00     0.017 C 
BRANCH   8   9
ATOM      9  C   UNL     1      -4.826   0.647  10.717  1.00  0.00     0.031 C 
BRANCH   9  10
ATOM     10  C   UNL     1      -3.688   1.012   9.786  1.00  0.00    -0.077 C 
ATOM     11  C   UNL     1      -4.021   1.363   8.359  1.00  0.00     0.039 C 
ATOM     12  C   UNL     1      -2.392   1.081  10.176  1.00  0.00    -0.028 CG0
ATOM     13  G   UNL     1      -1.860   0.778  11.560  1.00  0.00     0.000 G0
ENDBRANCH   9  10
ENDBRANCH   8   9
ENDBRANCH   2   8
BRANCH   1  14
ATOM     14  C   UNL     1      -2.711  -2.571  12.170  1.00  0.00     0.192 C 
ATOM     15  C   UNL     1      -1.694  -1.576  12.644  1.00  0.00     0.096 C 
ATOM     16  O   UNL     1      -3.079  -1.380  12.813  1.00  0.00    -0.362 OA
ATOM     17  C   UNL     1      -1.004  -1.842  13.982  1.00  0.00     0.045 C 
BRANCH  15  18
ATOM     18  C   UNL     1      -1.063  -0.536  11.692  1.00  0.00     0.042 C 
BRANCH  18  19
ATOM     19  C   UNL     1      -1.852   0.785  11.558  1.00  0.00     0.030 CG0
ATOM     20  G   UNL     1      -2.395   1.089  10.178  1.00  0.00     0.000 G0
ENDBRANCH  18  19
ENDBRANCH  15  18
ENDBRANCH   1  14
TORSDOF 0
ENDMDL
MODEL 2
REMARK VINA RESULT:    -5.573      2.180      4.322
REMARK INTER + INTRA:          -7.367
REMARK INTER:                  -7.522
REMARK INTRA:                   0.155
REMARK UNBOUND:                 0.161
REMARK SMILES C=C1C(=O)O[C@H]2[C@@H]1CCC(C)=CCC[C@@]1(C)O[C@@H]21
REMARK SMILES IDX 6 1 7 2 2 3 1 4 3 5 4 6 5 7 8 8 9 9 10 10 11 11 12 12 18 14
REMARK SMILES IDX 15 15 17 16 16 17 14 18 13 19
REMARK H PARENT
REMARK Flexibility Score: 70.00
ROOT
ATOM      1  C   UNL     1      -3.301  -0.236  12.742  1.00  0.00     0.216 C 
ATOM      2  C   UNL     1      -2.573  -1.064  11.594  1.00  0.00     0.070 C 
ATOM      3  C   UNL     1      -1.375  -1.621  12.315  1.00  0.00     0.037 C 
ATOM      4  C   UNL     1      -0.307  -2.181  11.744  1.00  0.00     0.021 C 
ATOM      5  C   UNL     1      -1.526  -1.361  13.720  1.00  0.00     0.334 C 
ATOM      6  O   UNL     1      -0.745  -1.749  14.629  1.00  0.00    -0.247 OA
ATOM      7  O   UNL     1      -2.657  -0.616  13.956  1.00  0.00    -0.455 OA
ENDROOT
BRANCH   2   8
ATOM      8  C   UNL     1      -3.347  -2.219  10.886  1.00  0.00     0.017 C 
BRANCH   8   9
ATOM      9  C   UNL     1      -3.737  -1.903   9.415  1.00  0.00     0.031 C 
BRANCH   9  10
ATOM     10  C   UNL     1      -3.177  -0.580   8.933  1.00  0.00    -0.077 C 
ATOM     11  C   UNL     1      -1.820  -0.579   8.278  1.00  0.00     0.039 C 
ATOM     12  C   UNL     1      -3.846   0.594   9.021  1.00  0.00    -0.028 CG0
ATOM     13  G   UNL     1      -5.216   0.797   9.632  1.00  0.00     0.000 G0
ENDBRANCH   9  10
ENDBRANCH   8   9
ENDBRANCH   2   8
BRANCH   1  14
ATOM     14  C   UNL     1      -4.834  -0.256  12.989  1.00  0.00     0.192 C 
ATOM     15  C   UNL     1      -5.727   0.648  12.194  1.00  0.00     0.096 C 
ATOM     16  O   UNL     1      -5.626  -0.734  11.936  1.00  0.00    -0.362 OA
ATOM     17  C   UNL     1      -7.092   1.004  12.785  1.00  0.00     0.045 C 
BRANCH  15  18
ATOM     18  C   UNL     1      -5.193   1.506  11.026  1.00  0.00     0.042 C 
BRANCH  18  19
ATOM     19  C   UNL     1      -5.204   0.808   9.648  1.00  0.00     0.030 CG0
ATOM     20  G   UNL     1      -3.848   0.584   9.013  1.00  0.00     0.000 G0
ENDBRANCH  18  19
ENDBRANCH  15  18
ENDBRANCH   1  14
TORSDOF 0
ENDMDL
MODEL 3
REMARK VINA RESULT:    -5.543      2.180      4.332
REMARK INTER + INTRA:          -7.326
REMARK INTER:                  -7.494
REMARK INTRA:                   0.168
REMARK UNBOUND:                 0.161
REMARK SMILES C=C1C(=O)O[C@H]2[C@@H]1CCC(C)=CCC[C@@]1(C)O[C@@H]21
REMARK SMILES IDX 6 1 7 2 2 3 1 4 3 5 4 6 5 7 8 8 9 9 10 10 11 11 12 12 18 14
REMARK SMILES IDX 15 15 17 16 16 17 14 18 13 19
REMARK H PARENT
REMARK Flexibility Score: 70.00
ROOT
ATOM      1  C   UNL     1      -5.557  -0.745  10.899  1.00  0.00     0.216 C 
ATOM      2  C   UNL     1      -4.500   0.177  11.651  1.00  0.00     0.070 C 
ATOM      3  C   UNL     1      -5.386   1.057  12.491  1.00  0.00     0.037 C 
ATOM      4  C   UNL     1      -5.012   2.172  13.120  1.00  0.00     0.021 C 
ATOM      5  C   UNL     1      -6.729   0.551  12.422  1.00  0.00     0.334 C 
ATOM      6  O   UNL     1      -7.718   1.000  13.059  1.00  0.00    -0.247 OA
ATOM      7  O   UNL     1      -6.803  -0.511  11.552  1.00  0.00    -0.455 OA
ENDROOT
BRANCH   2   8
ATOM      8  C   UNL     1      -3.416  -0.493  12.550  1.00  0.00     0.017 C 
BRANCH   8   9
ATOM      9  C   UNL     1      -2.020  -0.601  11.876  1.00  0.00     0.031 C 
BRANCH   9  10
ATOM     10  C   UNL     1      -1.899   0.268  10.641  1.00  0.00    -0.077 C 
ATOM     11  C   UNL     1      -1.559   1.724  10.826  1.00  0.00     0.039 C 
ATOM     12  C   UNL     1      -2.038  -0.200   9.377  1.00  0.00    -0.028 CG0
ATOM     13  G   UNL     1      -2.367  -1.625   8.985  1.00  0.00     0.000 G0
ENDBRANCH   9  10
ENDBRANCH   8   9
ENDBRANCH   2   8
BRANCH   1  14
ATOM     14  C   UNL     1      -5.398  -2.278  10.713  1.00  0.00     0.192 C 
ATOM     15  C   UNL     1      -4.623  -2.810   9.545  1.00  0.00     0.096 C 
ATOM     16  O   UNL     1      -4.099  -2.788  10.853  1.00  0.00    -0.362 OA
ATOM     17  C   UNL     1      -4.913  -4.239   9.086  1.00  0.00     0.045 C 
BRANCH  15  18
ATOM     18  C   UNL     1      -3.850  -1.879   8.584  1.00  0.00     0.042 C 
BRANCH  18  19
ATOM     19  C   UNL     1      -2.376  -1.626   8.971  1.00  0.00     0.030 CG0
ATOM     20  G   UNL     1      -2.037  -0.208   9.379  1.00  0.00     0.000 G0
ENDBRANCH  18  19
ENDBRANCH  15  18
ENDBRANCH   1  14
TORSDOF 0
ENDMDL
MODEL 4
REMARK VINA RESULT:    -5.334      2.410      4.322
REMARK INTER + INTRA:          -7.044
REMARK INTER:                  -7.191
REMARK INTRA:                   0.147
REMARK UNBOUND:                 0.161
REMARK SMILES C=C1C(=O)O[C@H]2[C@@H]1CCC(C)=CCC[C@@]1(C)O[C@@H]21
REMARK SMILES IDX 6 1 7 2 2 3 1 4 3 5 4 6 5 7 8 8 9 9 10 10 11 11 12 12 18 14
REMARK SMILES IDX 15 15 17 16 16 17 14 18 13 19
REMARK H PARENT
REMARK Flexibility Score: 70.00
ROOT
ATOM      1  C   UNL     1      -2.197   0.510  11.015  1.00  0.00     0.216 C 
ATOM      2  C   UNL     1      -2.738   0.129   9.568  1.00  0.00     0.070 C 
ATOM      3  C   UNL     1      -2.600   1.430   8.823  1.00  0.00     0.037 C 
ATOM      4  C   UNL     1      -3.147   1.719   7.642  1.00  0.00     0.021 C 
ATOM      5  C   UNL     1      -1.859   2.349   9.644  1.00  0.00     0.334 C 
ATOM      6  O   UNL     1      -1.497   3.508   9.309  1.00  0.00    -0.247 OA
ATOM      7  O   UNL     1      -1.589   1.793  10.872  1.00  0.00    -0.455 OA
ENDROOT
BRANCH   2   8
ATOM      8  C   UNL     1      -2.032  -1.012   8.772  1.00  0.00     0.017 C 
BRANCH   8   9
ATOM      9  C   UNL     1      -2.912  -2.279   8.579  1.00  0.00     0.031 C 
BRANCH   9  10
ATOM     10  C   UNL     1      -4.297  -2.125   9.174  1.00  0.00    -0.077 C 
ATOM     11  C   UNL     1      -5.410  -1.660   8.271  1.00  0.00     0.039 C 
ATOM     12  C   UNL     1      -4.597  -2.422  10.460  1.00  0.00    -0.028 CG0
ATOM     13  G   UNL     1      -3.626  -2.911  11.514  1.00  0.00     0.000 G0
ENDBRANCH   9  10
ENDBRANCH   8   9
ENDBRANCH   2   8
BRANCH   1  14
ATOM     14  C   UNL     1      -1.237  -0.382  11.847  1.00  0.00     0.192 C 
ATOM     15  C   UNL     1      -1.792  -1.499  12.678  1.00  0.00     0.096 C 
ATOM     16  O   UNL     1      -1.136  -1.723  11.451  1.00  0.00    -0.362 OA
ATOM     17  C   UNL     1      -0.953  -1.999  13.855  1.00  0.00     0.045 C 
BRANCH  15  18
ATOM     18  C   UNL     1      -3.285  -1.891  12.629  1.00  0.00     0.042 C 
BRANCH  18  19
ATOM     19  C   UNL     1      -3.653  -2.913  11.531  1.00  0.00     0.030 CG0
ATOM     20  G   UNL     1      -4.606  -2.418  10.465  1.00  0.00     0.000 G0
ENDBRANCH  18  19
ENDBRANCH  15  18
ENDBRANCH   1  14
TORSDOF 0
ENDMDL
MODEL 5
REMARK VINA RESULT:    -5.255      2.499      4.614
REMARK INTER + INTRA:          -6.937
REMARK INTER:                  -7.166
REMARK INTRA:                   0.229
REMARK UNBOUND:                 0.161
REMARK SMILES C=C1C(=O)O[C@H]2[C@@H]1CCC(C)=CCC[C@@]1(C)O[C@@H]21
REMARK SMILES IDX 6 1 7 2 2 3 1 4 3 5 4 6 5 7 8 8 9 9 10 10 11 11 12 12 18 14
REMARK SMILES IDX 15 15 17 16 16 17 14 18 13 19
REMARK H PARENT
REMARK Flexibility Score: 70.00
ROOT
ATOM      1  C   UNL     1      -3.161   0.053  12.258  1.00  0.00     0.216 C 
ATOM      2  C   UNL     1      -4.612   0.037  11.606  1.00  0.00     0.070 C 
ATOM      3  C   UNL     1      -5.186   1.348  12.074  1.00  0.00     0.037 C 
ATOM      4  C   UNL     1      -6.468   1.709  12.013  1.00  0.00     0.021 C 
ATOM      5  C   UNL     1      -4.135   2.111  12.690  1.00  0.00     0.334 C 
ATOM      6  O   UNL     1      -4.241   3.286  13.131  1.00  0.00    -0.247 OA
ATOM      7  O   UNL     1      -2.971   1.382  12.741  1.00  0.00    -0.455 OA
ENDROOT
BRANCH   2   8
ATOM      8  C   UNL     1      -4.744  -0.073  10.056  1.00  0.00     0.017 C 
BRANCH   8   9
ATOM      9  C   UNL     1      -4.946  -1.528   9.545  1.00  0.00     0.031 C 
BRANCH   9  10
ATOM     10  C   UNL     1      -5.507  -2.448  10.610  1.00  0.00    -0.077 C 
ATOM     11  C   UNL     1      -6.982  -2.370  10.912  1.00  0.00     0.039 C 
ATOM     12  C   UNL     1      -4.766  -3.366  11.275  1.00  0.00    -0.028 CG0
ATOM     13  G   UNL     1      -3.281  -3.604  11.108  1.00  0.00     0.000 G0
ENDBRANCH   9  10
ENDBRANCH   8   9
ENDBRANCH   2   8
BRANCH   1  14
ATOM     14  C   UNL     1      -1.868  -0.373  11.512  1.00  0.00     0.192 C 
ATOM     15  C   UNL     1      -1.450  -1.812  11.508  1.00  0.00     0.096 C 
ATOM     16  O   UNL     1      -2.041  -1.193  10.389  1.00  0.00    -0.362 OA
ATOM     17  C   UNL     1       0.025  -2.127  11.255  1.00  0.00     0.045 C 
BRANCH  15  18
ATOM     18  C   UNL     1      -2.340  -2.924  12.106  1.00  0.00     0.042 C 
BRANCH  18  19
ATOM     19  C   UNL     1      -3.275  -3.622  11.094  1.00  0.00     0.030 CG0
ATOM     20  G   UNL     1      -4.756  -3.368  11.284  1.00  0.00     0.000 G0
ENDBRANCH  18  19
ENDBRANCH  15  18
ENDBRANCH   1  14
TORSDOF 0
ENDMDL
MODEL 6
REMARK VINA RESULT:    -5.250      2.481      4.774
REMARK INTER + INTRA:          -6.930
REMARK INTER:                  -7.091
REMARK INTRA:                   0.161
REMARK UNBOUND:                 0.161
REMARK SMILES C=C1C(=O)O[C@H]2[C@@H]1CCC(C)=CCC[C@@]1(C)O[C@@H]21
REMARK SMILES IDX 6 1 7 2 2 3 1 4 3 5 4 6 5 7 8 8 9 9 10 10 11 11 12 12 18 14
REMARK SMILES IDX 15 15 17 16 16 17 14 18 13 19
REMARK H PARENT
REMARK Flexibility Score: 70.00
ROOT
ATOM      1  C   UNL     1      -2.769  -2.165  10.518  1.00  0.00     0.216 C 
ATOM      2  C   UNL     1      -2.586  -1.160  11.737  1.00  0.00     0.070 C 
ATOM      3  C   UNL     1      -1.119  -1.295  12.045  1.00  0.00     0.037 C 
ATOM      4  C   UNL     1      -0.505  -0.853  13.144  1.00  0.00     0.021 C 
ATOM      5  C   UNL     1      -0.504  -2.068  11.001  1.00  0.00     0.334 C 
ATOM      6  O   UNL     1       0.726  -2.319  10.899  1.00  0.00    -0.247 OA
ATOM      7  O   UNL     1      -1.448  -2.514  10.107  1.00  0.00    -0.455 OA
ENDROOT
BRANCH   2   8
ATOM      8  C   UNL     1      -2.948   0.345  11.538  1.00  0.00     0.017 C 
BRANCH   8   9
ATOM      9  C   UNL     1      -4.328   0.742  12.133  1.00  0.00     0.031 C 
BRANCH   9  10
ATOM     10  C   UNL     1      -4.879  -0.302  13.082  1.00  0.00    -0.077 C 
ATOM     11  C   UNL     1      -4.411  -0.279  14.514  1.00  0.00     0.039 C 
ATOM     12  C   UNL     1      -5.799  -1.229  12.724  1.00  0.00    -0.028 CG0
ATOM     13  G   UNL     1      -6.397  -1.408  11.345  1.00  0.00     0.000 G0
ENDBRANCH   9  10
ENDBRANCH   8   9
ENDBRANCH   2   8
BRANCH   1  14
ATOM     14  C   UNL     1      -3.595  -1.846   9.243  1.00  0.00     0.192 C 
ATOM     15  C   UNL     1      -5.070  -2.111   9.226  1.00  0.00     0.096 C 
ATOM     16  O   UNL     1      -4.537  -0.813   9.357  1.00  0.00    -0.362 OA
ATOM     17  C   UNL     1      -5.746  -2.299   7.867  1.00  0.00     0.045 C 
BRANCH  15  18
ATOM     18  C   UNL     1      -5.835  -2.565  10.489  1.00  0.00     0.042 C 
BRANCH  18  19
ATOM     19  C   UNL     1      -6.409  -1.417  11.348  1.00  0.00     0.030 CG0
ATOM     20  G   UNL     1      -5.782  -1.240  12.714  1.00  0.00     0.000 G0
ENDBRANCH  18  19
ENDBRANCH  15  18
ENDBRANCH   1  14
TORSDOF 0
ENDMDL
MODEL 7
REMARK VINA RESULT:    -5.206      2.535      5.381
REMARK INTER + INTRA:          -6.871
REMARK INTER:                  -7.031
REMARK INTRA:                   0.160
REMARK UNBOUND:                 0.161
REMARK SMILES C=C1C(=O)O[C@H]2[C@@H]1CCC(C)=CCC[C@@]1(C)O[C@@H]21
REMARK SMILES IDX 6 1 7 2 2 3 1 4 3 5 4 6 5 7 8 8 9 9 10 10 11 11 12 12 18 14
REMARK SMILES IDX 15 15 17 16 16 17 14 18 13 19
REMARK H PARENT
REMARK Flexibility Score: 70.00
ROOT
ATOM      1  C   UNL     1      -3.306  -0.198   9.553  1.00  0.00     0.216 C 
ATOM      2  C   UNL     1      -2.789  -0.483  11.031  1.00  0.00     0.070 C 
ATOM      3  C   UNL     1      -2.003   0.763  11.340  1.00  0.00     0.037 C 
ATOM      4  C   UNL     1      -1.156   0.923  12.357  1.00  0.00     0.021 C 
ATOM      5  C   UNL     1      -2.242   1.722  10.296  1.00  0.00     0.334 C 
ATOM      6  O   UNL     1      -1.800   2.901  10.266  1.00  0.00    -0.247 OA
ATOM      7  O   UNL     1      -3.030   1.180   9.310  1.00  0.00    -0.455 OA
ENDROOT
BRANCH   2   8
ATOM      8  C   UNL     1      -3.833  -0.742  12.161  1.00  0.00     0.017 C 
BRANCH   8   9
ATOM      9  C   UNL     1      -4.003  -2.244  12.526  1.00  0.00     0.031 C 
BRANCH   9  10
ATOM     10  C   UNL     1      -2.891  -3.110  11.970  1.00  0.00    -0.077 C 
ATOM     11  C   UNL     1      -1.603  -3.200  12.747  1.00  0.00     0.039 C 
ATOM     12  C   UNL     1      -3.006  -3.840  10.835  1.00  0.00    -0.028 CG0
ATOM     13  G   UNL     1      -4.214  -3.890   9.925  1.00  0.00     0.000 G0
ENDBRANCH   9  10
ENDBRANCH   8   9
ENDBRANCH   2   8
BRANCH   1  14
ATOM     14  C   UNL     1      -4.751  -0.488   9.066  1.00  0.00     0.192 C 
ATOM     15  C   UNL     1      -5.105  -1.852   8.555  1.00  0.00     0.096 C 
ATOM     16  O   UNL     1      -5.493  -1.399   9.831  1.00  0.00    -0.362 OA
ATOM     17  C   UNL     1      -6.308  -1.974   7.619  1.00  0.00     0.045 C 
BRANCH  15  18
ATOM     18  C   UNL     1      -4.113  -3.035   8.625  1.00  0.00     0.042 C 
BRANCH  18  19
ATOM     19  C   UNL     1      -4.210  -3.888   9.908  1.00  0.00     0.030 CG0
ATOM     20  G   UNL     1      -3.006  -3.838  10.824  1.00  0.00     0.000 G0
ENDBRANCH  18  19
ENDBRANCH  15  18
ENDBRANCH   1  14
TORSDOF 0
ENDMDL
MODEL 8
REMARK VINA RESULT:    -5.204      2.193      2.990
REMARK INTER + INTRA:          -6.868
REMARK INTER:                  -7.033
REMARK INTRA:                   0.164
REMARK UNBOUND:                 0.161
REMARK SMILES C=C1C(=O)O[C@H]2[C@@H]1CCC(C)=CCC[C@@]1(C)O[C@@H]21
REMARK SMILES IDX 6 1 7 2 2 3 1 4 3 5 4 6 5 7 8 8 9 9 10 10 11 11 12 12 18 14
REMARK SMILES IDX 15 15 17 16 16 17 14 18 13 19
REMARK H PARENT
REMARK Flexibility Score: 70.00
ROOT
ATOM      1  C   UNL     1      -5.421  -0.967  11.616  1.00  0.00     0.216 C 
ATOM      2  C   UNL     1      -4.841  -1.425  10.207  1.00  0.00     0.070 C 
ATOM      3  C   UNL     1      -5.729  -2.589   9.860  1.00  0.00     0.037 C 
ATOM      4  C   UNL     1      -5.505  -3.486   8.898  1.00  0.00     0.021 C 
ATOM      5  C   UNL     1      -6.811  -2.635  10.804  1.00  0.00     0.334 C 
ATOM      6  O   UNL     1      -7.781  -3.438  10.774  1.00  0.00    -0.247 OA
ATOM      7  O   UNL     1      -6.653  -1.670  11.770  1.00  0.00    -0.455 OA
ENDROOT
BRANCH   2   8
ATOM      8  C   UNL     1      -4.824  -0.404   9.027  1.00  0.00     0.017 C 
BRANCH   8   9
ATOM      9  C   UNL     1      -3.415   0.178   8.721  1.00  0.00     0.031 C 
BRANCH   9  10
ATOM     10  C   UNL     1      -2.308  -0.560   9.445  1.00  0.00    -0.077 C 
ATOM     11  C   UNL     1      -1.724  -1.786   8.791  1.00  0.00     0.039 C 
ATOM     12  C   UNL     1      -1.786  -0.156  10.628  1.00  0.00    -0.028 CG0
ATOM     13  G   UNL     1      -2.226   1.047  11.433  1.00  0.00     0.000 G0
ENDBRANCH   9  10
ENDBRANCH   8   9
ENDBRANCH   2   8
BRANCH   1  14
ATOM     14  C   UNL     1      -5.663   0.513  12.017  1.00  0.00     0.192 C 
ATOM     15  C   UNL     1      -4.541   1.322  12.595  1.00  0.00     0.096 C 
ATOM     16  O   UNL     1      -4.981   1.480  11.265  1.00  0.00    -0.362 OA
ATOM     17  C   UNL     1      -4.902   2.538  13.448  1.00  0.00     0.045 C 
BRANCH  15  18
ATOM     18  C   UNL     1      -3.098   0.776  12.677  1.00  0.00     0.042 C 
BRANCH  18  19
ATOM     19  C   UNL     1      -2.225   1.059  11.435  1.00  0.00     0.030 CG0
ATOM     20  G   UNL     1      -1.787  -0.157  10.647  1.00  0.00     0.000 G0
ENDBRANCH  18  19
ENDBRANCH  15  18
ENDBRANCH   1  14
TORSDOF 0
ENDMDL
MODEL 9
REMARK VINA RESULT:    -5.162      2.108      3.693
REMARK INTER + INTRA:          -6.811
REMARK INTER:                  -6.979
REMARK INTRA:                   0.168
REMARK UNBOUND:                 0.161
REMARK SMILES C=C1C(=O)O[C@H]2[C@@H]1CCC(C)=CCC[C@@]1(C)O[C@@H]21
REMARK SMILES IDX 6 1 7 2 2 3 1 4 3 5 4 6 5 7 8 8 9 9 10 10 11 11 12 12 18 14
REMARK SMILES IDX 15 15 17 16 16 17 14 18 13 19
REMARK H PARENT
REMARK Flexibility Score: 70.00
ROOT
ATOM      1  C   UNL     1      -4.951  -1.217  10.602  1.00  0.00     0.216 C 
ATOM      2  C   UNL     1      -3.388  -1.330  10.323  1.00  0.00     0.070 C 
ATOM      3  C   UNL     1      -3.350  -2.086   9.022  1.00  0.00     0.037 C 
ATOM      4  C   UNL     1      -2.276  -2.659   8.479  1.00  0.00     0.021 C 
ATOM      5  C   UNL     1      -4.690  -2.173   8.506  1.00  0.00     0.334 C 
ATOM      6  O   UNL     1      -5.021  -2.677   7.400  1.00  0.00    -0.247 OA
ATOM      7  O   UNL     1      -5.587  -1.626   9.392  1.00  0.00    -0.455 OA
ENDROOT
BRANCH   2   8
ATOM      8  C   UNL     1      -2.545  -0.023  10.198  1.00  0.00     0.017 C 
BRANCH   8   9
ATOM      9  C   UNL     1      -1.534   0.184  11.361  1.00  0.00     0.031 C 
BRANCH   9  10
ATOM     10  C   UNL     1      -1.537  -0.964  12.349  1.00  0.00    -0.077 C 
ATOM     11  C   UNL     1      -0.539  -2.076  12.150  1.00  0.00     0.039 C 
ATOM     12  C   UNL     1      -2.357  -1.026  13.425  1.00  0.00    -0.028 CG0
ATOM     13  G   UNL     1      -3.414  -0.009  13.801  1.00  0.00     0.000 G0
ENDBRANCH   9  10
ENDBRANCH   8   9
ENDBRANCH   2   8
BRANCH   1  14
ATOM     14  C   UNL     1      -5.655   0.075  11.097  1.00  0.00     0.192 C 
ATOM     15  C   UNL     1      -5.672   0.399  12.560  1.00  0.00     0.096 C 
ATOM     16  O   UNL     1      -4.825   1.061  11.649  1.00  0.00    -0.362 OA
ATOM     17  C   UNL     1      -6.772   1.330  13.073  1.00  0.00     0.045 C 
BRANCH  15  18
ATOM     18  C   UNL     1      -4.887  -0.440  13.593  1.00  0.00     0.042 C 
BRANCH  18  19
ATOM     19  C   UNL     1      -3.421  -0.002  13.806  1.00  0.00     0.030 CG0
ATOM     20  G   UNL     1      -2.369  -1.022  13.426  1.00  0.00     0.000 G0
ENDBRANCH  18  19
ENDBRANCH  15  18
ENDBRANCH   1  14
TORSDOF 0
ENDMDL
