MODEL 1
REMARK VINA RESULT:    -5.467      0.000      0.000
REMARK INTER + INTRA:         -10.390
REMARK INTER:                  -9.623
REMARK INTRA:                  -0.768
REMARK UNBOUND:                -0.768
REMARK SMILES CCCCCCC=CCCCCCCCC(=O)[O-]
REMARK SMILES IDX 10 1 11 2 12 3 13 4 14 5 15 6 16 7 17 8 18 9 9 10 8 11 7 12
REMARK SMILES IDX 6 13 5 14 4 15 3 16 2 17 1 18
REMARK H PARENT
REMARK Flexibility Score: inf
ROOT
ATOM      1  C   UNL     1      42.858  51.655  35.513  1.00  0.00     0.004 C 
ENDROOT
BRANCH   1   2
ATOM      2  C   UNL     1      41.440  51.793  34.935  1.00  0.00     0.000 C 
BRANCH   2   3
ATOM      3  C   UNL     1      41.400  51.606  33.410  1.00  0.00     0.000 C 
BRANCH   3   4
ATOM      4  C   UNL     1      40.348  50.561  33.013  1.00  0.00     0.000 C 
BRANCH   4   5
ATOM      5  C   UNL     1      40.625  49.917  31.642  1.00  0.00     0.006 C 
BRANCH   5   6
ATOM      6  C   UNL     1      39.746  50.465  30.504  1.00  0.00     0.053 C 
BRANCH   6   7
ATOM      7  C   UNL     1      38.398  49.811  30.448  1.00  0.00     0.041 C 
ATOM      8  O   UNL     1      37.476  50.314  29.752  1.00  0.00    -0.550 OA
ATOM      9  O   UNL     1      38.170  48.628  31.139  1.00  0.00    -0.550 OA
ENDBRANCH   6   7
ENDBRANCH   5   6
ENDBRANCH   4   5
ENDBRANCH   3   4
ENDBRANCH   2   3
ENDBRANCH   1   2
BRANCH   1  10
ATOM     10  C   UNL     1      43.927  52.304  34.621  1.00  0.00     0.027 C 
BRANCH  10  11
ATOM     11  C   UNL     1      44.021  53.784  34.878  1.00  0.00    -0.031 C 
ATOM     12  C   UNL     1      43.589  54.326  36.028  1.00  0.00    -0.031 C 
BRANCH  12  13
ATOM     13  C   UNL     1      43.684  55.804  36.282  1.00  0.00     0.027 C 
BRANCH  13  14
ATOM     14  C   UNL     1      45.015  56.167  36.958  1.00  0.00     0.004 C 
BRANCH  14  15
ATOM     15  C   UNL     1      45.149  55.538  38.361  1.00  0.00     0.000 C 
BRANCH  15  16
ATOM     16  C   UNL     1      44.409  56.321  39.463  1.00  0.00    -0.000 C 
BRANCH  16  17
ATOM     17  C   UNL     1      44.566  57.848  39.382  1.00  0.00    -0.003 C 
ATOM     18  C   UNL     1      45.956  58.326  39.800  1.00  0.00     0.004 C 
ENDBRANCH  16  17
ENDBRANCH  15  16
ENDBRANCH  14  15
ENDBRANCH  13  14
ENDBRANCH  12  13
ENDBRANCH  10  11
ENDBRANCH   1  10
TORSDOF 13
ENDMDL
MODEL 2
REMARK VINA RESULT:    -5.360      7.689      9.234
REMARK INTER + INTRA:         -10.201
REMARK INTER:                  -9.198
REMARK INTRA:                  -1.003
REMARK UNBOUND:                -0.768
REMARK SMILES CCCCCCC=CCCCCCCCC(=O)[O-]
REMARK SMILES IDX 10 1 11 2 12 3 13 4 14 5 15 6 16 7 17 8 18 9 9 10 8 11 7 12
REMARK SMILES IDX 6 13 5 14 4 15 3 16 2 17 1 18
REMARK H PARENT
REMARK Flexibility Score: inf
ROOT
ATOM      1  C   UNL     1      50.773  49.377  36.608  1.00  0.00     0.004 C 
ENDROOT
BRANCH   1   2
ATOM      2  C   UNL     1      49.842  49.270  35.389  1.00  0.00     0.000 C 
BRANCH   2   3
ATOM      3  C   UNL     1      49.152  50.600  35.051  1.00  0.00     0.000 C 
BRANCH   3   4
ATOM      4  C   UNL     1      47.741  50.361  34.495  1.00  0.00     0.000 C 
BRANCH   4   5
ATOM      5  C   UNL     1      47.335  48.876  34.500  1.00  0.00     0.006 C 
BRANCH   5   6
ATOM      6  C   UNL     1      46.187  48.544  35.471  1.00  0.00     0.053 C 
BRANCH   6   7
ATOM      7  C   UNL     1      46.138  47.091  35.834  1.00  0.00     0.041 C 
ATOM      8  O   UNL     1      45.525  46.272  35.100  1.00  0.00    -0.550 OA
ATOM      9  O   UNL     1      46.800  46.635  36.968  1.00  0.00    -0.550 OA
ENDBRANCH   6   7
ENDBRANCH   5   6
ENDBRANCH   4   5
ENDBRANCH   3   4
ENDBRANCH   2   3
ENDBRANCH   1   2
BRANCH   1  10
ATOM     10  C   UNL     1      51.396  50.773  36.757  1.00  0.00     0.027 C 
BRANCH  10  11
ATOM     11  C   UNL     1      51.590  51.128  38.206  1.00  0.00    -0.031 C 
ATOM     12  C   UNL     1      52.547  50.548  38.949  1.00  0.00    -0.031 C 
BRANCH  12  13
ATOM     13  C   UNL     1      52.740  50.904  40.396  1.00  0.00     0.027 C 
BRANCH  13  14
ATOM     14  C   UNL     1      51.498  51.606  40.965  1.00  0.00     0.004 C 
BRANCH  14  15
ATOM     15  C   UNL     1      51.023  50.972  42.290  1.00  0.00     0.000 C 
BRANCH  15  16
ATOM     16  C   UNL     1      49.708  50.180  42.161  1.00  0.00    -0.000 C 
BRANCH  16  17
ATOM     17  C   UNL     1      49.883  48.699  41.790  1.00  0.00    -0.003 C 
ATOM     18  C   UNL     1      48.597  47.889  41.953  1.00  0.00     0.004 C 
ENDBRANCH  16  17
ENDBRANCH  15  16
ENDBRANCH  14  15
ENDBRANCH  13  14
ENDBRANCH  12  13
ENDBRANCH  10  11
ENDBRANCH   1  10
TORSDOF 13
ENDMDL
MODEL 3
REMARK VINA RESULT:    -5.339      9.171     12.482
REMARK INTER + INTRA:         -10.164
REMARK INTER:                  -8.886
REMARK INTRA:                  -1.277
REMARK UNBOUND:                -0.768
REMARK SMILES CCCCCCC=CCCCCCCCC(=O)[O-]
REMARK SMILES IDX 10 1 11 2 12 3 13 4 14 5 15 6 16 7 17 8 18 9 9 10 8 11 7 12
REMARK SMILES IDX 6 13 5 14 4 15 3 16 2 17 1 18
REMARK H PARENT
REMARK Flexibility Score: inf
ROOT
ATOM      1  C   UNL     1      49.459  49.533  35.673  1.00  0.00     0.004 C 
ENDROOT
BRANCH   1   2
ATOM      2  C   UNL     1      50.674  50.431  35.962  1.00  0.00     0.000 C 
BRANCH   2   3
ATOM      3  C   UNL     1      51.496  49.946  37.167  1.00  0.00     0.000 C 
BRANCH   3   4
ATOM      4  C   UNL     1      51.913  51.126  38.057  1.00  0.00     0.000 C 
BRANCH   4   5
ATOM      5  C   UNL     1      52.249  50.704  39.499  1.00  0.00     0.006 C 
BRANCH   5   6
ATOM      6  C   UNL     1      51.439  51.451  40.574  1.00  0.00     0.053 C 
BRANCH   6   7
ATOM      7  C   UNL     1      52.309  52.112  41.600  1.00  0.00     0.041 C 
ATOM      8  O   UNL     1      53.548  52.228  41.404  1.00  0.00    -0.550 OA
ATOM      9  O   UNL     1      51.746  52.632  42.758  1.00  0.00    -0.550 OA
ENDBRANCH   6   7
ENDBRANCH   5   6
ENDBRANCH   4   5
ENDBRANCH   3   4
ENDBRANCH   2   3
ENDBRANCH   1   2
BRANCH   1  10
ATOM     10  C   UNL     1      48.507  50.143  34.634  1.00  0.00     0.027 C 
BRANCH  10  11
ATOM     11  C   UNL     1      47.126  49.558  34.756  1.00  0.00    -0.031 C 
ATOM     12  C   UNL     1      46.849  48.592  35.647  1.00  0.00    -0.031 C 
BRANCH  12  13
ATOM     13  C   UNL     1      45.468  48.010  35.767  1.00  0.00     0.027 C 
BRANCH  13  14
ATOM     14  C   UNL     1      45.378  46.647  35.065  1.00  0.00     0.004 C 
BRANCH  14  15
ATOM     15  C   UNL     1      46.723  45.890  35.080  1.00  0.00     0.000 C 
BRANCH  15  16
ATOM     16  C   UNL     1      47.207  45.460  33.683  1.00  0.00    -0.000 C 
BRANCH  16  17
ATOM     17  C   UNL     1      48.301  46.354  33.078  1.00  0.00    -0.003 C 
ATOM     18  C   UNL     1      49.578  46.380  33.917  1.00  0.00     0.004 C 
ENDBRANCH  16  17
ENDBRANCH  15  16
ENDBRANCH  14  15
ENDBRANCH  13  14
ENDBRANCH  12  13
ENDBRANCH  10  11
ENDBRANCH   1  10
TORSDOF 13
ENDMDL
MODEL 4
REMARK VINA RESULT:    -5.313      7.416      8.695
REMARK INTER + INTRA:         -10.119
REMARK INTER:                  -8.710
REMARK INTRA:                  -1.409
REMARK UNBOUND:                -0.768
REMARK SMILES CCCCCCC=CCCCCCCCC(=O)[O-]
REMARK SMILES IDX 10 1 11 2 12 3 13 4 14 5 15 6 16 7 17 8 18 9 9 10 8 11 7 12
REMARK SMILES IDX 6 13 5 14 4 15 3 16 2 17 1 18
REMARK H PARENT
REMARK Flexibility Score: inf
ROOT
ATOM      1  C   UNL     1      45.519  46.339  35.093  1.00  0.00     0.004 C 
ENDROOT
BRANCH   1   2
ATOM      2  C   UNL     1      46.774  45.940  34.301  1.00  0.00     0.000 C 
BRANCH   2   3
ATOM      3  C   UNL     1      46.815  44.440  33.969  1.00  0.00     0.000 C 
BRANCH   3   4
ATOM      4  C   UNL     1      45.628  44.043  33.080  1.00  0.00     0.000 C 
BRANCH   4   5
ATOM      5  C   UNL     1      46.059  43.525  31.695  1.00  0.00     0.006 C 
BRANCH   5   6
ATOM      6  C   UNL     1      45.194  44.049  30.534  1.00  0.00     0.053 C 
BRANCH   6   7
ATOM      7  C   UNL     1      45.636  43.524  29.201  1.00  0.00     0.041 C 
ATOM      8  O   UNL     1      45.033  42.555  28.668  1.00  0.00    -0.550 OA
ATOM      9  O   UNL     1      46.693  44.128  28.532  1.00  0.00    -0.550 OA
ENDBRANCH   6   7
ENDBRANCH   5   6
ENDBRANCH   4   5
ENDBRANCH   3   4
ENDBRANCH   2   3
ENDBRANCH   1   2
BRANCH   1  10
ATOM     10  C   UNL     1      45.528  47.816  35.513  1.00  0.00     0.027 C 
BRANCH  10  11
ATOM     11  C   UNL     1      46.793  48.499  35.068  1.00  0.00    -0.031 C 
ATOM     12  C   UNL     1      46.866  49.834  34.948  1.00  0.00    -0.031 C 
BRANCH  12  13
ATOM     13  C   UNL     1      48.131  50.513  34.503  1.00  0.00     0.027 C 
BRANCH  13  14
ATOM     14  C   UNL     1      49.319  49.539  34.521  1.00  0.00     0.004 C 
BRANCH  14  15
ATOM     15  C   UNL     1      50.363  49.911  35.596  1.00  0.00     0.000 C 
BRANCH  15  16
ATOM     16  C   UNL     1      50.351  48.976  36.819  1.00  0.00    -0.000 C 
BRANCH  16  17
ATOM     17  C   UNL     1      49.895  47.538  36.525  1.00  0.00    -0.003 C 
ATOM     18  C   UNL     1      48.904  47.006  37.559  1.00  0.00     0.004 C 
ENDBRANCH  16  17
ENDBRANCH  15  16
ENDBRANCH  14  15
ENDBRANCH  13  14
ENDBRANCH  12  13
ENDBRANCH  10  11
ENDBRANCH   1  10
TORSDOF 13
ENDMDL
MODEL 5
REMARK VINA RESULT:    -5.300      4.345      8.874
REMARK INTER + INTRA:         -10.096
REMARK INTER:                  -8.552
REMARK INTRA:                  -1.544
REMARK UNBOUND:                -0.768
REMARK SMILES CCCCCCC=CCCCCCCCC(=O)[O-]
REMARK SMILES IDX 10 1 11 2 12 3 13 4 14 5 15 6 16 7 17 8 18 9 9 10 8 11 7 12
REMARK SMILES IDX 6 13 5 14 4 15 3 16 2 17 1 18
REMARK H PARENT
REMARK Flexibility Score: inf
ROOT
ATOM      1  C   UNL     1      43.764  52.200  34.645  1.00  0.00     0.004 C 
ENDROOT
BRANCH   1   2
ATOM      2  C   UNL     1      44.187  53.636  34.996  1.00  0.00     0.000 C 
BRANCH   2   3
ATOM      3  C   UNL     1      43.507  54.688  34.106  1.00  0.00     0.000 C 
BRANCH   3   4
ATOM      4  C   UNL     1      42.666  55.658  34.948  1.00  0.00     0.000 C 
BRANCH   4   5
ATOM      5  C   UNL     1      42.587  55.256  36.432  1.00  0.00     0.006 C 
BRANCH   5   6
ATOM      6  C   UNL     1      43.160  56.310  37.397  1.00  0.00     0.053 C 
BRANCH   6   7
ATOM      7  C   UNL     1      44.625  56.123  37.656  1.00  0.00     0.041 C 
ATOM      8  O   UNL     1      45.478  56.686  36.920  1.00  0.00    -0.550 OA
ATOM      9  O   UNL     1      45.047  55.354  38.732  1.00  0.00    -0.550 OA
ENDBRANCH   6   7
ENDBRANCH   5   6
ENDBRANCH   4   5
ENDBRANCH   3   4
ENDBRANCH   2   3
ENDBRANCH   1   2
BRANCH   1  10
ATOM     10  C   UNL     1      42.941  51.535  35.759  1.00  0.00     0.027 C 
BRANCH  10  11
ATOM     11  C   UNL     1      41.470  51.792  35.572  1.00  0.00    -0.031 C 
ATOM     12  C   UNL     1      40.924  51.888  34.349  1.00  0.00    -0.031 C 
BRANCH  12  13
ATOM     13  C   UNL     1      39.454  52.144  34.165  1.00  0.00     0.027 C 
BRANCH  13  14
ATOM     14  C   UNL     1      38.919  51.431  32.914  1.00  0.00     0.004 C 
BRANCH  14  15
ATOM     15  C   UNL     1      40.054  50.899  32.013  1.00  0.00     0.000 C 
BRANCH  15  16
ATOM     16  C   UNL     1      40.031  49.370  31.828  1.00  0.00    -0.000 C 
BRANCH  16  17
ATOM     17  C   UNL     1      38.649  48.721  32.006  1.00  0.00    -0.003 C 
ATOM     18  C   UNL     1      37.857  48.642  30.702  1.00  0.00     0.004 C 
ENDBRANCH  16  17
ENDBRANCH  15  16
ENDBRANCH  14  15
ENDBRANCH  13  14
ENDBRANCH  12  13
ENDBRANCH  10  11
ENDBRANCH   1  10
TORSDOF 13
ENDMDL
MODEL 6
REMARK VINA RESULT:    -5.293      7.542      9.395
REMARK INTER + INTRA:         -10.083
REMARK INTER:                  -8.994
REMARK INTRA:                  -1.089
REMARK UNBOUND:                -0.768
REMARK SMILES CCCCCCC=CCCCCCCCC(=O)[O-]
REMARK SMILES IDX 10 1 11 2 12 3 13 4 14 5 15 6 16 7 17 8 18 9 9 10 8 11 7 12
REMARK SMILES IDX 6 13 5 14 4 15 3 16 2 17 1 18
REMARK H PARENT
REMARK Flexibility Score: inf
ROOT
ATOM      1  C   UNL     1      45.861  43.670  33.038  1.00  0.00     0.004 C 
ENDROOT
BRANCH   1   2
ATOM      2  C   UNL     1      46.328  43.865  31.586  1.00  0.00     0.000 C 
BRANCH   2   3
ATOM      3  C   UNL     1      45.415  43.161  30.570  1.00  0.00     0.000 C 
BRANCH   3   4
ATOM      4  C   UNL     1      45.213  44.028  29.319  1.00  0.00     0.000 C 
BRANCH   4   5
ATOM      5  C   UNL     1      46.426  44.923  29.005  1.00  0.00     0.006 C 
BRANCH   5   6
ATOM      6  C   UNL     1      46.195  45.905  27.841  1.00  0.00     0.053 C 
BRANCH   6   7
ATOM      7  C   UNL     1      46.056  45.212  26.519  1.00  0.00     0.041 C 
ATOM      8  O   UNL     1      44.924  45.093  25.979  1.00  0.00    -0.550 OA
ATOM      9  O   UNL     1      47.183  44.727  25.867  1.00  0.00    -0.550 OA
ENDBRANCH   6   7
ENDBRANCH   5   6
ENDBRANCH   4   5
ENDBRANCH   3   4
ENDBRANCH   2   3
ENDBRANCH   1   2
BRANCH   1  10
ATOM     10  C   UNL     1      46.685  44.492  34.040  1.00  0.00     0.027 C 
BRANCH  10  11
ATOM     11  C   UNL     1      45.950  45.738  34.454  1.00  0.00    -0.031 C 
ATOM     12  C   UNL     1      46.408  46.530  35.436  1.00  0.00    -0.031 C 
BRANCH  12  13
ATOM     13  C   UNL     1      45.672  47.774  35.847  1.00  0.00     0.027 C 
BRANCH  13  14
ATOM     14  C   UNL     1      46.262  49.019  35.168  1.00  0.00     0.004 C 
BRANCH  14  15
ATOM     15  C   UNL     1      47.780  49.155  35.414  1.00  0.00     0.000 C 
BRANCH  15  16
ATOM     16  C   UNL     1      48.544  49.787  34.236  1.00  0.00    -0.000 C 
BRANCH  16  17
ATOM     17  C   UNL     1      49.536  48.846  33.533  1.00  0.00    -0.003 C 
ATOM     18  C   UNL     1      48.849  47.668  32.844  1.00  0.00     0.004 C 
ENDBRANCH  16  17
ENDBRANCH  15  16
ENDBRANCH  14  15
ENDBRANCH  13  14
ENDBRANCH  12  13
ENDBRANCH  10  11
ENDBRANCH   1  10
TORSDOF 13
ENDMDL
MODEL 7
REMARK VINA RESULT:    -5.279      7.749      9.737
REMARK INTER + INTRA:         -10.059
REMARK INTER:                  -8.925
REMARK INTRA:                  -1.134
REMARK UNBOUND:                -0.768
REMARK SMILES CCCCCCC=CCCCCCCCC(=O)[O-]
REMARK SMILES IDX 10 1 11 2 12 3 13 4 14 5 15 6 16 7 17 8 18 9 9 10 8 11 7 12
REMARK SMILES IDX 6 13 5 14 4 15 3 16 2 17 1 18
REMARK H PARENT
REMARK Flexibility Score: inf
ROOT
ATOM      1  C   UNL     1      49.606  47.240  30.921  1.00  0.00     0.004 C 
ENDROOT
BRANCH   1   2
ATOM      2  C   UNL     1      50.155  48.054  29.738  1.00  0.00     0.000 C 
BRANCH   2   3
ATOM      3  C   UNL     1      49.366  47.821  28.440  1.00  0.00     0.000 C 
BRANCH   3   4
ATOM      4  C   UNL     1      48.512  46.550  28.538  1.00  0.00     0.000 C 
BRANCH   4   5
ATOM      5  C   UNL     1      47.114  46.713  27.915  1.00  0.00     0.006 C 
BRANCH   5   6
ATOM      6  C   UNL     1      46.186  45.503  28.131  1.00  0.00     0.053 C 
BRANCH   6   7
ATOM      7  C   UNL     1      46.009  44.681  26.890  1.00  0.00     0.041 C 
ATOM      8  O   UNL     1      46.429  45.105  25.781  1.00  0.00    -0.550 OA
ATOM      9  O   UNL     1      45.410  43.430  26.965  1.00  0.00    -0.550 OA
ENDBRANCH   6   7
ENDBRANCH   5   6
ENDBRANCH   4   5
ENDBRANCH   3   4
ENDBRANCH   2   3
ENDBRANCH   1   2
BRANCH   1  10
ATOM     10  C   UNL     1      50.049  47.798  32.281  1.00  0.00     0.027 C 
BRANCH  10  11
ATOM     11  C   UNL     1      48.863  48.201  33.115  1.00  0.00    -0.031 C 
ATOM     12  C   UNL     1      48.818  49.385  33.746  1.00  0.00    -0.031 C 
BRANCH  12  13
ATOM     13  C   UNL     1      47.632  49.785  34.578  1.00  0.00     0.027 C 
BRANCH  13  14
ATOM     14  C   UNL     1      47.250  48.676  35.570  1.00  0.00     0.004 C 
BRANCH  14  15
ATOM     15  C   UNL     1      45.754  48.306  35.488  1.00  0.00     0.000 C 
BRANCH  15  16
ATOM     16  C   UNL     1      45.498  46.793  35.348  1.00  0.00    -0.000 C 
BRANCH  16  17
ATOM     17  C   UNL     1      46.745  45.958  35.015  1.00  0.00    -0.003 C 
ATOM     18  C   UNL     1      46.544  45.048  33.804  1.00  0.00     0.004 C 
ENDBRANCH  16  17
ENDBRANCH  15  16
ENDBRANCH  14  15
ENDBRANCH  13  14
ENDBRANCH  12  13
ENDBRANCH  10  11
ENDBRANCH   1  10
TORSDOF 13
ENDMDL
MODEL 8
REMARK VINA RESULT:    -5.264      4.836     10.227
REMARK INTER + INTRA:         -10.033
REMARK INTER:                  -9.340
REMARK INTRA:                  -0.693
REMARK UNBOUND:                -0.768
REMARK SMILES CCCCCCC=CCCCCCCCC(=O)[O-]
REMARK SMILES IDX 10 1 11 2 12 3 13 4 14 5 15 6 16 7 17 8 18 9 9 10 8 11 7 12
REMARK SMILES IDX 6 13 5 14 4 15 3 16 2 17 1 18
REMARK H PARENT
REMARK Flexibility Score: inf
ROOT
ATOM      1  C   UNL     1      43.262  52.932  35.465  1.00  0.00     0.004 C 
ENDROOT
BRANCH   1   2
ATOM      2  C   UNL     1      42.874  54.415  35.345  1.00  0.00     0.000 C 
BRANCH   2   3
ATOM      3  C   UNL     1      43.283  55.237  36.577  1.00  0.00     0.000 C 
BRANCH   3   4
ATOM      4  C   UNL     1      44.750  54.978  36.947  1.00  0.00     0.000 C 
BRANCH   4   5
ATOM      5  C   UNL     1      45.095  55.409  38.385  1.00  0.00     0.006 C 
BRANCH   5   6
ATOM      6  C   UNL     1      44.545  56.794  38.771  1.00  0.00     0.053 C 
BRANCH   6   7
ATOM      7  C   UNL     1      45.360  57.919  38.205  1.00  0.00     0.041 C 
ATOM      8  O   UNL     1      46.586  58.015  38.478  1.00  0.00    -0.550 OA
ATOM      9  O   UNL     1      44.772  58.841  37.349  1.00  0.00    -0.550 OA
ENDBRANCH   6   7
ENDBRANCH   5   6
ENDBRANCH   4   5
ENDBRANCH   3   4
ENDBRANCH   2   3
ENDBRANCH   1   2
BRANCH   1  10
ATOM     10  C   UNL     1      42.061  51.990  35.302  1.00  0.00     0.027 C 
BRANCH  10  11
ATOM     11  C   UNL     1      41.761  51.741  33.848  1.00  0.00    -0.031 C 
ATOM     12  C   UNL     1      40.617  51.159  33.457  1.00  0.00    -0.031 C 
BRANCH  12  13
ATOM     13  C   UNL     1      40.320  50.912  32.004  1.00  0.00     0.027 C 
BRANCH  13  14
ATOM     14  C   UNL     1      40.233  49.408  31.703  1.00  0.00     0.004 C 
BRANCH  14  15
ATOM     15  C   UNL     1      38.950  48.770  32.277  1.00  0.00     0.000 C 
BRANCH  15  16
ATOM     16  C   UNL     1      37.975  48.262  31.197  1.00  0.00    -0.000 C 
BRANCH  16  17
ATOM     17  C   UNL     1      37.649  49.283  30.095  1.00  0.00    -0.003 C 
ATOM     18  C   UNL     1      37.268  48.624  28.770  1.00  0.00     0.004 C 
ENDBRANCH  16  17
ENDBRANCH  15  16
ENDBRANCH  14  15
ENDBRANCH  13  14
ENDBRANCH  12  13
ENDBRANCH  10  11
ENDBRANCH   1  10
TORSDOF 13
ENDMDL
MODEL 9
REMARK VINA RESULT:    -5.251      8.072     10.457
REMARK INTER + INTRA:         -10.008
REMARK INTER:                  -7.643
REMARK INTRA:                  -2.366
REMARK UNBOUND:                -0.768
REMARK SMILES CCCCCCC=CCCCCCCCC(=O)[O-]
REMARK SMILES IDX 10 1 11 2 12 3 13 4 14 5 15 6 16 7 17 8 18 9 9 10 8 11 7 12
REMARK SMILES IDX 6 13 5 14 4 15 3 16 2 17 1 18
REMARK H PARENT
REMARK Flexibility Score: inf
ROOT
ATOM      1  C   UNL     1      45.582  47.152  35.466  1.00  0.00     0.004 C 
ENDROOT
BRANCH   1   2
ATOM      2  C   UNL     1      46.812  46.388  34.950  1.00  0.00     0.000 C 
BRANCH   2   3
ATOM      3  C   UNL     1      47.400  45.432  36.000  1.00  0.00     0.000 C 
BRANCH   3   4
ATOM      4  C   UNL     1      48.701  45.996  36.588  1.00  0.00     0.000 C 
BRANCH   4   5
ATOM      5  C   UNL     1      48.473  46.840  37.856  1.00  0.00     0.006 C 
BRANCH   5   6
ATOM      6  C   UNL     1      48.943  46.158  39.154  1.00  0.00     0.053 C 
BRANCH   6   7
ATOM      7  C   UNL     1      47.806  45.797  40.062  1.00  0.00     0.041 C 
ATOM      8  O   UNL     1      46.955  44.939  39.706  1.00  0.00    -0.550 OA
ATOM      9  O   UNL     1      47.705  46.385  41.317  1.00  0.00    -0.550 OA
ENDBRANCH   6   7
ENDBRANCH   5   6
ENDBRANCH   4   5
ENDBRANCH   3   4
ENDBRANCH   2   3
ENDBRANCH   1   2
BRANCH   1  10
ATOM     10  C   UNL     1      45.754  48.676  35.385  1.00  0.00     0.027 C 
BRANCH  10  11
ATOM     11  C   UNL     1      47.209  49.058  35.404  1.00  0.00    -0.031 C 
ATOM     12  C   UNL     1      47.671  50.097  34.690  1.00  0.00    -0.031 C 
BRANCH  12  13
ATOM     13  C   UNL     1      49.125  50.478  34.711  1.00  0.00     0.027 C 
BRANCH  13  14
ATOM     14  C   UNL     1      49.862  49.790  35.870  1.00  0.00     0.004 C 
BRANCH  14  15
ATOM     15  C   UNL     1      50.919  48.780  35.375  1.00  0.00     0.000 C 
BRANCH  15  16
ATOM     16  C   UNL     1      50.884  48.544  33.853  1.00  0.00    -0.000 C 
BRANCH  16  17
ATOM     17  C   UNL     1      50.180  47.248  33.420  1.00  0.00    -0.003 C 
ATOM     18  C   UNL     1      49.115  47.480  32.350  1.00  0.00     0.004 C 
ENDBRANCH  16  17
ENDBRANCH  15  16
ENDBRANCH  14  15
ENDBRANCH  13  14
ENDBRANCH  12  13
ENDBRANCH  10  11
ENDBRANCH   1  10
TORSDOF 13
ENDMDL
