MODEL 1
REMARK VINA RESULT:    -6.648      0.000      0.000
REMARK INTER + INTRA:         -11.112
REMARK INTER:                  -8.979
REMARK INTRA:                  -2.132
REMARK UNBOUND:                -2.132
REMARK SMILES CC[C@@H](CC[C@H](C)[C@@H]1CC[C@@H]2[C@@H]3CC(=O)C4=CC(=O)CC[C@@]4(C)[C@@H]3CC[C@@]21C)C(C)C
REMARK SMILES IDX 4 1 3 2 2 3 1 4 29 5 30 6 31 7 5 8 6 9 7 10 8 11 9 12 27 13
REMARK SMILES IDX 10 14 11 15 26 16 28 17 12 18 25 19 24 20 13 21 22 22 14 23
REMARK SMILES IDX 16 24 21 25 23 26 15 27 17 28 20 29 18 30 19 31
REMARK H PARENT
REMARK Flexibility Score: inf
ROOT
ATOM      1  C   UNL     1      -2.635  24.039  60.661  1.00  0.00     0.004 C 
ENDROOT
BRANCH   1   2
ATOM      2  C   UNL     1      -3.007  23.358  62.002  1.00  0.00    -0.009 C 
BRANCH   2   3
ATOM      3  C   UNL     1      -1.734  22.901  62.770  1.00  0.00     0.000 C 
ATOM      4  C   UNL     1      -0.437  23.398  62.124  1.00  0.00     0.004 C 
ENDBRANCH   2   3
BRANCH   2   5
ATOM      5  C   UNL     1      -4.045  22.213  61.758  1.00  0.00    -0.014 C 
ATOM      6  C   UNL     1      -3.588  20.868  62.343  1.00  0.00     0.007 C 
ATOM      7  C   UNL     1      -4.467  22.041  60.285  1.00  0.00     0.007 C 
ENDBRANCH   2   5
ENDBRANCH   1   2
BRANCH   1   8
ATOM      8  C   UNL     1      -3.053  25.525  60.567  1.00  0.00     0.004 C 
BRANCH   8   9
ATOM      9  C   UNL     1      -3.020  26.250  61.950  1.00  0.00    -0.011 C 
ATOM     10  C   UNL     1      -4.380  26.960  62.153  1.00  0.00     0.008 C 
BRANCH   9  11
ATOM     11  C   UNL     1      -1.806  27.258  62.085  1.00  0.00    -0.002 C 
ATOM     12  C   UNL     1      -0.653  26.978  61.096  1.00  0.00     0.005 C 
ATOM     13  C   UNL     1      -1.139  27.420  63.514  1.00  0.00    -0.026 C 
ATOM     14  C   UNL     1       0.653  26.986  61.863  1.00  0.00     0.005 C 
ATOM     15  C   UNL     1       0.381  27.651  63.219  1.00  0.00    -0.001 C 
ATOM     16  C   UNL     1      -1.255  26.142  64.393  1.00  0.00     0.007 C 
ATOM     17  C   UNL     1      -1.778  28.661  64.220  1.00  0.00     0.012 C 
ATOM     18  C   UNL     1       1.404  27.262  64.368  1.00  0.00     0.004 C 
ATOM     19  C   UNL     1      -0.460  26.189  65.719  1.00  0.00     0.005 C 
ATOM     20  C   UNL     1       0.719  27.202  65.755  1.00  0.00     0.003 C 
ATOM     21  C   UNL     1       2.223  25.966  64.129  1.00  0.00     0.085 C 
ATOM     22  C   UNL     1       1.748  27.027  66.967  1.00  0.00    -0.000 C 
ATOM     23  C   UNL     1       3.154  25.676  65.263  1.00  0.00     0.159 C 
ATOM     24  C   UNL     1       3.094  26.479  66.498  1.00  0.00     0.005 C 
ATOM     25  C   UNL     1       1.988  28.429  67.613  1.00  0.00     0.020 C 
ATOM     26  C   UNL     1       1.219  26.055  68.059  1.00  0.00     0.017 C 
ATOM     27  O   UNL     1       4.007  24.756  65.137  1.00  0.00    -0.295 OA
ATOM     28  C   UNL     1       4.220  26.692  67.207  1.00  0.00     0.055 C 
ATOM     29  C   UNL     1       3.045  28.427  68.735  1.00  0.00     0.081 C 
ATOM     30  C   UNL     1       4.238  27.591  68.374  1.00  0.00     0.156 C 
ATOM     31  O   UNL     1       5.269  27.652  69.098  1.00  0.00    -0.295 OA
ENDBRANCH   9  11
ENDBRANCH   8   9
ENDBRANCH   1   8
TORSDOF 6
ENDMDL
MODEL 2
REMARK VINA RESULT:    -6.644      2.046      3.239
REMARK INTER + INTRA:         -11.107
REMARK INTER:                  -9.283
REMARK INTRA:                  -1.824
REMARK UNBOUND:                -2.132
REMARK SMILES CC[C@@H](CC[C@H](C)[C@@H]1CC[C@@H]2[C@@H]3CC(=O)C4=CC(=O)CC[C@@]4(C)[C@@H]3CC[C@@]21C)C(C)C
REMARK SMILES IDX 4 1 3 2 2 3 1 4 29 5 30 6 31 7 5 8 6 9 7 10 8 11 9 12 27 13
REMARK SMILES IDX 10 14 11 15 26 16 28 17 12 18 25 19 24 20 13 21 22 22 14 23
REMARK SMILES IDX 16 24 21 25 23 26 15 27 17 28 20 29 18 30 19 31
REMARK H PARENT
REMARK Flexibility Score: inf
ROOT
ATOM      1  C   UNL     1      -5.185  22.720  61.696  1.00  0.00     0.004 C 
ENDROOT
BRANCH   1   2
ATOM      2  C   UNL     1      -4.218  21.697  61.048  1.00  0.00    -0.009 C 
BRANCH   2   3
ATOM      3  C   UNL     1      -5.004  20.583  60.299  1.00  0.00     0.000 C 
ATOM      4  C   UNL     1      -6.516  20.661  60.529  1.00  0.00     0.004 C 
ENDBRANCH   2   3
BRANCH   2   5
ATOM      5  C   UNL     1      -3.210  21.155  62.115  1.00  0.00    -0.014 C 
ATOM      6  C   UNL     1      -3.886  20.260  63.164  1.00  0.00     0.007 C 
ATOM      7  C   UNL     1      -2.365  22.245  62.803  1.00  0.00     0.007 C 
ENDBRANCH   2   5
ENDBRANCH   1   2
BRANCH   1   8
ATOM      8  C   UNL     1      -5.278  24.070  60.944  1.00  0.00     0.004 C 
BRANCH   8   9
ATOM      9  C   UNL     1      -4.622  25.246  61.734  1.00  0.00    -0.011 C 
ATOM     10  C   UNL     1      -5.722  26.289  62.045  1.00  0.00     0.008 C 
BRANCH   9  11
ATOM     11  C   UNL     1      -3.399  25.896  60.963  1.00  0.00    -0.002 C 
ATOM     12  C   UNL     1      -2.757  24.960  59.916  1.00  0.00     0.005 C 
ATOM     13  C   UNL     1      -2.208  26.479  61.831  1.00  0.00    -0.026 C 
ATOM     14  C   UNL     1      -1.255  24.978  60.109  1.00  0.00     0.005 C 
ATOM     15  C   UNL     1      -0.923  26.195  60.983  1.00  0.00    -0.001 C 
ATOM     16  C   UNL     1      -2.035  25.758  63.197  1.00  0.00     0.007 C 
ATOM     17  C   UNL     1      -2.439  28.015  62.018  1.00  0.00     0.012 C 
ATOM     18  C   UNL     1       0.450  26.093  61.770  1.00  0.00     0.004 C 
ATOM     19  C   UNL     1      -0.774  26.167  63.995  1.00  0.00     0.005 C 
ATOM     20  C   UNL     1       0.377  26.787  63.152  1.00  0.00     0.003 C 
ATOM     21  C   UNL     1       1.030  24.662  61.931  1.00  0.00     0.085 C 
ATOM     22  C   UNL     1       1.794  26.898  63.886  1.00  0.00    -0.000 C 
ATOM     23  C   UNL     1       2.319  24.663  62.688  1.00  0.00     0.159 C 
ATOM     24  C   UNL     1       2.805  25.900  63.328  1.00  0.00     0.005 C 
ATOM     25  C   UNL     1       2.352  28.340  63.661  1.00  0.00     0.020 C 
ATOM     26  C   UNL     1       1.692  26.633  65.415  1.00  0.00     0.017 C 
ATOM     27  O   UNL     1       2.996  23.602  62.749  1.00  0.00    -0.295 OA
ATOM     28  C   UNL     1       4.131  26.116  63.435  1.00  0.00     0.055 C 
ATOM     29  C   UNL     1       3.768  28.557  64.229  1.00  0.00     0.081 C 
ATOM     30  C   UNL     1       4.666  27.389  63.948  1.00  0.00     0.156 C 
ATOM     31  O   UNL     1       5.902  27.500  64.171  1.00  0.00    -0.295 OA
ENDBRANCH   9  11
ENDBRANCH   8   9
ENDBRANCH   1   8
TORSDOF 6
ENDMDL
MODEL 3
REMARK VINA RESULT:    -6.563      1.644      2.821
REMARK INTER + INTRA:         -10.998
REMARK INTER:                  -8.467
REMARK INTRA:                  -2.531
REMARK UNBOUND:                -2.132
REMARK SMILES CC[C@@H](CC[C@H](C)[C@@H]1CC[C@@H]2[C@@H]3CC(=O)C4=CC(=O)CC[C@@]4(C)[C@@H]3CC[C@@]21C)C(C)C
REMARK SMILES IDX 4 1 3 2 2 3 1 4 29 5 30 6 31 7 5 8 6 9 7 10 8 11 9 12 27 13
REMARK SMILES IDX 10 14 11 15 26 16 28 17 12 18 25 19 24 20 13 21 22 22 14 23
REMARK SMILES IDX 16 24 21 25 23 26 15 27 17 28 20 29 18 30 19 31
REMARK H PARENT
REMARK Flexibility Score: inf
ROOT
ATOM      1  C   UNL     1      -1.026  24.764  60.016  1.00  0.00     0.004 C 
ENDROOT
BRANCH   1   2
ATOM      2  C   UNL     1       0.037  24.043  60.884  1.00  0.00    -0.009 C 
BRANCH   2   3
ATOM      3  C   UNL     1      -0.571  23.574  62.236  1.00  0.00     0.000 C 
ATOM      4  C   UNL     1      -2.089  23.381  62.174  1.00  0.00     0.004 C 
ENDBRANCH   2   3
BRANCH   2   5
ATOM      5  C   UNL     1       1.310  24.939  61.037  1.00  0.00    -0.014 C 
ATOM      6  C   UNL     1       2.372  24.644  59.968  1.00  0.00     0.007 C 
ATOM      7  C   UNL     1       1.941  24.910  62.443  1.00  0.00     0.007 C 
ENDBRANCH   2   5
ENDBRANCH   1   2
BRANCH   1   8
ATOM      8  C   UNL     1      -0.913  26.308  60.030  1.00  0.00     0.004 C 
BRANCH   8   9
ATOM      9  C   UNL     1      -1.902  26.975  61.037  1.00  0.00    -0.011 C 
ATOM     10  C   UNL     1      -3.135  27.472  60.244  1.00  0.00     0.008 C 
BRANCH   9  11
ATOM     11  C   UNL     1      -1.231  28.143  61.871  1.00  0.00    -0.002 C 
ATOM     12  C   UNL     1       0.199  28.496  61.408  1.00  0.00     0.005 C 
ATOM     13  C   UNL     1      -1.163  27.978  63.446  1.00  0.00    -0.026 C 
ATOM     14  C   UNL     1       1.098  28.565  62.626  1.00  0.00     0.005 C 
ATOM     15  C   UNL     1       0.188  28.654  63.858  1.00  0.00    -0.001 C 
ATOM     16  C   UNL     1      -1.099  26.493  63.904  1.00  0.00     0.007 C 
ATOM     17  C   UNL     1      -2.387  28.720  64.075  1.00  0.00     0.012 C 
ATOM     18  C   UNL     1       0.853  28.166  65.213  1.00  0.00     0.004 C 
ATOM     19  C   UNL     1      -0.845  26.288  65.416  1.00  0.00     0.005 C 
ATOM     20  C   UNL     1      -0.174  27.484  66.148  1.00  0.00     0.003 C 
ATOM     21  C   UNL     1       2.106  27.262  65.060  1.00  0.00     0.085 C 
ATOM     22  C   UNL     1       0.402  27.172  67.608  1.00  0.00    -0.000 C 
ATOM     23  C   UNL     1       2.661  26.847  66.384  1.00  0.00     0.159 C 
ATOM     24  C   UNL     1       1.928  27.154  67.627  1.00  0.00     0.005 C 
ATOM     25  C   UNL     1      -0.088  28.294  68.579  1.00  0.00     0.020 C 
ATOM     26  C   UNL     1      -0.075  25.795  68.151  1.00  0.00     0.017 C 
ATOM     27  O   UNL     1       3.774  26.256  66.426  1.00  0.00    -0.295 OA
ATOM     28  C   UNL     1       2.615  27.385  68.763  1.00  0.00     0.055 C 
ATOM     29  C   UNL     1       0.481  28.175  70.007  1.00  0.00     0.081 C 
ATOM     30  C   UNL     1       1.939  27.821  69.998  1.00  0.00     0.156 C 
ATOM     31  O   UNL     1       2.591  27.885  71.075  1.00  0.00    -0.295 OA
ENDBRANCH   9  11
ENDBRANCH   8   9
ENDBRANCH   1   8
TORSDOF 6
ENDMDL
MODEL 4
REMARK VINA RESULT:    -6.539      3.583      8.364
REMARK INTER + INTRA:         -10.965
REMARK INTER:                  -8.344
REMARK INTRA:                  -2.621
REMARK UNBOUND:                -2.132
REMARK SMILES CC[C@@H](CC[C@H](C)[C@@H]1CC[C@@H]2[C@@H]3CC(=O)C4=CC(=O)CC[C@@]4(C)[C@@H]3CC[C@@]21C)C(C)C
REMARK SMILES IDX 4 1 3 2 2 3 1 4 29 5 30 6 31 7 5 8 6 9 7 10 8 11 9 12 27 13
REMARK SMILES IDX 10 14 11 15 26 16 28 17 12 18 25 19 24 20 13 21 22 22 14 23
REMARK SMILES IDX 16 24 21 25 23 26 15 27 17 28 20 29 18 30 19 31
REMARK H PARENT
REMARK Flexibility Score: inf
ROOT
ATOM      1  C   UNL     1       2.655  30.532  71.196  1.00  0.00     0.004 C 
ENDROOT
BRANCH   1   2
ATOM      2  C   UNL     1       3.495  30.160  69.949  1.00  0.00    -0.009 C 
BRANCH   2   3
ATOM      3  C   UNL     1       4.391  28.919  70.227  1.00  0.00     0.000 C 
ATOM      4  C   UNL     1       4.822  28.196  68.948  1.00  0.00     0.004 C 
ENDBRANCH   2   3
BRANCH   2   5
ATOM      5  C   UNL     1       4.285  31.410  69.436  1.00  0.00    -0.014 C 
ATOM      6  C   UNL     1       4.491  32.467  70.531  1.00  0.00     0.007 C 
ATOM      7  C   UNL     1       3.696  32.058  68.168  1.00  0.00     0.007 C 
ENDBRANCH   2   5
ENDBRANCH   1   2
BRANCH   1   8
ATOM      8  C   UNL     1       1.133  30.313  71.023  1.00  0.00     0.004 C 
BRANCH   8   9
ATOM      9  C   UNL     1       0.696  30.274  69.525  1.00  0.00    -0.011 C 
ATOM     10  C   UNL     1      -0.409  31.339  69.318  1.00  0.00     0.008 C 
BRANCH   9  11
ATOM     11  C   UNL     1       0.219  28.836  69.062  1.00  0.00    -0.002 C 
ATOM     12  C   UNL     1       0.720  27.693  69.971  1.00  0.00     0.005 C 
ATOM     13  C   UNL     1       0.541  28.397  67.573  1.00  0.00    -0.026 C 
ATOM     14  C   UNL     1       1.300  26.600  69.097  1.00  0.00     0.005 C 
ATOM     15  C   UNL     1       0.816  26.859  67.664  1.00  0.00    -0.001 C 
ATOM     16  C   UNL     1       1.821  29.067  67.001  1.00  0.00     0.007 C 
ATOM     17  C   UNL     1      -0.711  28.700  66.686  1.00  0.00     0.012 C 
ATOM     18  C   UNL     1       1.725  26.222  66.530  1.00  0.00     0.004 C 
ATOM     19  C   UNL     1       2.278  28.529  65.624  1.00  0.00     0.005 C 
ATOM     20  C   UNL     1       1.768  27.106  65.261  1.00  0.00     0.003 C 
ATOM     21  C   UNL     1       3.168  25.845  66.958  1.00  0.00     0.085 C 
ATOM     22  C   UNL     1       2.493  26.404  64.019  1.00  0.00    -0.000 C 
ATOM     23  C   UNL     1       3.951  25.259  65.826  1.00  0.00     0.159 C 
ATOM     24  C   UNL     1       3.395  25.255  64.460  1.00  0.00     0.005 C 
ATOM     25  C   UNL     1       1.393  25.828  63.071  1.00  0.00     0.020 C 
ATOM     26  C   UNL     1       3.381  27.394  63.214  1.00  0.00     0.017 C 
ATOM     27  O   UNL     1       5.079  24.746  66.061  1.00  0.00    -0.295 OA
ATOM     28  C   UNL     1       3.713  24.253  63.617  1.00  0.00     0.055 C 
ATOM     29  C   UNL     1       1.953  25.029  61.878  1.00  0.00     0.081 C 
ATOM     30  C   UNL     1       3.085  24.133  62.290  1.00  0.00     0.156 C 
ATOM     31  O   UNL     1       3.513  23.273  61.473  1.00  0.00    -0.295 OA
ENDBRANCH   9  11
ENDBRANCH   8   9
ENDBRANCH   1   8
TORSDOF 6
ENDMDL
MODEL 5
REMARK VINA RESULT:    -6.156      4.299      6.393
REMARK INTER + INTRA:         -10.448
REMARK INTER:                  -8.039
REMARK INTRA:                  -2.409
REMARK UNBOUND:                -2.132
REMARK SMILES CC[C@@H](CC[C@H](C)[C@@H]1CC[C@@H]2[C@@H]3CC(=O)C4=CC(=O)CC[C@@]4(C)[C@@H]3CC[C@@]21C)C(C)C
REMARK SMILES IDX 4 1 3 2 2 3 1 4 29 5 30 6 31 7 5 8 6 9 7 10 8 11 9 12 27 13
REMARK SMILES IDX 10 14 11 15 26 16 28 17 12 18 25 19 24 20 13 21 22 22 14 23
REMARK SMILES IDX 16 24 21 25 23 26 15 27 17 28 20 29 18 30 19 31
REMARK H PARENT
REMARK Flexibility Score: inf
ROOT
ATOM      1  C   UNL     1      -0.504  26.649  66.040  1.00  0.00     0.004 C 
ENDROOT
BRANCH   1   2
ATOM      2  C   UNL     1       0.895  26.231  66.559  1.00  0.00    -0.009 C 
BRANCH   2   3
ATOM      3  C   UNL     1       1.012  26.455  68.093  1.00  0.00     0.000 C 
ATOM      4  C   UNL     1      -0.158  25.850  68.876  1.00  0.00     0.004 C 
ENDBRANCH   2   3
BRANCH   2   5
ATOM      5  C   UNL     1       2.015  26.939  65.727  1.00  0.00    -0.014 C 
ATOM      6  C   UNL     1       3.169  25.993  65.365  1.00  0.00     0.007 C 
ATOM      7  C   UNL     1       2.562  28.230  66.369  1.00  0.00     0.007 C 
ENDBRANCH   2   5
ENDBRANCH   1   2
BRANCH   1   8
ATOM      8  C   UNL     1      -0.825  26.151  64.611  1.00  0.00     0.004 C 
BRANCH   8   9
ATOM      9  C   UNL     1      -1.313  27.297  63.668  1.00  0.00    -0.011 C 
ATOM     10  C   UNL     1      -2.763  26.977  63.232  1.00  0.00     0.008 C 
BRANCH   9  11
ATOM     11  C   UNL     1      -0.359  27.512  62.422  1.00  0.00    -0.002 C 
ATOM     12  C   UNL     1       0.732  26.429  62.279  1.00  0.00     0.005 C 
ATOM     13  C   UNL     1       0.378  28.909  62.291  1.00  0.00    -0.026 C 
ATOM     14  C   UNL     1       2.065  27.113  62.054  1.00  0.00     0.005 C 
ATOM     15  C   UNL     1       1.769  28.566  61.660  1.00  0.00    -0.001 C 
ATOM     16  C   UNL     1       0.644  29.592  63.662  1.00  0.00     0.007 C 
ATOM     17  C   UNL     1      -0.465  29.827  61.346  1.00  0.00     0.012 C 
ATOM     18  C   UNL     1       2.955  29.584  61.936  1.00  0.00     0.004 C 
ATOM     19  C   UNL     1       1.523  30.864  63.598  1.00  0.00     0.005 C 
ATOM     20  C   UNL     1       2.432  30.983  62.343  1.00  0.00     0.003 C 
ATOM     21  C   UNL     1       4.028  29.108  62.950  1.00  0.00     0.085 C 
ATOM     22  C   UNL     1       3.580  32.095  62.419  1.00  0.00    -0.000 C 
ATOM     23  C   UNL     1       5.100  30.131  63.151  1.00  0.00     0.159 C 
ATOM     24  C   UNL     1       4.968  31.474  62.556  1.00  0.00     0.005 C 
ATOM     25  C   UNL     1       3.544  32.929  61.098  1.00  0.00     0.020 C 
ATOM     26  C   UNL     1       3.393  33.058  63.626  1.00  0.00     0.017 C 
ATOM     27  O   UNL     1       6.129  29.821  63.811  1.00  0.00    -0.295 OA
ATOM     28  C   UNL     1       6.072  32.142  62.171  1.00  0.00     0.055 C 
ATOM     29  C   UNL     1       4.670  33.976  60.990  1.00  0.00     0.081 C 
ATOM     30  C   UNL     1       5.987  33.427  61.456  1.00  0.00     0.156 C 
ATOM     31  O   UNL     1       7.036  34.093  61.242  1.00  0.00    -0.295 OA
ENDBRANCH   9  11
ENDBRANCH   8   9
ENDBRANCH   1   8
TORSDOF 6
ENDMDL
MODEL 6
REMARK VINA RESULT:    -6.024      1.476      2.016
REMARK INTER + INTRA:         -10.269
REMARK INTER:                  -9.814
REMARK INTRA:                  -0.454
REMARK UNBOUND:                -2.132
REMARK SMILES CC[C@@H](CC[C@H](C)[C@@H]1CC[C@@H]2[C@@H]3CC(=O)C4=CC(=O)CC[C@@]4(C)[C@@H]3CC[C@@]21C)C(C)C
REMARK SMILES IDX 4 1 3 2 2 3 1 4 29 5 30 6 31 7 5 8 6 9 7 10 8 11 9 12 27 13
REMARK SMILES IDX 10 14 11 15 26 16 28 17 12 18 25 19 24 20 13 21 22 22 14 23
REMARK SMILES IDX 16 24 21 25 23 26 15 27 17 28 20 29 18 30 19 31
REMARK H PARENT
REMARK Flexibility Score: inf
ROOT
ATOM      1  C   UNL     1      -3.127  23.675  60.694  1.00  0.00     0.004 C 
ENDROOT
BRANCH   1   2
ATOM      2  C   UNL     1      -4.037  22.888  61.670  1.00  0.00    -0.009 C 
BRANCH   2   3
ATOM      3  C   UNL     1      -3.280  21.677  62.287  1.00  0.00     0.000 C 
ATOM      4  C   UNL     1      -2.007  22.087  63.032  1.00  0.00     0.004 C 
ENDBRANCH   2   3
BRANCH   2   5
ATOM      5  C   UNL     1      -5.381  22.503  60.967  1.00  0.00    -0.014 C 
ATOM      6  C   UNL     1      -6.503  22.192  61.968  1.00  0.00     0.007 C 
ATOM      7  C   UNL     1      -5.255  21.367  59.932  1.00  0.00     0.007 C 
ENDBRANCH   2   5
ENDBRANCH   1   2
BRANCH   1   8
ATOM      8  C   UNL     1      -2.678  25.058  61.222  1.00  0.00     0.004 C 
BRANCH   8   9
ATOM      9  C   UNL     1      -1.350  25.552  60.565  1.00  0.00    -0.011 C 
ATOM     10  C   UNL     1      -0.345  24.374  60.566  1.00  0.00     0.008 C 
BRANCH   9  11
ATOM     11  C   UNL     1      -0.752  26.833  61.280  1.00  0.00    -0.002 C 
ATOM     12  C   UNL     1       0.729  27.103  60.935  1.00  0.00     0.005 C 
ATOM     13  C   UNL     1      -0.865  26.916  62.859  1.00  0.00    -0.026 C 
ATOM     14  C   UNL     1       1.486  27.358  62.222  1.00  0.00     0.005 C 
ATOM     15  C   UNL     1       0.446  27.643  63.313  1.00  0.00    -0.001 C 
ATOM     16  C   UNL     1      -0.886  25.521  63.545  1.00  0.00     0.007 C 
ATOM     17  C   UNL     1      -2.135  27.754  63.221  1.00  0.00     0.012 C 
ATOM     18  C   UNL     1       0.943  27.370  64.794  1.00  0.00     0.004 C 
ATOM     19  C   UNL     1      -0.808  25.554  65.090  1.00  0.00     0.005 C 
ATOM     20  C   UNL     1      -0.197  26.848  65.700  1.00  0.00     0.003 C 
ATOM     21  C   UNL     1       2.185  26.448  64.928  1.00  0.00     0.085 C 
ATOM     22  C   UNL     1       0.203  26.765  67.247  1.00  0.00    -0.000 C 
ATOM     23  C   UNL     1       2.578  26.243  66.356  1.00  0.00     0.159 C 
ATOM     24  C   UNL     1       1.717  26.743  67.444  1.00  0.00     0.005 C 
ATOM     25  C   UNL     1      -0.367  28.027  67.970  1.00  0.00     0.020 C 
ATOM     26  C   UNL     1      -0.362  25.492  67.938  1.00  0.00     0.017 C 
ATOM     27  O   UNL     1       3.666  25.661  66.616  1.00  0.00    -0.295 OA
ATOM     28  C   UNL     1       2.276  27.147  68.601  1.00  0.00     0.055 C 
ATOM     29  C   UNL     1       0.034  28.131  69.454  1.00  0.00     0.081 C 
ATOM     30  C   UNL     1       1.476  27.773  69.667  1.00  0.00     0.156 C 
ATOM     31  O   UNL     1       2.003  28.003  70.789  1.00  0.00    -0.295 OA
ENDBRANCH   9  11
ENDBRANCH   8   9
ENDBRANCH   1   8
TORSDOF 6
ENDMDL
MODEL 7
REMARK VINA RESULT:    -6.020      3.582      7.592
REMARK INTER + INTRA:         -10.264
REMARK INTER:                  -8.052
REMARK INTRA:                  -2.212
REMARK UNBOUND:                -2.132
REMARK SMILES CC[C@@H](CC[C@H](C)[C@@H]1CC[C@@H]2[C@@H]3CC(=O)C4=CC(=O)CC[C@@]4(C)[C@@H]3CC[C@@]21C)C(C)C
REMARK SMILES IDX 4 1 3 2 2 3 1 4 29 5 30 6 31 7 5 8 6 9 7 10 8 11 9 12 27 13
REMARK SMILES IDX 10 14 11 15 26 16 28 17 12 18 25 19 24 20 13 21 22 22 14 23
REMARK SMILES IDX 16 24 21 25 23 26 15 27 17 28 20 29 18 30 19 31
REMARK H PARENT
REMARK Flexibility Score: inf
ROOT
ATOM      1  C   UNL     1       3.717  24.485  63.828  1.00  0.00     0.004 C 
ENDROOT
BRANCH   1   2
ATOM      2  C   UNL     1       3.200  25.883  64.254  1.00  0.00    -0.009 C 
BRANCH   2   3
ATOM      3  C   UNL     1       3.794  26.998  63.347  1.00  0.00     0.000 C 
ATOM      4  C   UNL     1       2.819  28.154  63.108  1.00  0.00     0.004 C 
ENDBRANCH   2   3
BRANCH   2   5
ATOM      5  C   UNL     1       3.447  26.109  65.782  1.00  0.00    -0.014 C 
ATOM      6  C   UNL     1       4.392  25.062  66.388  1.00  0.00     0.007 C 
ATOM      7  C   UNL     1       2.160  26.221  66.623  1.00  0.00     0.007 C 
ENDBRANCH   2   5
ENDBRANCH   1   2
BRANCH   1   8
ATOM      8  C   UNL     1       3.363  24.094  62.373  1.00  0.00     0.004 C 
BRANCH   8   9
ATOM      9  C   UNL     1       1.835  23.841  62.172  1.00  0.00    -0.011 C 
ATOM     10  C   UNL     1       1.601  22.312  62.136  1.00  0.00     0.008 C 
BRANCH   9  11
ATOM     11  C   UNL     1       1.262  24.552  60.877  1.00  0.00    -0.002 C 
ATOM     12  C   UNL     1       2.284  25.464  60.165  1.00  0.00     0.005 C 
ATOM     13  C   UNL     1      -0.065  25.405  61.032  1.00  0.00    -0.026 C 
ATOM     14  C   UNL     1       1.624  26.797  59.877  1.00  0.00     0.005 C 
ATOM     15  C   UNL     1       0.111  26.598  60.034  1.00  0.00    -0.001 C 
ATOM     16  C   UNL     1      -0.244  26.008  62.454  1.00  0.00     0.007 C 
ATOM     17  C   UNL     1      -1.281  24.504  60.634  1.00  0.00     0.012 C 
ATOM     18  C   UNL     1      -0.705  27.923  60.346  1.00  0.00     0.004 C 
ATOM     19  C   UNL     1      -1.424  26.997  62.599  1.00  0.00     0.005 C 
ATOM     20  C   UNL     1      -1.912  27.653  61.276  1.00  0.00     0.003 C 
ATOM     21  C   UNL     1       0.127  29.112  60.896  1.00  0.00     0.085 C 
ATOM     22  C   UNL     1      -2.884  28.912  61.442  1.00  0.00    -0.000 C 
ATOM     23  C   UNL     1      -0.723  30.312  61.165  1.00  0.00     0.159 C 
ATOM     24  C   UNL     1      -2.192  30.220  61.067  1.00  0.00     0.005 C 
ATOM     25  C   UNL     1      -4.109  28.716  60.491  1.00  0.00     0.020 C 
ATOM     26  C   UNL     1      -3.401  29.075  62.899  1.00  0.00     0.017 C 
ATOM     27  O   UNL     1      -0.167  31.407  61.450  1.00  0.00    -0.295 OA
ATOM     28  C   UNL     1      -2.900  31.298  60.676  1.00  0.00     0.055 C 
ATOM     29  C   UNL     1      -5.081  29.911  60.471  1.00  0.00     0.081 C 
ATOM     30  C   UNL     1      -4.352  31.222  60.438  1.00  0.00     0.156 C 
ATOM     31  O   UNL     1      -5.003  32.279  60.217  1.00  0.00    -0.295 OA
ENDBRANCH   9  11
ENDBRANCH   8   9
ENDBRANCH   1   8
TORSDOF 6
ENDMDL
MODEL 8
REMARK VINA RESULT:    -5.993      2.664      8.517
REMARK INTER + INTRA:         -10.227
REMARK INTER:                  -7.856
REMARK INTRA:                  -2.371
REMARK UNBOUND:                -2.132
REMARK SMILES CC[C@@H](CC[C@H](C)[C@@H]1CC[C@@H]2[C@@H]3CC(=O)C4=CC(=O)CC[C@@]4(C)[C@@H]3CC[C@@]21C)C(C)C
REMARK SMILES IDX 4 1 3 2 2 3 1 4 29 5 30 6 31 7 5 8 6 9 7 10 8 11 9 12 27 13
REMARK SMILES IDX 10 14 11 15 26 16 28 17 12 18 25 19 24 20 13 21 22 22 14 23
REMARK SMILES IDX 16 24 21 25 23 26 15 27 17 28 20 29 18 30 19 31
REMARK H PARENT
REMARK Flexibility Score: inf
ROOT
ATOM      1  C   UNL     1       3.500  30.698  70.038  1.00  0.00     0.004 C 
ENDROOT
BRANCH   1   2
ATOM      2  C   UNL     1       2.674  31.166  68.813  1.00  0.00    -0.009 C 
BRANCH   2   3
ATOM      3  C   UNL     1       3.561  31.249  67.539  1.00  0.00     0.000 C 
ATOM      4  C   UNL     1       2.931  30.555  66.327  1.00  0.00     0.004 C 
ENDBRANCH   2   3
BRANCH   2   5
ATOM      5  C   UNL     1       1.919  32.496  69.147  1.00  0.00    -0.014 C 
ATOM      6  C   UNL     1       0.403  32.294  69.282  1.00  0.00     0.007 C 
ATOM      7  C   UNL     1       2.221  33.658  68.180  1.00  0.00     0.007 C 
ENDBRANCH   2   5
ENDBRANCH   1   2
BRANCH   1   8
ATOM      8  C   UNL     1       2.932  29.442  70.743  1.00  0.00     0.004 C 
BRANCH   8   9
ATOM      9  C   UNL     1       1.662  28.875  70.033  1.00  0.00    -0.011 C 
ATOM     10  C   UNL     1       0.549  28.710  71.096  1.00  0.00     0.008 C 
BRANCH   9  11
ATOM     11  C   UNL     1       1.944  27.519  69.264  1.00  0.00    -0.002 C 
ATOM     12  C   UNL     1       3.359  27.435  68.650  1.00  0.00     0.005 C 
ATOM     13  C   UNL     1       0.934  27.098  68.118  1.00  0.00    -0.026 C 
ATOM     14  C   UNL     1       3.234  26.971  67.213  1.00  0.00     0.005 C 
ATOM     15  C   UNL     1       1.825  26.388  67.044  1.00  0.00    -0.001 C 
ATOM     16  C   UNL     1       0.250  28.312  67.428  1.00  0.00     0.007 C 
ATOM     17  C   UNL     1      -0.120  26.114  68.725  1.00  0.00     0.012 C 
ATOM     18  C   UNL     1       1.284  26.379  65.553  1.00  0.00     0.004 C 
ATOM     19  C   UNL     1      -0.601  27.961  66.184  1.00  0.00     0.005 C 
ATOM     20  C   UNL     1      -0.244  26.615  65.491  1.00  0.00     0.003 C 
ATOM     21  C   UNL     1       2.004  27.339  64.569  1.00  0.00     0.085 C 
ATOM     22  C   UNL     1      -0.865  26.399  64.033  1.00  0.00    -0.000 C 
ATOM     23  C   UNL     1       1.425  27.267  63.193  1.00  0.00     0.159 C 
ATOM     24  C   UNL     1       0.199  26.488  62.941  1.00  0.00     0.005 C 
ATOM     25  C   UNL     1      -1.506  24.976  63.977  1.00  0.00     0.020 C 
ATOM     26  C   UNL     1      -1.955  27.454  63.690  1.00  0.00     0.017 C 
ATOM     27  O   UNL     1       2.014  27.858  62.247  1.00  0.00    -0.295 OA
ATOM     28  C   UNL     1       0.024  25.892  61.746  1.00  0.00     0.055 C 
ATOM     29  C   UNL     1      -2.054  24.591  62.589  1.00  0.00     0.081 C 
ATOM     30  C   UNL     1      -1.119  24.999  61.489  1.00  0.00     0.156 C 
ATOM     31  O   UNL     1      -1.330  24.577  60.319  1.00  0.00    -0.295 OA
ENDBRANCH   9  11
ENDBRANCH   8   9
ENDBRANCH   1   8
TORSDOF 6
ENDMDL
