MODEL 1
REMARK VINA RESULT:    -3.235      0.000      0.000
REMARK INTER + INTRA:          -3.677
REMARK INTER:                  -3.613
REMARK INTRA:                  -0.064
REMARK UNBOUND:                -0.064
REMARK SMILES CCCC(=O)[O-]
REMARK SMILES IDX 3 1 4 2 5 3 6 4 2 5 1 6
REMARK H PARENT
REMARK Flexibility Score: inf
ROOT
ATOM      1  C   UNL     1      14.761  44.740  -9.966  1.00  0.00     0.052 C 
ENDROOT
BRANCH   1   2
ATOM      2  C   UNL     1      14.415  45.928 -10.812  1.00  0.00     0.041 C 
ATOM      3  O   UNL     1      14.251  45.795 -12.053  1.00  0.00    -0.550 OA
ATOM      4  O   UNL     1      14.242  47.174 -10.224  1.00  0.00    -0.550 OA
ENDBRANCH   1   2
BRANCH   1   5
ATOM      5  C   UNL     1      13.718  43.623 -10.100  1.00  0.00     0.003 C 
ATOM      6  C   UNL     1      12.323  44.075  -9.669  1.00  0.00     0.004 C 
ENDBRANCH   1   5
TORSDOF 2
ENDMDL
MODEL 2
REMARK VINA RESULT:    -3.127      1.984      2.917
REMARK INTER + INTRA:          -3.557
REMARK INTER:                  -3.523
REMARK INTRA:                  -0.034
REMARK UNBOUND:                -0.064
REMARK SMILES CCCC(=O)[O-]
REMARK SMILES IDX 3 1 4 2 5 3 6 4 2 5 1 6
REMARK H PARENT
REMARK Flexibility Score: inf
ROOT
ATOM      1  C   UNL     1      14.263  45.580 -11.503  1.00  0.00     0.052 C 
ENDROOT
BRANCH   1   2
ATOM      2  C   UNL     1      13.688  44.422 -10.747  1.00  0.00     0.041 C 
ATOM      3  O   UNL     1      14.170  43.268 -10.895  1.00  0.00    -0.550 OA
ATOM      4  O   UNL     1      12.643  44.622  -9.854  1.00  0.00    -0.550 OA
ENDBRANCH   1   2
BRANCH   1   5
ATOM      5  C   UNL     1      14.981  46.567 -10.574  1.00  0.00     0.003 C 
ATOM      6  C   UNL     1      14.132  47.801 -10.268  1.00  0.00     0.004 C 
ENDBRANCH   1   5
TORSDOF 2
ENDMDL
MODEL 3
REMARK VINA RESULT:    -2.794     15.499     16.183
REMARK INTER + INTRA:          -3.185
REMARK INTER:                  -3.145
REMARK INTRA:                  -0.040
REMARK UNBOUND:                -0.064
REMARK SMILES CCCC(=O)[O-]
REMARK SMILES IDX 3 1 4 2 5 3 6 4 2 5 1 6
REMARK H PARENT
REMARK Flexibility Score: inf
ROOT
ATOM      1  C   UNL     1       1.875  51.526  -0.370  1.00  0.00     0.052 C 
ENDROOT
BRANCH   1   2
ATOM      2  C   UNL     1       2.661  51.433  -1.642  1.00  0.00     0.041 C 
ATOM      3  O   UNL     1       3.722  52.097  -1.781  1.00  0.00    -0.550 OA
ATOM      4  O   UNL     1       2.241  50.587  -2.660  1.00  0.00    -0.550 OA
ENDBRANCH   1   2
BRANCH   1   5
ATOM      5  C   UNL     1       2.281  50.437   0.631  1.00  0.00     0.003 C 
ATOM      6  C   UNL     1       3.379  50.905   1.586  1.00  0.00     0.004 C 
ENDBRANCH   1   5
TORSDOF 2
ENDMDL
MODEL 4
REMARK VINA RESULT:    -2.766     15.738     16.296
REMARK INTER + INTRA:          -3.153
REMARK INTER:                  -3.143
REMARK INTRA:                  -0.010
REMARK UNBOUND:                -0.064
REMARK SMILES CCCC(=O)[O-]
REMARK SMILES IDX 3 1 4 2 5 3 6 4 2 5 1 6
REMARK H PARENT
REMARK Flexibility Score: inf
ROOT
ATOM      1  C   UNL     1       3.927  51.145   1.579  1.00  0.00     0.052 C 
ENDROOT
BRANCH   1   2
ATOM      2  C   UNL     1       5.161  51.850   1.106  1.00  0.00     0.041 C 
ATOM      3  O   UNL     1       6.074  52.146   1.921  1.00  0.00    -0.550 OA
ATOM      4  O   UNL     1       5.319  52.150  -0.241  1.00  0.00    -0.550 OA
ENDBRANCH   1   2
BRANCH   1   5
ATOM      5  C   UNL     1       2.929  50.916   0.437  1.00  0.00     0.003 C 
ATOM      6  C   UNL     1       1.881  49.859   0.784  1.00  0.00     0.004 C 
ENDBRANCH   1   5
TORSDOF 2
ENDMDL
MODEL 5
REMARK VINA RESULT:    -2.747     16.240     16.860
REMARK INTER + INTRA:          -3.133
REMARK INTER:                  -3.068
REMARK INTRA:                  -0.065
REMARK UNBOUND:                -0.064
REMARK SMILES CCCC(=O)[O-]
REMARK SMILES IDX 3 1 4 2 5 3 6 4 2 5 1 6
REMARK H PARENT
REMARK Flexibility Score: inf
ROOT
ATOM      1  C   UNL     1       4.517  51.548   1.189  1.00  0.00     0.052 C 
ENDROOT
BRANCH   1   2
ATOM      2  C   UNL     1       4.147  52.940   0.774  1.00  0.00     0.041 C 
ATOM      3  O   UNL     1       3.894  53.814   1.644  1.00  0.00    -0.550 OA
ATOM      4  O   UNL     1       4.115  53.279  -0.572  1.00  0.00    -0.550 OA
ENDBRANCH   1   2
BRANCH   1   5
ATOM      5  C   UNL     1       3.308  50.778   1.737  1.00  0.00     0.003 C 
ATOM      6  C   UNL     1       2.260  50.499   0.660  1.00  0.00     0.004 C 
ENDBRANCH   1   5
TORSDOF 2
ENDMDL
MODEL 6
REMARK VINA RESULT:    -2.704     16.455     16.844
REMARK INTER + INTRA:          -3.084
REMARK INTER:                  -3.077
REMARK INTRA:                  -0.008
REMARK UNBOUND:                -0.064
REMARK SMILES CCCC(=O)[O-]
REMARK SMILES IDX 3 1 4 2 5 3 6 4 2 5 1 6
REMARK H PARENT
REMARK Flexibility Score: inf
ROOT
ATOM      1  C   UNL     1       3.613  51.052   1.528  1.00  0.00     0.052 C 
ENDROOT
BRANCH   1   2
ATOM      2  C   UNL     1       2.412  50.722   0.696  1.00  0.00     0.041 C 
ATOM      3  O   UNL     1       1.875  51.606  -0.022  1.00  0.00    -0.550 OA
ATOM      4  O   UNL     1       1.906  49.428   0.687  1.00  0.00    -0.550 OA
ENDBRANCH   1   2
BRANCH   1   5
ATOM      5  C   UNL     1       4.675  51.809   0.719  1.00  0.00     0.003 C 
ATOM      6  C   UNL     1       5.902  52.163   1.558  1.00  0.00     0.004 C 
ENDBRANCH   1   5
TORSDOF 2
ENDMDL
MODEL 7
REMARK VINA RESULT:    -2.657     16.255     16.823
REMARK INTER + INTRA:          -3.031
REMARK INTER:                  -2.962
REMARK INTRA:                  -0.070
REMARK UNBOUND:                -0.064
REMARK SMILES CCCC(=O)[O-]
REMARK SMILES IDX 3 1 4 2 5 3 6 4 2 5 1 6
REMARK H PARENT
REMARK Flexibility Score: inf
ROOT
ATOM      1  C   UNL     1       4.074  51.855  -0.164  1.00  0.00     0.052 C 
ENDROOT
BRANCH   1   2
ATOM      2  C   UNL     1       2.910  52.795  -0.245  1.00  0.00     0.041 C 
ATOM      3  O   UNL     1       1.875  52.467  -0.883  1.00  0.00    -0.550 OA
ATOM      4  O   UNL     1       2.956  54.017   0.412  1.00  0.00    -0.550 OA
ENDBRANCH   1   2
BRANCH   1   5
ATOM      5  C   UNL     1       4.352  51.416   1.279  1.00  0.00     0.003 C 
ATOM      6  C   UNL     1       3.212  50.580   1.862  1.00  0.00     0.004 C 
ENDBRANCH   1   5
TORSDOF 2
ENDMDL
MODEL 8
REMARK VINA RESULT:    -2.592     15.279     16.036
REMARK INTER + INTRA:          -2.960
REMARK INTER:                  -2.920
REMARK INTRA:                  -0.040
REMARK UNBOUND:                -0.064
REMARK SMILES CCCC(=O)[O-]
REMARK SMILES IDX 3 1 4 2 5 3 6 4 2 5 1 6
REMARK H PARENT
REMARK Flexibility Score: inf
ROOT
ATOM      1  C   UNL     1       4.179  52.380   1.245  1.00  0.00     0.052 C 
ENDROOT
BRANCH   1   2
ATOM      2  C   UNL     1       5.385  52.278   0.363  1.00  0.00     0.041 C 
ATOM      3  O   UNL     1       6.540  52.370   0.856  1.00  0.00    -0.550 OA
ATOM      4  O   UNL     1       5.235  52.049  -0.998  1.00  0.00    -0.550 OA
ENDBRANCH   1   2
BRANCH   1   5
ATOM      5  C   UNL     1       3.646  50.997   1.642  1.00  0.00     0.003 C 
ATOM      6  C   UNL     1       2.491  50.542   0.751  1.00  0.00     0.004 C 
ENDBRANCH   1   5
TORSDOF 2
ENDMDL
