MODEL 1
REMARK VINA RESULT:    -3.140      0.000      0.000
REMARK INTER + INTRA:          -3.733
REMARK INTER:                  -3.691
REMARK INTRA:                  -0.043
REMARK UNBOUND:                -0.043
REMARK SMILES CCCCC(=O)[O-]
REMARK SMILES IDX 4 1 5 2 6 3 7 4 3 5 2 6 1 7
REMARK H PARENT
REMARK Flexibility Score: inf
ROOT
ATOM      1  C   UNL     1       2.542   0.406  -4.295  1.00  0.00     0.053 C 
ENDROOT
BRANCH   1   2
ATOM      2  C   UNL     1       2.497   1.266  -5.519  1.00  0.00     0.041 C 
ATOM      3  O   UNL     1       2.537   2.519  -5.414  1.00  0.00    -0.550 OA
ATOM      4  O   UNL     1       2.362   0.683  -6.772  1.00  0.00    -0.550 OA
ENDBRANCH   1   2
BRANCH   1   5
ATOM      5  C   UNL     1       3.780  -0.495  -4.318  1.00  0.00     0.006 C 
BRANCH   5   6
ATOM      6  C   UNL     1       3.402  -1.941  -4.664  1.00  0.00    -0.003 C 
ATOM      7  C   UNL     1       4.512  -2.911  -4.270  1.00  0.00     0.004 C 
ENDBRANCH   5   6
ENDBRANCH   1   5
TORSDOF 3
ENDMDL
MODEL 2
REMARK VINA RESULT:    -3.041     15.357     15.975
REMARK INTER + INTRA:          -3.616
REMARK INTER:                  -3.567
REMARK INTRA:                  -0.050
REMARK UNBOUND:                -0.043
REMARK SMILES CCCCC(=O)[O-]
REMARK SMILES IDX 4 1 5 2 6 3 7 4 3 5 2 6 1 7
REMARK H PARENT
REMARK Flexibility Score: inf
ROOT
ATOM      1  C   UNL     1      -5.891 -12.753  -4.426  1.00  0.00     0.053 C 
ENDROOT
BRANCH   1   2
ATOM      2  C   UNL     1      -7.263 -12.686  -3.834  1.00  0.00     0.041 C 
ATOM      3  O   UNL     1      -8.210 -13.332  -4.353  1.00  0.00    -0.550 OA
ATOM      4  O   UNL     1      -7.507 -11.870  -2.736  1.00  0.00    -0.550 OA
ENDBRANCH   1   2
BRANCH   1   5
ATOM      5  C   UNL     1      -5.813 -11.902  -5.698  1.00  0.00     0.006 C 
BRANCH   5   6
ATOM      6  C   UNL     1      -5.238 -12.710  -6.866  1.00  0.00    -0.003 C 
ATOM      7  C   UNL     1      -4.035 -13.538  -6.424  1.00  0.00     0.004 C 
ENDBRANCH   5   6
ENDBRANCH   1   5
TORSDOF 3
ENDMDL
MODEL 3
REMARK VINA RESULT:    -3.021     15.287     15.921
REMARK INTER + INTRA:          -3.593
REMARK INTER:                  -3.504
REMARK INTRA:                  -0.090
REMARK UNBOUND:                -0.043
REMARK SMILES CCCCC(=O)[O-]
REMARK SMILES IDX 4 1 5 2 6 3 7 4 3 5 2 6 1 7
REMARK H PARENT
REMARK Flexibility Score: inf
ROOT
ATOM      1  C   UNL     1      -6.060 -12.429  -7.221  1.00  0.00     0.053 C 
ENDROOT
BRANCH   1   2
ATOM      2  C   UNL     1      -7.405 -12.087  -7.781  1.00  0.00     0.041 C 
ATOM      3  O   UNL     1      -8.432 -12.173  -7.059  1.00  0.00    -0.550 OA
ATOM      4  O   UNL     1      -7.530 -11.721  -9.115  1.00  0.00    -0.550 OA
ENDBRANCH   1   2
BRANCH   1   5
ATOM      5  C   UNL     1      -5.880 -11.798  -5.837  1.00  0.00     0.006 C 
BRANCH   5   6
ATOM      6  C   UNL     1      -5.710 -12.877  -4.760  1.00  0.00    -0.003 C 
ATOM      7  C   UNL     1      -6.750 -12.719  -3.654  1.00  0.00     0.004 C 
ENDBRANCH   5   6
ENDBRANCH   1   5
TORSDOF 3
ENDMDL
MODEL 4
REMARK VINA RESULT:    -3.021     15.072     15.571
REMARK INTER + INTRA:          -3.593
REMARK INTER:                  -3.513
REMARK INTRA:                  -0.080
REMARK UNBOUND:                -0.043
REMARK SMILES CCCCC(=O)[O-]
REMARK SMILES IDX 4 1 5 2 6 3 7 4 3 5 2 6 1 7
REMARK H PARENT
REMARK Flexibility Score: inf
ROOT
ATOM      1  C   UNL     1      -5.363 -13.534  -4.989  1.00  0.00     0.053 C 
ENDROOT
BRANCH   1   2
ATOM      2  C   UNL     1      -6.140 -12.292  -4.685  1.00  0.00     0.041 C 
ATOM      3  O   UNL     1      -6.094 -11.308  -5.468  1.00  0.00    -0.550 OA
ATOM      4  O   UNL     1      -6.877 -12.204  -3.511  1.00  0.00    -0.550 OA
ENDBRANCH   1   2
BRANCH   1   5
ATOM      5  C   UNL     1      -4.348 -13.271  -6.105  1.00  0.00     0.006 C 
BRANCH   5   6
ATOM      6  C   UNL     1      -4.812 -13.893  -7.428  1.00  0.00    -0.003 C 
ATOM      7  C   UNL     1      -4.654 -12.911  -8.585  1.00  0.00     0.004 C 
ENDBRANCH   5   6
ENDBRANCH   1   5
TORSDOF 3
ENDMDL
MODEL 5
REMARK VINA RESULT:    -2.943      2.344      3.643
REMARK INTER + INTRA:          -3.502
REMARK INTER:                  -3.396
REMARK INTRA:                  -0.106
REMARK UNBOUND:                -0.043
REMARK SMILES CCCCC(=O)[O-]
REMARK SMILES IDX 4 1 5 2 6 3 7 4 3 5 2 6 1 7
REMARK H PARENT
REMARK Flexibility Score: inf
ROOT
ATOM      1  C   UNL     1       3.660  -2.224  -4.620  1.00  0.00     0.053 C 
ENDROOT
BRANCH   1   2
ATOM      2  C   UNL     1       3.633  -2.437  -6.101  1.00  0.00     0.041 C 
ATOM      3  O   UNL     1       2.536  -2.467  -6.716  1.00  0.00    -0.550 OA
ATOM      4  O   UNL     1       4.818  -2.651  -6.793  1.00  0.00    -0.550 OA
ENDBRANCH   1   2
BRANCH   1   5
ATOM      5  C   UNL     1       4.042  -0.777  -4.293  1.00  0.00     0.006 C 
BRANCH   5   6
ATOM      6  C   UNL     1       2.793   0.096  -4.125  1.00  0.00    -0.003 C 
ATOM      7  C   UNL     1       2.694   1.137  -5.236  1.00  0.00     0.004 C 
ENDBRANCH   5   6
ENDBRANCH   1   5
TORSDOF 3
ENDMDL
MODEL 6
REMARK VINA RESULT:    -2.905      1.870      2.521
REMARK INTER + INTRA:          -3.457
REMARK INTER:                  -3.368
REMARK INTRA:                  -0.089
REMARK UNBOUND:                -0.043
REMARK SMILES CCCCC(=O)[O-]
REMARK SMILES IDX 4 1 5 2 6 3 7 4 3 5 2 6 1 7
REMARK H PARENT
REMARK Flexibility Score: inf
ROOT
ATOM      1  C   UNL     1       4.200  -1.181  -4.032  1.00  0.00     0.053 C 
ENDROOT
BRANCH   1   2
ATOM      2  C   UNL     1       3.643   0.201  -4.167  1.00  0.00     0.041 C 
ATOM      3  O   UNL     1       2.426   0.419  -3.931  1.00  0.00    -0.550 OA
ATOM      4  O   UNL     1       4.458   1.239  -4.600  1.00  0.00    -0.550 OA
ENDBRANCH   1   2
BRANCH   1   5
ATOM      5  C   UNL     1       3.372  -2.175  -4.852  1.00  0.00     0.006 C 
BRANCH   5   6
ATOM      6  C   UNL     1       3.710  -2.074  -6.344  1.00  0.00    -0.003 C 
ATOM      7  C   UNL     1       2.546  -2.551  -7.208  1.00  0.00     0.004 C 
ENDBRANCH   5   6
ENDBRANCH   1   5
TORSDOF 3
ENDMDL
MODEL 7
REMARK VINA RESULT:    -2.887     15.267     16.219
REMARK INTER + INTRA:          -3.435
REMARK INTER:                  -3.388
REMARK INTRA:                  -0.048
REMARK UNBOUND:                -0.043
REMARK SMILES CCCCC(=O)[O-]
REMARK SMILES IDX 4 1 5 2 6 3 7 4 3 5 2 6 1 7
REMARK H PARENT
REMARK Flexibility Score: inf
ROOT
ATOM      1  C   UNL     1      -5.811 -13.344  -4.230  1.00  0.00     0.053 C 
ENDROOT
BRANCH   1   2
ATOM      2  C   UNL     1      -5.468 -12.588  -5.475  1.00  0.00     0.041 C 
ATOM      3  O   UNL     1      -4.527 -12.978  -6.213  1.00  0.00    -0.550 OA
ATOM      4  O   UNL     1      -6.157 -11.425  -5.794  1.00  0.00    -0.550 OA
ENDBRANCH   1   2
BRANCH   1   5
ATOM      5  C   UNL     1      -6.875 -12.593  -3.424  1.00  0.00     0.006 C 
BRANCH   5   6
ATOM      6  C   UNL     1      -8.210 -13.348  -3.438  1.00  0.00    -0.003 C 
ATOM      7  C   UNL     1      -9.119 -12.882  -2.305  1.00  0.00     0.004 C 
ENDBRANCH   5   6
ENDBRANCH   1   5
TORSDOF 3
ENDMDL
MODEL 8
REMARK VINA RESULT:    -2.854     20.530     21.017
REMARK INTER + INTRA:          -3.397
REMARK INTER:                  -3.378
REMARK INTRA:                  -0.019
REMARK UNBOUND:                -0.043
REMARK SMILES CCCCC(=O)[O-]
REMARK SMILES IDX 4 1 5 2 6 3 7 4 3 5 2 6 1 7
REMARK H PARENT
REMARK Flexibility Score: inf
ROOT
ATOM      1  C   UNL     1     -12.896 -10.898   4.183  1.00  0.00     0.053 C 
ENDROOT
BRANCH   1   2
ATOM      2  C   UNL     1     -11.530 -10.757   4.776  1.00  0.00     0.041 C 
ATOM      3  O   UNL     1     -10.921  -9.658   4.709  1.00  0.00    -0.550 OA
ATOM      4  O   UNL     1     -10.909 -11.853   5.361  1.00  0.00    -0.550 OA
ENDBRANCH   1   2
BRANCH   1   5
ATOM      5  C   UNL     1     -12.888 -11.943   3.062  1.00  0.00     0.006 C 
BRANCH   5   6
ATOM      6  C   UNL     1     -13.680 -11.450   1.846  1.00  0.00    -0.003 C 
ATOM      7  C   UNL     1     -12.948 -11.768   0.545  1.00  0.00     0.004 C 
ENDBRANCH   5   6
ENDBRANCH   1   5
TORSDOF 3
ENDMDL
MODEL 9
REMARK VINA RESULT:    -2.817     21.195     21.656
REMARK INTER + INTRA:          -3.354
REMARK INTER:                  -3.271
REMARK INTRA:                  -0.083
REMARK UNBOUND:                -0.043
REMARK SMILES CCCCC(=O)[O-]
REMARK SMILES IDX 4 1 5 2 6 3 7 4 3 5 2 6 1 7
REMARK H PARENT
REMARK Flexibility Score: inf
ROOT
ATOM      1  C   UNL     1     -12.933 -10.995   4.431  1.00  0.00     0.053 C 
ENDROOT
BRANCH   1   2
ATOM      2  C   UNL     1     -11.505 -10.864   4.857  1.00  0.00     0.041 C 
ATOM      3  O   UNL     1     -10.917  -9.755   4.772  1.00  0.00    -0.550 OA
ATOM      4  O   UNL     1     -10.808 -11.980   5.303  1.00  0.00    -0.550 OA
ENDBRANCH   1   2
BRANCH   1   5
ATOM      5  C   UNL     1     -13.634  -9.634   4.479  1.00  0.00     0.006 C 
BRANCH   5   6
ATOM      6  C   UNL     1     -14.734  -9.620   5.546  1.00  0.00    -0.003 C 
ATOM      7  C   UNL     1     -14.160  -9.318   6.927  1.00  0.00     0.004 C 
ENDBRANCH   5   6
ENDBRANCH   1   5
TORSDOF 3
ENDMDL
