MODEL 1
REMARK VINA RESULT:    -4.441      0.000      0.000
REMARK INTER + INTRA:          -4.957
REMARK INTER:                  -4.701
REMARK INTRA:                  -0.257
REMARK UNBOUND:                -0.257
REMARK SMILES C=C(C)[C@H]1CC=C(C)CC1
REMARK SMILES IDX 8 1 7 2 6 3 5 4 4 5 10 6 9 7 2 8 1 9 3 10
REMARK H PARENT
REMARK Flexibility Score: inf
ROOT
ATOM      1  C   UNL     1      28.486  27.929  11.928  1.00  0.00     0.039 C 
ATOM      2  C   UNL     1      28.774  26.489  11.605  1.00  0.00    -0.077 C 
ATOM      3  C   UNL     1      28.039  25.512  12.161  1.00  0.00    -0.027 C 
ATOM      4  C   UNL     1      28.347  24.072  11.851  1.00  0.00     0.035 C 
ATOM      5  C   UNL     1      29.876  23.781  11.838  1.00  0.00     0.018 C 
ATOM      6  C   UNL     1      30.752  25.002  11.415  1.00  0.00     0.013 C 
ATOM      7  C   UNL     1      29.937  26.103  10.723  1.00  0.00     0.031 C 
ENDROOT
BRANCH   5   8
ATOM      8  C   UNL     1      30.343  23.204  13.167  1.00  0.00    -0.077 C 
ATOM      9  C   UNL     1      29.902  22.008  13.596  1.00  0.00     0.008 C 
ATOM     10  C   UNL     1      31.334  23.982  13.990  1.00  0.00     0.039 C 
ENDBRANCH   5   8
TORSDOF 1
ENDMDL
MODEL 2
REMARK VINA RESULT:    -4.408      1.304      4.159
REMARK INTER + INTRA:          -4.922
REMARK INTER:                  -4.684
REMARK INTRA:                  -0.239
REMARK UNBOUND:                -0.257
REMARK SMILES C=C(C)[C@H]1CC=C(C)CC1
REMARK SMILES IDX 8 1 7 2 6 3 5 4 4 5 10 6 9 7 2 8 1 9 3 10
REMARK H PARENT
REMARK Flexibility Score: inf
ROOT
ATOM      1  C   UNL     1      29.119  23.241  13.466  1.00  0.00     0.039 C 
ATOM      2  C   UNL     1      29.077  24.298  12.398  1.00  0.00    -0.077 C 
ATOM      3  C   UNL     1      30.213  24.708  11.809  1.00  0.00    -0.027 C 
ATOM      4  C   UNL     1      30.167  25.783  10.756  1.00  0.00     0.035 C 
ATOM      5  C   UNL     1      29.196  26.940  11.130  1.00  0.00     0.018 C 
ATOM      6  C   UNL     1      27.992  26.499  12.021  1.00  0.00     0.013 C 
ATOM      7  C   UNL     1      27.783  24.978  12.019  1.00  0.00     0.031 C 
ENDROOT
BRANCH   5   8
ATOM      8  C   UNL     1      29.942  28.110  11.756  1.00  0.00    -0.077 C 
ATOM      9  C   UNL     1      29.377  28.856  12.721  1.00  0.00     0.008 C 
ATOM     10  C   UNL     1      31.344  28.407  11.296  1.00  0.00     0.039 C 
ENDBRANCH   5   8
TORSDOF 1
ENDMDL
MODEL 3
REMARK VINA RESULT:    -4.241      1.306      1.450
REMARK INTER + INTRA:          -4.746
REMARK INTER:                  -4.557
REMARK INTRA:                  -0.189
REMARK UNBOUND:                -0.257
REMARK SMILES C=C(C)[C@H]1CC=C(C)CC1
REMARK SMILES IDX 8 1 7 2 6 3 5 4 4 5 10 6 9 7 2 8 1 9 3 10
REMARK H PARENT
REMARK Flexibility Score: inf
ROOT
ATOM      1  C   UNL     1      29.457  28.906  12.614  1.00  0.00     0.039 C 
ATOM      2  C   UNL     1      29.809  27.534  12.110  1.00  0.00    -0.077 C 
ATOM      3  C   UNL     1      28.841  26.631  11.878  1.00  0.00    -0.027 C 
ATOM      4  C   UNL     1      29.202  25.252  11.393  1.00  0.00     0.035 C 
ATOM      5  C   UNL     1      30.444  24.671  12.129  1.00  0.00     0.018 C 
ATOM      6  C   UNL     1      31.462  25.752  12.611  1.00  0.00     0.013 C 
ATOM      7  C   UNL     1      31.247  27.111  11.931  1.00  0.00     0.031 C 
ENDROOT
BRANCH   5   8
ATOM      8  C   UNL     1      30.034  23.754  13.272  1.00  0.00    -0.077 C 
ATOM      9  C   UNL     1      28.767  23.322  13.394  1.00  0.00     0.008 C 
ATOM     10  C   UNL     1      31.081  23.309  14.259  1.00  0.00     0.039 C 
ENDBRANCH   5   8
TORSDOF 1
ENDMDL
MODEL 4
REMARK VINA RESULT:    -4.060      1.943      3.339
REMARK INTER + INTRA:          -4.555
REMARK INTER:                  -4.388
REMARK INTRA:                  -0.166
REMARK UNBOUND:                -0.257
REMARK SMILES C=C(C)[C@H]1CC=C(C)CC1
REMARK SMILES IDX 8 1 7 2 6 3 5 4 4 5 10 6 9 7 2 8 1 9 3 10
REMARK H PARENT
REMARK Flexibility Score: inf
ROOT
ATOM      1  C   UNL     1      27.249  24.090  11.870  1.00  0.00     0.039 C 
ATOM      2  C   UNL     1      28.651  23.854  12.359  1.00  0.00    -0.077 C 
ATOM      3  C   UNL     1      29.697  24.092  11.550  1.00  0.00    -0.027 C 
ATOM      4  C   UNL     1      31.097  23.833  12.039  1.00  0.00     0.035 C 
ATOM      5  C   UNL     1      31.210  22.504  12.842  1.00  0.00     0.018 C 
ATOM      6  C   UNL     1      29.903  22.105  13.597  1.00  0.00     0.013 C 
ATOM      7  C   UNL     1      28.915  23.272  13.727  1.00  0.00     0.031 C 
ENDROOT
BRANCH   5   8
ATOM      8  C   UNL     1      31.707  21.365  11.964  1.00  0.00    -0.077 C 
ATOM      9  C   UNL     1      32.125  21.591  10.706  1.00  0.00     0.008 C 
ATOM     10  C   UNL     1      31.753  19.973  12.536  1.00  0.00     0.039 C 
ENDBRANCH   5   8
TORSDOF 1
ENDMDL
MODEL 5
REMARK VINA RESULT:    -4.012      0.947      4.191
REMARK INTER + INTRA:          -4.503
REMARK INTER:                  -4.293
REMARK INTRA:                  -0.210
REMARK UNBOUND:                -0.257
REMARK SMILES C=C(C)[C@H]1CC=C(C)CC1
REMARK SMILES IDX 8 1 7 2 6 3 5 4 4 5 10 6 9 7 2 8 1 9 3 10
REMARK H PARENT
REMARK Flexibility Score: inf
ROOT
ATOM      1  C   UNL     1      30.659  23.091  14.157  1.00  0.00     0.039 C 
ATOM      2  C   UNL     1      30.118  23.701  12.894  1.00  0.00    -0.077 C 
ATOM      3  C   UNL     1      30.952  24.278  12.012  1.00  0.00    -0.027 C 
ATOM      4  C   UNL     1      30.402  24.907  10.759  1.00  0.00     0.035 C 
ATOM      5  C   UNL     1      29.103  25.722  11.026  1.00  0.00     0.018 C 
ATOM      6  C   UNL     1      28.247  25.184  12.215  1.00  0.00     0.013 C 
ATOM      7  C   UNL     1      28.634  23.756  12.624  1.00  0.00     0.031 C 
ENDROOT
BRANCH   5   8
ATOM      8  C   UNL     1      29.401  27.205  11.190  1.00  0.00    -0.077 C 
ATOM      9  C   UNL     1      30.543  27.738  10.721  1.00  0.00     0.008 C 
ATOM     10  C   UNL     1      28.380  28.082  11.865  1.00  0.00     0.039 C 
ENDBRANCH   5   8
TORSDOF 1
ENDMDL
MODEL 6
REMARK VINA RESULT:    -3.925      1.390      2.642
REMARK INTER + INTRA:          -4.412
REMARK INTER:                  -4.283
REMARK INTRA:                  -0.129
REMARK UNBOUND:                -0.257
REMARK SMILES C=C(C)[C@H]1CC=C(C)CC1
REMARK SMILES IDX 8 1 7 2 6 3 5 4 4 5 10 6 9 7 2 8 1 9 3 10
REMARK H PARENT
REMARK Flexibility Score: inf
ROOT
ATOM      1  C   UNL     1      30.644  26.051  10.645  1.00  0.00     0.039 C 
ATOM      2  C   UNL     1      30.384  25.260  11.896  1.00  0.00    -0.077 C 
ATOM      3  C   UNL     1      31.411  24.834  12.651  1.00  0.00    -0.027 C 
ATOM      4  C   UNL     1      31.145  24.023  13.891  1.00  0.00     0.035 C 
ATOM      5  C   UNL     1      30.034  22.955  13.675  1.00  0.00     0.018 C 
ATOM      6  C   UNL     1      28.962  23.356  12.614  1.00  0.00     0.013 C 
ATOM      7  C   UNL     1      28.983  24.857  12.291  1.00  0.00     0.031 C 
ENDROOT
BRANCH   5   8
ATOM      8  C   UNL     1      30.630  21.589  13.365  1.00  0.00    -0.077 C 
ATOM      9  C   UNL     1      30.369  20.525  14.145  1.00  0.00     0.008 C 
ATOM     10  C   UNL     1      31.501  21.436  12.146  1.00  0.00     0.039 C 
ENDBRANCH   5   8
TORSDOF 1
ENDMDL
MODEL 7
REMARK VINA RESULT:    -3.896      1.080      4.021
REMARK INTER + INTRA:          -4.381
REMARK INTER:                  -4.129
REMARK INTRA:                  -0.252
REMARK UNBOUND:                -0.257
REMARK SMILES C=C(C)[C@H]1CC=C(C)CC1
REMARK SMILES IDX 8 1 7 2 6 3 5 4 4 5 10 6 9 7 2 8 1 9 3 10
REMARK H PARENT
REMARK Flexibility Score: inf
ROOT
ATOM      1  C   UNL     1      29.938  22.118  13.389  1.00  0.00     0.039 C 
ATOM      2  C   UNL     1      30.494  23.345  12.721  1.00  0.00    -0.077 C 
ATOM      3  C   UNL     1      30.940  24.374  13.461  1.00  0.00    -0.027 C 
ATOM      4  C   UNL     1      31.475  25.608  12.785  1.00  0.00     0.035 C 
ATOM      5  C   UNL     1      30.613  26.037  11.563  1.00  0.00     0.018 C 
ATOM      6  C   UNL     1      29.899  24.852  10.840  1.00  0.00     0.013 C 
ATOM      7  C   UNL     1      30.491  23.487  11.217  1.00  0.00     0.031 C 
ENDROOT
BRANCH   5   8
ATOM      8  C   UNL     1      29.621  27.129  11.938  1.00  0.00    -0.077 C 
ATOM      9  C   UNL     1      28.297  26.897  11.923  1.00  0.00     0.008 C 
ATOM     10  C   UNL     1      30.147  28.476  12.357  1.00  0.00     0.039 C 
ENDBRANCH   5   8
TORSDOF 1
ENDMDL
MODEL 8
REMARK VINA RESULT:    -3.846      1.490      4.374
REMARK INTER + INTRA:          -4.328
REMARK INTER:                  -4.080
REMARK INTRA:                  -0.248
REMARK UNBOUND:                -0.257
REMARK SMILES C=C(C)[C@H]1CC=C(C)CC1
REMARK SMILES IDX 8 1 7 2 6 3 5 4 4 5 10 6 9 7 2 8 1 9 3 10
REMARK H PARENT
REMARK Flexibility Score: inf
ROOT
ATOM      1  C   UNL     1      30.757  20.168  13.808  1.00  0.00     0.039 C 
ATOM      2  C   UNL     1      30.643  21.666  13.785  1.00  0.00    -0.077 C 
ATOM      3  C   UNL     1      29.508  22.251  13.369  1.00  0.00    -0.027 C 
ATOM      4  C   UNL     1      29.408  23.753  13.327  1.00  0.00     0.035 C 
ATOM      5  C   UNL     1      30.701  24.418  12.772  1.00  0.00     0.018 C 
ATOM      6  C   UNL     1      32.005  23.609  13.055  1.00  0.00     0.013 C 
ATOM      7  C   UNL     1      31.816  22.546  14.146  1.00  0.00     0.031 C 
ENDROOT
BRANCH   5   8
ATOM      8  C   UNL     1      30.566  24.744  11.291  1.00  0.00    -0.077 C 
ATOM      9  C   UNL     1      31.013  23.892  10.351  1.00  0.00     0.008 C 
ATOM     10  C   UNL     1      29.895  26.029  10.887  1.00  0.00     0.039 C 
ENDBRANCH   5   8
TORSDOF 1
ENDMDL
MODEL 9
REMARK VINA RESULT:    -3.842      1.589      2.672
REMARK INTER + INTRA:          -4.324
REMARK INTER:                  -4.079
REMARK INTRA:                  -0.245
REMARK UNBOUND:                -0.257
REMARK SMILES C=C(C)[C@H]1CC=C(C)CC1
REMARK SMILES IDX 8 1 7 2 6 3 5 4 4 5 10 6 9 7 2 8 1 9 3 10
REMARK H PARENT
REMARK Flexibility Score: inf
ROOT
ATOM      1  C   UNL     1      32.125  27.381  13.157  1.00  0.00     0.039 C 
ATOM      2  C   UNL     1      31.399  26.352  12.336  1.00  0.00    -0.077 C 
ATOM      3  C   UNL     1      30.201  26.638  11.800  1.00  0.00    -0.027 C 
ATOM      4  C   UNL     1      29.470  25.595  10.997  1.00  0.00     0.035 C 
ATOM      5  C   UNL     1      29.551  24.182  11.645  1.00  0.00     0.018 C 
ATOM      6  C   UNL     1      30.851  23.935  12.472  1.00  0.00     0.013 C 
ATOM      7  C   UNL     1      31.953  24.958  12.162  1.00  0.00     0.031 C 
ENDROOT
BRANCH   5   8
ATOM      8  C   UNL     1      28.309  23.878  12.470  1.00  0.00    -0.077 C 
ATOM      9  C   UNL     1      27.077  24.058  11.962  1.00  0.00     0.008 C 
ATOM     10  C   UNL     1      28.477  23.341  13.867  1.00  0.00     0.039 C 
ENDBRANCH   5   8
TORSDOF 1
ENDMDL
