MODEL 1
REMARK VINA RESULT:    -3.938      0.000      0.000
REMARK INTER + INTRA:          -6.062
REMARK INTER:                  -5.089
REMARK INTRA:                  -0.972
REMARK UNBOUND:                -0.972
REMARK SMILES CCCCC(=O)c1ccccc1C(=O)[O-]
REMARK SMILES IDX 4 1 5 2 6 3 7 4 12 5 11 6 10 7 8 8 9 9 13 10 14 11 15 12
REMARK SMILES IDX 3 13 2 14 1 15
REMARK H PARENT
REMARK Flexibility Score: inf
ROOT
ATOM      1  C   UNL     1     171.627 186.510  32.868  1.00  0.00     0.081 C 
ENDROOT
BRANCH   1   2
ATOM      2  C   UNL     1     170.205 186.977  33.040  1.00  0.00     0.163 C 
ATOM      3  O   UNL     1     169.974 188.215  33.108  1.00  0.00    -0.294 OA
BRANCH   2   4
ATOM      4  C   UNL     1     169.077 186.020  33.108  1.00  0.00     0.027 A 
ATOM      5  C   UNL     1     168.429 185.523  31.941  1.00  0.00     0.008 A 
ATOM      6  C   UNL     1     167.301 184.693  32.089  1.00  0.00     0.011 A 
ATOM      7  C   UNL     1     166.833 184.341  33.354  1.00  0.00     0.001 A 
ATOM      8  C   UNL     1     168.587 185.651  34.375  1.00  0.00     0.012 A 
ATOM      9  C   UNL     1     167.477 184.814  34.494  1.00  0.00     0.001 A 
BRANCH   5  10
ATOM     10  C   UNL     1     168.913 185.802  30.566  1.00  0.00     0.072 C 
ATOM     11  O   UNL     1     169.862 185.143  30.064  1.00  0.00    -0.545 OA
ATOM     12  O   UNL     1     168.285 186.769  29.788  1.00  0.00    -0.545 OA
ENDBRANCH   5  10
ENDBRANCH   2   4
ENDBRANCH   1   2
BRANCH   1  13
ATOM     13  C   UNL     1     171.853 185.135  33.512  1.00  0.00     0.008 C 
BRANCH  13  14
ATOM     14  C   UNL     1     172.219 184.063  32.475  1.00  0.00    -0.003 C 
ATOM     15  C   UNL     1     171.196 182.931  32.471  1.00  0.00     0.004 C 
ENDBRANCH  13  14
ENDBRANCH   1  13
TORSDOF 5
ENDMDL
MODEL 2
REMARK VINA RESULT:    -3.799      1.723      3.678
REMARK INTER + INTRA:          -5.882
REMARK INTER:                  -4.911
REMARK INTRA:                  -0.971
REMARK UNBOUND:                -0.972
REMARK SMILES CCCCC(=O)c1ccccc1C(=O)[O-]
REMARK SMILES IDX 4 1 5 2 6 3 7 4 12 5 11 6 10 7 8 8 9 9 13 10 14 11 15 12
REMARK SMILES IDX 3 13 2 14 1 15
REMARK H PARENT
REMARK Flexibility Score: inf
ROOT
ATOM      1  C   UNL     1     167.351 187.700  34.022  1.00  0.00     0.081 C 
ENDROOT
BRANCH   1   2
ATOM      2  C   UNL     1     167.954 187.905  32.657  1.00  0.00     0.163 C 
ATOM      3  O   UNL     1     167.456 188.779  31.896  1.00  0.00    -0.294 OA
BRANCH   2   4
ATOM      4  C   UNL     1     169.126 187.124  32.200  1.00  0.00     0.027 A 
ATOM      5  C   UNL     1     169.025 186.116  31.199  1.00  0.00     0.008 A 
ATOM      6  C   UNL     1     170.164 185.349  30.888  1.00  0.00     0.011 A 
ATOM      7  C   UNL     1     171.380 185.581  31.529  1.00  0.00     0.001 A 
ATOM      8  C   UNL     1     170.364 187.340  32.834  1.00  0.00     0.012 A 
ATOM      9  C   UNL     1     171.481 186.577  32.495  1.00  0.00     0.001 A 
BRANCH   5  10
ATOM     10  C   UNL     1     167.782 185.861  30.429  1.00  0.00     0.072 C 
ATOM     11  O   UNL     1     167.584 186.410  29.313  1.00  0.00    -0.545 OA
ATOM     12  O   UNL     1     166.834 184.966  30.913  1.00  0.00    -0.545 OA
ENDBRANCH   5  10
ENDBRANCH   2   4
ENDBRANCH   1   2
BRANCH   1  13
ATOM     13  C   UNL     1     166.477 186.439  34.071  1.00  0.00     0.008 C 
BRANCH  13  14
ATOM     14  C   UNL     1     167.051 185.372  35.015  1.00  0.00    -0.003 C 
ATOM     15  C   UNL     1     167.877 184.345  34.245  1.00  0.00     0.004 C 
ENDBRANCH  13  14
ENDBRANCH   1  13
TORSDOF 5
ENDMDL
MODEL 3
REMARK VINA RESULT:    -3.766      2.312      4.597
REMARK INTER + INTRA:          -5.839
REMARK INTER:                  -5.402
REMARK INTRA:                  -0.437
REMARK UNBOUND:                -0.972
REMARK SMILES CCCCC(=O)c1ccccc1C(=O)[O-]
REMARK SMILES IDX 4 1 5 2 6 3 7 4 12 5 11 6 10 7 8 8 9 9 13 10 14 11 15 12
REMARK SMILES IDX 3 13 2 14 1 15
REMARK H PARENT
REMARK Flexibility Score: inf
ROOT
ATOM      1  C   UNL     1     165.593 184.241  31.402  1.00  0.00     0.081 C 
ENDROOT
BRANCH   1   2
ATOM      2  C   UNL     1     166.549 185.055  32.234  1.00  0.00     0.163 C 
ATOM      3  O   UNL     1     166.090 185.765  33.170  1.00  0.00    -0.294 OA
BRANCH   2   4
ATOM      4  C   UNL     1     168.009 185.023  31.992  1.00  0.00     0.027 A 
ATOM      5  C   UNL     1     168.602 185.609  30.837  1.00  0.00     0.008 A 
ATOM      6  C   UNL     1     169.985 185.454  30.628  1.00  0.00     0.011 A 
ATOM      7  C   UNL     1     170.774 184.758  31.544  1.00  0.00     0.001 A 
ATOM      8  C   UNL     1     168.825 184.326  32.903  1.00  0.00     0.012 A 
ATOM      9  C   UNL     1     170.196 184.200  32.681  1.00  0.00     0.001 A 
BRANCH   5  10
ATOM     10  C   UNL     1     167.836 186.419  29.857  1.00  0.00     0.072 C 
ATOM     11  O   UNL     1     167.318 185.890  28.838  1.00  0.00    -0.545 OA
ATOM     12  O   UNL     1     167.638 187.778  30.078  1.00  0.00    -0.545 OA
ENDBRANCH   5  10
ENDBRANCH   2   4
ENDBRANCH   1   2
BRANCH   1  13
ATOM     13  C   UNL     1     165.368 182.845  32.001  1.00  0.00     0.008 C 
BRANCH  13  14
ATOM     14  C   UNL     1     164.472 181.971  31.112  1.00  0.00    -0.003 C 
ATOM     15  C   UNL     1     164.054 182.718  29.849  1.00  0.00     0.004 C 
ENDBRANCH  13  14
ENDBRANCH   1  13
TORSDOF 5
ENDMDL
MODEL 4
REMARK VINA RESULT:    -3.673      1.701      4.539
REMARK INTER + INTRA:          -5.719
REMARK INTER:                  -4.950
REMARK INTRA:                  -0.769
REMARK UNBOUND:                -0.972
REMARK SMILES CCCCC(=O)c1ccccc1C(=O)[O-]
REMARK SMILES IDX 4 1 5 2 6 3 7 4 12 5 11 6 10 7 8 8 9 9 13 10 14 11 15 12
REMARK SMILES IDX 3 13 2 14 1 15
REMARK H PARENT
REMARK Flexibility Score: inf
ROOT
ATOM      1  C   UNL     1     166.641 184.738  31.378  1.00  0.00     0.081 C 
ENDROOT
BRANCH   1   2
ATOM      2  C   UNL     1     167.692 185.599  30.729  1.00  0.00     0.163 C 
ATOM      3  O   UNL     1     167.490 186.030  29.561  1.00  0.00    -0.294 OA
BRANCH   2   4
ATOM      4  C   UNL     1     168.940 185.968  31.436  1.00  0.00     0.027 A 
ATOM      5  C   UNL     1     169.043 187.141  32.236  1.00  0.00     0.008 A 
ATOM      6  C   UNL     1     170.290 187.476  32.798  1.00  0.00     0.011 A 
ATOM      7  C   UNL     1     171.406 186.664  32.596  1.00  0.00     0.001 A 
ATOM      8  C   UNL     1     170.080 185.164  31.247  1.00  0.00     0.012 A 
ATOM      9  C   UNL     1     171.300 185.509  31.827  1.00  0.00     0.001 A 
BRANCH   5  10
ATOM     10  C   UNL     1     167.883 188.013  32.548  1.00  0.00     0.072 C 
ATOM     11  O   UNL     1     167.288 187.933  33.656  1.00  0.00    -0.545 OA
ATOM     12  O   UNL     1     167.465 188.972  31.633  1.00  0.00    -0.545 OA
ENDBRANCH   5  10
ENDBRANCH   2   4
ENDBRANCH   1   2
BRANCH   1  13
ATOM     13  C   UNL     1     167.071 184.279  32.779  1.00  0.00     0.008 C 
BRANCH  13  14
ATOM     14  C   UNL     1     166.070 184.707  33.862  1.00  0.00    -0.003 C 
ATOM     15  C   UNL     1     164.854 185.393  33.246  1.00  0.00     0.004 C 
ENDBRANCH  13  14
ENDBRANCH   1  13
TORSDOF 5
ENDMDL
MODEL 5
REMARK VINA RESULT:    -3.649      1.405      2.956
REMARK INTER + INTRA:          -5.688
REMARK INTER:                  -4.591
REMARK INTRA:                  -1.096
REMARK UNBOUND:                -0.972
REMARK SMILES CCCCC(=O)c1ccccc1C(=O)[O-]
REMARK SMILES IDX 4 1 5 2 6 3 7 4 12 5 11 6 10 7 8 8 9 9 13 10 14 11 15 12
REMARK SMILES IDX 3 13 2 14 1 15
REMARK H PARENT
REMARK Flexibility Score: inf
ROOT
ATOM      1  C   UNL     1     169.778 185.370  30.209  1.00  0.00     0.081 C 
ENDROOT
BRANCH   1   2
ATOM      2  C   UNL     1     168.497 186.111  30.489  1.00  0.00     0.163 C 
ATOM      3  O   UNL     1     168.066 186.928  29.630  1.00  0.00    -0.294 OA
BRANCH   2   4
ATOM      4  C   UNL     1     167.726 185.887  31.733  1.00  0.00     0.027 A 
ATOM      5  C   UNL     1     167.768 186.796  32.828  1.00  0.00     0.008 A 
ATOM      6  C   UNL     1     167.086 186.466  34.015  1.00  0.00     0.011 A 
ATOM      7  C   UNL     1     166.359 185.280  34.116  1.00  0.00     0.001 A 
ATOM      8  C   UNL     1     166.986 184.696  31.858  1.00  0.00     0.012 A 
ATOM      9  C   UNL     1     166.305 184.400  33.039  1.00  0.00     0.001 A 
BRANCH   5  10
ATOM     10  C   UNL     1     168.465 188.106  32.767  1.00  0.00     0.072 C 
ATOM     11  O   UNL     1     167.895 189.124  32.294  1.00  0.00    -0.545 OA
ATOM     12  O   UNL     1     169.749 188.237  33.283  1.00  0.00    -0.545 OA
ENDBRANCH   5  10
ENDBRANCH   2   4
ENDBRANCH   1   2
BRANCH   1  13
ATOM     13  C   UNL     1     170.773 185.499  31.371  1.00  0.00     0.008 C 
BRANCH  13  14
ATOM     14  C   UNL     1     170.919 184.189  32.158  1.00  0.00    -0.003 C 
ATOM     15  C   UNL     1     170.524 184.379  33.620  1.00  0.00     0.004 C 
ENDBRANCH  13  14
ENDBRANCH   1  13
TORSDOF 5
ENDMDL
MODEL 6
REMARK VINA RESULT:    -3.614     18.753     20.672
REMARK INTER + INTRA:          -5.643
REMARK INTER:                  -5.033
REMARK INTRA:                  -0.610
REMARK UNBOUND:                -0.972
REMARK SMILES CCCCC(=O)c1ccccc1C(=O)[O-]
REMARK SMILES IDX 4 1 5 2 6 3 7 4 12 5 11 6 10 7 8 8 9 9 13 10 14 11 15 12
REMARK SMILES IDX 3 13 2 14 1 15
REMARK H PARENT
REMARK Flexibility Score: inf
ROOT
ATOM      1  C   UNL     1     159.999 173.309  21.013  1.00  0.00     0.081 C 
ENDROOT
BRANCH   1   2
ATOM      2  C   UNL     1     159.683 171.879  20.660  1.00  0.00     0.163 C 
ATOM      3  O   UNL     1     158.489 171.566  20.398  1.00  0.00    -0.294 OA
BRANCH   2   4
ATOM      4  C   UNL     1     160.740 170.844  20.592  1.00  0.00     0.027 A 
ATOM      5  C   UNL     1     161.206 170.157  21.748  1.00  0.00     0.008 A 
ATOM      6  C   UNL     1     162.280 169.256  21.619  1.00  0.00     0.011 A 
ATOM      7  C   UNL     1     162.870 169.020  20.378  1.00  0.00     0.001 A 
ATOM      8  C   UNL     1     161.350 170.590  19.350  1.00  0.00     0.012 A 
ATOM      9  C   UNL     1     162.403 169.681  19.245  1.00  0.00     0.001 A 
BRANCH   5  10
ATOM     10  C   UNL     1     160.582 170.308  23.087  1.00  0.00     0.072 C 
ATOM     11  O   UNL     1     159.607 169.590  23.435  1.00  0.00    -0.545 OA
ATOM     12  O   UNL     1     161.102 171.218  24.000  1.00  0.00    -0.545 OA
ENDBRANCH   5  10
ENDBRANCH   2   4
ENDBRANCH   1   2
BRANCH   1  13
ATOM     13  C   UNL     1     159.198 173.781  22.235  1.00  0.00     0.008 C 
BRANCH  13  14
ATOM     14  C   UNL     1     158.499 175.125  21.986  1.00  0.00    -0.003 C 
ATOM     15  C   UNL     1     157.270 174.950  21.100  1.00  0.00     0.004 C 
ENDBRANCH  13  14
ENDBRANCH   1  13
TORSDOF 5
ENDMDL
MODEL 7
REMARK VINA RESULT:    -3.607      2.061      2.860
REMARK INTER + INTRA:          -5.634
REMARK INTER:                  -5.125
REMARK INTRA:                  -0.509
REMARK UNBOUND:                -0.972
REMARK SMILES CCCCC(=O)c1ccccc1C(=O)[O-]
REMARK SMILES IDX 4 1 5 2 6 3 7 4 12 5 11 6 10 7 8 8 9 9 13 10 14 11 15 12
REMARK SMILES IDX 3 13 2 14 1 15
REMARK H PARENT
REMARK Flexibility Score: inf
ROOT
ATOM      1  C   UNL     1     170.544 184.287  32.618  1.00  0.00     0.081 C 
ENDROOT
BRANCH   1   2
ATOM      2  C   UNL     1     170.388 185.476  31.706  1.00  0.00     0.163 C 
ATOM      3  O   UNL     1     170.943 185.451  30.573  1.00  0.00    -0.294 OA
BRANCH   2   4
ATOM      4  C   UNL     1     169.585 186.657  32.099  1.00  0.00     0.027 A 
ATOM      5  C   UNL     1     168.259 186.867  31.624  1.00  0.00     0.008 A 
ATOM      6  C   UNL     1     167.595 188.061  31.963  1.00  0.00     0.011 A 
ATOM      7  C   UNL     1     168.212 189.018  32.769  1.00  0.00     0.001 A 
ATOM      8  C   UNL     1     170.187 187.636  32.911  1.00  0.00     0.012 A 
ATOM      9  C   UNL     1     169.501 188.804  33.246  1.00  0.00     0.001 A 
BRANCH   5  10
ATOM     10  C   UNL     1     167.518 185.863  30.820  1.00  0.00     0.072 C 
ATOM     11  O   UNL     1     167.531 185.900  29.561  1.00  0.00    -0.545 OA
ATOM     12  O   UNL     1     166.835 184.830  31.452  1.00  0.00    -0.545 OA
ENDBRANCH   5  10
ENDBRANCH   2   4
ENDBRANCH   1   2
BRANCH   1  13
ATOM     13  C   UNL     1     171.890 184.311  33.355  1.00  0.00     0.008 C 
BRANCH  13  14
ATOM     14  C   UNL     1     172.961 183.481  32.634  1.00  0.00    -0.003 C 
ATOM     15  C   UNL     1     174.062 183.048  33.597  1.00  0.00     0.004 C 
ENDBRANCH  13  14
ENDBRANCH   1  13
TORSDOF 5
ENDMDL
MODEL 8
REMARK VINA RESULT:    -3.532      2.240      4.590
REMARK INTER + INTRA:          -5.537
REMARK INTER:                  -5.062
REMARK INTRA:                  -0.475
REMARK UNBOUND:                -0.972
REMARK SMILES CCCCC(=O)c1ccccc1C(=O)[O-]
REMARK SMILES IDX 4 1 5 2 6 3 7 4 12 5 11 6 10 7 8 8 9 9 13 10 14 11 15 12
REMARK SMILES IDX 3 13 2 14 1 15
REMARK H PARENT
REMARK Flexibility Score: inf
ROOT
ATOM      1  C   UNL     1     166.373 184.622  31.392  1.00  0.00     0.081 C 
ENDROOT
BRANCH   1   2
ATOM      2  C   UNL     1     167.359 184.673  32.530  1.00  0.00     0.163 C 
ATOM      3  O   UNL     1     167.488 183.661  33.271  1.00  0.00    -0.294 OA
BRANCH   2   4
ATOM      4  C   UNL     1     168.191 185.872  32.783  1.00  0.00     0.027 A 
ATOM      5  C   UNL     1     169.505 186.011  32.254  1.00  0.00     0.008 A 
ATOM      6  C   UNL     1     170.271 187.135  32.618  1.00  0.00     0.011 A 
ATOM      7  C   UNL     1     169.750 188.112  33.466  1.00  0.00     0.001 A 
ATOM      8  C   UNL     1     167.685 186.871  33.636  1.00  0.00     0.012 A 
ATOM      9  C   UNL     1     168.459 187.983  33.969  1.00  0.00     0.001 A 
BRANCH   5  10
ATOM     10  C   UNL     1     170.098 185.046  31.294  1.00  0.00     0.072 C 
ATOM     11  O   UNL     1     169.884 185.144  30.056  1.00  0.00    -0.545 OA
ATOM     12  O   UNL     1     170.946 184.042  31.748  1.00  0.00    -0.545 OA
ENDBRANCH   5  10
ENDBRANCH   2   4
ENDBRANCH   1   2
BRANCH   1  13
ATOM     13  C   UNL     1     165.075 183.911  31.799  1.00  0.00     0.008 C 
BRANCH  13  14
ATOM     14  C   UNL     1     164.862 182.603  31.023  1.00  0.00    -0.003 C 
ATOM     15  C   UNL     1     164.082 182.850  29.734  1.00  0.00     0.004 C 
ENDBRANCH  13  14
ENDBRANCH   1  13
TORSDOF 5
ENDMDL
MODEL 9
REMARK VINA RESULT:    -3.462      2.283      3.148
REMARK INTER + INTRA:          -5.447
REMARK INTER:                  -4.635
REMARK INTRA:                  -0.812
REMARK UNBOUND:                -0.972
REMARK SMILES CCCCC(=O)c1ccccc1C(=O)[O-]
REMARK SMILES IDX 4 1 5 2 6 3 7 4 12 5 11 6 10 7 8 8 9 9 13 10 14 11 15 12
REMARK SMILES IDX 3 13 2 14 1 15
REMARK H PARENT
REMARK Flexibility Score: inf
ROOT
ATOM      1  C   UNL     1     170.029 184.956  31.572  1.00  0.00     0.081 C 
ENDROOT
BRANCH   1   2
ATOM      2  C   UNL     1     168.817 185.723  31.112  1.00  0.00     0.163 C 
ATOM      3  O   UNL     1     168.573 185.794  29.877  1.00  0.00    -0.294 OA
BRANCH   2   4
ATOM      4  C   UNL     1     167.898 186.372  32.075  1.00  0.00     0.027 A 
ATOM      5  C   UNL     1     166.697 185.748  32.519  1.00  0.00     0.008 A 
ATOM      6  C   UNL     1     165.825 186.468  33.358  1.00  0.00     0.011 A 
ATOM      7  C   UNL     1     166.137 187.763  33.771  1.00  0.00     0.001 A 
ATOM      8  C   UNL     1     168.191 187.679  32.504  1.00  0.00     0.012 A 
ATOM      9  C   UNL     1     167.319 188.365  33.350  1.00  0.00     0.001 A 
BRANCH   5  10
ATOM     10  C   UNL     1     166.335 184.350  32.175  1.00  0.00     0.072 C 
ATOM     11  O   UNL     1     166.610 183.397  32.952  1.00  0.00    -0.545 OA
ATOM     12  O   UNL     1     165.638 184.078  31.003  1.00  0.00    -0.545 OA
ENDBRANCH   5  10
ENDBRANCH   2   4
ENDBRANCH   1   2
BRANCH   1  13
ATOM     13  C   UNL     1     171.297 185.821  31.526  1.00  0.00     0.008 C 
BRANCH  13  14
ATOM     14  C   UNL     1     171.618 186.452  32.888  1.00  0.00    -0.003 C 
ATOM     15  C   UNL     1     171.073 185.600  34.031  1.00  0.00     0.004 C 
ENDBRANCH  13  14
ENDBRANCH   1  13
TORSDOF 5
ENDMDL
