MODEL 1
REMARK VINA RESULT:    -5.893      0.000      0.000
REMARK INTER + INTRA:          -6.065
REMARK INTER:                  -6.065
REMARK INTRA:                   0.000
REMARK UNBOUND:                 0.000
REMARK SMILES O=c1ccc2cc(O)ccc2o1
REMARK SMILES IDX 9 1 10 2 11 3 5 4 4 5 3 6 2 7 1 8 12 9 6 10 7 11 8 12
REMARK H PARENT 8 13
REMARK Flexibility Score: inf
ROOT
ATOM      1  C   UNL     1     -37.279  -4.299 -13.188  1.00  0.00     0.050 A 
ATOM      2  C   UNL     1     -38.485  -5.007 -13.187  1.00  0.00     0.052 A 
ATOM      3  C   UNL     1     -38.485  -6.393 -13.375  1.00  0.00     0.138 A 
ATOM      4  C   UNL     1     -37.262  -7.074 -13.564  1.00  0.00     0.021 A 
ATOM      5  C   UNL     1     -37.294  -8.461 -13.748  1.00  0.00     0.019 A 
ATOM      6  C   UNL     1     -38.520  -9.124 -13.739  1.00  0.00     0.094 A 
ATOM      7  C   UNL     1     -39.691  -8.383 -13.545  1.00  0.00     0.336 A 
ATOM      8  O   UNL     1     -40.808  -8.965 -13.535  1.00  0.00    -0.246 OA
ATOM      9  O   UNL     1     -39.634  -7.065 -13.373  1.00  0.00    -0.423 OA
ATOM     10  C   UNL     1     -36.055  -6.360 -13.563  1.00  0.00     0.058 A 
ATOM     11  C   UNL     1     -36.065  -4.970 -13.376  1.00  0.00     0.116 A 
ENDROOT
BRANCH  11  12
ATOM     12  O   UNL     1     -34.874  -4.247 -13.374  1.00  0.00    -0.508 OA
ATOM     13  H   UNL     1     -34.868  -3.235 -13.321  1.00  0.00     0.293 HD
ENDBRANCH  11  12
TORSDOF 1
ENDMDL
MODEL 2
REMARK VINA RESULT:    -5.856      7.009      8.834
REMARK INTER + INTRA:          -6.027
REMARK INTER:                  -6.027
REMARK INTRA:                   0.000
REMARK UNBOUND:                 0.000
REMARK SMILES O=c1ccc2cc(O)ccc2o1
REMARK SMILES IDX 9 1 10 2 11 3 5 4 4 5 3 6 2 7 1 8 12 9 6 10 7 11 8 12
REMARK H PARENT 8 13
REMARK Flexibility Score: inf
ROOT
ATOM      1  C   UNL     1     -30.179  -2.379 -19.679  1.00  0.00     0.050 A 
ATOM      2  C   UNL     1     -30.575  -2.886 -18.436  1.00  0.00     0.052 A 
ATOM      3  C   UNL     1     -31.921  -3.180 -18.196  1.00  0.00     0.138 A 
ATOM      4  C   UNL     1     -32.878  -2.965 -19.212  1.00  0.00     0.021 A 
ATOM      5  C   UNL     1     -34.216  -3.269 -18.943  1.00  0.00     0.019 A 
ATOM      6  C   UNL     1     -34.564  -3.773 -17.690  1.00  0.00     0.094 A 
ATOM      7  C   UNL     1     -33.562  -3.961 -16.732  1.00  0.00     0.336 A 
ATOM      8  O   UNL     1     -33.857  -4.413 -15.594  1.00  0.00    -0.246 OA
ATOM      9  O   UNL     1     -32.296  -3.663 -17.014  1.00  0.00    -0.423 OA
ATOM     10  C   UNL     1     -32.476  -2.457 -20.456  1.00  0.00     0.058 A 
ATOM     11  C   UNL     1     -31.124  -2.164 -20.688  1.00  0.00     0.116 A 
ENDROOT
BRANCH  11  12
ATOM     12  O   UNL     1     -30.710  -1.658 -21.919  1.00  0.00    -0.508 OA
ATOM     13  H   UNL     1     -30.991  -0.738 -22.235  1.00  0.00     0.293 HD
ENDBRANCH  11  12
TORSDOF 1
ENDMDL
MODEL 3
REMARK VINA RESULT:    -5.717      1.223      4.338
REMARK INTER + INTRA:          -5.884
REMARK INTER:                  -5.884
REMARK INTRA:                   0.000
REMARK UNBOUND:                 0.000
REMARK SMILES O=c1ccc2cc(O)ccc2o1
REMARK SMILES IDX 9 1 10 2 11 3 5 4 4 5 3 6 2 7 1 8 12 9 6 10 7 11 8 12
REMARK H PARENT 8 13
REMARK Flexibility Score: inf
ROOT
ATOM      1  C   UNL     1     -40.560  -6.845 -13.028  1.00  0.00     0.050 A 
ATOM      2  C   UNL     1     -39.739  -5.735 -12.798  1.00  0.00     0.052 A 
ATOM      3  C   UNL     1     -38.371  -5.805 -13.079  1.00  0.00     0.138 A 
ATOM      4  C   UNL     1     -37.822  -6.998 -13.596  1.00  0.00     0.021 A 
ATOM      5  C   UNL     1     -36.450  -7.038 -13.868  1.00  0.00     0.019 A 
ATOM      6  C   UNL     1     -35.672  -5.907 -13.623  1.00  0.00     0.094 A 
ATOM      7  C   UNL     1     -36.285  -4.759 -13.110  1.00  0.00     0.336 A 
ATOM      8  O   UNL     1     -35.598  -3.728 -12.882  1.00  0.00    -0.246 OA
ATOM      9  O   UNL     1     -37.592  -4.748 -12.860  1.00  0.00    -0.423 OA
ATOM     10  C   UNL     1     -38.648  -8.108 -13.826  1.00  0.00     0.058 A 
ATOM     11  C   UNL     1     -40.019  -8.029 -13.540  1.00  0.00     0.116 A 
ENDROOT
BRANCH  11  12
ATOM     12  O   UNL     1     -40.853  -9.124 -13.762  1.00  0.00    -0.508 OA
ATOM     13  H   UNL     1     -40.999  -9.498 -14.692  1.00  0.00     0.293 HD
ENDBRANCH  11  12
TORSDOF 1
ENDMDL
MODEL 4
REMARK VINA RESULT:    -5.476      1.093      4.786
REMARK INTER + INTRA:          -5.636
REMARK INTER:                  -5.636
REMARK INTRA:                   0.000
REMARK UNBOUND:                 0.000
REMARK SMILES O=c1ccc2cc(O)ccc2o1
REMARK SMILES IDX 9 1 10 2 11 3 5 4 4 5 3 6 2 7 1 8 12 9 6 10 7 11 8 12
REMARK H PARENT 8 13
REMARK Flexibility Score: inf
ROOT
ATOM      1  C   UNL     1     -39.218  -9.117 -13.721  1.00  0.00     0.050 A 
ATOM      2  C   UNL     1     -37.943  -8.546 -13.794  1.00  0.00     0.052 A 
ATOM      3  C   UNL     1     -37.779  -7.171 -13.595  1.00  0.00     0.138 A 
ATOM      4  C   UNL     1     -38.904  -6.363 -13.321  1.00  0.00     0.021 A 
ATOM      5  C   UNL     1     -38.707  -4.992 -13.127  1.00  0.00     0.019 A 
ATOM      6  C   UNL     1     -37.418  -4.467 -13.208  1.00  0.00     0.094 A 
ATOM      7  C   UNL     1     -36.351  -5.329 -13.483  1.00  0.00     0.336 A 
ATOM      8  O   UNL     1     -35.179  -4.873 -13.561  1.00  0.00    -0.246 OA
ATOM      9  O   UNL     1     -36.565  -6.630 -13.664  1.00  0.00    -0.423 OA
ATOM     10  C   UNL     1     -40.180  -6.940 -13.249  1.00  0.00     0.058 A 
ATOM     11  C   UNL     1     -40.336  -8.320 -13.450  1.00  0.00     0.116 A 
ENDROOT
BRANCH  11  12
ATOM     12  O   UNL     1     -41.598  -8.907 -13.382  1.00  0.00    -0.508 OA
ATOM     13  H   UNL     1     -42.438  -8.348 -13.292  1.00  0.00     0.293 HD
ENDBRANCH  11  12
TORSDOF 1
ENDMDL
MODEL 5
REMARK VINA RESULT:    -5.459      2.275      5.074
REMARK INTER + INTRA:          -5.619
REMARK INTER:                  -5.619
REMARK INTRA:                   0.000
REMARK UNBOUND:                 0.000
REMARK SMILES O=c1ccc2cc(O)ccc2o1
REMARK SMILES IDX 9 1 10 2 11 3 5 4 4 5 3 6 2 7 1 8 12 9 6 10 7 11 8 12
REMARK H PARENT 8 13
REMARK Flexibility Score: inf
ROOT
ATOM      1  C   UNL     1     -37.833  -8.026 -13.746  1.00  0.00     0.050 A 
ATOM      2  C   UNL     1     -36.656  -7.276 -13.651  1.00  0.00     0.052 A 
ATOM      3  C   UNL     1     -36.250  -6.470 -14.720  1.00  0.00     0.138 A 
ATOM      4  C   UNL     1     -37.032  -6.416 -15.894  1.00  0.00     0.021 A 
ATOM      5  C   UNL     1     -36.600  -5.601 -16.946  1.00  0.00     0.019 A 
ATOM      6  C   UNL     1     -35.420  -4.871 -16.805  1.00  0.00     0.094 A 
ATOM      7  C   UNL     1     -34.697  -4.974 -15.612  1.00  0.00     0.336 A 
ATOM      8  O   UNL     1     -33.629  -4.322 -15.467  1.00  0.00    -0.246 OA
ATOM      9  O   UNL     1     -35.129  -5.757 -14.627  1.00  0.00    -0.423 OA
ATOM     10  C   UNL     1     -38.211  -7.170 -15.985  1.00  0.00     0.058 A 
ATOM     11  C   UNL     1     -38.610  -7.976 -14.909  1.00  0.00     0.116 A 
ENDROOT
BRANCH  11  12
ATOM     12  O   UNL     1     -39.780  -8.731 -14.985  1.00  0.00    -0.508 OA
ATOM     13  H   UNL     1     -40.477  -8.556 -15.698  1.00  0.00     0.293 HD
ENDBRANCH  11  12
TORSDOF 1
ENDMDL
MODEL 6
REMARK VINA RESULT:    -5.364      2.241      4.751
REMARK INTER + INTRA:          -5.521
REMARK INTER:                  -5.521
REMARK INTRA:                   0.000
REMARK UNBOUND:                 0.000
REMARK SMILES O=c1ccc2cc(O)ccc2o1
REMARK SMILES IDX 9 1 10 2 11 3 5 4 4 5 3 6 2 7 1 8 12 9 6 10 7 11 8 12
REMARK H PARENT 8 13
REMARK Flexibility Score: inf
ROOT
ATOM      1  C   UNL     1     -38.402  -7.318 -14.464  1.00  0.00     0.050 A 
ATOM      2  C   UNL     1     -37.891  -6.127 -13.936  1.00  0.00     0.052 A 
ATOM      3  C   UNL     1     -38.611  -5.426 -12.963  1.00  0.00     0.138 A 
ATOM      4  C   UNL     1     -39.853  -5.925 -12.515  1.00  0.00     0.021 A 
ATOM      5  C   UNL     1     -40.549  -5.202 -11.540  1.00  0.00     0.019 A 
ATOM      6  C   UNL     1     -40.000  -4.021 -11.044  1.00  0.00     0.094 A 
ATOM      7  C   UNL     1     -38.764  -3.587 -11.535  1.00  0.00     0.336 A 
ATOM      8  O   UNL     1     -38.253  -2.522 -11.099  1.00  0.00    -0.246 OA
ATOM      9  O   UNL     1     -38.123  -4.293 -12.463  1.00  0.00    -0.423 OA
ATOM     10  C   UNL     1     -40.361  -7.120 -13.046  1.00  0.00     0.058 A 
ATOM     11  C   UNL     1     -39.633  -7.816 -14.023  1.00  0.00     0.116 A 
ENDROOT
BRANCH  11  12
ATOM     12  O   UNL     1     -40.125  -9.004 -14.560  1.00  0.00    -0.508 OA
ATOM     13  H   UNL     1     -40.107  -9.182 -15.557  1.00  0.00     0.293 HD
ENDBRANCH  11  12
TORSDOF 1
ENDMDL
MODEL 7
REMARK VINA RESULT:    -5.356      2.519      2.585
REMARK INTER + INTRA:          -5.512
REMARK INTER:                  -5.512
REMARK INTRA:                   0.000
REMARK UNBOUND:                 0.000
REMARK SMILES O=c1ccc2cc(O)ccc2o1
REMARK SMILES IDX 9 1 10 2 11 3 5 4 4 5 3 6 2 7 1 8 12 9 6 10 7 11 8 12
REMARK H PARENT 8 13
REMARK Flexibility Score: inf
ROOT
ATOM      1  C   UNL     1     -37.282  -5.264 -17.152  1.00  0.00     0.050 A 
ATOM      2  C   UNL     1     -38.377  -5.688 -16.392  1.00  0.00     0.052 A 
ATOM      3  C   UNL     1     -38.226  -6.718 -15.458  1.00  0.00     0.138 A 
ATOM      4  C   UNL     1     -36.964  -7.329 -15.286  1.00  0.00     0.021 A 
ATOM      5  C   UNL     1     -36.844  -8.357 -14.345  1.00  0.00     0.019 A 
ATOM      6  C   UNL     1     -37.963  -8.744 -13.610  1.00  0.00     0.094 A 
ATOM      7  C   UNL     1     -39.181  -8.094 -13.833  1.00  0.00     0.336 A 
ATOM      8  O   UNL     1     -40.203  -8.431 -13.179  1.00  0.00    -0.246 OA
ATOM      9  O   UNL     1     -39.269  -7.120 -14.735  1.00  0.00    -0.423 OA
ATOM     10  C   UNL     1     -35.869  -6.901 -16.051  1.00  0.00     0.058 A 
ATOM     11  C   UNL     1     -36.030  -5.867 -16.986  1.00  0.00     0.116 A 
ENDROOT
BRANCH  11  12
ATOM     12  O   UNL     1     -34.952  -5.431 -17.753  1.00  0.00    -0.508 OA
ATOM     13  H   UNL     1     -34.786  -4.446 -17.923  1.00  0.00     0.293 HD
ENDBRANCH  11  12
TORSDOF 1
ENDMDL
MODEL 8
REMARK VINA RESULT:    -5.355      2.181      3.541
REMARK INTER + INTRA:          -5.512
REMARK INTER:                  -5.512
REMARK INTRA:                   0.000
REMARK UNBOUND:                 0.000
REMARK SMILES O=c1ccc2cc(O)ccc2o1
REMARK SMILES IDX 9 1 10 2 11 3 5 4 4 5 3 6 2 7 1 8 12 9 6 10 7 11 8 12
REMARK H PARENT 8 13
REMARK Flexibility Score: inf
ROOT
ATOM      1  C   UNL     1     -36.096  -6.901 -14.322  1.00  0.00     0.050 A 
ATOM      2  C   UNL     1     -36.605  -5.784 -13.649  1.00  0.00     0.052 A 
ATOM      3  C   UNL     1     -37.926  -5.784 -13.191  1.00  0.00     0.138 A 
ATOM      4  C   UNL     1     -38.744  -6.914 -13.410  1.00  0.00     0.021 A 
ATOM      5  C   UNL     1     -40.061  -6.885 -12.940  1.00  0.00     0.019 A 
ATOM      6  C   UNL     1     -40.524  -5.750 -12.274  1.00  0.00     0.094 A 
ATOM      7  C   UNL     1     -39.657  -4.668 -12.093  1.00  0.00     0.336 A 
ATOM      8  O   UNL     1     -40.057  -3.634 -11.496  1.00  0.00    -0.246 OA
ATOM      9  O   UNL     1     -38.408  -4.721 -12.551  1.00  0.00    -0.423 OA
ATOM     10  C   UNL     1     -38.230  -8.031 -14.084  1.00  0.00     0.058 A 
ATOM     11  C   UNL     1     -36.903  -8.022 -14.541  1.00  0.00     0.116 A 
ENDROOT
BRANCH  11  12
ATOM     12  O   UNL     1     -36.378  -9.125 -15.213  1.00  0.00    -0.508 OA
ATOM     13  H   UNL     1     -36.137  -9.978 -14.723  1.00  0.00     0.293 HD
ENDBRANCH  11  12
TORSDOF 1
ENDMDL
MODEL 9
REMARK VINA RESULT:    -5.348      1.744      2.049
REMARK INTER + INTRA:          -5.504
REMARK INTER:                  -5.504
REMARK INTRA:                   0.000
REMARK UNBOUND:                 0.000
REMARK SMILES O=c1ccc2cc(O)ccc2o1
REMARK SMILES IDX 9 1 10 2 11 3 5 4 4 5 3 6 2 7 1 8 12 9 6 10 7 11 8 12
REMARK H PARENT 8 13
REMARK Flexibility Score: inf
ROOT
ATOM      1  C   UNL     1     -35.224  -4.517 -13.665  1.00  0.00     0.050 A 
ATOM      2  C   UNL     1     -36.203  -5.345 -13.105  1.00  0.00     0.052 A 
ATOM      3  C   UNL     1     -36.769  -6.374 -13.865  1.00  0.00     0.138 A 
ATOM      4  C   UNL     1     -36.348  -6.575 -15.197  1.00  0.00     0.021 A 
ATOM      5  C   UNL     1     -36.932  -7.612 -15.932  1.00  0.00     0.019 A 
ATOM      6  C   UNL     1     -37.904  -8.411 -15.331  1.00  0.00     0.094 A 
ATOM      7  C   UNL     1     -38.271  -8.154 -14.006  1.00  0.00     0.336 A 
ATOM      8  O   UNL     1     -39.148  -8.865 -13.448  1.00  0.00    -0.246 OA
ATOM      9  O   UNL     1     -37.701  -7.160 -13.330  1.00  0.00    -0.423 OA
ATOM     10  C   UNL     1     -35.366  -5.743 -15.754  1.00  0.00     0.058 A 
ATOM     11  C   UNL     1     -34.804  -4.712 -14.985  1.00  0.00     0.116 A 
ENDROOT
BRANCH  11  12
ATOM     12  O   UNL     1     -33.827  -3.878 -15.525  1.00  0.00    -0.508 OA
ATOM     13  H   UNL     1     -34.034  -2.921 -15.788  1.00  0.00     0.293 HD
ENDBRANCH  11  12
TORSDOF 1
ENDMDL
