MODEL 1
REMARK VINA RESULT:    -4.504      0.000      0.000
REMARK INTER + INTRA:          -5.949
REMARK INTER:                  -6.610
REMARK INTRA:                   0.661
REMARK UNBOUND:                 0.661
REMARK SMILES Cc1cc2c(C(C)C)c(O)c(O)c(C=O)c2c(O)c1-c1c(C)cc2c(C(C)C)c(O)c(O)c(C=O)c2c1O
REMARK SMILES IDX 1 1 2 2 3 3 4 4 16 5 13 6 11 7 9 8 5 9 17 10 19 11 20 12
REMARK SMILES IDX 37 13 21 14 36 15 23 16 22 17 24 18 33 19 25 20 31 21 29 22
REMARK SMILES IDX 38 23 34 25 35 26 26 27 27 28 28 29 32 30 30 32 18 34 6 36
REMARK SMILES IDX 7 37 8 38 14 39 15 40 10 41 12 43
REMARK H PARENT 38 24 32 31 30 33 18 35 10 42 12 44
REMARK Flexibility Score: inf
ROOT
ATOM      1  C   UNL     1     -20.552 -26.751 -15.264  1.00  0.00     0.045 C 
ATOM      2  C   UNL     1     -19.164 -26.938 -15.825  1.00  0.00    -0.039 A 
ATOM      3  C   UNL     1     -18.524 -28.168 -15.673  1.00  0.00     0.013 A 
ATOM      4  C   UNL     1     -17.211 -28.393 -16.133  1.00  0.00    -0.006 A 
ATOM      5  C   UNL     1     -16.557 -27.354 -16.865  1.00  0.00     0.039 A 
ATOM      6  C   UNL     1     -15.241 -27.586 -17.363  1.00  0.00     0.072 A 
ATOM      7  C   UNL     1     -14.683 -28.872 -17.283  1.00  0.00     0.169 A 
ATOM      8  C   UNL     1     -15.350 -29.902 -16.614  1.00  0.00     0.162 A 
ATOM      9  C   UNL     1     -16.549 -29.641 -15.905  1.00  0.00     0.008 A 
ATOM     10  C   UNL     1     -17.256 -26.134 -17.111  1.00  0.00     0.132 A 
ATOM     11  C   UNL     1     -18.529 -25.913 -16.543  1.00  0.00     0.031 A 
ENDROOT
BRANCH  11  12
ATOM     12  C   UNL     1     -19.218 -24.610 -16.731  1.00  0.00     0.031 A 
ATOM     13  C   UNL     1     -18.849 -23.513 -15.938  1.00  0.00     0.132 A 
ATOM     14  C   UNL     1     -20.251 -24.477 -17.673  1.00  0.00    -0.039 A 
ATOM     15  C   UNL     1     -19.421 -22.232 -16.177  1.00  0.00     0.039 A 
ATOM     16  C   UNL     1     -20.949 -23.268 -17.761  1.00  0.00     0.013 A 
ATOM     17  C   UNL     1     -20.633 -25.626 -18.571  1.00  0.00     0.045 C 
ATOM     18  C   UNL     1     -20.598 -22.149 -16.975  1.00  0.00    -0.006 A 
ATOM     19  C   UNL     1     -18.851 -21.036 -15.668  1.00  0.00     0.072 A 
ATOM     20  C   UNL     1     -21.377 -20.950 -16.968  1.00  0.00     0.008 A 
ATOM     21  C   UNL     1     -19.572 -19.833 -15.736  1.00  0.00     0.169 A 
ATOM     22  C   UNL     1     -20.853 -19.803 -16.322  1.00  0.00     0.162 A 
BRANCH  13  23
ATOM     23  O   UNL     1     -17.969 -23.748 -14.875  1.00  0.00    -0.507 OA
ATOM     24  H   UNL     1     -18.162 -23.445 -13.929  1.00  0.00     0.293 HD
ENDBRANCH  13  23
BRANCH  19  25
ATOM     25  C   UNL     1     -17.431 -20.949 -15.246  1.00  0.00     0.264 C 
ATOM     26  O   UNL     1     -16.727 -19.948 -15.546  1.00  0.00    -0.298 OA
ENDBRANCH  19  25
BRANCH  20  27
ATOM     27  C   UNL     1     -22.782 -20.843 -17.594  1.00  0.00     0.017 C 
ATOM     28  C   UNL     1     -23.883 -20.817 -16.526  1.00  0.00     0.012 C 
ATOM     29  C   UNL     1     -22.929 -19.717 -18.639  1.00  0.00     0.012 C 
ENDBRANCH  20  27
BRANCH  21  30
ATOM     30  O   UNL     1     -18.968 -18.667 -15.248  1.00  0.00    -0.504 OA
ATOM     31  H   UNL     1     -17.971 -18.542 -15.153  1.00  0.00     0.293 HD
ENDBRANCH  21  30
BRANCH  22  32
ATOM     32  O   UNL     1     -21.621 -18.633 -16.285  1.00  0.00    -0.504 OA
ATOM     33  H   UNL     1     -22.630 -18.613 -16.311  1.00  0.00     0.293 HD
ENDBRANCH  22  32
ENDBRANCH  11  12
BRANCH  10  34
ATOM     34  O   UNL     1     -16.708 -25.162 -17.957  1.00  0.00    -0.507 OA
ATOM     35  H   UNL     1     -16.056 -24.452 -17.652  1.00  0.00     0.293 HD
ENDBRANCH  10  34
BRANCH   9  36
ATOM     36  C   UNL     1     -17.028 -30.686 -14.878  1.00  0.00     0.017 C 
ATOM     37  C   UNL     1     -16.208 -31.982 -14.940  1.00  0.00     0.012 C 
ATOM     38  C   UNL     1     -18.551 -30.942 -14.885  1.00  0.00     0.012 C 
ENDBRANCH   9  36
BRANCH   6  39
ATOM     39  C   UNL     1     -14.393 -26.494 -17.906  1.00  0.00     0.264 C 
ATOM     40  O   UNL     1     -14.325 -26.276 -19.145  1.00  0.00    -0.298 OA
ENDBRANCH   6  39
BRANCH   8  41
ATOM     41  O   UNL     1     -14.782 -31.181 -16.668  1.00  0.00    -0.504 OA
ATOM     42  H   UNL     1     -13.795 -31.357 -16.798  1.00  0.00     0.293 HD
ENDBRANCH   8  41
BRANCH   7  43
ATOM     43  O   UNL     1     -13.431 -29.117 -17.858  1.00  0.00    -0.504 OA
ATOM     44  H   UNL     1     -12.853 -29.910 -17.604  1.00  0.00     0.293 HD
ENDBRANCH   7  43
TORSDOF 11
ENDMDL
MODEL 2
REMARK VINA RESULT:    -4.315      2.360      8.801
REMARK INTER + INTRA:          -5.671
REMARK INTER:                  -7.384
REMARK INTRA:                   1.713
REMARK UNBOUND:                 0.661
REMARK SMILES Cc1cc2c(C(C)C)c(O)c(O)c(C=O)c2c(O)c1-c1c(C)cc2c(C(C)C)c(O)c(O)c(C=O)c2c1O
REMARK SMILES IDX 1 1 2 2 3 3 4 4 16 5 13 6 11 7 9 8 5 9 17 10 19 11 20 12
REMARK SMILES IDX 37 13 21 14 36 15 23 16 22 17 24 18 33 19 25 20 31 21 29 22
REMARK SMILES IDX 38 23 34 25 35 26 26 27 27 28 28 29 32 30 30 32 18 34 6 36
REMARK SMILES IDX 7 37 8 38 14 39 15 40 10 41 12 43
REMARK H PARENT 38 24 32 31 30 33 18 35 10 42 12 44
REMARK Flexibility Score: inf
ROOT
ATOM      1  C   UNL     1     -20.035 -27.864 -19.206  1.00  0.00     0.045 C 
ATOM      2  C   UNL     1     -20.327 -26.670 -18.330  1.00  0.00    -0.039 A 
ATOM      3  C   UNL     1     -21.625 -26.165 -18.273  1.00  0.00     0.013 A 
ATOM      4  C   UNL     1     -21.954 -25.026 -17.511  1.00  0.00    -0.006 A 
ATOM      5  C   UNL     1     -20.941 -24.434 -16.695  1.00  0.00     0.039 A 
ATOM      6  C   UNL     1     -21.274 -23.302 -15.894  1.00  0.00     0.072 A 
ATOM      7  C   UNL     1     -22.615 -22.898 -15.784  1.00  0.00     0.169 A 
ATOM      8  C   UNL     1     -23.614 -23.516 -16.542  1.00  0.00     0.162 A 
ATOM      9  C   UNL     1     -23.279 -24.484 -17.522  1.00  0.00     0.008 A 
ATOM     10  C   UNL     1     -19.640 -25.020 -16.674  1.00  0.00     0.132 A 
ATOM     11  C   UNL     1     -19.326 -26.096 -17.532  1.00  0.00     0.031 A 
ENDROOT
BRANCH  11  12
ATOM     12  C   UNL     1     -17.947 -26.650 -17.568  1.00  0.00     0.031 A 
ATOM     13  C   UNL     1     -17.512 -27.488 -16.530  1.00  0.00     0.132 A 
ATOM     14  C   UNL     1     -17.072 -26.318 -18.615  1.00  0.00    -0.039 A 
ATOM     15  C   UNL     1     -16.236 -28.113 -16.603  1.00  0.00     0.039 A 
ATOM     16  C   UNL     1     -15.749 -26.773 -18.573  1.00  0.00     0.013 A 
ATOM     17  C   UNL     1     -17.530 -25.460 -19.766  1.00  0.00     0.045 C 
ATOM     18  C   UNL     1     -15.287 -27.617 -17.541  1.00  0.00    -0.006 A 
ATOM     19  C   UNL     1     -15.884 -29.222 -15.789  1.00  0.00     0.072 A 
ATOM     20  C   UNL     1     -13.910 -27.989 -17.422  1.00  0.00     0.008 A 
ATOM     21  C   UNL     1     -14.548 -29.652 -15.734  1.00  0.00     0.169 A 
ATOM     22  C   UNL     1     -13.558 -28.999 -16.493  1.00  0.00     0.162 A 
BRANCH  13  23
ATOM     23  O   UNL     1     -18.342 -27.616 -15.411  1.00  0.00    -0.507 OA
ATOM     24  H   UNL     1     -18.062 -27.314 -14.486  1.00  0.00     0.293 HD
ENDBRANCH  13  23
BRANCH  19  25
ATOM     25  C   UNL     1     -16.900 -30.088 -15.144  1.00  0.00     0.264 C 
ATOM     26  O   UNL     1     -16.874 -31.339 -15.296  1.00  0.00    -0.298 OA
ENDBRANCH  19  25
BRANCH  20  27
ATOM     27  C   UNL     1     -12.776 -27.323 -18.225  1.00  0.00     0.017 C 
ATOM     28  C   UNL     1     -13.179 -25.935 -18.739  1.00  0.00     0.012 C 
ATOM     29  C   UNL     1     -11.405 -27.328 -17.516  1.00  0.00     0.012 C 
ENDBRANCH  20  27
BRANCH  21  30
ATOM     30  O   UNL     1     -14.241 -30.766 -14.941  1.00  0.00    -0.504 OA
ATOM     31  H   UNL     1     -13.341 -31.223 -14.929  1.00  0.00     0.293 HD
ENDBRANCH  21  30
BRANCH  22  32
ATOM     32  O   UNL     1     -12.210 -29.350 -16.349  1.00  0.00    -0.504 OA
ATOM     33  H   UNL     1     -11.504 -29.200 -17.056  1.00  0.00     0.293 HD
ENDBRANCH  22  32
ENDBRANCH  11  12
BRANCH  10  34
ATOM     34  O   UNL     1     -18.672 -24.565 -15.769  1.00  0.00    -0.507 OA
ATOM     35  H   UNL     1     -18.520 -24.971 -14.855  1.00  0.00     0.293 HD
ENDBRANCH  10  34
BRANCH   9  36
ATOM     36  C   UNL     1     -24.338 -24.840 -18.583  1.00  0.00     0.017 C 
ATOM     37  C   UNL     1     -25.665 -25.289 -17.954  1.00  0.00     0.012 C 
ATOM     38  C   UNL     1     -23.844 -25.801 -19.686  1.00  0.00     0.012 C 
ENDBRANCH   9  36
BRANCH   6  39
ATOM     39  C   UNL     1     -20.243 -22.475 -15.220  1.00  0.00     0.264 C 
ATOM     40  O   UNL     1     -19.575 -21.618 -15.858  1.00  0.00    -0.298 OA
ENDBRANCH   6  39
BRANCH   8  41
ATOM     41  O   UNL     1     -24.938 -23.132 -16.300  1.00  0.00    -0.504 OA
ATOM     42  H   UNL     1     -25.215 -22.477 -15.580  1.00  0.00     0.293 HD
ENDBRANCH   8  41
BRANCH   7  43
ATOM     43  O   UNL     1     -22.949 -21.847 -14.923  1.00  0.00    -0.504 OA
ATOM     44  H   UNL     1     -23.686 -21.181 -15.126  1.00  0.00     0.293 HD
ENDBRANCH   7  43
TORSDOF 11
ENDMDL
MODEL 3
REMARK VINA RESULT:    -4.130      2.735      4.457
REMARK INTER + INTRA:          -5.400
REMARK INTER:                  -5.830
REMARK INTRA:                   0.431
REMARK UNBOUND:                 0.661
REMARK SMILES Cc1cc2c(C(C)C)c(O)c(O)c(C=O)c2c(O)c1-c1c(C)cc2c(C(C)C)c(O)c(O)c(C=O)c2c1O
REMARK SMILES IDX 1 1 2 2 3 3 4 4 16 5 13 6 11 7 9 8 5 9 17 10 19 11 20 12
REMARK SMILES IDX 37 13 21 14 36 15 23 16 22 17 24 18 33 19 25 20 31 21 29 22
REMARK SMILES IDX 38 23 34 25 35 26 26 27 27 28 28 29 32 30 30 32 18 34 6 36
REMARK SMILES IDX 7 37 8 38 14 39 15 40 10 41 12 43
REMARK H PARENT 38 24 32 31 30 33 18 35 10 42 12 44
REMARK Flexibility Score: inf
ROOT
ATOM      1  C   UNL     1     -18.850 -24.742 -19.971  1.00  0.00     0.045 C 
ATOM      2  C   UNL     1     -18.539 -25.782 -18.924  1.00  0.00    -0.039 A 
ATOM      3  C   UNL     1     -17.245 -26.297 -18.834  1.00  0.00     0.013 A 
ATOM      4  C   UNL     1     -16.901 -27.302 -17.909  1.00  0.00    -0.006 A 
ATOM      5  C   UNL     1     -17.888 -27.734 -16.969  1.00  0.00     0.039 A 
ATOM      6  C   UNL     1     -17.537 -28.727 -16.007  1.00  0.00     0.072 A 
ATOM      7  C   UNL     1     -16.199 -29.134 -15.884  1.00  0.00     0.169 A 
ATOM      8  C   UNL     1     -15.224 -28.668 -16.770  1.00  0.00     0.162 A 
ATOM      9  C   UNL     1     -15.585 -27.865 -17.881  1.00  0.00     0.008 A 
ATOM     10  C   UNL     1     -19.180 -27.128 -16.995  1.00  0.00     0.132 A 
ATOM     11  C   UNL     1     -19.514 -26.199 -18.005  1.00  0.00     0.031 A 
ENDROOT
BRANCH  11  12
ATOM     12  C   UNL     1     -20.885 -25.632 -18.079  1.00  0.00     0.031 A 
ATOM     13  C   UNL     1     -21.238 -24.565 -17.239  1.00  0.00     0.132 A 
ATOM     14  C   UNL     1     -21.836 -26.173 -18.960  1.00  0.00    -0.039 A 
ATOM     15  C   UNL     1     -22.509 -23.940 -17.372  1.00  0.00     0.039 A 
ATOM     16  C   UNL     1     -23.147 -25.686 -18.939  1.00  0.00     0.013 A 
ATOM     17  C   UNL     1     -21.468 -27.287 -19.907  1.00  0.00     0.045 C 
ATOM     18  C   UNL     1     -23.527 -24.613 -18.105  1.00  0.00    -0.006 A 
ATOM     19  C   UNL     1     -22.791 -22.663 -16.818  1.00  0.00     0.072 A 
ATOM     20  C   UNL     1     -24.887 -24.187 -17.986  1.00  0.00     0.008 A 
ATOM     21  C   UNL     1     -24.115 -22.196 -16.777  1.00  0.00     0.169 A 
ATOM     22  C   UNL     1     -25.163 -22.980 -17.297  1.00  0.00     0.162 A 
BRANCH  13  23
ATOM     23  O   UNL     1     -20.331 -24.203 -16.237  1.00  0.00    -0.507 OA
ATOM     24  H   UNL     1     -19.444 -23.757 -16.438  1.00  0.00     0.293 HD
ENDBRANCH  13  23
BRANCH  19  25
ATOM     25  C   UNL     1     -21.723 -21.698 -16.461  1.00  0.00     0.264 C 
ATOM     26  O   UNL     1     -20.971 -21.207 -17.346  1.00  0.00    -0.298 OA
ENDBRANCH  19  25
BRANCH  20  27
ATOM     27  C   UNL     1     -26.082 -24.990 -18.536  1.00  0.00     0.017 C 
ATOM     28  C   UNL     1     -25.797 -26.498 -18.554  1.00  0.00     0.012 C 
ATOM     29  C   UNL     1     -27.438 -24.642 -17.885  1.00  0.00     0.012 C 
ENDBRANCH  20  27
BRANCH  21  30
ATOM     30  O   UNL     1     -24.353 -20.921 -16.249  1.00  0.00    -0.504 OA
ATOM     31  H   UNL     1     -25.221 -20.415 -16.353  1.00  0.00     0.293 HD
ENDBRANCH  21  30
BRANCH  22  32
ATOM     32  O   UNL     1     -26.493 -22.569 -17.152  1.00  0.00    -0.504 OA
ATOM     33  H   UNL     1     -26.986 -21.989 -17.816  1.00  0.00     0.293 HD
ENDBRANCH  22  32
ENDBRANCH  11  12
BRANCH  10  34
ATOM     34  O   UNL     1     -20.116 -27.410 -15.992  1.00  0.00    -0.507 OA
ATOM     35  H   UNL     1     -20.420 -28.343 -15.751  1.00  0.00     0.293 HD
ENDBRANCH  10  34
BRANCH   9  36
ATOM     36  C   UNL     1     -14.565 -27.707 -19.025  1.00  0.00     0.017 C 
ATOM     37  C   UNL     1     -14.238 -29.045 -19.704  1.00  0.00     0.012 C 
ATOM     38  C   UNL     1     -13.302 -26.902 -18.653  1.00  0.00     0.012 C 
ENDBRANCH   9  36
BRANCH   6  39
ATOM     39  C   UNL     1     -18.552 -29.413 -15.169  1.00  0.00     0.264 C 
ATOM     40  O   UNL     1     -18.610 -30.670 -15.114  1.00  0.00    -0.298 OA
ENDBRANCH   6  39
BRANCH   8  41
ATOM     41  O   UNL     1     -13.896 -29.033 -16.518  1.00  0.00    -0.504 OA
ATOM     42  H   UNL     1     -13.572 -29.424 -15.642  1.00  0.00     0.293 HD
ENDBRANCH   8  41
BRANCH   7  43
ATOM     43  O   UNL     1     -15.844 -30.037 -14.875  1.00  0.00    -0.504 OA
ATOM     44  H   UNL     1     -15.665 -29.753 -13.919  1.00  0.00     0.293 HD
ENDBRANCH   7  43
TORSDOF 11
ENDMDL
MODEL 4
REMARK VINA RESULT:    -3.769     16.005     18.943
REMARK INTER + INTRA:          -4.871
REMARK INTER:                  -4.543
REMARK INTRA:                  -0.328
REMARK UNBOUND:                 0.661
REMARK SMILES Cc1cc2c(C(C)C)c(O)c(O)c(C=O)c2c(O)c1-c1c(C)cc2c(C(C)C)c(O)c(O)c(C=O)c2c1O
REMARK SMILES IDX 1 1 2 2 3 3 4 4 16 5 13 6 11 7 9 8 5 9 17 10 19 11 20 12
REMARK SMILES IDX 37 13 21 14 36 15 23 16 22 17 24 18 33 19 25 20 31 21 29 22
REMARK SMILES IDX 38 23 34 25 35 26 26 27 27 28 28 29 32 30 30 32 18 34 6 36
REMARK SMILES IDX 7 37 8 38 14 39 15 40 10 41 12 43
REMARK H PARENT 38 24 32 31 30 33 18 35 10 42 12 44
REMARK Flexibility Score: inf
ROOT
ATOM      1  C   UNL     1     -16.042 -34.804 -28.121  1.00  0.00     0.045 C 
ATOM      2  C   UNL     1     -14.744 -35.422 -28.579  1.00  0.00    -0.039 A 
ATOM      3  C   UNL     1     -13.731 -35.653 -27.647  1.00  0.00     0.013 A 
ATOM      4  C   UNL     1     -12.480 -36.185 -28.017  1.00  0.00    -0.006 A 
ATOM      5  C   UNL     1     -12.282 -36.589 -29.374  1.00  0.00     0.039 A 
ATOM      6  C   UNL     1     -11.030 -37.159 -29.748  1.00  0.00     0.072 A 
ATOM      7  C   UNL     1     -10.085 -37.474 -28.758  1.00  0.00     0.169 A 
ATOM      8  C   UNL     1     -10.304 -37.127 -27.422  1.00  0.00     0.162 A 
ATOM      9  C   UNL     1     -11.431 -36.350 -27.056  1.00  0.00     0.008 A 
ATOM     10  C   UNL     1     -13.358 -36.449 -30.301  1.00  0.00     0.132 A 
ATOM     11  C   UNL     1     -14.559 -35.816 -29.912  1.00  0.00     0.031 A 
ENDROOT
BRANCH  11  12
ATOM     12  C   UNL     1     -15.646 -35.597 -30.902  1.00  0.00     0.031 A 
ATOM     13  C   UNL     1     -16.574 -36.620 -31.146  1.00  0.00     0.132 A 
ATOM     14  C   UNL     1     -15.733 -34.388 -31.612  1.00  0.00    -0.039 A 
ATOM     15  C   UNL     1     -17.682 -36.390 -32.008  1.00  0.00     0.039 A 
ATOM     16  C   UNL     1     -16.705 -34.246 -32.607  1.00  0.00     0.013 A 
ATOM     17  C   UNL     1     -14.778 -33.255 -31.333  1.00  0.00     0.045 C 
ATOM     18  C   UNL     1     -17.650 -35.259 -32.872  1.00  0.00    -0.006 A 
ATOM     19  C   UNL     1     -18.824 -37.234 -32.022  1.00  0.00     0.072 A 
ATOM     20  C   UNL     1     -18.570 -35.175 -33.966  1.00  0.00     0.008 A 
ATOM     21  C   UNL     1     -19.780 -37.100 -33.042  1.00  0.00     0.169 A 
ATOM     22  C   UNL     1     -19.620 -36.123 -34.044  1.00  0.00     0.162 A 
BRANCH  13  23
ATOM     23  O   UNL     1     -16.322 -37.873 -30.575  1.00  0.00    -0.507 OA
ATOM     24  H   UNL     1     -16.833 -38.221 -29.774  1.00  0.00     0.293 HD
ENDBRANCH  13  23
BRANCH  19  25
ATOM     25  C   UNL     1     -19.168 -38.125 -30.887  1.00  0.00     0.264 C 
ATOM     26  O   UNL     1     -20.116 -37.841 -30.106  1.00  0.00    -0.298 OA
ENDBRANCH  19  25
BRANCH  20  27
ATOM     27  C   UNL     1     -18.460 -34.128 -35.092  1.00  0.00     0.017 C 
ATOM     28  C   UNL     1     -19.678 -33.196 -35.125  1.00  0.00     0.012 C 
ATOM     29  C   UNL     1     -17.118 -33.367 -35.125  1.00  0.00     0.012 C 
ENDBRANCH  20  27
BRANCH  21  30
ATOM     30  O   UNL     1     -20.907 -37.932 -33.010  1.00  0.00    -0.504 OA
ATOM     31  H   UNL     1     -21.700 -37.790 -32.401  1.00  0.00     0.293 HD
ENDBRANCH  21  30
BRANCH  22  32
ATOM     32  O   UNL     1     -20.508 -36.066 -35.125  1.00  0.00    -0.504 OA
ATOM     33  H   UNL     1     -21.281 -35.420 -35.193  1.00  0.00     0.293 HD
ENDBRANCH  22  32
ENDBRANCH  11  12
BRANCH  10  34
ATOM     34  O   UNL     1     -13.254 -36.979 -31.593  1.00  0.00    -0.507 OA
ATOM     35  H   UNL     1     -12.376 -37.139 -32.068  1.00  0.00     0.293 HD
ENDBRANCH  10  34
BRANCH   9  36
ATOM     36  C   UNL     1     -11.427 -35.670 -25.673  1.00  0.00     0.017 C 
ATOM     37  C   UNL     1     -11.982 -36.584 -24.572  1.00  0.00     0.012 C 
ATOM     38  C   UNL     1     -12.052 -34.258 -25.649  1.00  0.00     0.012 C 
ENDBRANCH   9  36
BRANCH   6  39
ATOM     39  C   UNL     1     -10.646 -37.370 -31.167  1.00  0.00     0.264 C 
ATOM     40  O   UNL     1     -10.288 -36.407 -31.895  1.00  0.00    -0.298 OA
ENDBRANCH   6  39
BRANCH   8  41
ATOM     41  O   UNL     1      -9.368 -37.569 -26.479  1.00  0.00    -0.504 OA
ATOM     42  H   UNL     1      -8.653 -36.980 -26.073  1.00  0.00     0.293 HD
ENDBRANCH   8  41
BRANCH   7  43
ATOM     43  O   UNL     1      -8.897 -38.120 -29.120  1.00  0.00    -0.504 OA
ATOM     44  H   UNL     1      -7.985 -37.691 -29.021  1.00  0.00     0.293 HD
ENDBRANCH   7  43
TORSDOF 11
ENDMDL
MODEL 5
REMARK VINA RESULT:    -3.762      2.104      9.028
REMARK INTER + INTRA:          -4.860
REMARK INTER:                  -5.269
REMARK INTRA:                   0.409
REMARK UNBOUND:                 0.661
REMARK SMILES Cc1cc2c(C(C)C)c(O)c(O)c(C=O)c2c(O)c1-c1c(C)cc2c(C(C)C)c(O)c(O)c(C=O)c2c1O
REMARK SMILES IDX 1 1 2 2 3 3 4 4 16 5 13 6 11 7 9 8 5 9 17 10 19 11 20 12
REMARK SMILES IDX 37 13 21 14 36 15 23 16 22 17 24 18 33 19 25 20 31 21 29 22
REMARK SMILES IDX 38 23 34 25 35 26 26 27 27 28 28 29 32 30 30 32 18 34 6 36
REMARK SMILES IDX 7 37 8 38 14 39 15 40 10 41 12 43
REMARK H PARENT 38 24 32 31 30 33 18 35 10 42 12 44
REMARK Flexibility Score: inf
ROOT
ATOM      1  C   UNL     1     -16.454 -23.958 -15.295  1.00  0.00     0.045 C 
ATOM      2  C   UNL     1     -17.803 -24.169 -15.938  1.00  0.00    -0.039 A 
ATOM      3  C   UNL     1     -18.678 -23.090 -16.060  1.00  0.00     0.013 A 
ATOM      4  C   UNL     1     -19.969 -23.230 -16.609  1.00  0.00    -0.006 A 
ATOM      5  C   UNL     1     -20.349 -24.499 -17.146  1.00  0.00     0.039 A 
ATOM      6  C   UNL     1     -21.641 -24.639 -17.734  1.00  0.00     0.072 A 
ATOM      7  C   UNL     1     -22.442 -23.502 -17.933  1.00  0.00     0.169 A 
ATOM      8  C   UNL     1     -22.042 -22.252 -17.455  1.00  0.00     0.162 A 
ATOM      9  C   UNL     1     -20.876 -22.124 -16.660  1.00  0.00     0.008 A 
ATOM     10  C   UNL     1     -19.410 -25.572 -17.116  1.00  0.00     0.132 A 
ATOM     11  C   UNL     1     -18.168 -25.418 -16.464  1.00  0.00     0.031 A 
ENDROOT
BRANCH  11  12
ATOM     12  C   UNL     1     -17.226 -26.563 -16.361  1.00  0.00     0.031 A 
ATOM     13  C   UNL     1     -15.990 -26.501 -17.022  1.00  0.00     0.132 A 
ATOM     14  C   UNL     1     -17.575 -27.712 -15.635  1.00  0.00    -0.039 A 
ATOM     15  C   UNL     1     -15.033 -27.540 -16.848  1.00  0.00     0.039 A 
ATOM     16  C   UNL     1     -16.712 -28.814 -15.636  1.00  0.00     0.013 A 
ATOM     17  C   UNL     1     -18.876 -27.784 -14.875  1.00  0.00     0.045 C 
ATOM     18  C   UNL     1     -15.464 -28.778 -16.293  1.00  0.00    -0.006 A 
ATOM     19  C   UNL     1     -13.664 -27.379 -17.188  1.00  0.00     0.072 A 
ATOM     20  C   UNL     1     -14.629 -29.935 -16.404  1.00  0.00     0.008 A 
ATOM     21  C   UNL     1     -12.814 -28.496 -17.213  1.00  0.00     0.169 A 
ATOM     22  C   UNL     1     -13.308 -29.774 -16.888  1.00  0.00     0.162 A 
BRANCH  13  23
ATOM     23  O   UNL     1     -15.778 -25.434 -17.901  1.00  0.00    -0.507 OA
ATOM     24  H   UNL     1     -16.339 -25.290 -18.731  1.00  0.00     0.293 HD
ENDBRANCH  13  23
BRANCH  19  25
ATOM     25  C   UNL     1     -13.030 -26.044 -17.321  1.00  0.00     0.264 C 
ATOM     26  O   UNL     1     -12.599 -25.641 -18.435  1.00  0.00    -0.298 OA
ENDBRANCH  19  25
BRANCH  20  27
ATOM     27  C   UNL     1     -15.101 -31.361 -16.059  1.00  0.00     0.017 C 
ATOM     28  C   UNL     1     -14.319 -31.952 -14.879  1.00  0.00     0.012 C 
ATOM     29  C   UNL     1     -16.630 -31.505 -15.902  1.00  0.00     0.012 C 
ENDBRANCH  20  27
BRANCH  21  30
ATOM     30  O   UNL     1     -11.463 -28.296 -17.527  1.00  0.00    -0.504 OA
ATOM     31  H   UNL     1     -11.030 -28.594 -18.389  1.00  0.00     0.293 HD
ENDBRANCH  21  30
BRANCH  22  32
ATOM     32  O   UNL     1     -12.493 -30.904 -17.027  1.00  0.00    -0.504 OA
ATOM     33  H   UNL     1     -11.510 -30.929 -16.797  1.00  0.00     0.293 HD
ENDBRANCH  22  32
ENDBRANCH  11  12
BRANCH  10  34
ATOM     34  O   UNL     1     -19.689 -26.777 -17.774  1.00  0.00    -0.507 OA
ATOM     35  H   UNL     1     -19.990 -26.837 -18.737  1.00  0.00     0.293 HD
ENDBRANCH  10  34
BRANCH   9  36
ATOM     36  C   UNL     1     -20.692 -20.830 -15.843  1.00  0.00     0.017 C 
ATOM     37  C   UNL     1     -21.895 -20.538 -14.935  1.00  0.00     0.012 C 
ATOM     38  C   UNL     1     -20.257 -19.603 -16.672  1.00  0.00     0.012 C 
ENDBRANCH   9  36
BRANCH   6  39
ATOM     39  C   UNL     1     -22.215 -25.963 -18.083  1.00  0.00     0.264 C 
ATOM     40  O   UNL     1     -22.383 -26.304 -19.284  1.00  0.00    -0.298 OA
ENDBRANCH   6  39
BRANCH   8  41
ATOM     41  O   UNL     1     -22.841 -21.149 -17.785  1.00  0.00    -0.504 OA
ATOM     42  H   UNL     1     -23.818 -21.064 -17.538  1.00  0.00     0.293 HD
ENDBRANCH   8  41
BRANCH   7  43
ATOM     43  O   UNL     1     -23.668 -23.632 -18.597  1.00  0.00    -0.504 OA
ATOM     44  H   UNL     1     -24.093 -22.875 -19.120  1.00  0.00     0.293 HD
ENDBRANCH   7  43
TORSDOF 11
ENDMDL
MODEL 6
REMARK VINA RESULT:    -3.717      2.978      9.186
REMARK INTER + INTRA:          -4.794
REMARK INTER:                  -5.108
REMARK INTRA:                   0.314
REMARK UNBOUND:                 0.661
REMARK SMILES Cc1cc2c(C(C)C)c(O)c(O)c(C=O)c2c(O)c1-c1c(C)cc2c(C(C)C)c(O)c(O)c(C=O)c2c1O
REMARK SMILES IDX 1 1 2 2 3 3 4 4 16 5 13 6 11 7 9 8 5 9 17 10 19 11 20 12
REMARK SMILES IDX 37 13 21 14 36 15 23 16 22 17 24 18 33 19 25 20 31 21 29 22
REMARK SMILES IDX 38 23 34 25 35 26 26 27 27 28 28 29 32 30 30 32 18 34 6 36
REMARK SMILES IDX 7 37 8 38 14 39 15 40 10 41 12 43
REMARK H PARENT 38 24 32 31 30 33 18 35 10 42 12 44
REMARK Flexibility Score: inf
ROOT
ATOM      1  C   UNL     1     -18.847 -23.044 -16.526  1.00  0.00     0.045 C 
ATOM      2  C   UNL     1     -20.208 -23.571 -16.907  1.00  0.00    -0.039 A 
ATOM      3  C   UNL     1     -21.315 -22.727 -16.825  1.00  0.00     0.013 A 
ATOM      4  C   UNL     1     -22.619 -23.170 -17.123  1.00  0.00    -0.006 A 
ATOM      5  C   UNL     1     -22.793 -24.500 -17.620  1.00  0.00     0.039 A 
ATOM      6  C   UNL     1     -24.106 -24.944 -17.956  1.00  0.00     0.072 A 
ATOM      7  C   UNL     1     -25.170 -24.028 -17.962  1.00  0.00     0.169 A 
ATOM      8  C   UNL     1     -24.986 -22.713 -17.529  1.00  0.00     0.162 A 
ATOM      9  C   UNL     1     -23.750 -22.307 -16.966  1.00  0.00     0.008 A 
ATOM     10  C   UNL     1     -21.643 -25.325 -17.803  1.00  0.00     0.132 A 
ATOM     11  C   UNL     1     -20.369 -24.878 -17.394  1.00  0.00     0.031 A 
ENDROOT
BRANCH  11  12
ATOM     12  C   UNL     1     -19.187 -25.771 -17.509  1.00  0.00     0.031 A 
ATOM     13  C   UNL     1     -18.861 -26.625 -16.445  1.00  0.00     0.132 A 
ATOM     14  C   UNL     1     -18.381 -25.746 -18.659  1.00  0.00    -0.039 A 
ATOM     15  C   UNL     1     -17.799 -27.563 -16.579  1.00  0.00     0.039 A 
ATOM     16  C   UNL     1     -17.220 -26.525 -18.701  1.00  0.00     0.013 A 
ATOM     17  C   UNL     1     -18.738 -24.874 -19.836  1.00  0.00     0.045 C 
ATOM     18  C   UNL     1     -16.870 -27.392 -17.644  1.00  0.00    -0.006 A 
ATOM     19  C   UNL     1     -17.646 -28.671 -15.705  1.00  0.00     0.072 A 
ATOM     20  C   UNL     1     -15.626 -28.100 -17.622  1.00  0.00     0.008 A 
ATOM     21  C   UNL     1     -16.465 -29.429 -15.736  1.00  0.00     0.169 A 
ATOM     22  C   UNL     1     -15.435 -29.105 -16.642  1.00  0.00     0.162 A 
BRANCH  13  23
ATOM     23  O   UNL     1     -19.562 -26.462 -15.245  1.00  0.00    -0.507 OA
ATOM     24  H   UNL     1     -19.575 -25.588 -14.735  1.00  0.00     0.293 HD
ENDBRANCH  13  23
BRANCH  19  25
ATOM     25  C   UNL     1     -18.767 -29.201 -14.890  1.00  0.00     0.264 C 
ATOM     26  O   UNL     1     -19.105 -30.413 -14.966  1.00  0.00    -0.298 OA
ENDBRANCH  19  25
BRANCH  20  27
ATOM     27  C   UNL     1     -14.461 -27.804 -18.586  1.00  0.00     0.017 C 
ATOM     28  C   UNL     1     -14.876 -26.841 -19.705  1.00  0.00     0.012 C 
ATOM     29  C   UNL     1     -13.148 -27.388 -17.889  1.00  0.00     0.012 C 
ENDBRANCH  20  27
BRANCH  21  30
ATOM     30  O   UNL     1     -16.359 -30.531 -14.878  1.00  0.00    -0.504 OA
ATOM     31  H   UNL     1     -15.946 -31.415 -15.137  1.00  0.00     0.293 HD
ENDBRANCH  21  30
BRANCH  22  32
ATOM     32  O   UNL     1     -14.212 -29.784 -16.594  1.00  0.00    -0.504 OA
ATOM     33  H   UNL     1     -13.873 -30.399 -17.320  1.00  0.00     0.293 HD
ENDBRANCH  22  32
ENDBRANCH  11  12
BRANCH  10  34
ATOM     34  O   UNL     1     -21.758 -26.570 -18.434  1.00  0.00    -0.507 OA
ATOM     35  H   UNL     1     -21.578 -27.454 -17.976  1.00  0.00     0.293 HD
ENDBRANCH  10  34
BRANCH   9  36
ATOM     36  C   UNL     1     -23.716 -20.995 -16.157  1.00  0.00     0.017 C 
ATOM     37  C   UNL     1     -23.391 -19.778 -17.034  1.00  0.00     0.012 C 
ATOM     38  C   UNL     1     -22.858 -21.054 -14.875  1.00  0.00     0.012 C 
ENDBRANCH   9  36
BRANCH   6  39
ATOM     39  C   UNL     1     -24.415 -26.370 -18.232  1.00  0.00     0.264 C 
ATOM     40  O   UNL     1     -25.605 -26.777 -18.304  1.00  0.00    -0.298 OA
ENDBRANCH   6  39
BRANCH   8  41
ATOM     41  O   UNL     1     -26.065 -21.831 -17.666  1.00  0.00    -0.504 OA
ATOM     42  H   UNL     1     -26.878 -21.834 -17.063  1.00  0.00     0.293 HD
ENDBRANCH   8  41
BRANCH   7  43
ATOM     43  O   UNL     1     -26.437 -24.448 -18.385  1.00  0.00    -0.504 OA
ATOM     44  H   UNL     1     -27.297 -24.078 -17.997  1.00  0.00     0.293 HD
ENDBRANCH   7  43
TORSDOF 11
ENDMDL
MODEL 7
REMARK VINA RESULT:    -3.567      3.013      4.319
REMARK INTER + INTRA:          -4.574
REMARK INTER:                  -4.242
REMARK INTRA:                  -0.332
REMARK UNBOUND:                 0.661
REMARK SMILES Cc1cc2c(C(C)C)c(O)c(O)c(C=O)c2c(O)c1-c1c(C)cc2c(C(C)C)c(O)c(O)c(C=O)c2c1O
REMARK SMILES IDX 1 1 2 2 3 3 4 4 16 5 13 6 11 7 9 8 5 9 17 10 19 11 20 12
REMARK SMILES IDX 37 13 21 14 36 15 23 16 22 17 24 18 33 19 25 20 31 21 29 22
REMARK SMILES IDX 38 23 34 25 35 26 26 27 27 28 28 29 32 30 30 32 18 34 6 36
REMARK SMILES IDX 7 37 8 38 14 39 15 40 10 41 12 43
REMARK H PARENT 38 24 32 31 30 33 18 35 10 42 12 44
REMARK Flexibility Score: inf
ROOT
ATOM      1  C   UNL     1     -21.274 -26.802 -14.875  1.00  0.00     0.045 C 
ATOM      2  C   UNL     1     -20.144 -26.732 -15.872  1.00  0.00    -0.039 A 
ATOM      3  C   UNL     1     -19.145 -27.706 -15.843  1.00  0.00     0.013 A 
ATOM      4  C   UNL     1     -18.039 -27.672 -16.716  1.00  0.00    -0.006 A 
ATOM      5  C   UNL     1     -17.997 -26.661 -17.726  1.00  0.00     0.039 A 
ATOM      6  C   UNL     1     -16.898 -26.640 -18.635  1.00  0.00     0.072 A 
ATOM      7  C   UNL     1     -15.978 -27.702 -18.639  1.00  0.00     0.169 A 
ATOM      8  C   UNL     1     -16.055 -28.719 -17.684  1.00  0.00     0.162 A 
ATOM      9  C   UNL     1     -16.991 -28.642 -16.623  1.00  0.00     0.008 A 
ATOM     10  C   UNL     1     -19.074 -25.730 -17.820  1.00  0.00     0.132 A 
ATOM     11  C   UNL     1     -20.110 -25.736 -16.860  1.00  0.00     0.031 A 
ENDROOT
BRANCH  11  12
ATOM     12  C   UNL     1     -21.187 -24.714 -16.912  1.00  0.00     0.031 A 
ATOM     13  C   UNL     1     -22.394 -25.014 -17.561  1.00  0.00     0.132 A 
ATOM     14  C   UNL     1     -20.995 -23.445 -16.342  1.00  0.00    -0.039 A 
ATOM     15  C   UNL     1     -23.474 -24.089 -17.527  1.00  0.00     0.039 A 
ATOM     16  C   UNL     1     -21.987 -22.469 -16.491  1.00  0.00     0.013 A 
ATOM     17  C   UNL     1     -19.727 -23.113 -15.596  1.00  0.00     0.045 C 
ATOM     18  C   UNL     1     -23.209 -22.745 -17.139  1.00  0.00    -0.006 A 
ATOM     19  C   UNL     1     -24.807 -24.462 -17.845  1.00  0.00     0.072 A 
ATOM     20  C   UNL     1     -24.177 -21.726 -17.404  1.00  0.00     0.008 A 
ATOM     21  C   UNL     1     -25.787 -23.472 -18.020  1.00  0.00     0.169 A 
ATOM     22  C   UNL     1     -25.460 -22.111 -17.866  1.00  0.00     0.162 A 
BRANCH  13  23
ATOM     23  O   UNL     1     -22.457 -26.206 -18.292  1.00  0.00    -0.507 OA
ATOM     24  H   UNL     1     -22.067 -27.076 -17.953  1.00  0.00     0.293 HD
ENDBRANCH  13  23
BRANCH  19  25
ATOM     25  C   UNL     1     -25.269 -25.871 -17.803  1.00  0.00     0.264 C 
ATOM     26  O   UNL     1     -25.620 -26.469 -18.856  1.00  0.00    -0.298 OA
ENDBRANCH  19  25
BRANCH  20  27
ATOM     27  C   UNL     1     -23.891 -20.219 -17.250  1.00  0.00     0.017 C 
ATOM     28  C   UNL     1     -24.868 -19.366 -18.070  1.00  0.00     0.012 C 
ATOM     29  C   UNL     1     -23.756 -19.743 -15.788  1.00  0.00     0.012 C 
ENDBRANCH  20  27
BRANCH  21  30
ATOM     30  O   UNL     1     -27.097 -23.878 -18.307  1.00  0.00    -0.504 OA
ATOM     31  H   UNL     1     -27.761 -24.187 -17.612  1.00  0.00     0.293 HD
ENDBRANCH  21  30
BRANCH  22  32
ATOM     32  O   UNL     1     -26.405 -21.119 -18.154  1.00  0.00    -0.504 OA
ATOM     33  H   UNL     1     -26.883 -20.568 -17.455  1.00  0.00     0.293 HD
ENDBRANCH  22  32
ENDBRANCH  11  12
BRANCH  10  34
ATOM     34  O   UNL     1     -19.144 -24.831 -18.891  1.00  0.00    -0.507 OA
ATOM     35  H   UNL     1     -19.945 -24.740 -19.501  1.00  0.00     0.293 HD
ENDBRANCH  10  34
BRANCH   9  36
ATOM     36  C   UNL     1     -16.782 -29.558 -15.401  1.00  0.00     0.017 C 
ATOM     37  C   UNL     1     -15.314 -29.608 -14.955  1.00  0.00     0.012 C 
ATOM     38  C   UNL     1     -17.415 -30.960 -15.534  1.00  0.00     0.012 C 
ENDBRANCH   9  36
BRANCH   6  39
ATOM     39  C   UNL     1     -16.638 -25.494 -19.542  1.00  0.00     0.264 C 
ATOM     40  O   UNL     1     -17.094 -25.475 -20.716  1.00  0.00    -0.298 OA
ENDBRANCH   6  39
BRANCH   8  41
ATOM     41  O   UNL     1     -15.170 -29.797 -17.817  1.00  0.00    -0.504 OA
ATOM     42  H   UNL     1     -14.487 -29.880 -18.559  1.00  0.00     0.293 HD
ENDBRANCH   8  41
BRANCH   7  43
ATOM     43  O   UNL     1     -14.957 -27.725 -19.596  1.00  0.00    -0.504 OA
ATOM     44  H   UNL     1     -14.632 -26.893 -20.074  1.00  0.00     0.293 HD
ENDBRANCH   7  43
TORSDOF 11
ENDMDL
MODEL 8
REMARK VINA RESULT:    -2.147      2.158      3.354
REMARK INTER + INTRA:          -2.489
REMARK INTER:                  -4.064
REMARK INTRA:                   1.575
REMARK UNBOUND:                 0.661
REMARK SMILES Cc1cc2c(C(C)C)c(O)c(O)c(C=O)c2c(O)c1-c1c(C)cc2c(C(C)C)c(O)c(O)c(C=O)c2c1O
REMARK SMILES IDX 1 1 2 2 3 3 4 4 16 5 13 6 11 7 9 8 5 9 17 10 19 11 20 12
REMARK SMILES IDX 37 13 21 14 36 15 23 16 22 17 24 18 33 19 25 20 31 21 29 22
REMARK SMILES IDX 38 23 34 25 35 26 26 27 27 28 28 29 32 30 30 32 18 34 6 36
REMARK SMILES IDX 7 37 8 38 14 39 15 40 10 41 12 43
REMARK H PARENT 38 24 32 31 30 33 18 35 10 42 12 44
REMARK Flexibility Score: inf
ROOT
ATOM      1  C   UNL     1     -21.092 -27.245 -14.875  1.00  0.00     0.045 C 
ATOM      2  C   UNL     1     -19.704 -27.242 -15.466  1.00  0.00    -0.039 A 
ATOM      3  C   UNL     1     -18.946 -28.413 -15.437  1.00  0.00     0.013 A 
ATOM      4  C   UNL     1     -17.627 -28.465 -15.931  1.00  0.00    -0.006 A 
ATOM      5  C   UNL     1     -17.091 -27.304 -16.571  1.00  0.00     0.039 A 
ATOM      6  C   UNL     1     -15.769 -27.360 -17.104  1.00  0.00     0.072 A 
ATOM      7  C   UNL     1     -15.088 -28.588 -17.149  1.00  0.00     0.169 A 
ATOM      8  C   UNL     1     -15.639 -29.734 -16.571  1.00  0.00     0.162 A 
ATOM      9  C   UNL     1     -16.843 -29.658 -15.827  1.00  0.00     0.008 A 
ATOM     10  C   UNL     1     -17.909 -26.142 -16.694  1.00  0.00     0.132 A 
ATOM     11  C   UNL     1     -19.186 -26.099 -16.093  1.00  0.00     0.031 A 
ENDROOT
BRANCH  11  12
ATOM     12  C   UNL     1     -20.001 -24.858 -16.152  1.00  0.00     0.031 A 
ATOM     13  C   UNL     1     -21.253 -24.884 -16.786  1.00  0.00     0.132 A 
ATOM     14  C   UNL     1     -19.518 -23.659 -15.605  1.00  0.00    -0.039 A 
ATOM     15  C   UNL     1     -22.093 -23.737 -16.758  1.00  0.00     0.039 A 
ATOM     16  C   UNL     1     -20.263 -22.484 -15.760  1.00  0.00     0.013 A 
ATOM     17  C   UNL     1     -18.200 -23.616 -14.875  1.00  0.00     0.045 C 
ATOM     18  C   UNL     1     -21.524 -22.483 -16.394  1.00  0.00    -0.006 A 
ATOM     19  C   UNL     1     -23.479 -23.800 -17.058  1.00  0.00     0.072 A 
ATOM     20  C   UNL     1     -22.237 -21.273 -16.666  1.00  0.00     0.008 A 
ATOM     21  C   UNL     1     -24.210 -22.614 -17.240  1.00  0.00     0.169 A 
ATOM     22  C   UNL     1     -23.579 -21.362 -17.111  1.00  0.00     0.162 A 
BRANCH  13  23
ATOM     23  O   UNL     1     -21.595 -26.040 -17.497  1.00  0.00    -0.507 OA
ATOM     24  H   UNL     1     -21.313 -26.194 -18.457  1.00  0.00     0.293 HD
ENDBRANCH  13  23
BRANCH  19  25
ATOM     25  C   UNL     1     -24.251 -25.065 -16.989  1.00  0.00     0.264 C 
ATOM     26  O   UNL     1     -24.761 -25.569 -18.026  1.00  0.00    -0.298 OA
ENDBRANCH  19  25
BRANCH  20  27
ATOM     27  C   UNL     1     -21.612 -19.870 -16.539  1.00  0.00     0.017 C 
ATOM     28  C   UNL     1     -21.631 -19.367 -15.089  1.00  0.00     0.012 C 
ATOM     29  C   UNL     1     -20.230 -19.725 -17.209  1.00  0.00     0.012 C 
ENDBRANCH  20  27
BRANCH  21  30
ATOM     30  O   UNL     1     -25.581 -22.714 -17.510  1.00  0.00    -0.504 OA
ATOM     31  H   UNL     1     -26.114 -23.570 -17.439  1.00  0.00     0.293 HD
ENDBRANCH  21  30
BRANCH  22  32
ATOM     32  O   UNL     1     -24.276 -20.184 -17.407  1.00  0.00    -0.504 OA
ATOM     33  H   UNL     1     -24.615 -19.939 -18.326  1.00  0.00     0.293 HD
ENDBRANCH  22  32
ENDBRANCH  11  12
BRANCH  10  34
ATOM     34  O   UNL     1     -17.476 -25.047 -17.452  1.00  0.00    -0.507 OA
ATOM     35  H   UNL     1     -16.572 -24.606 -17.341  1.00  0.00     0.293 HD
ENDBRANCH  10  34
BRANCH   9  36
ATOM     36  C   UNL     1     -17.198 -30.834 -14.897  1.00  0.00     0.017 C 
ATOM     37  C   UNL     1     -16.104 -31.911 -14.875  1.00  0.00     0.012 C 
ATOM     38  C   UNL     1     -18.609 -31.421 -15.113  1.00  0.00     0.012 C 
ENDBRANCH   9  36
BRANCH   6  39
ATOM     39  C   UNL     1     -15.042 -26.146 -17.552  1.00  0.00     0.264 C 
ATOM     40  O   UNL     1     -14.549 -26.071 -18.709  1.00  0.00    -0.298 OA
ENDBRANCH   6  39
BRANCH   8  41
ATOM     41  O   UNL     1     -14.952 -30.941 -16.750  1.00  0.00    -0.504 OA
ATOM     42  H   UNL     1     -15.166 -31.612 -17.477  1.00  0.00     0.293 HD
ENDBRANCH   8  41
BRANCH   7  43
ATOM     43  O   UNL     1     -13.830 -28.655 -17.759  1.00  0.00    -0.504 OA
ATOM     44  H   UNL     1     -12.976 -28.831 -17.243  1.00  0.00     0.293 HD
ENDBRANCH   7  43
TORSDOF 11
ENDMDL
