MODEL 1
REMARK VINA RESULT:    -3.561      0.000      0.000
REMARK INTER + INTRA:          -5.821
REMARK INTER:                  -5.226
REMARK INTRA:                  -0.595
REMARK UNBOUND:                -0.595
REMARK SMILES C=C1C=C[C@H](C(C)C)CCC(C)=CCC1
REMARK SMILES IDX 3 1 4 2 5 3 9 4 10 5 11 6 12 7 13 8 6 10 7 11 8 12 2 13 1 14
REMARK SMILES IDX 15 15 14 16
REMARK H PARENT
REMARK Flexibility Score: 70.00
ROOT
ATOM      1  C   UNL     1     141.625 137.569 133.194  1.00  0.00    -0.001 C 
ATOM      2  C   UNL     1     140.784 137.511 134.244  1.00  0.00    -0.023 C 
ENDROOT
BRANCH   2   3
ATOM      3  C   UNL     1     140.449 138.617 135.242  1.00  0.00     0.014 C 
BRANCH   3   4
ATOM      4  C   UNL     1     138.948 139.005 135.247  1.00  0.00     0.012 C 
BRANCH   4   5
ATOM      5  C   UNL     1     138.288 138.948 133.855  1.00  0.00     0.031 C 
BRANCH   5   6
ATOM      6  C   UNL     1     138.396 140.292 133.167  1.00  0.00    -0.077 C 
ATOM      7  C   UNL     1     137.456 141.391 133.590  1.00  0.00     0.039 C 
ATOM      8  C   UNL     1     139.244 140.534 132.140  1.00  0.00    -0.028 CG0
ATOM      9  G   UNL     1     140.263 139.568 131.578  1.00  0.00     0.000 G0
ENDBRANCH   5   6
ENDBRANCH   4   5
ENDBRANCH   3   4
BRANCH   3  10
ATOM     10  C   UNL     1     140.983 138.319 136.683  1.00  0.00    -0.010 C 
ATOM     11  C   UNL     1     140.625 136.897 137.156  1.00  0.00     0.008 C 
ATOM     12  C   UNL     1     142.510 138.500 136.771  1.00  0.00     0.008 C 
ENDBRANCH   3  10
ENDBRANCH   2   3
BRANCH   1  13
ATOM     13  C   UNL     1     142.403 138.750 132.772  1.00  0.00    -0.055 C 
ATOM     14  C   UNL     1     143.610 138.958 133.306  1.00  0.00     0.012 C 
BRANCH  13  15
ATOM     15  C   UNL     1     141.709 139.891 132.061  1.00  0.00     0.039 C 
BRANCH  15  16
ATOM     16  C   UNL     1     140.281 139.573 131.577  1.00  0.00     0.032 CG0
ATOM     17  G   UNL     1     139.245 140.515 132.151  1.00  0.00     0.000 G0
ENDBRANCH  15  16
ENDBRANCH  13  15
ENDBRANCH   1  13
TORSDOF 1
ENDMDL
MODEL 2
REMARK VINA RESULT:    -3.558      2.579      3.980
REMARK INTER + INTRA:          -5.818
REMARK INTER:                  -5.277
REMARK INTRA:                  -0.541
REMARK UNBOUND:                -0.595
REMARK SMILES C=C1C=C[C@H](C(C)C)CCC(C)=CCC1
REMARK SMILES IDX 3 1 4 2 5 3 9 4 10 5 11 6 12 7 13 8 6 10 7 11 8 12 2 13 1 14
REMARK SMILES IDX 15 15 14 16
REMARK H PARENT
REMARK Flexibility Score: 70.00
ROOT
ATOM      1  C   UNL     1     144.762 141.268 133.055  1.00  0.00    -0.001 C 
ATOM      2  C   UNL     1     144.654 140.524 134.171  1.00  0.00    -0.023 C 
ENDROOT
BRANCH   2   3
ATOM      3  C   UNL     1     143.436 140.358 135.077  1.00  0.00     0.014 C 
BRANCH   3   4
ATOM      4  C   UNL     1     142.869 138.915 135.084  1.00  0.00     0.012 C 
BRANCH   4   5
ATOM      5  C   UNL     1     143.068 138.162 133.753  1.00  0.00     0.031 C 
BRANCH   5   6
ATOM      6  C   UNL     1     141.801 138.209 132.928  1.00  0.00    -0.077 C 
ATOM      7  C   UNL     1     140.684 137.260 133.276  1.00  0.00     0.039 C 
ATOM      8  C   UNL     1     141.648 139.008 131.846  1.00  0.00    -0.028 CG0
ATOM      9  G   UNL     1     142.645 140.029 131.342  1.00  0.00     0.000 G0
ENDBRANCH   5   6
ENDBRANCH   4   5
ENDBRANCH   3   4
BRANCH   3  10
ATOM     10  C   UNL     1     143.675 140.901 136.525  1.00  0.00    -0.010 C 
ATOM     11  C   UNL     1     145.052 140.494 137.082  1.00  0.00     0.008 C 
ATOM     12  C   UNL     1     143.553 142.436 136.583  1.00  0.00     0.008 C 
ENDBRANCH   3  10
ENDBRANCH   2   3
BRANCH   1  13
ATOM     13  C   UNL     1     143.691 142.085 132.452  1.00  0.00    -0.055 C 
ATOM     14  C   UNL     1     143.680 143.404 132.667  1.00  0.00     0.012 C 
BRANCH  13  15
ATOM     15  C   UNL     1     142.435 141.415 131.938  1.00  0.00     0.039 C 
BRANCH  15  16
ATOM     16  C   UNL     1     142.656 140.018 131.328  1.00  0.00     0.032 CG0
ATOM     17  G   UNL     1     141.653 138.998 131.822  1.00  0.00     0.000 G0
ENDBRANCH  15  16
ENDBRANCH  13  15
ENDBRANCH   1  13
TORSDOF 1
ENDMDL
MODEL 3
REMARK VINA RESULT:    -3.482      3.668      5.611
REMARK INTER + INTRA:          -5.706
REMARK INTER:                  -5.248
REMARK INTRA:                  -0.458
REMARK UNBOUND:                -0.595
REMARK SMILES C=C1C=C[C@H](C(C)C)CCC(C)=CCC1
REMARK SMILES IDX 3 1 4 2 5 3 9 4 10 5 11 6 12 7 13 8 6 10 7 11 8 12 2 13 1 14
REMARK SMILES IDX 15 15 14 16
REMARK H PARENT
REMARK Flexibility Score: 70.00
ROOT
ATOM      1  C   UNL     1     144.506 140.022 134.138  1.00  0.00    -0.001 C 
ATOM      2  C   UNL     1     144.707 141.211 133.541  1.00  0.00    -0.023 C 
ENDROOT
BRANCH   2   3
ATOM      3  C   UNL     1     143.706 142.045 132.744  1.00  0.00     0.014 C 
BRANCH   3   4
ATOM      4  C   UNL     1     143.220 143.308 133.500  1.00  0.00     0.012 C 
BRANCH   4   5
ATOM      5  C   UNL     1     143.457 143.250 135.023  1.00  0.00     0.031 C 
BRANCH   5   6
ATOM      6  C   UNL     1     142.141 143.091 135.753  1.00  0.00    -0.077 C 
ATOM      7  C   UNL     1     141.279 144.311 135.951  1.00  0.00     0.039 C 
ATOM      8  C   UNL     1     141.734 141.923 136.303  1.00  0.00    -0.028 CG0
ATOM      9  G   UNL     1     142.451 140.594 136.209  1.00  0.00     0.000 G0
ENDBRANCH   5   6
ENDBRANCH   4   5
ENDBRANCH   3   4
BRANCH   3  10
ATOM     10  C   UNL     1     144.206 142.381 131.300  1.00  0.00    -0.010 C 
ATOM     11  C   UNL     1     143.241 141.868 130.214  1.00  0.00     0.008 C 
ATOM     12  C   UNL     1     144.405 143.896 131.107  1.00  0.00     0.008 C 
ENDBRANCH   3  10
ENDBRANCH   2   3
BRANCH   1  13
ATOM     13  C   UNL     1     143.237 139.268 134.161  1.00  0.00    -0.055 C 
ATOM     14  C   UNL     1     143.020 138.333 133.231  1.00  0.00     0.012 C 
BRANCH  13  15
ATOM     15  C   UNL     1     142.064 139.795 134.959  1.00  0.00     0.039 C 
BRANCH  15  16
ATOM     16  C   UNL     1     142.452 140.588 136.222  1.00  0.00     0.032 CG0
ATOM     17  G   UNL     1     141.753 141.927 136.311  1.00  0.00     0.000 G0
ENDBRANCH  15  16
ENDBRANCH  13  15
ENDBRANCH   1  13
TORSDOF 1
ENDMDL
MODEL 4
REMARK VINA RESULT:    -3.418      3.828      5.590
REMARK INTER + INTRA:          -5.612
REMARK INTER:                  -5.149
REMARK INTRA:                  -0.463
REMARK UNBOUND:                -0.595
REMARK SMILES C=C1C=C[C@H](C(C)C)CCC(C)=CCC1
REMARK SMILES IDX 3 1 4 2 5 3 9 4 10 5 11 6 12 7 13 8 6 10 7 11 8 12 2 13 1 14
REMARK SMILES IDX 15 15 14 16
REMARK H PARENT
REMARK Flexibility Score: 70.00
ROOT
ATOM      1  C   UNL     1     140.845 144.455 133.863  1.00  0.00    -0.001 C 
ATOM      2  C   UNL     1     141.935 144.401 134.650  1.00  0.00    -0.023 C 
ENDROOT
BRANCH   2   3
ATOM      3  C   UNL     1     142.424 143.231 135.501  1.00  0.00     0.014 C 
BRANCH   3   4
ATOM      4  C   UNL     1     143.849 142.752 135.124  1.00  0.00     0.012 C 
BRANCH   4   5
ATOM      5  C   UNL     1     144.132 142.776 133.608  1.00  0.00     0.031 C 
BRANCH   5   6
ATOM      6  C   UNL     1     143.741 141.457 132.980  1.00  0.00    -0.077 C 
ATOM      7  C   UNL     1     144.680 140.288 133.122  1.00  0.00     0.039 C 
ATOM      8  C   UNL     1     142.623 141.293 132.232  1.00  0.00    -0.028 CG0
ATOM      9  G   UNL     1     141.558 142.337 131.979  1.00  0.00     0.000 G0
ENDBRANCH   5   6
ENDBRANCH   4   5
ENDBRANCH   3   4
BRANCH   3  10
ATOM     10  C   UNL     1     142.280 143.493 137.037  1.00  0.00    -0.010 C 
ATOM     11  C   UNL     1     143.448 142.893 137.843  1.00  0.00     0.008 C 
ATOM     12  C   UNL     1     142.187 144.999 137.350  1.00  0.00     0.008 C 
ENDBRANCH   3  10
ENDBRANCH   2   3
BRANCH   1  13
ATOM     13  C   UNL     1     139.881 143.359 133.642  1.00  0.00    -0.055 C 
ATOM     14  C   UNL     1     138.779 143.300 134.396  1.00  0.00     0.012 C 
BRANCH  13  15
ATOM     15  C   UNL     1     140.306 142.130 132.867  1.00  0.00     0.039 C 
BRANCH  15  16
ATOM     16  C   UNL     1     141.549 142.330 131.978  1.00  0.00     0.032 CG0
ATOM     17  G   UNL     1     142.624 141.298 132.236  1.00  0.00     0.000 G0
ENDBRANCH  15  16
ENDBRANCH  13  15
ENDBRANCH   1  13
TORSDOF 1
ENDMDL
MODEL 5
REMARK VINA RESULT:    -3.400      2.142      4.910
REMARK INTER + INTRA:          -5.586
REMARK INTER:                  -5.026
REMARK INTRA:                  -0.560
REMARK UNBOUND:                -0.595
REMARK SMILES C=C1C=C[C@H](C(C)C)CCC(C)=CCC1
REMARK SMILES IDX 3 1 4 2 5 3 9 4 10 5 11 6 12 7 13 8 6 10 7 11 8 12 2 13 1 14
REMARK SMILES IDX 15 15 14 16
REMARK H PARENT
REMARK Flexibility Score: 70.00
ROOT
ATOM      1  C   UNL     1     137.936 140.274 134.483  1.00  0.00    -0.001 C 
ATOM      2  C   UNL     1     138.301 139.149 133.840  1.00  0.00    -0.023 C 
ENDROOT
BRANCH   2   3
ATOM      3  C   UNL     1     139.373 138.986 132.765  1.00  0.00     0.014 C 
BRANCH   3   4
ATOM      4  C   UNL     1     140.515 138.022 133.180  1.00  0.00     0.012 C 
BRANCH   4   5
ATOM      5  C   UNL     1     140.862 138.078 134.680  1.00  0.00     0.031 C 
BRANCH   5   6
ATOM      6  C   UNL     1     141.972 139.077 134.925  1.00  0.00    -0.077 C 
ATOM      7  C   UNL     1     143.388 138.665 134.618  1.00  0.00     0.039 C 
ATOM      8  C   UNL     1     141.766 140.297 135.477  1.00  0.00    -0.028 CG0
ATOM      9  G   UNL     1     140.426 140.894 135.847  1.00  0.00     0.000 G0
ENDBRANCH   5   6
ENDBRANCH   4   5
ENDBRANCH   3   4
BRANCH   3  10
ATOM     10  C   UNL     1     138.781 138.625 131.363  1.00  0.00    -0.010 C 
ATOM     11  C   UNL     1     137.251 138.448 131.403  1.00  0.00     0.008 C 
ATOM     12  C   UNL     1     139.126 139.695 130.309  1.00  0.00     0.008 C 
ENDBRANCH   3  10
ENDBRANCH   2   3
BRANCH   1  13
ATOM     13  C   UNL     1     138.526 141.612 134.288  1.00  0.00    -0.055 C 
ATOM     14  C   UNL     1     138.003 142.424 133.364  1.00  0.00     0.012 C 
BRANCH  13  15
ATOM     15  C   UNL     1     139.906 141.912 134.831  1.00  0.00     0.039 C 
BRANCH  15  16
ATOM     16  C   UNL     1     140.425 140.892 135.863  1.00  0.00     0.032 CG0
ATOM     17  G   UNL     1     141.770 140.311 135.487  1.00  0.00     0.000 G0
ENDBRANCH  15  16
ENDBRANCH  13  15
ENDBRANCH   1  13
TORSDOF 1
ENDMDL
MODEL 6
REMARK VINA RESULT:    -3.388      2.574      4.198
REMARK INTER + INTRA:          -5.567
REMARK INTER:                  -5.025
REMARK INTRA:                  -0.542
REMARK UNBOUND:                -0.595
REMARK SMILES C=C1C=C[C@H](C(C)C)CCC(C)=CCC1
REMARK SMILES IDX 3 1 4 2 5 3 9 4 10 5 11 6 12 7 13 8 6 10 7 11 8 12 2 13 1 14
REMARK SMILES IDX 15 15 14 16
REMARK H PARENT
REMARK Flexibility Score: 70.00
ROOT
ATOM      1  C   UNL     1     137.558 140.660 133.916  1.00  0.00    -0.001 C 
ATOM      2  C   UNL     1     137.562 141.767 134.681  1.00  0.00    -0.023 C 
ENDROOT
BRANCH   2   3
ATOM      3  C   UNL     1     138.692 142.301 135.558  1.00  0.00     0.014 C 
BRANCH   3   4
ATOM      4  C   UNL     1     139.173 143.715 135.144  1.00  0.00     0.012 C 
BRANCH   4   5
ATOM      5  C   UNL     1     139.369 143.885 133.624  1.00  0.00     0.031 C 
BRANCH   5   6
ATOM      6  C   UNL     1     140.686 143.278 133.193  1.00  0.00    -0.077 C 
ATOM      7  C   UNL     1     141.960 143.992 133.564  1.00  0.00     0.039 C 
ATOM      8  C   UNL     1     140.776 142.166 132.426  1.00  0.00    -0.028 CG0
ATOM      9  G   UNL     1     139.620 141.309 131.959  1.00  0.00     0.000 G0
ENDBRANCH   5   6
ENDBRANCH   4   5
ENDBRANCH   3   4
BRANCH   3  10
ATOM     10  C   UNL     1     138.370 142.214 137.087  1.00  0.00    -0.010 C 
ATOM     11  C   UNL     1     136.936 141.718 137.354  1.00  0.00     0.008 C 
ATOM     12  C   UNL     1     139.358 141.290 137.823  1.00  0.00     0.008 C 
ENDBRANCH   3  10
ENDBRANCH   2   3
BRANCH   1  13
ATOM     13  C   UNL     1     138.683 139.719 133.749  1.00  0.00    -0.055 C 
ATOM     14  C   UNL     1     139.044 138.949 134.780  1.00  0.00     0.012 C 
BRANCH  13  15
ATOM     15  C   UNL     1     139.643 139.892 132.592  1.00  0.00     0.039 C 
BRANCH  15  16
ATOM     16  C   UNL     1     139.632 141.295 131.954  1.00  0.00     0.032 CG0
ATOM     17  G   UNL     1     140.769 142.167 132.438  1.00  0.00     0.000 G0
ENDBRANCH  15  16
ENDBRANCH  13  15
ENDBRANCH   1  13
TORSDOF 1
ENDMDL
MODEL 7
REMARK VINA RESULT:    -3.381      3.296      5.257
REMARK INTER + INTRA:          -5.557
REMARK INTER:                  -5.028
REMARK INTRA:                  -0.529
REMARK UNBOUND:                -0.595
REMARK SMILES C=C1C=C[C@H](C(C)C)CCC(C)=CCC1
REMARK SMILES IDX 3 1 4 2 5 3 9 4 10 5 11 6 12 7 13 8 6 10 7 11 8 12 2 13 1 14
REMARK SMILES IDX 15 15 14 16
REMARK H PARENT
REMARK Flexibility Score: 70.00
ROOT
ATOM      1  C   UNL     1     139.640 143.661 135.145  1.00  0.00    -0.001 C 
ATOM      2  C   UNL     1     139.575 142.330 135.335  1.00  0.00    -0.023 C 
ENDROOT
BRANCH   2   3
ATOM      3  C   UNL     1     139.835 141.220 134.318  1.00  0.00     0.014 C 
BRANCH   3   4
ATOM      4  C   UNL     1     141.229 140.560 134.474  1.00  0.00     0.012 C 
BRANCH   4   5
ATOM      5  C   UNL     1     142.210 140.905 133.337  1.00  0.00     0.031 C 
BRANCH   5   6
ATOM      6  C   UNL     1     143.307 141.813 133.847  1.00  0.00    -0.077 C 
ATOM      7  C   UNL     1     144.402 141.212 134.689  1.00  0.00     0.039 C 
ATOM      8  C   UNL     1     143.315 143.153 133.647  1.00  0.00    -0.028 CG0
ATOM      9  G   UNL     1     142.315 143.939 132.829  1.00  0.00     0.000 G0
ENDBRANCH   5   6
ENDBRANCH   4   5
ENDBRANCH   3   4
BRANCH   3  10
ATOM     10  C   UNL     1     138.685 140.160 134.266  1.00  0.00    -0.010 C 
ATOM     11  C   UNL     1     137.459 140.666 133.482  1.00  0.00     0.008 C 
ATOM     12  C   UNL     1     139.162 138.837 133.637  1.00  0.00     0.008 C 
ENDBRANCH   3  10
ENDBRANCH   2   3
BRANCH   1  13
ATOM     13  C   UNL     1     140.005 144.338 133.886  1.00  0.00    -0.055 C 
ATOM     14  C   UNL     1     139.210 144.200 132.820  1.00  0.00     0.012 C 
BRANCH  13  15
ATOM     15  C   UNL     1     141.416 144.846 133.687  1.00  0.00     0.039 C 
BRANCH  15  16
ATOM     16  C   UNL     1     142.308 143.939 132.817  1.00  0.00     0.032 CG0
ATOM     17  G   UNL     1     143.315 143.155 133.630  1.00  0.00     0.000 G0
ENDBRANCH  15  16
ENDBRANCH  13  15
ENDBRANCH   1  13
TORSDOF 1
ENDMDL
MODEL 8
REMARK VINA RESULT:    -3.350      3.886      5.683
REMARK INTER + INTRA:          -5.511
REMARK INTER:                  -4.957
REMARK INTRA:                  -0.554
REMARK UNBOUND:                -0.595
REMARK SMILES C=C1C=C[C@H](C(C)C)CCC(C)=CCC1
REMARK SMILES IDX 3 1 4 2 5 3 9 4 10 5 11 6 12 7 13 8 6 10 7 11 8 12 2 13 1 14
REMARK SMILES IDX 15 15 14 16
REMARK H PARENT
REMARK Flexibility Score: 70.00
ROOT
ATOM      1  C   UNL     1     142.696 143.722 135.373  1.00  0.00    -0.001 C 
ATOM      2  C   UNL     1     141.607 144.300 134.834  1.00  0.00    -0.023 C 
ENDROOT
BRANCH   2   3
ATOM      3  C   UNL     1     140.612 143.694 133.847  1.00  0.00     0.014 C 
BRANCH   3   4
ATOM      4  C   UNL     1     139.189 143.524 134.439  1.00  0.00     0.012 C 
BRANCH   4   5
ATOM      5  C   UNL     1     139.171 143.322 135.967  1.00  0.00     0.031 C 
BRANCH   5   6
ATOM      6  C   UNL     1     139.035 141.852 136.300  1.00  0.00    -0.077 C 
ATOM      7  C   UNL     1     137.674 141.215 136.195  1.00  0.00     0.039 C 
ATOM      8  C   UNL     1     140.061 141.097 136.761  1.00  0.00    -0.028 CG0
ATOM      9  G   UNL     1     141.495 141.548 136.929  1.00  0.00     0.000 G0
ENDBRANCH   5   6
ENDBRANCH   4   5
ENDBRANCH   3   4
BRANCH   3  10
ATOM     10  C   UNL     1     140.590 144.437 132.470  1.00  0.00    -0.010 C 
ATOM     11  C   UNL     1     141.500 143.760 131.427  1.00  0.00     0.008 C 
ATOM     12  C   UNL     1     139.163 144.527 131.896  1.00  0.00     0.008 C 
ENDBRANCH   3  10
ENDBRANCH   2   3
BRANCH   1  13
ATOM     13  C   UNL     1     143.154 142.340 135.128  1.00  0.00    -0.055 C 
ATOM     14  C   UNL     1     144.016 142.108 134.133  1.00  0.00     0.012 C 
BRANCH  13  15
ATOM     15  C   UNL     1     142.385 141.178 135.718  1.00  0.00     0.039 C 
BRANCH  15  16
ATOM     16  C   UNL     1     141.507 141.540 136.932  1.00  0.00     0.032 CG0
ATOM     17  G   UNL     1     140.069 141.101 136.766  1.00  0.00     0.000 G0
ENDBRANCH  15  16
ENDBRANCH  13  15
ENDBRANCH   1  13
TORSDOF 1
ENDMDL
MODEL 9
REMARK VINA RESULT:    -3.330      3.363      5.253
REMARK INTER + INTRA:          -5.482
REMARK INTER:                  -4.973
REMARK INTRA:                  -0.510
REMARK UNBOUND:                -0.595
REMARK SMILES C=C1C=C[C@H](C(C)C)CCC(C)=CCC1
REMARK SMILES IDX 3 1 4 2 5 3 9 4 10 5 11 6 12 7 13 8 6 10 7 11 8 12 2 13 1 14
REMARK SMILES IDX 15 15 14 16
REMARK H PARENT
REMARK Flexibility Score: 70.00
ROOT
ATOM      1  C   UNL     1     141.689 144.764 133.395  1.00  0.00    -0.001 C 
ATOM      2  C   UNL     1     142.319 143.866 132.615  1.00  0.00    -0.023 C 
ENDROOT
BRANCH   2   3
ATOM      3  C   UNL     1     142.526 142.376 132.876  1.00  0.00     0.014 C 
BRANCH   3   4
ATOM      4  C   UNL     1     141.316 141.504 132.454  1.00  0.00     0.012 C 
BRANCH   4   5
ATOM      5  C   UNL     1     140.871 140.494 133.530  1.00  0.00     0.031 C 
BRANCH   5   6
ATOM      6  C   UNL     1     139.378 140.586 133.752  1.00  0.00    -0.077 C 
ATOM      7  C   UNL     1     138.480 139.650 132.986  1.00  0.00     0.039 C 
ATOM      8  C   UNL     1     138.802 141.517 134.549  1.00  0.00    -0.028 CG0
ATOM      9  G   UNL     1     139.527 142.535 135.401  1.00  0.00     0.000 G0
ENDBRANCH   5   6
ENDBRANCH   4   5
ENDBRANCH   3   4
BRANCH   3  10
ATOM     10  C   UNL     1     143.872 141.836 132.287  1.00  0.00    -0.010 C 
ATOM     11  C   UNL     1     144.766 142.966 131.743  1.00  0.00     0.008 C 
ATOM     12  C   UNL     1     144.669 141.036 133.335  1.00  0.00     0.008 C 
ENDBRANCH   3  10
ENDBRANCH   2   3
BRANCH   1  13
ATOM     13  C   UNL     1     141.037 144.481 134.689  1.00  0.00    -0.055 C 
ATOM     14  C   UNL     1     141.787 144.406 135.792  1.00  0.00     0.012 C 
BRANCH  13  15
ATOM     15  C   UNL     1     139.636 143.910 134.715  1.00  0.00     0.039 C 
BRANCH  15  16
ATOM     16  C   UNL     1     139.513 142.541 135.411  1.00  0.00     0.032 CG0
ATOM     17  G   UNL     1     138.810 141.510 134.557  1.00  0.00     0.000 G0
ENDBRANCH  15  16
ENDBRANCH  13  15
ENDBRANCH   1  13
TORSDOF 1
ENDMDL
