MODEL 1
REMARK VINA RESULT:    -3.626      0.000      0.000
REMARK INTER + INTRA:          -8.972
REMARK INTER:                  -6.594
REMARK INTRA:                  -2.378
REMARK UNBOUND:                -2.378
REMARK SMILES CCCCCCCCCCCCCC[C@H](C)C(=O)[O-]
REMARK SMILES IDX 9 1 10 2 11 3 12 4 13 5 14 6 15 7 16 8 17 9 18 10 19 11 8 12
REMARK SMILES IDX 7 13 6 14 5 15 4 16 3 17 2 18 1 19
REMARK H PARENT
REMARK Flexibility Score: inf
ROOT
ATOM      1  C   UNL     1      -5.400  29.926  46.933  1.00  0.00     0.000 C 
ENDROOT
BRANCH   1   2
ATOM      2  C   UNL     1      -4.946  28.477  46.703  1.00  0.00     0.000 C 
BRANCH   2   3
ATOM      3  C   UNL     1      -4.396  28.293  45.284  1.00  0.00     0.000 C 
BRANCH   3   4
ATOM      4  C   UNL     1      -5.143  29.190  44.283  1.00  0.00     0.000 C 
BRANCH   4   5
ATOM      5  C   UNL     1      -6.312  28.464  43.599  1.00  0.00     0.001 C 
BRANCH   5   6
ATOM      6  C   UNL     1      -7.659  29.180  43.807  1.00  0.00     0.009 C 
BRANCH   6   7
ATOM      7  C   UNL     1      -8.632  28.346  44.665  1.00  0.00     0.032 C 
ATOM      8  C   UNL     1      -7.915  27.139  45.279  1.00  0.00     0.014 C 
BRANCH   7   9
ATOM      9  C   UNL     1      -9.819  27.885  43.862  1.00  0.00     0.044 C 
ATOM     10  O   UNL     1     -10.871  27.495  44.438  1.00  0.00    -0.550 OA
ATOM     11  O   UNL     1      -9.761  27.887  42.475  1.00  0.00    -0.550 OA
ENDBRANCH   7   9
ENDBRANCH   6   7
ENDBRANCH   5   6
ENDBRANCH   4   5
ENDBRANCH   3   4
ENDBRANCH   2   3
ENDBRANCH   1   2
BRANCH   1  12
ATOM     12  C   UNL     1      -6.870  30.030  47.379  1.00  0.00     0.000 C 
BRANCH  12  13
ATOM     13  C   UNL     1      -7.583  31.333  46.969  1.00  0.00    -0.000 C 
BRANCH  13  14
ATOM     14  C   UNL     1      -6.874  32.146  45.868  1.00  0.00    -0.000 C 
BRANCH  14  15
ATOM     15  C   UNL     1      -6.308  33.507  46.322  1.00  0.00    -0.000 C 
BRANCH  15  16
ATOM     16  C   UNL     1      -4.807  33.509  46.666  1.00  0.00    -0.000 C 
BRANCH  16  17
ATOM     17  C   UNL     1      -4.542  33.591  48.179  1.00  0.00    -0.000 C 
BRANCH  17  18
ATOM     18  C   UNL     1      -5.646  34.354  48.929  1.00  0.00    -0.003 C 
ATOM     19  C   UNL     1      -5.940  33.768  50.309  1.00  0.00     0.004 C 
ENDBRANCH  17  18
ENDBRANCH  16  17
ENDBRANCH  15  16
ENDBRANCH  14  15
ENDBRANCH  13  14
ENDBRANCH  12  13
ENDBRANCH   1  12
TORSDOF 14
ENDMDL
MODEL 2
REMARK VINA RESULT:    -3.519      2.368      3.798
REMARK INTER + INTRA:          -8.776
REMARK INTER:                  -6.479
REMARK INTRA:                  -2.298
REMARK UNBOUND:                -2.378
REMARK SMILES CCCCCCCCCCCCCC[C@H](C)C(=O)[O-]
REMARK SMILES IDX 9 1 10 2 11 3 12 4 13 5 14 6 15 7 16 8 17 9 18 10 19 11 8 12
REMARK SMILES IDX 7 13 6 14 5 15 4 16 3 17 2 18 1 19
REMARK H PARENT
REMARK Flexibility Score: inf
ROOT
ATOM      1  C   UNL     1      -7.855  30.469  43.354  1.00  0.00     0.000 C 
ENDROOT
BRANCH   1   2
ATOM      2  C   UNL     1      -8.617  31.217  44.457  1.00  0.00     0.000 C 
BRANCH   2   3
ATOM      3  C   UNL     1      -8.670  30.390  45.746  1.00  0.00     0.000 C 
BRANCH   3   4
ATOM      4  C   UNL     1      -7.768  31.002  46.830  1.00  0.00     0.000 C 
BRANCH   4   5
ATOM      5  C   UNL     1      -6.620  30.067  47.240  1.00  0.00     0.001 C 
BRANCH   5   6
ATOM      6  C   UNL     1      -6.634  28.735  46.468  1.00  0.00     0.009 C 
BRANCH   6   7
ATOM      7  C   UNL     1      -5.271  28.014  46.529  1.00  0.00     0.032 C 
ATOM      8  C   UNL     1      -4.213  28.788  45.738  1.00  0.00     0.014 C 
BRANCH   7   9
ATOM      9  C   UNL     1      -5.370  26.603  46.013  1.00  0.00     0.044 C 
ATOM     10  O   UNL     1      -6.163  25.780  46.544  1.00  0.00    -0.550 OA
ATOM     11  O   UNL     1      -4.583  26.201  44.942  1.00  0.00    -0.550 OA
ENDBRANCH   7   9
ENDBRANCH   6   7
ENDBRANCH   5   6
ENDBRANCH   4   5
ENDBRANCH   3   4
ENDBRANCH   2   3
ENDBRANCH   1   2
BRANCH   1  12
ATOM     12  C   UNL     1      -6.350  30.793  43.340  1.00  0.00     0.000 C 
BRANCH  12  13
ATOM     13  C   UNL     1      -5.992  32.234  43.752  1.00  0.00    -0.000 C 
BRANCH  13  14
ATOM     14  C   UNL     1      -4.927  32.351  44.860  1.00  0.00    -0.000 C 
BRANCH  14  15
ATOM     15  C   UNL     1      -5.032  33.616  45.737  1.00  0.00    -0.000 C 
BRANCH  15  16
ATOM     16  C   UNL     1      -4.781  33.393  47.239  1.00  0.00    -0.000 C 
BRANCH  16  17
ATOM     17  C   UNL     1      -5.993  33.768  48.109  1.00  0.00    -0.000 C 
BRANCH  17  18
ATOM     18  C   UNL     1      -5.779  33.429  49.593  1.00  0.00    -0.003 C 
ATOM     19  C   UNL     1      -6.570  34.341  50.530  1.00  0.00     0.004 C 
ENDBRANCH  17  18
ENDBRANCH  16  17
ENDBRANCH  15  16
ENDBRANCH  14  15
ENDBRANCH  13  14
ENDBRANCH  12  13
ENDBRANCH   1  12
TORSDOF 14
ENDMDL
MODEL 3
REMARK VINA RESULT:    -3.511      3.566      6.870
REMARK INTER + INTRA:          -8.763
REMARK INTER:                  -6.832
REMARK INTRA:                  -1.931
REMARK UNBOUND:                -2.378
REMARK SMILES CCCCCCCCCCCCCC[C@H](C)C(=O)[O-]
REMARK SMILES IDX 9 1 10 2 11 3 12 4 13 5 14 6 15 7 16 8 17 9 18 10 19 11 8 12
REMARK SMILES IDX 7 13 6 14 5 15 4 16 3 17 2 18 1 19
REMARK H PARENT
REMARK Flexibility Score: inf
ROOT
ATOM      1  C   UNL     1      -5.192  30.241  46.846  1.00  0.00     0.000 C 
ENDROOT
BRANCH   1   2
ATOM      2  C   UNL     1      -6.607  30.290  47.440  1.00  0.00     0.000 C 
BRANCH   2   3
ATOM      3  C   UNL     1      -7.388  31.493  46.898  1.00  0.00     0.000 C 
BRANCH   3   4
ATOM      4  C   UNL     1      -6.542  32.291  45.894  1.00  0.00     0.000 C 
BRANCH   4   5
ATOM      5  C   UNL     1      -6.305  33.741  46.343  1.00  0.00     0.001 C 
BRANCH   5   6
ATOM      6  C   UNL     1      -6.928  34.047  47.717  1.00  0.00     0.009 C 
BRANCH   6   7
ATOM      7  C   UNL     1      -5.873  34.512  48.742  1.00  0.00     0.032 C 
ATOM      8  C   UNL     1      -4.555  33.759  48.541  1.00  0.00     0.014 C 
BRANCH   7   9
ATOM      9  C   UNL     1      -6.360  34.330  50.155  1.00  0.00     0.044 C 
ATOM     10  O   UNL     1      -7.432  34.870  50.539  1.00  0.00    -0.550 OA
ATOM     11  O   UNL     1      -5.624  33.560  51.047  1.00  0.00    -0.550 OA
ENDBRANCH   7   9
ENDBRANCH   6   7
ENDBRANCH   5   6
ENDBRANCH   4   5
ENDBRANCH   3   4
ENDBRANCH   2   3
ENDBRANCH   1   2
BRANCH   1  12
ATOM     12  C   UNL     1      -4.762  28.820  46.438  1.00  0.00     0.000 C 
BRANCH  12  13
ATOM     13  C   UNL     1      -5.871  27.753  46.535  1.00  0.00    -0.000 C 
BRANCH  13  14
ATOM     14  C   UNL     1      -6.007  26.839  45.302  1.00  0.00    -0.000 C 
BRANCH  14  15
ATOM     15  C   UNL     1      -6.984  27.344  44.219  1.00  0.00    -0.000 C 
BRANCH  15  16
ATOM     16  C   UNL     1      -8.426  27.583  44.701  1.00  0.00    -0.000 C 
BRANCH  16  17
ATOM     17  C   UNL     1      -8.806  29.073  44.732  1.00  0.00    -0.000 C 
BRANCH  17  18
ATOM     18  C   UNL     1      -9.034  29.651  43.325  1.00  0.00    -0.003 C 
ATOM     19  C   UNL     1      -7.899  30.567  42.868  1.00  0.00     0.004 C 
ENDBRANCH  17  18
ENDBRANCH  16  17
ENDBRANCH  15  16
ENDBRANCH  14  15
ENDBRANCH  13  14
ENDBRANCH  12  13
ENDBRANCH   1  12
TORSDOF 14
ENDMDL
MODEL 4
REMARK VINA RESULT:    -3.483      1.868      2.321
REMARK INTER + INTRA:          -8.711
REMARK INTER:                  -6.567
REMARK INTRA:                  -2.144
REMARK UNBOUND:                -2.378
REMARK SMILES CCCCCCCCCCCCCC[C@H](C)C(=O)[O-]
REMARK SMILES IDX 9 1 10 2 11 3 12 4 13 5 14 6 15 7 16 8 17 9 18 10 19 11 8 12
REMARK SMILES IDX 7 13 6 14 5 15 4 16 3 17 2 18 1 19
REMARK H PARENT
REMARK Flexibility Score: inf
ROOT
ATOM      1  C   UNL     1      -6.365  30.271  47.396  1.00  0.00     0.000 C 
ENDROOT
BRANCH   1   2
ATOM      2  C   UNL     1      -5.017  30.843  46.932  1.00  0.00     0.000 C 
BRANCH   2   3
ATOM      3  C   UNL     1      -4.149  29.754  46.292  1.00  0.00     0.000 C 
BRANCH   3   4
ATOM      4  C   UNL     1      -4.225  29.821  44.758  1.00  0.00     0.000 C 
BRANCH   4   5
ATOM      5  C   UNL     1      -4.805  28.540  44.139  1.00  0.00     0.001 C 
BRANCH   5   6
ATOM      6  C   UNL     1      -6.344  28.514  44.161  1.00  0.00     0.009 C 
BRANCH   6   7
ATOM      7  C   UNL     1      -6.896  27.132  44.567  1.00  0.00     0.032 C 
ATOM      8  C   UNL     1      -6.535  26.811  46.021  1.00  0.00     0.014 C 
BRANCH   7   9
ATOM      9  C   UNL     1      -6.385  26.045  43.659  1.00  0.00     0.044 C 
ATOM     10  O   UNL     1      -5.614  25.150  44.100  1.00  0.00    -0.550 OA
ATOM     11  O   UNL     1      -6.764  26.023  42.323  1.00  0.00    -0.550 OA
ENDBRANCH   7   9
ENDBRANCH   6   7
ENDBRANCH   5   6
ENDBRANCH   4   5
ENDBRANCH   3   4
ENDBRANCH   2   3
ENDBRANCH   1   2
BRANCH   1  12
ATOM     12  C   UNL     1      -7.566  31.114  46.929  1.00  0.00     0.000 C 
BRANCH  12  13
ATOM     13  C   UNL     1      -7.222  32.241  45.935  1.00  0.00    -0.000 C 
BRANCH  13  14
ATOM     14  C   UNL     1      -7.527  33.667  46.434  1.00  0.00    -0.000 C 
BRANCH  14  15
ATOM     15  C   UNL     1      -6.303  34.601  46.532  1.00  0.00    -0.000 C 
BRANCH  15  16
ATOM     16  C   UNL     1      -5.944  35.061  47.957  1.00  0.00    -0.000 C 
BRANCH  16  17
ATOM     17  C   UNL     1      -5.124  34.016  48.732  1.00  0.00    -0.000 C 
BRANCH  17  18
ATOM     18  C   UNL     1      -5.768  33.643  50.077  1.00  0.00    -0.003 C 
ATOM     19  C   UNL     1      -6.931  34.560  50.453  1.00  0.00     0.004 C 
ENDBRANCH  17  18
ENDBRANCH  16  17
ENDBRANCH  15  16
ENDBRANCH  14  15
ENDBRANCH  13  14
ENDBRANCH  12  13
ENDBRANCH   1  12
TORSDOF 14
ENDMDL
MODEL 5
REMARK VINA RESULT:    -3.445     16.060     18.287
REMARK INTER + INTRA:          -8.642
REMARK INTER:                  -7.644
REMARK INTRA:                  -0.998
REMARK UNBOUND:                -2.378
REMARK SMILES CCCCCCCCCCCCCC[C@H](C)C(=O)[O-]
REMARK SMILES IDX 9 1 10 2 11 3 12 4 13 5 14 6 15 7 16 8 17 9 18 10 19 11 8 12
REMARK SMILES IDX 7 13 6 14 5 15 4 16 3 17 2 18 1 19
REMARK H PARENT
REMARK Flexibility Score: inf
ROOT
ATOM      1  C   UNL     1     -22.908  21.110  37.159  1.00  0.00     0.000 C 
ENDROOT
BRANCH   1   2
ATOM      2  C   UNL     1     -22.333  21.245  35.741  1.00  0.00     0.000 C 
BRANCH   2   3
ATOM      3  C   UNL     1     -21.212  22.290  35.701  1.00  0.00     0.000 C 
BRANCH   3   4
ATOM      4  C   UNL     1     -20.255  22.024  34.528  1.00  0.00     0.000 C 
BRANCH   4   5
ATOM      5  C   UNL     1     -19.382  23.242  34.190  1.00  0.00     0.001 C 
BRANCH   5   6
ATOM      6  C   UNL     1     -18.664  23.102  32.836  1.00  0.00     0.009 C 
BRANCH   6   7
ATOM      7  C   UNL     1     -17.134  23.241  32.972  1.00  0.00     0.032 C 
ATOM      8  C   UNL     1     -16.695  23.002  34.420  1.00  0.00     0.014 C 
BRANCH   7   9
ATOM      9  C   UNL     1     -16.659  24.592  32.507  1.00  0.00     0.044 C 
ATOM     10  O   UNL     1     -15.429  24.866  32.483  1.00  0.00    -0.550 OA
ATOM     11  O   UNL     1     -17.580  25.548  32.100  1.00  0.00    -0.550 OA
ENDBRANCH   7   9
ENDBRANCH   6   7
ENDBRANCH   5   6
ENDBRANCH   4   5
ENDBRANCH   3   4
ENDBRANCH   2   3
ENDBRANCH   1   2
BRANCH   1  12
ATOM     12  C   UNL     1     -21.935  21.595  38.249  1.00  0.00     0.000 C 
BRANCH  12  13
ATOM     13  C   UNL     1     -22.588  21.909  39.609  1.00  0.00    -0.000 C 
BRANCH  13  14
ATOM     14  C   UNL     1     -21.765  22.828  40.532  1.00  0.00    -0.000 C 
BRANCH  14  15
ATOM     15  C   UNL     1     -20.359  23.190  40.009  1.00  0.00    -0.000 C 
BRANCH  15  16
ATOM     16  C   UNL     1     -19.195  22.467  40.710  1.00  0.00    -0.000 C 
BRANCH  16  17
ATOM     17  C   UNL     1     -19.652  21.634  41.920  1.00  0.00    -0.000 C 
BRANCH  17  18
ATOM     18  C   UNL     1     -19.502  20.122  41.682  1.00  0.00    -0.003 C 
ATOM     19  C   UNL     1     -18.086  19.616  41.954  1.00  0.00     0.004 C 
ENDBRANCH  17  18
ENDBRANCH  16  17
ENDBRANCH  15  16
ENDBRANCH  14  15
ENDBRANCH  13  14
ENDBRANCH  12  13
ENDBRANCH   1  12
TORSDOF 14
ENDMDL
MODEL 6
REMARK VINA RESULT:    -3.360      3.187      5.825
REMARK INTER + INTRA:          -8.488
REMARK INTER:                  -6.132
REMARK INTRA:                  -2.356
REMARK UNBOUND:                -2.378
REMARK SMILES CCCCCCCCCCCCCC[C@H](C)C(=O)[O-]
REMARK SMILES IDX 9 1 10 2 11 3 12 4 13 5 14 6 15 7 16 8 17 9 18 10 19 11 8 12
REMARK SMILES IDX 7 13 6 14 5 15 4 16 3 17 2 18 1 19
REMARK H PARENT
REMARK Flexibility Score: inf
ROOT
ATOM      1  C   UNL     1      -5.759  27.562  46.502  1.00  0.00     0.000 C 
ENDROOT
BRANCH   1   2
ATOM      2  C   UNL     1      -4.921  28.531  45.656  1.00  0.00     0.000 C 
BRANCH   2   3
ATOM      3  C   UNL     1      -4.972  29.950  46.235  1.00  0.00     0.000 C 
BRANCH   3   4
ATOM      4  C   UNL     1      -6.137  30.097  47.227  1.00  0.00     0.000 C 
BRANCH   4   5
ATOM      5  C   UNL     1      -6.399  31.560  47.617  1.00  0.00     0.001 C 
BRANCH   5   6
ATOM      6  C   UNL     1      -5.119  32.416  47.609  1.00  0.00     0.009 C 
BRANCH   6   7
ATOM      7  C   UNL     1      -5.334  33.790  48.276  1.00  0.00     0.032 C 
ATOM      8  C   UNL     1      -5.862  33.621  49.705  1.00  0.00     0.014 C 
BRANCH   7   9
ATOM      9  C   UNL     1      -6.279  34.648  47.478  1.00  0.00     0.044 C 
ATOM     10  O   UNL     1      -5.927  35.125  46.365  1.00  0.00    -0.550 OA
ATOM     11  O   UNL     1      -7.549  34.921  47.967  1.00  0.00    -0.550 OA
ENDBRANCH   7   9
ENDBRANCH   6   7
ENDBRANCH   5   6
ENDBRANCH   4   5
ENDBRANCH   3   4
ENDBRANCH   2   3
ENDBRANCH   1   2
BRANCH   1  12
ATOM     12  C   UNL     1      -6.882  26.881  45.697  1.00  0.00     0.000 C 
BRANCH  12  13
ATOM     13  C   UNL     1      -7.481  27.739  44.565  1.00  0.00    -0.000 C 
BRANCH  13  14
ATOM     14  C   UNL     1      -8.930  28.208  44.800  1.00  0.00    -0.000 C 
BRANCH  14  15
ATOM     15  C   UNL     1      -9.077  29.674  45.257  1.00  0.00    -0.000 C 
BRANCH  15  16
ATOM     16  C   UNL     1      -8.541  30.724  44.267  1.00  0.00    -0.000 C 
BRANCH  16  17
ATOM     17  C   UNL     1      -8.807  32.168  44.726  1.00  0.00    -0.000 C 
BRANCH  17  18
ATOM     18  C   UNL     1      -7.724  33.147  44.244  1.00  0.00    -0.003 C 
ATOM     19  C   UNL     1      -6.369  32.475  44.029  1.00  0.00     0.004 C 
ENDBRANCH  17  18
ENDBRANCH  16  17
ENDBRANCH  15  16
ENDBRANCH  14  15
ENDBRANCH  13  14
ENDBRANCH  12  13
ENDBRANCH   1  12
TORSDOF 14
ENDMDL
MODEL 7
REMARK VINA RESULT:    -3.355      2.509      4.168
REMARK INTER + INTRA:          -8.479
REMARK INTER:                  -5.463
REMARK INTRA:                  -3.016
REMARK UNBOUND:                -2.378
REMARK SMILES CCCCCCCCCCCCCC[C@H](C)C(=O)[O-]
REMARK SMILES IDX 9 1 10 2 11 3 12 4 13 5 14 6 15 7 16 8 17 9 18 10 19 11 8 12
REMARK SMILES IDX 7 13 6 14 5 15 4 16 3 17 2 18 1 19
REMARK H PARENT
REMARK Flexibility Score: inf
ROOT
ATOM      1  C   UNL     1      -5.820  31.949  47.270  1.00  0.00     0.000 C 
ENDROOT
BRANCH   1   2
ATOM      2  C   UNL     1      -7.322  31.969  46.954  1.00  0.00     0.000 C 
BRANCH   2   3
ATOM      3  C   UNL     1      -7.898  30.549  46.929  1.00  0.00     0.000 C 
BRANCH   3   4
ATOM      4  C   UNL     1      -8.785  30.336  45.692  1.00  0.00     0.000 C 
BRANCH   4   5
ATOM      5  C   UNL     1      -8.425  29.057  44.920  1.00  0.00     0.001 C 
BRANCH   5   6
ATOM      6  C   UNL     1      -7.417  28.172  45.674  1.00  0.00     0.009 C 
BRANCH   6   7
ATOM      7  C   UNL     1      -6.399  27.511  44.722  1.00  0.00     0.032 C 
ATOM      8  C   UNL     1      -6.957  27.442  43.297  1.00  0.00     0.014 C 
BRANCH   7   9
ATOM      9  C   UNL     1      -6.019  26.132  45.192  1.00  0.00     0.044 C 
ATOM     10  O   UNL     1      -5.543  25.288  44.385  1.00  0.00    -0.550 OA
ATOM     11  O   UNL     1      -6.192  25.781  46.525  1.00  0.00    -0.550 OA
ENDBRANCH   7   9
ENDBRANCH   6   7
ENDBRANCH   5   6
ENDBRANCH   4   5
ENDBRANCH   3   4
ENDBRANCH   2   3
ENDBRANCH   1   2
BRANCH   1  12
ATOM     12  C   UNL     1      -5.199  30.546  47.136  1.00  0.00     0.000 C 
BRANCH  12  13
ATOM     13  C   UNL     1      -4.038  30.444  46.127  1.00  0.00    -0.000 C 
BRANCH  13  14
ATOM     14  C   UNL     1      -4.177  31.337  44.879  1.00  0.00    -0.000 C 
BRANCH  14  15
ATOM     15  C   UNL     1      -5.053  30.752  43.752  1.00  0.00    -0.000 C 
BRANCH  15  16
ATOM     16  C   UNL     1      -6.223  31.646  43.303  1.00  0.00    -0.000 C 
BRANCH  16  17
ATOM     17  C   UNL     1      -5.878  33.145  43.346  1.00  0.00    -0.000 C 
BRANCH  17  18
ATOM     18  C   UNL     1      -7.041  34.001  43.874  1.00  0.00    -0.003 C 
ATOM     19  C   UNL     1      -8.410  33.394  43.571  1.00  0.00     0.004 C 
ENDBRANCH  17  18
ENDBRANCH  16  17
ENDBRANCH  15  16
ENDBRANCH  14  15
ENDBRANCH  13  14
ENDBRANCH  12  13
ENDBRANCH   1  12
TORSDOF 14
ENDMDL
MODEL 8
REMARK VINA RESULT:    -3.316      3.013      6.095
REMARK INTER + INTRA:          -8.408
REMARK INTER:                  -5.555
REMARK INTRA:                  -2.853
REMARK UNBOUND:                -2.378
REMARK SMILES CCCCCCCCCCCCCC[C@H](C)C(=O)[O-]
REMARK SMILES IDX 9 1 10 2 11 3 12 4 13 5 14 6 15 7 16 8 17 9 18 10 19 11 8 12
REMARK SMILES IDX 7 13 6 14 5 15 4 16 3 17 2 18 1 19
REMARK H PARENT
REMARK Flexibility Score: inf
ROOT
ATOM      1  C   UNL     1      -6.078  31.123  43.434  1.00  0.00     0.000 C 
ENDROOT
BRANCH   1   2
ATOM      2  C   UNL     1      -5.298  29.804  43.335  1.00  0.00     0.000 C 
BRANCH   2   3
ATOM      3  C   UNL     1      -4.552  29.508  44.641  1.00  0.00     0.000 C 
BRANCH   3   4
ATOM      4  C   UNL     1      -4.604  30.716  45.590  1.00  0.00     0.000 C 
BRANCH   4   5
ATOM      5  C   UNL     1      -5.216  30.368  46.956  1.00  0.00     0.001 C 
BRANCH   5   6
ATOM      6  C   UNL     1      -5.989  31.545  47.578  1.00  0.00     0.009 C 
BRANCH   6   7
ATOM      7  C   UNL     1      -5.461  32.910  47.088  1.00  0.00     0.032 C 
ATOM      8  C   UNL     1      -4.439  33.480  48.076  1.00  0.00     0.014 C 
BRANCH   7   9
ATOM      9  C   UNL     1      -6.582  33.894  46.883  1.00  0.00     0.044 C 
ATOM     10  O   UNL     1      -7.009  34.146  45.725  1.00  0.00    -0.550 OA
ATOM     11  O   UNL     1      -7.154  34.531  47.977  1.00  0.00    -0.550 OA
ENDBRANCH   7   9
ENDBRANCH   6   7
ENDBRANCH   5   6
ENDBRANCH   4   5
ENDBRANCH   3   4
ENDBRANCH   2   3
ENDBRANCH   1   2
BRANCH   1  12
ATOM     12  C   UNL     1      -7.603  30.924  43.364  1.00  0.00     0.000 C 
BRANCH  12  13
ATOM     13  C   UNL     1      -8.342  31.089  44.706  1.00  0.00    -0.000 C 
BRANCH  13  14
ATOM     14  C   UNL     1      -8.627  29.776  45.460  1.00  0.00    -0.000 C 
BRANCH  14  15
ATOM     15  C   UNL     1      -8.936  28.560  44.561  1.00  0.00    -0.000 C 
BRANCH  15  16
ATOM     16  C   UNL     1      -7.877  27.443  44.587  1.00  0.00    -0.000 C 
BRANCH  16  17
ATOM     17  C   UNL     1      -7.182  27.311  45.953  1.00  0.00    -0.000 C 
BRANCH  17  18
ATOM     18  C   UNL     1      -6.074  26.245  45.949  1.00  0.00    -0.003 C 
ATOM     19  C   UNL     1      -5.609  25.879  44.540  1.00  0.00     0.004 C 
ENDBRANCH  17  18
ENDBRANCH  16  17
ENDBRANCH  15  16
ENDBRANCH  14  15
ENDBRANCH  13  14
ENDBRANCH  12  13
ENDBRANCH   1  12
TORSDOF 14
ENDMDL
MODEL 9
REMARK VINA RESULT:    -3.299      1.745      2.856
REMARK INTER + INTRA:          -8.376
REMARK INTER:                  -5.798
REMARK INTRA:                  -2.579
REMARK UNBOUND:                -2.378
REMARK SMILES CCCCCCCCCCCCCC[C@H](C)C(=O)[O-]
REMARK SMILES IDX 9 1 10 2 11 3 12 4 13 5 14 6 15 7 16 8 17 9 18 10 19 11 8 12
REMARK SMILES IDX 7 13 6 14 5 15 4 16 3 17 2 18 1 19
REMARK H PARENT
REMARK Flexibility Score: inf
ROOT
ATOM      1  C   UNL     1      -5.872  29.580  46.914  1.00  0.00     0.000 C 
ENDROOT
BRANCH   1   2
ATOM      2  C   UNL     1      -7.033  30.519  47.270  1.00  0.00     0.000 C 
BRANCH   2   3
ATOM      3  C   UNL     1      -8.251  30.249  46.379  1.00  0.00     0.000 C 
BRANCH   3   4
ATOM      4  C   UNL     1      -8.351  31.291  45.254  1.00  0.00     0.000 C 
BRANCH   4   5
ATOM      5  C   UNL     1      -7.508  30.916  44.025  1.00  0.00     0.001 C 
BRANCH   5   6
ATOM      6  C   UNL     1      -7.772  29.479  43.540  1.00  0.00     0.009 C 
BRANCH   6   7
ATOM      7  C   UNL     1      -6.520  28.587  43.658  1.00  0.00     0.032 C 
ATOM      8  C   UNL     1      -5.737  28.575  42.342  1.00  0.00     0.014 C 
BRANCH   7   9
ATOM      9  C   UNL     1      -6.879  27.180  44.055  1.00  0.00     0.044 C 
ATOM     10  O   UNL     1      -6.762  26.232  43.233  1.00  0.00    -0.550 OA
ATOM     11  O   UNL     1      -7.345  26.919  45.337  1.00  0.00    -0.550 OA
ENDBRANCH   7   9
ENDBRANCH   6   7
ENDBRANCH   5   6
ENDBRANCH   4   5
ENDBRANCH   3   4
ENDBRANCH   2   3
ENDBRANCH   1   2
BRANCH   1  12
ATOM     12  C   UNL     1      -4.510  30.297  46.881  1.00  0.00     0.000 C 
BRANCH  12  13
ATOM     13  C   UNL     1      -4.063  30.778  45.486  1.00  0.00    -0.000 C 
BRANCH  13  14
ATOM     14  C   UNL     1      -4.270  32.281  45.217  1.00  0.00    -0.000 C 
BRANCH  14  15
ATOM     15  C   UNL     1      -4.563  33.135  46.468  1.00  0.00    -0.000 C 
BRANCH  15  16
ATOM     16  C   UNL     1      -5.905  33.889  46.445  1.00  0.00    -0.000 C 
BRANCH  16  17
ATOM     17  C   UNL     1      -6.465  34.153  47.854  1.00  0.00    -0.000 C 
BRANCH  17  18
ATOM     18  C   UNL     1      -5.590  33.538  48.959  1.00  0.00    -0.003 C 
ATOM     19  C   UNL     1      -6.093  33.865  50.364  1.00  0.00     0.004 C 
ENDBRANCH  17  18
ENDBRANCH  16  17
ENDBRANCH  15  16
ENDBRANCH  14  15
ENDBRANCH  13  14
ENDBRANCH  12  13
ENDBRANCH   1  12
TORSDOF 14
ENDMDL
