MODEL 1
REMARK VINA RESULT:    -4.602      0.000      0.000
REMARK INTER + INTRA:          -5.426
REMARK INTER:                  -5.274
REMARK INTRA:                  -0.152
REMARK UNBOUND:                -0.152
REMARK SMILES CC=Cc1ccc(O)c(OC)c1
REMARK SMILES IDX 4 1 12 2 9 3 7 4 6 5 5 6 3 7 1 8 2 9 10 10 11 11 8 12
REMARK H PARENT 8 13
REMARK Flexibility Score: inf
ROOT
ATOM      1  C   UNL     1      73.423  34.189  53.751  1.00  0.00    -0.022 A 
ATOM      2  C   UNL     1      74.547  33.449  53.350  1.00  0.00     0.058 A 
ATOM      3  C   UNL     1      75.461  33.970  52.411  1.00  0.00     0.161 A 
ATOM      4  C   UNL     1      75.242  35.254  51.881  1.00  0.00     0.157 A 
ATOM      5  C   UNL     1      74.133  35.999  52.289  1.00  0.00     0.051 A 
ATOM      6  C   UNL     1      73.231  35.478  53.218  1.00  0.00     0.012 A 
ENDROOT
BRANCH   1   7
ATOM      7  C   UNL     1      72.500  33.594  54.749  1.00  0.00     0.003 C 
ATOM      8  C   UNL     1      71.316  33.461  56.907  1.00  0.00     0.035 C 
ATOM      9  C   UNL     1      72.275  34.113  55.962  1.00  0.00    -0.030 C 
ENDBRANCH   1   7
BRANCH   3  10
ATOM     10  O   UNL     1      76.587  33.246  51.988  1.00  0.00    -0.493 OA
ATOM     11  C   UNL     1      76.874  31.903  52.366  1.00  0.00     0.278 C 
ENDBRANCH   3  10
BRANCH   4  12
ATOM     12  O   UNL     1      76.120  35.809  50.949  1.00  0.00    -0.504 OA
ATOM     13  H   UNL     1      75.944  36.703  50.507  1.00  0.00     0.293 HD
ENDBRANCH   4  12
TORSDOF 3
ENDMDL
MODEL 2
REMARK VINA RESULT:    -4.332      2.719      3.894
REMARK INTER + INTRA:          -5.117
REMARK INTER:                  -4.968
REMARK INTRA:                  -0.149
REMARK UNBOUND:                -0.152
REMARK SMILES CC=Cc1ccc(O)c(OC)c1
REMARK SMILES IDX 4 1 12 2 9 3 7 4 6 5 5 6 3 7 1 8 2 9 10 10 11 11 8 12
REMARK H PARENT 8 13
REMARK Flexibility Score: inf
ROOT
ATOM      1  C   UNL     1      76.552  35.210  51.630  1.00  0.00    -0.022 A 
ATOM      2  C   UNL     1      77.541  34.285  52.000  1.00  0.00     0.058 A 
ATOM      3  C   UNL     1      78.784  34.248  51.335  1.00  0.00     0.161 A 
ATOM      4  C   UNL     1      79.032  35.161  50.294  1.00  0.00     0.157 A 
ATOM      5  C   UNL     1      78.056  36.093  49.934  1.00  0.00     0.051 A 
ATOM      6  C   UNL     1      76.827  36.125  50.595  1.00  0.00     0.012 A 
ENDROOT
BRANCH   1   7
ATOM      7  C   UNL     1      75.266  35.210  52.371  1.00  0.00     0.003 C 
ATOM      8  C   UNL     1      73.324  34.184  53.489  1.00  0.00     0.035 C 
ATOM      9  C   UNL     1      74.609  34.100  52.728  1.00  0.00    -0.030 C 
ENDBRANCH   1   7
BRANCH   3  10
ATOM     10  O   UNL     1      79.785  33.326  51.680  1.00  0.00    -0.493 OA
ATOM     11  C   UNL     1      79.550  32.086  52.340  1.00  0.00     0.278 C 
ENDBRANCH   3  10
BRANCH   4  12
ATOM     12  O   UNL     1      80.247  35.159  49.608  1.00  0.00    -0.504 OA
ATOM     13  H   UNL     1      80.311  35.377  48.621  1.00  0.00     0.293 HD
ENDBRANCH   4  12
TORSDOF 3
ENDMDL
MODEL 3
REMARK VINA RESULT:    -4.075      2.856      4.718
REMARK INTER + INTRA:          -4.823
REMARK INTER:                  -4.648
REMARK INTRA:                  -0.175
REMARK UNBOUND:                -0.152
REMARK SMILES CC=Cc1ccc(O)c(OC)c1
REMARK SMILES IDX 4 1 12 2 9 3 7 4 6 5 5 6 3 7 1 8 2 9 10 10 11 11 8 12
REMARK H PARENT 8 13
REMARK Flexibility Score: inf
ROOT
ATOM      1  C   UNL     1      76.852  33.573  52.063  1.00  0.00    -0.022 A 
ATOM      2  C   UNL     1      77.855  34.499  51.730  1.00  0.00     0.058 A 
ATOM      3  C   UNL     1      79.213  34.122  51.717  1.00  0.00     0.161 A 
ATOM      4  C   UNL     1      79.560  32.796  52.032  1.00  0.00     0.157 A 
ATOM      5  C   UNL     1      78.564  31.869  52.349  1.00  0.00     0.051 A 
ATOM      6  C   UNL     1      77.220  32.248  52.361  1.00  0.00     0.012 A 
ENDROOT
BRANCH   1   7
ATOM      7  C   UNL     1      75.437  34.024  52.051  1.00  0.00     0.003 C 
ATOM      8  C   UNL     1      73.141  34.218  52.924  1.00  0.00     0.035 C 
ATOM      9  C   UNL     1      74.546  33.712  53.000  1.00  0.00    -0.030 C 
ENDBRANCH   1   7
BRANCH   3  10
ATOM     10  O   UNL     1      80.235  35.030  51.397  1.00  0.00    -0.493 OA
ATOM     11  C   UNL     1      80.634  36.121  52.222  1.00  0.00     0.278 C 
ENDBRANCH   3  10
BRANCH   4  12
ATOM     12  O   UNL     1      80.891  32.379  52.032  1.00  0.00    -0.504 OA
ATOM     13  H   UNL     1      81.513  32.557  52.812  1.00  0.00     0.293 HD
ENDBRANCH   4  12
TORSDOF 3
ENDMDL
MODEL 4
REMARK VINA RESULT:    -3.931     16.535     18.214
REMARK INTER + INTRA:          -4.657
REMARK INTER:                  -4.508
REMARK INTRA:                  -0.149
REMARK UNBOUND:                -0.152
REMARK SMILES CC=Cc1ccc(O)c(OC)c1
REMARK SMILES IDX 4 1 12 2 9 3 7 4 6 5 5 6 3 7 1 8 2 9 10 10 11 11 8 12
REMARK H PARENT 8 13
REMARK Flexibility Score: inf
ROOT
ATOM      1  C   UNL     1      87.427  29.019  65.094  1.00  0.00    -0.022 A 
ATOM      2  C   UNL     1      86.111  29.372  64.755  1.00  0.00     0.058 A 
ATOM      3  C   UNL     1      85.481  30.481  65.355  1.00  0.00     0.161 A 
ATOM      4  C   UNL     1      86.192  31.247  66.296  1.00  0.00     0.157 A 
ATOM      5  C   UNL     1      87.507  30.908  66.624  1.00  0.00     0.051 A 
ATOM      6  C   UNL     1      88.125  29.808  66.028  1.00  0.00     0.012 A 
ENDROOT
BRANCH   1   7
ATOM      7  C   UNL     1      88.043  27.846  64.425  1.00  0.00     0.003 C 
ATOM      8  C   UNL     1      88.125  25.527  63.594  1.00  0.00     0.035 C 
ATOM      9  C   UNL     1      87.442  26.657  64.297  1.00  0.00    -0.030 C 
ENDBRANCH   1   7
BRANCH   3  10
ATOM     10  O   UNL     1      84.163  30.849  65.041  1.00  0.00    -0.493 OA
ATOM     11  C   UNL     1      83.152  29.942  64.609  1.00  0.00     0.278 C 
ENDBRANCH   3  10
BRANCH   4  12
ATOM     12  O   UNL     1      85.607  32.353  66.915  1.00  0.00    -0.504 OA
ATOM     13  H   UNL     1      85.392  32.368  67.904  1.00  0.00     0.293 HD
ENDBRANCH   4  12
TORSDOF 3
ENDMDL
MODEL 5
REMARK VINA RESULT:    -3.817      2.272      5.007
REMARK INTER + INTRA:          -4.527
REMARK INTER:                  -4.347
REMARK INTRA:                  -0.180
REMARK UNBOUND:                -0.152
REMARK SMILES CC=Cc1ccc(O)c(OC)c1
REMARK SMILES IDX 4 1 12 2 9 3 7 4 6 5 5 6 3 7 1 8 2 9 10 10 11 11 8 12
REMARK H PARENT 8 13
REMARK Flexibility Score: inf
ROOT
ATOM      1  C   UNL     1      76.843  34.176  51.984  1.00  0.00    -0.022 A 
ATOM      2  C   UNL     1      75.746  33.484  52.523  1.00  0.00     0.058 A 
ATOM      3  C   UNL     1      74.488  34.108  52.653  1.00  0.00     0.161 A 
ATOM      4  C   UNL     1      74.336  35.439  52.224  1.00  0.00     0.157 A 
ATOM      5  C   UNL     1      75.420  36.125  51.673  1.00  0.00     0.051 A 
ATOM      6  C   UNL     1      76.663  35.503  51.548  1.00  0.00     0.012 A 
ENDROOT
BRANCH   1   7
ATOM      7  C   UNL     1      78.141  33.467  51.862  1.00  0.00     0.003 C 
ATOM      8  C   UNL     1      80.587  33.296  51.616  1.00  0.00     0.035 C 
ATOM      9  C   UNL     1      79.319  34.084  51.716  1.00  0.00    -0.030 C 
ENDBRANCH   1   7
BRANCH   3  10
ATOM     10  O   UNL     1      73.379  33.441  53.197  1.00  0.00    -0.493 OA
ATOM     11  C   UNL     1      73.147  33.263  54.592  1.00  0.00     0.278 C 
ENDBRANCH   3  10
BRANCH   4  12
ATOM     12  O   UNL     1      73.109  36.095  52.335  1.00  0.00    -0.504 OA
ATOM     13  H   UNL     1      72.358  35.743  52.917  1.00  0.00     0.293 HD
ENDBRANCH   4  12
TORSDOF 3
ENDMDL
MODEL 6
REMARK VINA RESULT:    -3.565     15.565     17.187
REMARK INTER + INTRA:          -4.238
REMARK INTER:                  -4.069
REMARK INTRA:                  -0.169
REMARK UNBOUND:                -0.152
REMARK SMILES CC=Cc1ccc(O)c(OC)c1
REMARK SMILES IDX 4 1 12 2 9 3 7 4 6 5 5 6 3 7 1 8 2 9 10 10 11 11 8 12
REMARK H PARENT 8 13
REMARK Flexibility Score: inf
ROOT
ATOM      1  C   UNL     1      85.889  28.706  64.752  1.00  0.00    -0.022 A 
ATOM      2  C   UNL     1      86.196  30.032  65.098  1.00  0.00     0.058 A 
ATOM      3  C   UNL     1      85.203  31.033  65.087  1.00  0.00     0.161 A 
ATOM      4  C   UNL     1      83.886  30.688  64.732  1.00  0.00     0.157 A 
ATOM      5  C   UNL     1      83.574  29.367  64.402  1.00  0.00     0.051 A 
ATOM      6  C   UNL     1      84.561  28.380  64.415  1.00  0.00     0.012 A 
ENDROOT
BRANCH   1   7
ATOM      7  C   UNL     1      86.972  27.692  64.791  1.00  0.00     0.003 C 
ATOM      8  C   UNL     1      88.125  25.618  64.127  1.00  0.00     0.035 C 
ATOM      9  C   UNL     1      86.987  26.585  64.040  1.00  0.00    -0.030 C 
ENDBRANCH   1   7
BRANCH   3  10
ATOM     10  O   UNL     1      85.487  32.367  65.419  1.00  0.00    -0.493 OA
ATOM     11  C   UNL     1      86.566  33.123  64.877  1.00  0.00     0.278 C 
ENDBRANCH   3  10
BRANCH   4  12
ATOM     12  O   UNL     1      82.873  31.646  64.706  1.00  0.00    -0.504 OA
ATOM     13  H   UNL     1      81.949  31.466  65.082  1.00  0.00     0.293 HD
ENDBRANCH   4  12
TORSDOF 3
ENDMDL
MODEL 7
REMARK VINA RESULT:    -3.489     15.821     17.238
REMARK INTER + INTRA:          -4.151
REMARK INTER:                  -4.000
REMARK INTRA:                  -0.151
REMARK UNBOUND:                -0.152
REMARK SMILES CC=Cc1ccc(O)c(OC)c1
REMARK SMILES IDX 4 1 12 2 9 3 7 4 6 5 5 6 3 7 1 8 2 9 10 10 11 11 8 12
REMARK H PARENT 8 13
REMARK Flexibility Score: inf
ROOT
ATOM      1  C   UNL     1      85.620  31.014  64.758  1.00  0.00    -0.022 A 
ATOM      2  C   UNL     1      86.352  29.816  64.783  1.00  0.00     0.058 A 
ATOM      3  C   UNL     1      85.697  28.567  64.789  1.00  0.00     0.161 A 
ATOM      4  C   UNL     1      84.292  28.530  64.757  1.00  0.00     0.157 A 
ATOM      5  C   UNL     1      83.561  29.720  64.716  1.00  0.00     0.051 A 
ATOM      6  C   UNL     1      84.214  30.953  64.712  1.00  0.00     0.012 A 
ENDROOT
BRANCH   1   7
ATOM      7  C   UNL     1      86.362  32.300  64.744  1.00  0.00     0.003 C 
ATOM      8  C   UNL     1      88.125  33.877  65.435  1.00  0.00     0.035 C 
ATOM      9  C   UNL     1      87.421  32.560  65.519  1.00  0.00    -0.030 C 
ENDBRANCH   1   7
BRANCH   3  10
ATOM     10  O   UNL     1      86.406  27.356  64.824  1.00  0.00    -0.493 OA
ATOM     11  C   UNL     1      87.671  27.141  64.205  1.00  0.00     0.278 C 
ENDBRANCH   3  10
BRANCH   4  12
ATOM     12  O   UNL     1      83.603  27.316  64.762  1.00  0.00    -0.504 OA
ATOM     13  H   UNL     1      82.600  27.264  64.628  1.00  0.00     0.293 HD
ENDBRANCH   4  12
TORSDOF 3
ENDMDL
MODEL 8
REMARK VINA RESULT:    -3.342     15.997     17.513
REMARK INTER + INTRA:          -3.983
REMARK INTER:                  -3.832
REMARK INTRA:                  -0.151
REMARK UNBOUND:                -0.152
REMARK SMILES CC=Cc1ccc(O)c(OC)c1
REMARK SMILES IDX 4 1 12 2 9 3 7 4 6 5 5 6 3 7 1 8 2 9 10 10 11 11 8 12
REMARK H PARENT 8 13
REMARK Flexibility Score: inf
ROOT
ATOM      1  C   UNL     1      87.231  31.745  65.077  1.00  0.00    -0.022 A 
ATOM      2  C   UNL     1      85.837  31.716  64.911  1.00  0.00     0.058 A 
ATOM      3  C   UNL     1      85.143  30.491  64.834  1.00  0.00     0.161 A 
ATOM      4  C   UNL     1      85.863  29.287  64.936  1.00  0.00     0.157 A 
ATOM      5  C   UNL     1      87.248  29.313  65.116  1.00  0.00     0.051 A 
ATOM      6  C   UNL     1      87.930  30.529  65.191  1.00  0.00     0.012 A 
ENDROOT
BRANCH   1   7
ATOM      7  C   UNL     1      87.909  33.064  65.160  1.00  0.00     0.003 C 
ATOM      8  C   UNL     1      88.124  35.497  64.836  1.00  0.00     0.035 C 
ATOM      9  C   UNL     1      87.384  34.205  64.700  1.00  0.00    -0.030 C 
ENDBRANCH   1   7
BRANCH   3  10
ATOM     10  O   UNL     1      83.751  30.435  64.659  1.00  0.00    -0.493 OA
ATOM     11  C   UNL     1      82.872  31.546  64.803  1.00  0.00     0.278 C 
ENDBRANCH   3  10
BRANCH   4  12
ATOM     12  O   UNL     1      85.216  28.053  64.864  1.00  0.00    -0.504 OA
ATOM     13  H   UNL     1      85.519  27.252  65.405  1.00  0.00     0.293 HD
ENDBRANCH   4  12
TORSDOF 3
ENDMDL
MODEL 9
REMARK VINA RESULT:    -3.116      2.466      4.751
REMARK INTER + INTRA:          -3.723
REMARK INTER:                  -3.661
REMARK INTRA:                  -0.062
REMARK UNBOUND:                -0.152
REMARK SMILES CC=Cc1ccc(O)c(OC)c1
REMARK SMILES IDX 4 1 12 2 9 3 7 4 6 5 5 6 3 7 1 8 2 9 10 10 11 11 8 12
REMARK H PARENT 8 13
REMARK Flexibility Score: inf
ROOT
ATOM      1  C   UNL     1      75.487  35.104  52.139  1.00  0.00    -0.022 A 
ATOM      2  C   UNL     1      75.288  34.006  52.991  1.00  0.00     0.058 A 
ATOM      3  C   UNL     1      73.990  33.617  53.381  1.00  0.00     0.161 A 
ATOM      4  C   UNL     1      72.884  34.338  52.895  1.00  0.00     0.157 A 
ATOM      5  C   UNL     1      73.078  35.421  52.035  1.00  0.00     0.051 A 
ATOM      6  C   UNL     1      74.365  35.802  51.654  1.00  0.00     0.012 A 
ENDROOT
BRANCH   1   7
ATOM      7  C   UNL     1      76.876  35.462  51.755  1.00  0.00     0.003 C 
ATOM      8  C   UNL     1      79.225  35.010  51.166  1.00  0.00     0.035 C 
ATOM      9  C   UNL     1      77.854  34.569  51.568  1.00  0.00    -0.030 C 
ENDBRANCH   1   7
BRANCH   3  10
ATOM     10  O   UNL     1      73.765  32.529  54.239  1.00  0.00    -0.493 OA
ATOM     11  C   UNL     1      73.390  32.644  55.608  1.00  0.00     0.278 C 
ENDBRANCH   3  10
BRANCH   4  12
ATOM     12  O   UNL     1      71.582  33.988  53.255  1.00  0.00    -0.504 OA
ATOM     13  H   UNL     1      71.375  33.156  53.794  1.00  0.00     0.293 HD
ENDBRANCH   4  12
TORSDOF 3
ENDMDL
