MODEL 1
REMARK VINA RESULT:    -4.283      0.000      0.000
REMARK INTER + INTRA:          -5.058
REMARK INTER:                  -5.034
REMARK INTRA:                  -0.024
REMARK UNBOUND:                -0.024
REMARK SMILES [NH3+][C@@H](CO)C(=O)[O-]
REMARK SMILES IDX 3 1 2 2 1 3 5 7 6 8 7 9 4 10
REMARK H PARENT 1 4 1 5 1 6 4 11
REMARK Flexibility Score: inf
ROOT
ATOM      1  C   UNL     1      12.073  15.493  45.683  1.00  0.00     0.227 C 
ENDROOT
BRANCH   1   2
ATOM      2  C   UNL     1      12.818  14.508  46.603  1.00  0.00     0.253 C 
BRANCH   2   3
ATOM      3  N   UNL     1      12.548  13.117  46.218  1.00  0.00    -0.348 N 
ATOM      4  H   UNL     1      11.577  13.036  45.836  1.00  0.00     0.345 HD
ATOM      5  H   UNL     1      13.231  12.793  45.493  1.00  0.00     0.345 HD
ATOM      6  H   UNL     1      12.620  12.495  47.056  1.00  0.00     0.345 HD
ENDBRANCH   2   3
BRANCH   2   7
ATOM      7  C   UNL     1      12.426  14.741  48.037  1.00  0.00     0.102 C 
ATOM      8  O   UNL     1      11.216  14.696  48.385  1.00  0.00    -0.544 OA
ATOM      9  O   UNL     1      13.400  15.027  48.985  1.00  0.00    -0.544 OA
ENDBRANCH   2   7
ENDBRANCH   1   2
BRANCH   1  10
ATOM     10  O   UNL     1      11.453  14.814  44.625  1.00  0.00    -0.390 OA
ATOM     11  H   UNL     1      11.233  13.906  44.959  1.00  0.00     0.210 HD
ENDBRANCH   1  10
TORSDOF 4
ENDMDL
MODEL 2
REMARK VINA RESULT:    -4.244      1.532      1.778
REMARK INTER + INTRA:          -5.013
REMARK INTER:                  -4.782
REMARK INTRA:                  -0.231
REMARK UNBOUND:                -0.024
REMARK SMILES [NH3+][C@@H](CO)C(=O)[O-]
REMARK SMILES IDX 3 1 2 2 1 3 5 7 6 8 7 9 4 10
REMARK H PARENT 1 4 1 5 1 6 4 11
REMARK Flexibility Score: inf
ROOT
ATOM      1  C   UNL     1      13.871  15.388  46.124  1.00  0.00     0.227 C 
ENDROOT
BRANCH   1   2
ATOM      2  C   UNL     1      13.333  14.196  46.937  1.00  0.00     0.253 C 
BRANCH   2   3
ATOM      3  N   UNL     1      12.485  13.329  46.109  1.00  0.00    -0.348 N 
ATOM      4  H   UNL     1      12.094  12.554  46.693  1.00  0.00     0.345 HD
ATOM      5  H   UNL     1      11.697  13.874  45.688  1.00  0.00     0.345 HD
ATOM      6  H   UNL     1      13.054  12.902  45.342  1.00  0.00     0.345 HD
ENDBRANCH   2   3
BRANCH   2   7
ATOM      7  C   UNL     1      12.567  14.691  48.135  1.00  0.00     0.102 C 
ATOM      8  O   UNL     1      11.308  14.730  48.117  1.00  0.00    -0.544 OA
ATOM      9  O   UNL     1      13.249  15.126  49.264  1.00  0.00    -0.544 OA
ENDBRANCH   2   7
ENDBRANCH   1   2
BRANCH   1  10
ATOM     10  O   UNL     1      14.784  16.134  46.881  1.00  0.00    -0.390 OA
ATOM     11  H   UNL     1      14.410  16.196  47.798  1.00  0.00     0.210 HD
ENDBRANCH   1  10
TORSDOF 4
ENDMDL
MODEL 3
REMARK VINA RESULT:    -4.194      1.954      2.824
REMARK INTER + INTRA:          -4.954
REMARK INTER:                  -4.717
REMARK INTRA:                  -0.238
REMARK UNBOUND:                -0.024
REMARK SMILES [NH3+][C@@H](CO)C(=O)[O-]
REMARK SMILES IDX 3 1 2 2 1 3 5 7 6 8 7 9 4 10
REMARK H PARENT 1 4 1 5 1 6 4 11
REMARK Flexibility Score: inf
ROOT
ATOM      1  C   UNL     1      11.588  14.623  47.637  1.00  0.00     0.227 C 
ENDROOT
BRANCH   1   2
ATOM      2  C   UNL     1      12.281  15.315  46.449  1.00  0.00     0.253 C 
BRANCH   2   3
ATOM      3  N   UNL     1      11.656  14.935  45.176  1.00  0.00    -0.348 N 
ATOM      4  H   UNL     1      12.182  14.140  44.746  1.00  0.00     0.345 HD
ATOM      5  H   UNL     1      10.660  14.650  45.323  1.00  0.00     0.345 HD
ATOM      6  H   UNL     1      11.686  15.741  44.510  1.00  0.00     0.345 HD
ENDBRANCH   2   3
BRANCH   2   7
ATOM      7  C   UNL     1      13.748  14.975  46.436  1.00  0.00     0.102 C 
ATOM      8  O   UNL     1      14.125  13.774  46.463  1.00  0.00    -0.544 OA
ATOM      9  O   UNL     1      14.695  15.991  46.413  1.00  0.00    -0.544 OA
ENDBRANCH   2   7
ENDBRANCH   1   2
BRANCH   1  10
ATOM     10  O   UNL     1      12.359  14.744  48.802  1.00  0.00    -0.390 OA
ATOM     11  H   UNL     1      12.460  15.715  48.977  1.00  0.00     0.210 HD
ENDBRANCH   1  10
TORSDOF 4
ENDMDL
MODEL 4
REMARK VINA RESULT:    -4.192      2.022      2.362
REMARK INTER + INTRA:          -4.952
REMARK INTER:                  -4.698
REMARK INTRA:                  -0.254
REMARK UNBOUND:                -0.024
REMARK SMILES [NH3+][C@@H](CO)C(=O)[O-]
REMARK SMILES IDX 3 1 2 2 1 3 5 7 6 8 7 9 4 10
REMARK H PARENT 1 4 1 5 1 6 4 11
REMARK Flexibility Score: inf
ROOT
ATOM      1  C   UNL     1      12.969  12.617  46.497  1.00  0.00     0.227 C 
ENDROOT
BRANCH   1   2
ATOM      2  C   UNL     1      12.271  13.975  46.696  1.00  0.00     0.253 C 
BRANCH   2   3
ATOM      3  N   UNL     1      11.850  14.548  45.411  1.00  0.00    -0.348 N 
ATOM      4  H   UNL     1      12.091  15.566  45.381  1.00  0.00     0.345 HD
ATOM      5  H   UNL     1      12.322  14.060  44.615  1.00  0.00     0.345 HD
ATOM      6  H   UNL     1      10.814  14.456  45.303  1.00  0.00     0.345 HD
ENDBRANCH   2   3
BRANCH   2   7
ATOM      7  C   UNL     1      13.186  14.926  47.421  1.00  0.00     0.102 C 
ATOM      8  O   UNL     1      13.142  15.021  48.676  1.00  0.00    -0.544 OA
ATOM      9  O   UNL     1      14.073  15.718  46.704  1.00  0.00    -0.544 OA
ENDBRANCH   2   7
ENDBRANCH   1   2
BRANCH   1  10
ATOM     10  O   UNL     1      14.310  12.796  46.130  1.00  0.00    -0.390 OA
ATOM     11  H   UNL     1      14.327  12.866  45.140  1.00  0.00     0.210 HD
ENDBRANCH   1  10
TORSDOF 4
ENDMDL
MODEL 5
REMARK VINA RESULT:    -4.169      2.141      2.368
REMARK INTER + INTRA:          -4.925
REMARK INTER:                  -4.719
REMARK INTRA:                  -0.206
REMARK UNBOUND:                -0.024
REMARK SMILES [NH3+][C@@H](CO)C(=O)[O-]
REMARK SMILES IDX 3 1 2 2 1 3 5 7 6 8 7 9 4 10
REMARK H PARENT 1 4 1 5 1 6 4 11
REMARK Flexibility Score: inf
ROOT
ATOM      1  C   UNL     1      11.540  15.504  46.023  1.00  0.00     0.227 C 
ENDROOT
BRANCH   1   2
ATOM      2  C   UNL     1      11.979  14.457  47.062  1.00  0.00     0.253 C 
BRANCH   2   3
ATOM      3  N   UNL     1      12.082  15.049  48.401  1.00  0.00    -0.348 N 
ATOM      4  H   UNL     1      12.284  14.302  49.105  1.00  0.00     0.345 HD
ATOM      5  H   UNL     1      12.844  15.766  48.432  1.00  0.00     0.345 HD
ATOM      6  H   UNL     1      11.176  15.502  48.661  1.00  0.00     0.345 HD
ENDBRANCH   2   3
BRANCH   2   7
ATOM      7  C   UNL     1      13.293  13.844  46.656  1.00  0.00     0.102 C 
ATOM      8  O   UNL     1      14.265  14.576  46.329  1.00  0.00    -0.544 OA
ATOM      9  O   UNL     1      13.434  12.462  46.622  1.00  0.00    -0.544 OA
ENDBRANCH   2   7
ENDBRANCH   1   2
BRANCH   1  10
ATOM     10  O   UNL     1      11.557  14.961  44.731  1.00  0.00    -0.390 OA
ATOM     11  H   UNL     1      10.614  14.768  44.490  1.00  0.00     0.210 HD
ENDBRANCH   1  10
TORSDOF 4
ENDMDL
MODEL 6
REMARK VINA RESULT:    -4.156      2.271      3.085
REMARK INTER + INTRA:          -4.909
REMARK INTER:                  -4.904
REMARK INTRA:                  -0.005
REMARK UNBOUND:                -0.024
REMARK SMILES [NH3+][C@@H](CO)C(=O)[O-]
REMARK SMILES IDX 3 1 2 2 1 3 5 7 6 8 7 9 4 10
REMARK H PARENT 1 4 1 5 1 6 4 11
REMARK Flexibility Score: inf
ROOT
ATOM      1  C   UNL     1      14.756  15.370  45.975  1.00  0.00     0.227 C 
ENDROOT
BRANCH   1   2
ATOM      2  C   UNL     1      13.429  15.603  46.720  1.00  0.00     0.253 C 
BRANCH   2   3
ATOM      3  N   UNL     1      13.566  15.307  48.152  1.00  0.00    -0.348 N 
ATOM      4  H   UNL     1      12.960  15.955  48.707  1.00  0.00     0.345 HD
ATOM      5  H   UNL     1      13.289  14.319  48.355  1.00  0.00     0.345 HD
ATOM      6  H   UNL     1      14.557  15.454  48.453  1.00  0.00     0.345 HD
ENDBRANCH   2   3
BRANCH   2   7
ATOM      7  C   UNL     1      12.339  14.761  46.112  1.00  0.00     0.102 C 
ATOM      8  O   UNL     1      11.520  15.267  45.299  1.00  0.00    -0.544 OA
ATOM      9  O   UNL     1      12.220  13.422  46.459  1.00  0.00    -0.544 OA
ENDBRANCH   2   7
ENDBRANCH   1   2
BRANCH   1  10
ATOM     10  O   UNL     1      15.782  16.147  46.531  1.00  0.00    -0.390 OA
ATOM     11  H   UNL     1      15.657  16.122  47.515  1.00  0.00     0.210 HD
ENDBRANCH   1  10
TORSDOF 4
ENDMDL
MODEL 7
REMARK VINA RESULT:    -4.145      1.774      3.044
REMARK INTER + INTRA:          -4.896
REMARK INTER:                  -4.508
REMARK INTRA:                  -0.388
REMARK UNBOUND:                -0.024
REMARK SMILES [NH3+][C@@H](CO)C(=O)[O-]
REMARK SMILES IDX 3 1 2 2 1 3 5 7 6 8 7 9 4 10
REMARK H PARENT 1 4 1 5 1 6 4 11
REMARK Flexibility Score: inf
ROOT
ATOM      1  C   UNL     1      12.908  14.939  48.748  1.00  0.00     0.227 C 
ENDROOT
BRANCH   1   2
ATOM      2  C   UNL     1      13.571  14.729  47.375  1.00  0.00     0.253 C 
BRANCH   2   3
ATOM      3  N   UNL     1      14.124  15.986  46.856  1.00  0.00    -0.348 N 
ATOM      4  H   UNL     1      14.750  16.421  47.573  1.00  0.00     0.345 HD
ATOM      5  H   UNL     1      14.670  15.817  45.979  1.00  0.00     0.345 HD
ATOM      6  H   UNL     1      13.350  16.659  46.651  1.00  0.00     0.345 HD
ENDBRANCH   2   3
BRANCH   2   7
ATOM      7  C   UNL     1      12.576  14.152  46.403  1.00  0.00     0.102 C 
ATOM      8  O   UNL     1      12.388  12.908  46.345  1.00  0.00    -0.544 OA
ATOM      9  O   UNL     1      11.871  14.992  45.550  1.00  0.00    -0.544 OA
ENDBRANCH   2   7
ENDBRANCH   1   2
BRANCH   1  10
ATOM     10  O   UNL     1      11.515  14.816  48.652  1.00  0.00    -0.390 OA
ATOM     11  H   UNL     1      11.133  15.291  49.436  1.00  0.00     0.210 HD
ENDBRANCH   1  10
TORSDOF 4
ENDMDL
MODEL 8
REMARK VINA RESULT:    -4.004      1.921      2.632
REMARK INTER + INTRA:          -4.731
REMARK INTER:                  -4.477
REMARK INTRA:                  -0.254
REMARK UNBOUND:                -0.024
REMARK SMILES [NH3+][C@@H](CO)C(=O)[O-]
REMARK SMILES IDX 3 1 2 2 1 3 5 7 6 8 7 9 4 10
REMARK H PARENT 1 4 1 5 1 6 4 11
REMARK Flexibility Score: inf
ROOT
ATOM      1  C   UNL     1      13.704  13.292  46.642  1.00  0.00     0.227 C 
ENDROOT
BRANCH   1   2
ATOM      2  C   UNL     1      13.429  14.770  46.309  1.00  0.00     0.253 C 
BRANCH   2   3
ATOM      3  N   UNL     1      14.299  15.659  47.088  1.00  0.00    -0.348 N 
ATOM      4  H   UNL     1      14.198  15.450  48.108  1.00  0.00     0.345 HD
ATOM      5  H   UNL     1      15.301  15.536  46.809  1.00  0.00     0.345 HD
ATOM      6  H   UNL     1      14.022  16.656  46.932  1.00  0.00     0.345 HD
ENDBRANCH   2   3
BRANCH   2   7
ATOM      7  C   UNL     1      11.982  15.097  46.561  1.00  0.00     0.102 C 
ATOM      8  O   UNL     1      11.435  14.778  47.651  1.00  0.00    -0.544 OA
ATOM      9  O   UNL     1      11.234  15.740  45.583  1.00  0.00    -0.544 OA
ENDBRANCH   2   7
ENDBRANCH   1   2
BRANCH   1  10
ATOM     10  O   UNL     1      12.644  12.480  46.213  1.00  0.00    -0.390 OA
ATOM     11  H   UNL     1      12.197  12.140  47.032  1.00  0.00     0.210 HD
ENDBRANCH   1  10
TORSDOF 4
ENDMDL
MODEL 9
REMARK VINA RESULT:    -3.985      1.346      2.783
REMARK INTER + INTRA:          -4.708
REMARK INTER:                  -4.491
REMARK INTRA:                  -0.217
REMARK UNBOUND:                -0.024
REMARK SMILES [NH3+][C@@H](CO)C(=O)[O-]
REMARK SMILES IDX 3 1 2 2 1 3 5 7 6 8 7 9 4 10
REMARK H PARENT 1 4 1 5 1 6 4 11
REMARK Flexibility Score: inf
ROOT
ATOM      1  C   UNL     1      12.270  14.292  48.393  1.00  0.00     0.227 C 
ENDROOT
BRANCH   1   2
ATOM      2  C   UNL     1      12.280  13.990  46.884  1.00  0.00     0.253 C 
BRANCH   2   3
ATOM      3  N   UNL     1      13.249  12.935  46.561  1.00  0.00    -0.348 N 
ATOM      4  H   UNL     1      13.378  12.878  45.524  1.00  0.00     0.345 HD
ATOM      5  H   UNL     1      14.172  13.128  47.013  1.00  0.00     0.345 HD
ATOM      6  H   UNL     1      12.892  12.010  46.894  1.00  0.00     0.345 HD
ENDBRANCH   2   3
BRANCH   2   7
ATOM      7  C   UNL     1      12.588  15.242  46.107  1.00  0.00     0.102 C 
ATOM      8  O   UNL     1      11.698  15.795  45.408  1.00  0.00    -0.544 OA
ATOM      9  O   UNL     1      13.866  15.785  46.144  1.00  0.00    -0.544 OA
ENDBRANCH   2   7
ENDBRANCH   1   2
BRANCH   1  10
ATOM     10  O   UNL     1      13.400  15.038  48.759  1.00  0.00    -0.390 OA
ATOM     11  H   UNL     1      13.593  14.815  49.706  1.00  0.00     0.210 HD
ENDBRANCH   1  10
TORSDOF 4
ENDMDL
