MODEL 1
REMARK VINA RESULT:    -4.650      0.000      0.000
REMARK INTER + INTRA:         -13.564
REMARK INTER:                 -10.086
REMARK INTRA:                  -3.478
REMARK UNBOUND:                -3.478
REMARK SMILES CCCCCCCCCCCCCCCCCCCCCC(=O)[O-]
REMARK SMILES IDX 12 1 11 2 10 3 9 4 8 5 7 6 6 7 5 8 4 9 3 10 2 11 1 12 13 13
REMARK SMILES IDX 14 14 15 15 16 16 17 17 18 18 19 19 20 20 21 21 22 22 23 23
REMARK SMILES IDX 24 24
REMARK H PARENT
REMARK Flexibility Score: inf
ROOT
ATOM      1  C   UNL     1      15.082  32.306  58.151  1.00  0.00     0.000 C 
ENDROOT
BRANCH   1   2
ATOM      2  C   UNL     1      16.361  33.040  57.732  1.00  0.00     0.000 C 
BRANCH   2   3
ATOM      3  C   UNL     1      17.609  32.251  58.149  1.00  0.00     0.000 C 
BRANCH   3   4
ATOM      4  C   UNL     1      18.501  31.947  56.939  1.00  0.00    -0.000 C 
BRANCH   4   5
ATOM      5  C   UNL     1      17.737  32.170  55.625  1.00  0.00    -0.000 C 
BRANCH   5   6
ATOM      6  C   UNL     1      17.490  30.862  54.857  1.00  0.00    -0.000 C 
BRANCH   6   7
ATOM      7  C   UNL     1      16.175  30.882  54.060  1.00  0.00    -0.000 C 
BRANCH   7   8
ATOM      8  C   UNL     1      14.997  30.295  54.866  1.00  0.00    -0.000 C 
BRANCH   8   9
ATOM      9  C   UNL     1      13.783  31.235  54.961  1.00  0.00    -0.000 C 
BRANCH   9  10
ATOM     10  C   UNL     1      13.941  32.505  54.109  1.00  0.00    -0.000 C 
BRANCH  10  11
ATOM     11  C   UNL     1      13.928  33.788  54.955  1.00  0.00    -0.003 C 
ATOM     12  C   UNL     1      15.135  34.687  54.688  1.00  0.00     0.004 C 
ENDBRANCH  10  11
ENDBRANCH   9  10
ENDBRANCH   8   9
ENDBRANCH   7   8
ENDBRANCH   6   7
ENDBRANCH   5   6
ENDBRANCH   4   5
ENDBRANCH   3   4
ENDBRANCH   2   3
ENDBRANCH   1   2
BRANCH   1  13
ATOM     13  C   UNL     1      15.382  30.849  58.529  1.00  0.00     0.000 C 
BRANCH  13  14
ATOM     14  C   UNL     1      14.144  29.939  58.421  1.00  0.00     0.000 C 
BRANCH  14  15
ATOM     15  C   UNL     1      12.792  30.674  58.498  1.00  0.00     0.000 C 
BRANCH  15  16
ATOM     16  C   UNL     1      11.711  29.973  59.345  1.00  0.00     0.000 C 
BRANCH  16  17
ATOM     17  C   UNL     1      12.240  28.917  60.333  1.00  0.00     0.000 C 
BRANCH  17  18
ATOM     18  C   UNL     1      12.082  29.341  61.804  1.00  0.00     0.000 C 
BRANCH  18  19
ATOM     19  C   UNL     1      13.327  30.078  62.341  1.00  0.00     0.000 C 
BRANCH  19  20
ATOM     20  C   UNL     1      14.651  29.347  62.058  1.00  0.00     0.006 C 
BRANCH  20  21
ATOM     21  C   UNL     1      15.554  29.247  63.293  1.00  0.00     0.053 C 
BRANCH  21  22
ATOM     22  C   UNL     1      15.624  27.832  63.775  1.00  0.00     0.041 C 
ATOM     23  O   UNL     1      14.586  27.252  64.190  1.00  0.00    -0.550 OA
ATOM     24  O   UNL     1      16.844  27.171  63.814  1.00  0.00    -0.550 OA
ENDBRANCH  21  22
ENDBRANCH  20  21
ENDBRANCH  19  20
ENDBRANCH  18  19
ENDBRANCH  17  18
ENDBRANCH  16  17
ENDBRANCH  15  16
ENDBRANCH  14  15
ENDBRANCH  13  14
ENDBRANCH   1  13
TORSDOF 20
ENDMDL
MODEL 2
REMARK VINA RESULT:    -4.647      1.159      3.129
REMARK INTER + INTRA:         -13.558
REMARK INTER:                 -10.941
REMARK INTRA:                  -2.617
REMARK UNBOUND:                -3.478
REMARK SMILES CCCCCCCCCCCCCCCCCCCCCC(=O)[O-]
REMARK SMILES IDX 12 1 11 2 10 3 9 4 8 5 7 6 6 7 5 8 4 9 3 10 2 11 1 12 13 13
REMARK SMILES IDX 14 14 15 15 16 16 17 17 18 18 19 19 20 20 21 21 22 22 23 23
REMARK SMILES IDX 24 24
REMARK H PARENT
REMARK Flexibility Score: inf
ROOT
ATOM      1  C   UNL     1      12.556  30.539  58.685  1.00  0.00     0.000 C 
ENDROOT
BRANCH   1   2
ATOM      2  C   UNL     1      13.384  30.843  57.431  1.00  0.00     0.000 C 
BRANCH   2   3
ATOM      3  C   UNL     1      14.726  30.101  57.466  1.00  0.00     0.000 C 
BRANCH   3   4
ATOM      4  C   UNL     1      15.405  30.123  56.090  1.00  0.00    -0.000 C 
BRANCH   4   5
ATOM      5  C   UNL     1      14.377  30.373  54.976  1.00  0.00    -0.000 C 
BRANCH   5   6
ATOM      6  C   UNL     1      14.830  31.459  53.988  1.00  0.00    -0.000 C 
BRANCH   6   7
ATOM      7  C   UNL     1      14.339  32.862  54.382  1.00  0.00    -0.000 C 
BRANCH   7   8
ATOM      8  C   UNL     1      15.419  33.666  55.135  1.00  0.00    -0.000 C 
BRANCH   8   9
ATOM      9  C   UNL     1      15.041  34.001  56.589  1.00  0.00    -0.000 C 
BRANCH   9  10
ATOM     10  C   UNL     1      16.228  33.878  57.559  1.00  0.00    -0.000 C 
BRANCH  10  11
ATOM     11  C   UNL     1      17.317  32.928  57.039  1.00  0.00    -0.003 C 
ATOM     12  C   UNL     1      17.892  32.029  58.133  1.00  0.00     0.004 C 
ENDBRANCH  10  11
ENDBRANCH   9  10
ENDBRANCH   8   9
ENDBRANCH   7   8
ENDBRANCH   6   7
ENDBRANCH   5   6
ENDBRANCH   4   5
ENDBRANCH   3   4
ENDBRANCH   2   3
ENDBRANCH   1   2
BRANCH   1  13
ATOM     13  C   UNL     1      11.055  30.507  58.360  1.00  0.00     0.000 C 
BRANCH  13  14
ATOM     14  C   UNL     1      10.208  29.954  59.520  1.00  0.00     0.000 C 
BRANCH  14  15
ATOM     15  C   UNL     1      10.899  28.869  60.369  1.00  0.00     0.000 C 
BRANCH  15  16
ATOM     16  C   UNL     1      11.541  29.368  61.678  1.00  0.00     0.000 C 
BRANCH  16  17
ATOM     17  C   UNL     1      12.978  28.877  61.928  1.00  0.00     0.000 C 
BRANCH  17  18
ATOM     18  C   UNL     1      13.987  30.029  62.081  1.00  0.00     0.000 C 
BRANCH  18  19
ATOM     19  C   UNL     1      15.270  29.800  61.254  1.00  0.00     0.000 C 
BRANCH  19  20
ATOM     20  C   UNL     1      16.401  29.114  62.039  1.00  0.00     0.006 C 
BRANCH  20  21
ATOM     21  C   UNL     1      16.134  29.056  63.547  1.00  0.00     0.053 C 
BRANCH  21  22
ATOM     22  C   UNL     1      15.993  27.637  63.999  1.00  0.00     0.041 C 
ATOM     23  O   UNL     1      14.858  27.171  64.281  1.00  0.00    -0.550 OA
ATOM     24  O   UNL     1      17.121  26.843  64.156  1.00  0.00    -0.550 OA
ENDBRANCH  21  22
ENDBRANCH  20  21
ENDBRANCH  19  20
ENDBRANCH  18  19
ENDBRANCH  17  18
ENDBRANCH  16  17
ENDBRANCH  15  16
ENDBRANCH  14  15
ENDBRANCH  13  14
ENDBRANCH   1  13
TORSDOF 20
ENDMDL
MODEL 3
REMARK VINA RESULT:    -4.635      2.843      4.406
REMARK INTER + INTRA:         -13.533
REMARK INTER:                 -10.325
REMARK INTRA:                  -3.208
REMARK UNBOUND:                -3.478
REMARK SMILES CCCCCCCCCCCCCCCCCCCCCC(=O)[O-]
REMARK SMILES IDX 12 1 11 2 10 3 9 4 8 5 7 6 6 7 5 8 4 9 3 10 2 11 1 12 13 13
REMARK SMILES IDX 14 14 15 15 16 16 17 17 18 18 19 19 20 20 21 21 22 22 23 23
REMARK SMILES IDX 24 24
REMARK H PARENT
REMARK Flexibility Score: inf
ROOT
ATOM      1  C   UNL     1      14.605  29.928  58.984  1.00  0.00     0.000 C 
ENDROOT
BRANCH   1   2
ATOM      2  C   UNL     1      14.222  30.843  57.814  1.00  0.00     0.000 C 
BRANCH   2   3
ATOM      3  C   UNL     1      14.142  32.307  58.265  1.00  0.00     0.000 C 
BRANCH   3   4
ATOM      4  C   UNL     1      14.817  33.235  57.248  1.00  0.00    -0.000 C 
BRANCH   4   5
ATOM      5  C   UNL     1      16.213  33.654  57.731  1.00  0.00    -0.000 C 
BRANCH   5   6
ATOM      6  C   UNL     1      17.313  32.688  57.265  1.00  0.00    -0.000 C 
BRANCH   6   7
ATOM      7  C   UNL     1      17.209  32.349  55.768  1.00  0.00    -0.000 C 
BRANCH   7   8
ATOM      8  C   UNL     1      16.946  30.847  55.529  1.00  0.00    -0.000 C 
BRANCH   8   9
ATOM      9  C   UNL     1      16.042  30.561  54.318  1.00  0.00    -0.000 C 
BRANCH   9  10
ATOM     10  C   UNL     1      15.164  31.763  53.930  1.00  0.00    -0.000 C 
BRANCH  10  11
ATOM     11  C   UNL     1      13.673  31.516  54.205  1.00  0.00    -0.003 C 
ATOM     12  C   UNL     1      12.824  32.777  54.048  1.00  0.00     0.004 C 
ENDBRANCH  10  11
ENDBRANCH   9  10
ENDBRANCH   8   9
ENDBRANCH   7   8
ENDBRANCH   6   7
ENDBRANCH   5   6
ENDBRANCH   4   5
ENDBRANCH   3   4
ENDBRANCH   2   3
ENDBRANCH   1   2
BRANCH   1  13
ATOM     13  C   UNL     1      15.796  30.502  59.764  1.00  0.00     0.000 C 
BRANCH  13  14
ATOM     14  C   UNL     1      16.316  29.539  60.847  1.00  0.00     0.000 C 
BRANCH  14  15
ATOM     15  C   UNL     1      15.672  29.717  62.237  1.00  0.00     0.000 C 
BRANCH  15  16
ATOM     16  C   UNL     1      14.873  28.503  62.750  1.00  0.00     0.000 C 
BRANCH  16  17
ATOM     17  C   UNL     1      13.417  28.426  62.256  1.00  0.00     0.000 C 
BRANCH  17  18
ATOM     18  C   UNL     1      12.755  29.809  62.124  1.00  0.00     0.000 C 
BRANCH  18  19
ATOM     19  C   UNL     1      11.301  29.718  61.613  1.00  0.00     0.000 C 
BRANCH  19  20
ATOM     20  C   UNL     1      11.165  29.023  60.247  1.00  0.00     0.006 C 
BRANCH  20  21
ATOM     21  C   UNL     1      10.912  30.005  59.098  1.00  0.00     0.053 C 
BRANCH  21  22
ATOM     22  C   UNL     1       9.454  30.056  58.765  1.00  0.00     0.041 C 
ATOM     23  O   UNL     1       9.073  29.936  57.571  1.00  0.00    -0.550 OA
ATOM     24  O   UNL     1       8.521  30.286  59.766  1.00  0.00    -0.550 OA
ENDBRANCH  21  22
ENDBRANCH  20  21
ENDBRANCH  19  20
ENDBRANCH  18  19
ENDBRANCH  17  18
ENDBRANCH  16  17
ENDBRANCH  15  16
ENDBRANCH  14  15
ENDBRANCH  13  14
ENDBRANCH   1  13
TORSDOF 20
ENDMDL
MODEL 4
REMARK VINA RESULT:    -4.603      2.966      4.730
REMARK INTER + INTRA:         -13.462
REMARK INTER:                 -11.123
REMARK INTRA:                  -2.340
REMARK UNBOUND:                -3.478
REMARK SMILES CCCCCCCCCCCCCCCCCCCCCC(=O)[O-]
REMARK SMILES IDX 12 1 11 2 10 3 9 4 8 5 7 6 6 7 5 8 4 9 3 10 2 11 1 12 13 13
REMARK SMILES IDX 14 14 15 15 16 16 17 17 18 18 19 19 20 20 21 21 22 22 23 23
REMARK SMILES IDX 24 24
REMARK H PARENT
REMARK Flexibility Score: inf
ROOT
ATOM      1  C   UNL     1      14.510  31.175  59.425  1.00  0.00     0.000 C 
ENDROOT
BRANCH   1   2
ATOM      2  C   UNL     1      14.144  31.433  57.958  1.00  0.00     0.000 C 
BRANCH   2   3
ATOM      3  C   UNL     1      14.497  30.223  57.083  1.00  0.00     0.000 C 
BRANCH   3   4
ATOM      4  C   UNL     1      14.658  30.632  55.614  1.00  0.00    -0.000 C 
BRANCH   4   5
ATOM      5  C   UNL     1      14.008  31.999  55.352  1.00  0.00    -0.000 C 
BRANCH   5   6
ATOM      6  C   UNL     1      15.025  33.056  54.891  1.00  0.00    -0.000 C 
BRANCH   6   7
ATOM      7  C   UNL     1      16.475  32.673  55.232  1.00  0.00    -0.000 C 
BRANCH   7   8
ATOM      8  C   UNL     1      17.097  33.623  56.277  1.00  0.00    -0.000 C 
BRANCH   8   9
ATOM      9  C   UNL     1      16.212  34.835  56.617  1.00  0.00    -0.000 C 
BRANCH   9  10
ATOM     10  C   UNL     1      16.811  36.167  56.138  1.00  0.00    -0.000 C 
BRANCH  10  11
ATOM     11  C   UNL     1      16.689  37.280  57.191  1.00  0.00    -0.003 C 
ATOM     12  C   UNL     1      17.667  38.430  56.954  1.00  0.00     0.004 C 
ENDBRANCH  10  11
ENDBRANCH   9  10
ENDBRANCH   8   9
ENDBRANCH   7   8
ENDBRANCH   6   7
ENDBRANCH   5   6
ENDBRANCH   4   5
ENDBRANCH   3   4
ENDBRANCH   2   3
ENDBRANCH   1   2
BRANCH   1  13
ATOM     13  C   UNL     1      15.385  29.920  59.561  1.00  0.00     0.000 C 
BRANCH  13  14
ATOM     14  C   UNL     1      16.069  29.820  60.937  1.00  0.00     0.000 C 
BRANCH  14  15
ATOM     15  C   UNL     1      15.106  29.807  62.141  1.00  0.00     0.000 C 
BRANCH  15  16
ATOM     16  C   UNL     1      14.731  28.408  62.668  1.00  0.00     0.000 C 
BRANCH  16  17
ATOM     17  C   UNL     1      13.276  27.981  62.405  1.00  0.00     0.000 C 
BRANCH  17  18
ATOM     18  C   UNL     1      12.446  29.077  61.714  1.00  0.00     0.000 C 
BRANCH  18  19
ATOM     19  C   UNL     1      11.896  28.623  60.345  1.00  0.00     0.000 C 
BRANCH  19  20
ATOM     20  C   UNL     1      10.851  29.580  59.747  1.00  0.00     0.006 C 
BRANCH  20  21
ATOM     21  C   UNL     1       9.429  29.010  59.781  1.00  0.00     0.053 C 
BRANCH  21  22
ATOM     22  C   UNL     1       8.631  29.660  60.868  1.00  0.00     0.041 C 
ATOM     23  O   UNL     1       8.877  29.399  62.076  1.00  0.00    -0.550 OA
ATOM     24  O   UNL     1       7.586  30.514  60.547  1.00  0.00    -0.550 OA
ENDBRANCH  21  22
ENDBRANCH  20  21
ENDBRANCH  19  20
ENDBRANCH  18  19
ENDBRANCH  17  18
ENDBRANCH  16  17
ENDBRANCH  15  16
ENDBRANCH  14  15
ENDBRANCH  13  14
ENDBRANCH   1  13
TORSDOF 20
ENDMDL
MODEL 5
REMARK VINA RESULT:    -4.596      2.156      4.480
REMARK INTER + INTRA:         -13.449
REMARK INTER:                 -10.163
REMARK INTRA:                  -3.286
REMARK UNBOUND:                -3.478
REMARK SMILES CCCCCCCCCCCCCCCCCCCCCC(=O)[O-]
REMARK SMILES IDX 12 1 11 2 10 3 9 4 8 5 7 6 6 7 5 8 4 9 3 10 2 11 1 12 13 13
REMARK SMILES IDX 14 14 15 15 16 16 17 17 18 18 19 19 20 20 21 21 22 22 23 23
REMARK SMILES IDX 24 24
REMARK H PARENT
REMARK Flexibility Score: inf
ROOT
ATOM      1  C   UNL     1      14.973  30.100  56.856  1.00  0.00     0.000 C 
ENDROOT
BRANCH   1   2
ATOM      2  C   UNL     1      14.557  30.471  55.427  1.00  0.00     0.000 C 
BRANCH   2   3
ATOM      3  C   UNL     1      13.212  31.209  55.421  1.00  0.00     0.000 C 
BRANCH   3   4
ATOM      4  C   UNL     1      13.091  32.125  54.197  1.00  0.00    -0.000 C 
BRANCH   4   5
ATOM      5  C   UNL     1      14.288  33.084  54.110  1.00  0.00    -0.000 C 
BRANCH   5   6
ATOM      6  C   UNL     1      14.000  34.447  54.758  1.00  0.00    -0.000 C 
BRANCH   6   7
ATOM      7  C   UNL     1      15.079  34.861  55.774  1.00  0.00    -0.000 C 
BRANCH   7   8
ATOM      8  C   UNL     1      15.137  33.903  56.983  1.00  0.00    -0.000 C 
BRANCH   8   9
ATOM      9  C   UNL     1      16.564  33.474  57.366  1.00  0.00    -0.000 C 
BRANCH   9  10
ATOM     10  C   UNL     1      17.333  32.843  56.193  1.00  0.00    -0.000 C 
BRANCH  10  11
ATOM     11  C   UNL     1      18.600  32.104  56.651  1.00  0.00    -0.003 C 
ATOM     12  C   UNL     1      18.651  31.897  58.164  1.00  0.00     0.004 C 
ENDBRANCH  10  11
ENDBRANCH   9  10
ENDBRANCH   8   9
ENDBRANCH   7   8
ENDBRANCH   6   7
ENDBRANCH   5   6
ENDBRANCH   4   5
ENDBRANCH   3   4
ENDBRANCH   2   3
ENDBRANCH   1   2
BRANCH   1  13
ATOM     13  C   UNL     1      13.916  30.557  57.873  1.00  0.00     0.000 C 
BRANCH  13  14
ATOM     14  C   UNL     1      14.526  30.929  59.237  1.00  0.00     0.000 C 
BRANCH  14  15
ATOM     15  C   UNL     1      15.780  30.123  59.628  1.00  0.00     0.000 C 
BRANCH  15  16
ATOM     16  C   UNL     1      16.217  30.261  61.100  1.00  0.00     0.000 C 
BRANCH  16  17
ATOM     17  C   UNL     1      16.437  28.930  61.842  1.00  0.00     0.000 C 
BRANCH  17  18
ATOM     18  C   UNL     1      15.244  28.536  62.732  1.00  0.00     0.000 C 
BRANCH  18  19
ATOM     19  C   UNL     1      13.934  29.227  62.298  1.00  0.00     0.000 C 
BRANCH  19  20
ATOM     20  C   UNL     1      12.793  28.247  61.974  1.00  0.00     0.006 C 
BRANCH  20  21
ATOM     21  C   UNL     1      12.220  28.439  60.566  1.00  0.00     0.053 C 
BRANCH  21  22
ATOM     22  C   UNL     1      11.069  29.395  60.596  1.00  0.00     0.041 C 
ATOM     23  O   UNL     1      10.648  29.913  59.528  1.00  0.00    -0.550 OA
ATOM     24  O   UNL     1      10.493  29.751  61.808  1.00  0.00    -0.550 OA
ENDBRANCH  21  22
ENDBRANCH  20  21
ENDBRANCH  19  20
ENDBRANCH  18  19
ENDBRANCH  17  18
ENDBRANCH  16  17
ENDBRANCH  15  16
ENDBRANCH  14  15
ENDBRANCH  13  14
ENDBRANCH   1  13
TORSDOF 20
ENDMDL
MODEL 6
REMARK VINA RESULT:    -4.523      2.459      4.037
REMARK INTER + INTRA:         -13.289
REMARK INTER:                  -9.546
REMARK INTRA:                  -3.743
REMARK UNBOUND:                -3.478
REMARK SMILES CCCCCCCCCCCCCCCCCCCCCC(=O)[O-]
REMARK SMILES IDX 12 1 11 2 10 3 9 4 8 5 7 6 6 7 5 8 4 9 3 10 2 11 1 12 13 13
REMARK SMILES IDX 14 14 15 15 16 16 17 17 18 18 19 19 20 20 21 21 22 22 23 23
REMARK SMILES IDX 24 24
REMARK H PARENT
REMARK Flexibility Score: inf
ROOT
ATOM      1  C   UNL     1      13.422  31.286  57.900  1.00  0.00     0.000 C 
ENDROOT
BRANCH   1   2
ATOM      2  C   UNL     1      14.162  30.469  56.834  1.00  0.00     0.000 C 
BRANCH   2   3
ATOM      3  C   UNL     1      13.736  30.895  55.423  1.00  0.00     0.000 C 
BRANCH   3   4
ATOM      4  C   UNL     1      14.945  30.970  54.480  1.00  0.00    -0.000 C 
BRANCH   4   5
ATOM      5  C   UNL     1      16.203  30.408  55.158  1.00  0.00    -0.000 C 
BRANCH   5   6
ATOM      6  C   UNL     1      17.496  31.043  54.622  1.00  0.00    -0.000 C 
BRANCH   6   7
ATOM      7  C   UNL     1      18.128  32.032  55.617  1.00  0.00    -0.000 C 
BRANCH   7   8
ATOM      8  C   UNL     1      17.569  31.857  57.045  1.00  0.00    -0.000 C 
BRANCH   8   9
ATOM      9  C   UNL     1      16.888  33.120  57.601  1.00  0.00    -0.000 C 
BRANCH   9  10
ATOM     10  C   UNL     1      16.465  34.107  56.500  1.00  0.00    -0.000 C 
BRANCH  10  11
ATOM     11  C   UNL     1      14.940  34.255  56.397  1.00  0.00    -0.003 C 
ATOM     12  C   UNL     1      14.472  34.596  54.982  1.00  0.00     0.004 C 
ENDBRANCH  10  11
ENDBRANCH   9  10
ENDBRANCH   8   9
ENDBRANCH   7   8
ENDBRANCH   6   7
ENDBRANCH   5   6
ENDBRANCH   4   5
ENDBRANCH   3   4
ENDBRANCH   2   3
ENDBRANCH   1   2
BRANCH   1  13
ATOM     13  C   UNL     1      14.152  31.219  59.249  1.00  0.00     0.000 C 
BRANCH  13  14
ATOM     14  C   UNL     1      15.247  30.137  59.280  1.00  0.00     0.000 C 
BRANCH  14  15
ATOM     15  C   UNL     1      16.296  30.307  60.395  1.00  0.00     0.000 C 
BRANCH  15  16
ATOM     16  C   UNL     1      16.351  29.162  61.427  1.00  0.00     0.000 C 
BRANCH  16  17
ATOM     17  C   UNL     1      15.428  29.339  62.646  1.00  0.00     0.000 C 
BRANCH  17  18
ATOM     18  C   UNL     1      13.956  29.016  62.333  1.00  0.00     0.000 C 
BRANCH  18  19
ATOM     19  C   UNL     1      13.024  30.221  62.587  1.00  0.00     0.000 C 
BRANCH  19  20
ATOM     20  C   UNL     1      11.585  30.009  62.086  1.00  0.00     0.006 C 
BRANCH  20  21
ATOM     21  C   UNL     1      11.508  29.104  60.851  1.00  0.00     0.053 C 
BRANCH  21  22
ATOM     22  C   UNL     1      10.235  29.346  60.104  1.00  0.00     0.041 C 
ATOM     23  O   UNL     1       9.220  28.637  60.336  1.00  0.00    -0.550 OA
ATOM     24  O   UNL     1      10.183  30.320  59.116  1.00  0.00    -0.550 OA
ENDBRANCH  21  22
ENDBRANCH  20  21
ENDBRANCH  19  20
ENDBRANCH  18  19
ENDBRANCH  17  18
ENDBRANCH  16  17
ENDBRANCH  15  16
ENDBRANCH  14  15
ENDBRANCH  13  14
ENDBRANCH   1  13
TORSDOF 20
ENDMDL
MODEL 7
REMARK VINA RESULT:    -4.500      2.914      5.419
REMARK INTER + INTRA:         -13.239
REMARK INTER:                  -9.963
REMARK INTRA:                  -3.276
REMARK UNBOUND:                -3.478
REMARK SMILES CCCCCCCCCCCCCCCCCCCCCC(=O)[O-]
REMARK SMILES IDX 12 1 11 2 10 3 9 4 8 5 7 6 6 7 5 8 4 9 3 10 2 11 1 12 13 13
REMARK SMILES IDX 14 14 15 15 16 16 17 17 18 18 19 19 20 20 21 21 22 22 23 23
REMARK SMILES IDX 24 24
REMARK H PARENT
REMARK Flexibility Score: inf
ROOT
ATOM      1  C   UNL     1      16.341  30.539  54.764  1.00  0.00     0.000 C 
ENDROOT
BRANCH   1   2
ATOM      2  C   UNL     1      15.094  31.019  54.011  1.00  0.00     0.000 C 
BRANCH   2   3
ATOM      3  C   UNL     1      13.888  31.117  54.953  1.00  0.00     0.000 C 
BRANCH   3   4
ATOM      4  C   UNL     1      13.521  32.581  55.230  1.00  0.00    -0.000 C 
BRANCH   4   5
ATOM      5  C   UNL     1      14.134  33.509  54.170  1.00  0.00    -0.000 C 
BRANCH   5   6
ATOM      6  C   UNL     1      13.643  34.959  54.302  1.00  0.00    -0.000 C 
BRANCH   6   7
ATOM      7  C   UNL     1      14.610  35.841  55.111  1.00  0.00    -0.000 C 
BRANCH   7   8
ATOM      8  C   UNL     1      15.948  36.064  54.374  1.00  0.00    -0.000 C 
BRANCH   8   9
ATOM      9  C   UNL     1      17.087  36.543  55.292  1.00  0.00    -0.000 C 
BRANCH   9  10
ATOM     10  C   UNL     1      16.640  36.735  56.750  1.00  0.00    -0.000 C 
BRANCH  10  11
ATOM     11  C   UNL     1      17.185  38.033  57.366  1.00  0.00    -0.003 C 
ATOM     12  C   UNL     1      18.107  38.798  56.417  1.00  0.00     0.004 C 
ENDBRANCH  10  11
ENDBRANCH   9  10
ENDBRANCH   8   9
ENDBRANCH   7   8
ENDBRANCH   6   7
ENDBRANCH   5   6
ENDBRANCH   4   5
ENDBRANCH   3   4
ENDBRANCH   2   3
ENDBRANCH   1   2
BRANCH   1  13
ATOM     13  C   UNL     1      17.394  31.653  54.852  1.00  0.00     0.000 C 
BRANCH  13  14
ATOM     14  C   UNL     1      17.677  32.090  56.301  1.00  0.00     0.000 C 
BRANCH  14  15
ATOM     15  C   UNL     1      16.719  33.164  56.854  1.00  0.00     0.000 C 
BRANCH  15  16
ATOM     16  C   UNL     1      15.845  32.716  58.042  1.00  0.00     0.000 C 
BRANCH  16  17
ATOM     17  C   UNL     1      16.062  31.262  58.499  1.00  0.00     0.000 C 
BRANCH  17  18
ATOM     18  C   UNL     1      14.749  30.470  58.624  1.00  0.00     0.000 C 
BRANCH  18  19
ATOM     19  C   UNL     1      13.512  31.392  58.693  1.00  0.00     0.000 C 
BRANCH  19  20
ATOM     20  C   UNL     1      12.179  30.660  58.461  1.00  0.00     0.006 C 
BRANCH  20  21
ATOM     21  C   UNL     1      11.786  29.747  59.628  1.00  0.00     0.053 C 
BRANCH  21  22
ATOM     22  C   UNL     1      10.306  29.785  59.847  1.00  0.00     0.041 C 
ATOM     23  O   UNL     1       9.837  29.734  61.014  1.00  0.00    -0.550 OA
ATOM     24  O   UNL     1       9.444  29.828  58.760  1.00  0.00    -0.550 OA
ENDBRANCH  21  22
ENDBRANCH  20  21
ENDBRANCH  19  20
ENDBRANCH  18  19
ENDBRANCH  17  18
ENDBRANCH  16  17
ENDBRANCH  15  16
ENDBRANCH  14  15
ENDBRANCH  13  14
ENDBRANCH   1  13
TORSDOF 20
ENDMDL
MODEL 8
REMARK VINA RESULT:    -4.486      1.833      4.488
REMARK INTER + INTRA:         -13.209
REMARK INTER:                  -9.766
REMARK INTRA:                  -3.442
REMARK UNBOUND:                -3.478
REMARK SMILES CCCCCCCCCCCCCCCCCCCCCC(=O)[O-]
REMARK SMILES IDX 12 1 11 2 10 3 9 4 8 5 7 6 6 7 5 8 4 9 3 10 2 11 1 12 13 13
REMARK SMILES IDX 14 14 15 15 16 16 17 17 18 18 19 19 20 20 21 21 22 22 23 23
REMARK SMILES IDX 24 24
REMARK H PARENT
REMARK Flexibility Score: inf
ROOT
ATOM      1  C   UNL     1      17.058  30.586  55.145  1.00  0.00     0.000 C 
ENDROOT
BRANCH   1   2
ATOM      2  C   UNL     1      16.677  30.432  53.668  1.00  0.00     0.000 C 
BRANCH   2   3
ATOM      3  C   UNL     1      15.192  30.749  53.448  1.00  0.00     0.000 C 
BRANCH   3   4
ATOM      4  C   UNL     1      14.466  30.946  54.785  1.00  0.00    -0.000 C 
BRANCH   4   5
ATOM      5  C   UNL     1      13.627  32.233  54.768  1.00  0.00    -0.000 C 
BRANCH   5   6
ATOM      6  C   UNL     1      14.279  33.351  53.940  1.00  0.00    -0.000 C 
BRANCH   6   7
ATOM      7  C   UNL     1      14.870  34.470  54.814  1.00  0.00    -0.000 C 
BRANCH   7   8
ATOM      8  C   UNL     1      16.372  34.692  54.538  1.00  0.00    -0.000 C 
BRANCH   8   9
ATOM      9  C   UNL     1      16.989  35.842  55.353  1.00  0.00    -0.000 C 
BRANCH   9  10
ATOM     10  C   UNL     1      15.972  36.530  56.280  1.00  0.00    -0.000 C 
BRANCH  10  11
ATOM     11  C   UNL     1      16.649  37.348  57.391  1.00  0.00    -0.003 C 
ATOM     12  C   UNL     1      17.659  38.360  56.850  1.00  0.00     0.004 C 
ENDBRANCH  10  11
ENDBRANCH   9  10
ENDBRANCH   8   9
ENDBRANCH   7   8
ENDBRANCH   6   7
ENDBRANCH   5   6
ENDBRANCH   4   5
ENDBRANCH   3   4
ENDBRANCH   2   3
ENDBRANCH   1   2
BRANCH   1  13
ATOM     13  C   UNL     1      18.347  31.405  55.299  1.00  0.00     0.000 C 
BRANCH  13  14
ATOM     14  C   UNL     1      18.306  32.357  56.508  1.00  0.00     0.000 C 
BRANCH  14  15
ATOM     15  C   UNL     1      17.243  32.012  57.569  1.00  0.00     0.000 C 
BRANCH  15  16
ATOM     16  C   UNL     1      16.251  33.146  57.899  1.00  0.00     0.000 C 
BRANCH  16  17
ATOM     17  C   UNL     1      14.795  32.696  58.115  1.00  0.00     0.000 C 
BRANCH  17  18
ATOM     18  C   UNL     1      14.678  31.211  58.502  1.00  0.00     0.000 C 
BRANCH  18  19
ATOM     19  C   UNL     1      13.211  30.738  58.582  1.00  0.00     0.000 C 
BRANCH  19  20
ATOM     20  C   UNL     1      12.881  29.951  59.862  1.00  0.00     0.006 C 
BRANCH  20  21
ATOM     21  C   UNL     1      13.967  30.074  60.937  1.00  0.00     0.053 C 
BRANCH  21  22
ATOM     22  C   UNL     1      13.833  28.975  61.943  1.00  0.00     0.041 C 
ATOM     23  O   UNL     1      14.676  28.859  62.871  1.00  0.00    -0.550 OA
ATOM     24  O   UNL     1      12.805  28.048  61.828  1.00  0.00    -0.550 OA
ENDBRANCH  21  22
ENDBRANCH  20  21
ENDBRANCH  19  20
ENDBRANCH  18  19
ENDBRANCH  17  18
ENDBRANCH  16  17
ENDBRANCH  15  16
ENDBRANCH  14  15
ENDBRANCH  13  14
ENDBRANCH   1  13
TORSDOF 20
ENDMDL
MODEL 9
REMARK VINA RESULT:    -4.478      1.691      3.691
REMARK INTER + INTRA:         -13.193
REMARK INTER:                 -10.089
REMARK INTRA:                  -3.104
REMARK UNBOUND:                -3.478
REMARK SMILES CCCCCCCCCCCCCCCCCCCCCC(=O)[O-]
REMARK SMILES IDX 12 1 11 2 10 3 9 4 8 5 7 6 6 7 5 8 4 9 3 10 2 11 1 12 13 13
REMARK SMILES IDX 14 14 15 15 16 16 17 17 18 18 19 19 20 20 21 21 22 22 23 23
REMARK SMILES IDX 24 24
REMARK H PARENT
REMARK Flexibility Score: inf
ROOT
ATOM      1  C   UNL     1      17.148  32.524  55.179  1.00  0.00     0.000 C 
ENDROOT
BRANCH   1   2
ATOM      2  C   UNL     1      17.348  31.004  55.208  1.00  0.00     0.000 C 
BRANCH   2   3
ATOM      3  C   UNL     1      16.111  30.277  54.666  1.00  0.00     0.000 C 
BRANCH   3   4
ATOM      4  C   UNL     1      15.197  31.239  53.898  1.00  0.00    -0.000 C 
BRANCH   4   5
ATOM      5  C   UNL     1      13.787  31.260  54.508  1.00  0.00    -0.000 C 
BRANCH   5   6
ATOM      6  C   UNL     1      13.329  32.678  54.885  1.00  0.00    -0.000 C 
BRANCH   6   7
ATOM      7  C   UNL     1      13.971  33.763  54.004  1.00  0.00    -0.000 C 
BRANCH   7   8
ATOM      8  C   UNL     1      13.926  35.155  54.671  1.00  0.00    -0.000 C 
BRANCH   8   9
ATOM      9  C   UNL     1      15.299  35.844  54.757  1.00  0.00    -0.000 C 
BRANCH   9  10
ATOM     10  C   UNL     1      15.583  36.439  56.147  1.00  0.00    -0.000 C 
BRANCH  10  11
ATOM     11  C   UNL     1      17.050  36.866  56.315  1.00  0.00    -0.003 C 
ATOM     12  C   UNL     1      17.234  37.946  57.380  1.00  0.00     0.004 C 
ENDBRANCH  10  11
ENDBRANCH   9  10
ENDBRANCH   8   9
ENDBRANCH   7   8
ENDBRANCH   6   7
ENDBRANCH   5   6
ENDBRANCH   4   5
ENDBRANCH   3   4
ENDBRANCH   2   3
ENDBRANCH   1   2
BRANCH   1  13
ATOM     13  C   UNL     1      17.292  33.125  56.584  1.00  0.00     0.000 C 
BRANCH  13  14
ATOM     14  C   UNL     1      16.549  32.310  57.659  1.00  0.00     0.000 C 
BRANCH  14  15
ATOM     15  C   UNL     1      15.192  32.896  58.095  1.00  0.00     0.000 C 
BRANCH  15  16
ATOM     16  C   UNL     1      14.035  31.881  58.182  1.00  0.00     0.000 C 
BRANCH  16  17
ATOM     17  C   UNL     1      14.459  30.434  58.491  1.00  0.00     0.000 C 
BRANCH  17  18
ATOM     18  C   UNL     1      14.528  30.140  60.000  1.00  0.00     0.000 C 
BRANCH  18  19
ATOM     19  C   UNL     1      15.951  29.756  60.460  1.00  0.00     0.000 C 
BRANCH  19  20
ATOM     20  C   UNL     1      16.079  29.552  61.979  1.00  0.00     0.006 C 
BRANCH  20  21
ATOM     21  C   UNL     1      14.725  29.529  62.696  1.00  0.00     0.053 C 
BRANCH  21  22
ATOM     22  C   UNL     1      14.330  28.123  63.023  1.00  0.00     0.041 C 
ATOM     23  O   UNL     1      15.006  27.450  63.846  1.00  0.00    -0.550 OA
ATOM     24  O   UNL     1      13.246  27.539  62.382  1.00  0.00    -0.550 OA
ENDBRANCH  21  22
ENDBRANCH  20  21
ENDBRANCH  19  20
ENDBRANCH  18  19
ENDBRANCH  17  18
ENDBRANCH  16  17
ENDBRANCH  15  16
ENDBRANCH  14  15
ENDBRANCH  13  14
ENDBRANCH   1  13
TORSDOF 20
ENDMDL
