MODEL 1
REMARK VINA RESULT:    75.498      0.000      0.000
REMARK INTER + INTRA:         101.919
REMARK INTER:                 101.979
REMARK INTRA:                  -0.060
REMARK UNBOUND:                -0.060
REMARK SMILES O=c1c(-c2ccc(O)cc2)coc2c([C@@H]3O[C@@H](CO)[C@H](O)[C@H](O)[C@H]3O)c(O)ccc12
REMARK SMILES IDX 3 1 11 2 12 3 13 4 30 5 2 6 1 7 29 8 28 9 26 10 14 11 4 12
REMARK SMILES IDX 5 13 6 14 7 15 10 16 9 17 8 18 15 20 24 21 16 22 22 23 17 24
REMARK SMILES IDX 20 25 25 26 23 28 18 30 19 31 21 33 27 35
REMARK H PARENT 8 19 25 27 23 29 19 32 21 34 27 36
REMARK Flexibility Score: inf
ROOT
ATOM      1  C   UNL     1      15.791   1.830  27.519  1.00  0.00     0.065 A 
ATOM      2  C   UNL     1      15.739   3.230  27.464  1.00  0.00     0.208 A 
ATOM      3  O   UNL     1      14.635   3.885  27.803  1.00  0.00    -0.463 OA
ATOM      4  C   UNL     1      13.523   3.279  28.209  1.00  0.00     0.147 A 
ATOM      5  C   UNL     1      13.484   1.867  28.285  1.00  0.00     0.066 A 
ATOM      6  C   UNL     1      14.635   1.141  27.930  1.00  0.00     0.200 A 
ATOM      7  O   UNL     1      14.626  -0.122  27.960  1.00  0.00    -0.288 OA
ATOM      8  C   UNL     1      12.305   1.227  28.698  1.00  0.00     0.020 A 
ATOM      9  C   UNL     1      11.177   1.976  29.025  1.00  0.00     0.047 A 
ATOM     10  C   UNL     1      11.204   3.374  28.951  1.00  0.00     0.125 A 
ATOM     11  C   UNL     1      12.385   4.044  28.558  1.00  0.00     0.069 A 
ENDROOT
BRANCH   1  12
ATOM     12  C   UNL     1      17.038   1.119  27.143  1.00  0.00    -0.011 A 
ATOM     13  C   UNL     1      17.070  -0.285  27.070  1.00  0.00     0.013 A 
ATOM     14  C   UNL     1      18.251  -0.949  26.725  1.00  0.00     0.047 A 
ATOM     15  C   UNL     1      19.415  -0.219  26.451  1.00  0.00     0.115 A 
ATOM     16  C   UNL     1      18.213   1.844  26.875  1.00  0.00     0.013 A 
ATOM     17  C   UNL     1      19.393   1.177  26.529  1.00  0.00     0.047 A 
BRANCH  15  18
ATOM     18  O   UNL     1      20.597  -0.870  26.105  1.00  0.00    -0.508 OA
ATOM     19  H   UNL     1      21.289  -0.430  25.511  1.00  0.00     0.293 HD
ENDBRANCH  15  18
ENDBRANCH   1  12
BRANCH  11  20
ATOM     20  C   UNL     1      12.414   5.563  28.454  1.00  0.00     0.188 C 
ATOM     21  C   UNL     1      11.447   6.036  27.343  1.00  0.00     0.179 C 
ATOM     22  O   UNL     1      12.075   6.119  29.718  1.00  0.00    -0.362 OA
ATOM     23  C   UNL     1      11.433   7.576  27.278  1.00  0.00     0.177 C 
ATOM     24  C   UNL     1      12.125   7.542  29.738  1.00  0.00     0.176 C 
ATOM     25  C   UNL     1      11.196   8.185  28.676  1.00  0.00     0.177 C 
BRANCH  21  26
ATOM     26  O   UNL     1      11.805   5.495  26.094  1.00  0.00    -0.387 OA
ATOM     27  H   UNL     1      12.775   5.656  25.959  1.00  0.00     0.211 HD
ENDBRANCH  21  26
BRANCH  23  28
ATOM     28  O   UNL     1      10.487   8.046  26.349  1.00  0.00    -0.387 OA
ATOM     29  H   UNL     1      10.782   8.942  26.037  1.00  0.00     0.211 HD
ENDBRANCH  23  28
BRANCH  24  30
ATOM     30  C   UNL     1      13.567   8.092  29.695  1.00  0.00     0.191 C 
BRANCH  30  31
ATOM     31  O   UNL     1      14.008   8.413  30.986  1.00  0.00    -0.394 OA
ATOM     32  H   UNL     1      13.197   8.516  31.549  1.00  0.00     0.210 HD
ENDBRANCH  30  31
ENDBRANCH  24  30
BRANCH  25  33
ATOM     33  O   UNL     1       9.846   8.072  29.061  1.00  0.00    -0.388 OA
ATOM     34  H   UNL     1       9.453   8.983  29.086  1.00  0.00     0.211 HD
ENDBRANCH  25  33
ENDBRANCH  11  20
BRANCH  10  35
ATOM     35  O   UNL     1      10.053   4.098  29.267  1.00  0.00    -0.507 OA
ATOM     36  H   UNL     1      10.100   5.000  29.725  1.00  0.00     0.293 HD
ENDBRANCH  10  35
TORSDOF 9
ENDMDL
