MODEL 1
REMARK VINA RESULT:     0.801      0.000      0.000
REMARK INTER + INTRA:           1.078
REMARK INTER:                   1.106
REMARK INTRA:                  -0.028
REMARK UNBOUND:                -0.028
REMARK SMILES CC[C@@H](CC[C@H](C)[C@H]1CC[C@@H]2[C@@H]3CC=C4C[C@H](O)CC[C@@]4(C)[C@H]3CC[C@]21C)C(C)C
REMARK SMILES IDX 5 1 4 2 3 3 2 4 1 5 28 6 29 7 30 8 6 9 7 10 8 11 9 12 26 13
REMARK SMILES IDX 10 14 11 15 25 16 27 17 12 18 24 19 23 20 13 21 21 22 14 23
REMARK SMILES IDX 15 24 20 25 22 26 16 27 19 28 17 29 18 30
REMARK H PARENT 18 31
REMARK Flexibility Score: inf
ROOT
ATOM      1  C   UNL     1     139.412 123.463 141.102  1.00  0.00     0.004 C 
ENDROOT
BRANCH   1   2
ATOM      2  C   UNL     1     140.004 124.845 141.473  1.00  0.00     0.004 C 
BRANCH   2   3
ATOM      3  C   UNL     1     140.974 124.859 142.693  1.00  0.00    -0.009 C 
BRANCH   3   4
ATOM      4  C   UNL     1     140.244 125.230 144.014  1.00  0.00     0.000 C 
ATOM      5  C   UNL     1     138.915 124.489 144.208  1.00  0.00     0.004 C 
ENDBRANCH   3   4
BRANCH   3   6
ATOM      6  C   UNL     1     142.297 125.666 142.458  1.00  0.00    -0.014 C 
ATOM      7  C   UNL     1     143.555 124.804 142.316  1.00  0.00     0.007 C 
ATOM      8  C   UNL     1     142.520 126.734 143.543  1.00  0.00     0.007 C 
ENDBRANCH   3   6
ENDBRANCH   2   3
ENDBRANCH   1   2
BRANCH   1   9
ATOM      9  C   UNL     1     138.246 123.549 140.082  1.00  0.00    -0.011 C 
ATOM     10  C   UNL     1     138.368 124.867 139.290  1.00  0.00     0.008 C 
BRANCH   9  11
ATOM     11  C   UNL     1     136.848 123.309 140.764  1.00  0.00    -0.002 C 
ATOM     12  C   UNL     1     136.704 123.979 142.164  1.00  0.00     0.005 C 
ATOM     13  C   UNL     1     135.540 123.713 139.980  1.00  0.00    -0.026 C 
ATOM     14  C   UNL     1     135.422 124.826 142.148  1.00  0.00     0.005 C 
ATOM     15  C   UNL     1     135.166 125.036 140.670  1.00  0.00    -0.001 C 
ATOM     16  C   UNL     1     135.634 123.945 138.425  1.00  0.00     0.007 C 
ATOM     17  C   UNL     1     134.500 122.578 140.266  1.00  0.00     0.012 C 
ATOM     18  C   UNL     1     133.851 125.720 140.194  1.00  0.00     0.000 C 
ATOM     19  C   UNL     1     134.772 125.130 137.897  1.00  0.00     0.005 C 
ATOM     20  C   UNL     1     133.486 125.348 138.736  1.00  0.00     0.003 C 
ATOM     21  C   UNL     1     132.608 125.520 141.062  1.00  0.00     0.031 C 
ATOM     22  C   UNL     1     132.424 126.348 138.145  1.00  0.00    -0.008 C 
ATOM     23  C   UNL     1     131.488 126.379 140.525  1.00  0.00    -0.027 C 
ATOM     24  C   UNL     1     131.388 126.748 139.223  1.00  0.00    -0.065 C 
ATOM     25  C   UNL     1     133.100 127.651 137.614  1.00  0.00     0.014 C 
ATOM     26  C   UNL     1     131.681 125.634 136.980  1.00  0.00     0.016 C 
ATOM     27  C   UNL     1     130.376 127.807 138.844  1.00  0.00     0.063 C 
ATOM     28  C   UNL     1     132.095 128.755 137.226  1.00  0.00     0.033 C 
ATOM     29  C   UNL     1     131.116 129.070 138.373  1.00  0.00     0.118 C 
BRANCH  29  30
ATOM     30  O   UNL     1     130.202 130.064 137.987  1.00  0.00    -0.393 OA
ATOM     31  H   UNL     1     130.199 130.105 136.993  1.00  0.00     0.210 HD
ENDBRANCH  29  30
ENDBRANCH   9  11
ENDBRANCH   1   9
TORSDOF 7
ENDMDL
MODEL 2
REMARK VINA RESULT:     2.055      3.257      8.627
REMARK INTER + INTRA:           2.808
REMARK INTER:                   2.623
REMARK INTRA:                   0.185
REMARK UNBOUND:                -0.028
REMARK SMILES CC[C@@H](CC[C@H](C)[C@H]1CC[C@@H]2[C@@H]3CC=C4C[C@H](O)CC[C@@]4(C)[C@H]3CC[C@]21C)C(C)C
REMARK SMILES IDX 5 1 4 2 3 3 2 4 1 5 28 6 29 7 30 8 6 9 7 10 8 11 9 12 26 13
REMARK SMILES IDX 10 14 11 15 25 16 27 17 12 18 24 19 23 20 13 21 21 22 14 23
REMARK SMILES IDX 15 24 20 25 22 26 16 27 19 28 17 29 18 30
REMARK H PARENT 18 31
REMARK Flexibility Score: inf
ROOT
ATOM      1  C   UNL     1     131.894 130.220 138.307  1.00  0.00     0.004 C 
ENDROOT
BRANCH   1   2
ATOM      2  C   UNL     1     131.566 131.427 137.394  1.00  0.00     0.004 C 
BRANCH   2   3
ATOM      3  C   UNL     1     132.038 132.818 137.918  1.00  0.00    -0.009 C 
BRANCH   3   4
ATOM      4  C   UNL     1     132.226 133.842 136.764  1.00  0.00     0.000 C 
ATOM      5  C   UNL     1     131.588 135.207 137.047  1.00  0.00     0.004 C 
ENDBRANCH   3   4
BRANCH   3   6
ATOM      6  C   UNL     1     133.250 132.758 138.910  1.00  0.00    -0.014 C 
ATOM      7  C   UNL     1     133.500 134.050 139.693  1.00  0.00     0.007 C 
ATOM      8  C   UNL     1     134.546 132.317 138.207  1.00  0.00     0.007 C 
ENDBRANCH   3   6
ENDBRANCH   2   3
ENDBRANCH   1   2
BRANCH   1   9
ATOM      9  C   UNL     1     130.755 129.167 138.365  1.00  0.00    -0.011 C 
ATOM     10  C   UNL     1     130.348 128.949 139.838  1.00  0.00     0.008 C 
BRANCH   9  11
ATOM     11  C   UNL     1     131.123 127.858 137.575  1.00  0.00    -0.002 C 
ATOM     12  C   UNL     1     132.144 128.082 136.418  1.00  0.00     0.005 C 
ATOM     13  C   UNL     1     131.678 126.617 138.376  1.00  0.00    -0.026 C 
ATOM     14  C   UNL     1     133.298 127.085 136.613  1.00  0.00     0.005 C 
ATOM     15  C   UNL     1     133.184 126.706 138.075  1.00  0.00    -0.001 C 
ATOM     16  C   UNL     1     131.462 126.568 139.935  1.00  0.00     0.007 C 
ATOM     17  C   UNL     1     131.015 125.355 137.728  1.00  0.00     0.012 C 
ATOM     18  C   UNL     1     134.078 125.574 138.660  1.00  0.00     0.000 C 
ATOM     19  C   UNL     1     132.669 125.996 140.736  1.00  0.00     0.005 C 
ATOM     20  C   UNL     1     133.466 124.936 139.932  1.00  0.00     0.003 C 
ATOM     21  C   UNL     1     134.485 124.446 137.711  1.00  0.00     0.031 C 
ATOM     22  C   UNL     1     134.546 124.116 140.730  1.00  0.00    -0.008 C 
ATOM     23  C   UNL     1     135.467 123.540 138.415  1.00  0.00    -0.027 C 
ATOM     24  C   UNL     1     135.499 123.376 139.761  1.00  0.00    -0.065 C 
ATOM     25  C   UNL     1     135.409 125.044 141.643  1.00  0.00     0.014 C 
ATOM     26  C   UNL     1     133.808 123.064 141.605  1.00  0.00     0.016 C 
ATOM     27  C   UNL     1     136.674 122.647 140.376  1.00  0.00     0.063 C 
ATOM     28  C   UNL     1     136.619 124.333 142.280  1.00  0.00     0.033 C 
ATOM     29  C   UNL     1     137.495 123.632 141.223  1.00  0.00     0.118 C 
BRANCH  29  30
ATOM     30  O   UNL     1     138.579 122.978 141.831  1.00  0.00    -0.393 OA
ATOM     31  H   UNL     1     139.261 122.800 141.130  1.00  0.00     0.210 HD
ENDBRANCH  29  30
ENDBRANCH   9  11
ENDBRANCH   1   9
TORSDOF 7
ENDMDL
MODEL 3
REMARK VINA RESULT:     2.839      2.922      7.656
REMARK INTER + INTRA:           3.890
REMARK INTER:                   4.383
REMARK INTRA:                  -0.493
REMARK UNBOUND:                -0.028
REMARK SMILES CC[C@@H](CC[C@H](C)[C@H]1CC[C@@H]2[C@@H]3CC=C4C[C@H](O)CC[C@@]4(C)[C@H]3CC[C@]21C)C(C)C
REMARK SMILES IDX 5 1 4 2 3 3 2 4 1 5 28 6 29 7 30 8 6 9 7 10 8 11 9 12 26 13
REMARK SMILES IDX 10 14 11 15 25 16 27 17 12 18 24 19 23 20 13 21 21 22 14 23
REMARK SMILES IDX 15 24 20 25 22 26 16 27 19 28 17 29 18 30
REMARK H PARENT 18 31
REMARK Flexibility Score: inf
ROOT
ATOM      1  C   UNL     1     134.751 125.076 138.210  1.00  0.00     0.004 C 
ENDROOT
BRANCH   1   2
ATOM      2  C   UNL     1     133.215 125.231 138.083  1.00  0.00     0.004 C 
BRANCH   2   3
ATOM      3  C   UNL     1     132.654 126.656 138.372  1.00  0.00    -0.009 C 
BRANCH   3   4
ATOM      4  C   UNL     1     131.538 126.634 139.453  1.00  0.00     0.000 C 
ATOM      5  C   UNL     1     132.034 126.203 140.838  1.00  0.00     0.004 C 
ENDBRANCH   3   4
BRANCH   3   6
ATOM      6  C   UNL     1     132.273 127.474 137.090  1.00  0.00    -0.014 C 
ATOM      7  C   UNL     1     131.953 128.950 137.344  1.00  0.00     0.007 C 
ATOM      8  C   UNL     1     131.118 126.818 136.312  1.00  0.00     0.007 C 
ENDBRANCH   3   6
ENDBRANCH   2   3
ENDBRANCH   1   2
BRANCH   1   9
ATOM      9  C   UNL     1     135.286 123.749 137.609  1.00  0.00    -0.011 C 
ATOM     10  C   UNL     1     134.089 122.887 137.153  1.00  0.00     0.008 C 
BRANCH   9  11
ATOM     11  C   UNL     1     136.294 123.028 138.578  1.00  0.00    -0.002 C 
ATOM     12  C   UNL     1     137.777 123.475 138.395  1.00  0.00     0.005 C 
ATOM     13  C   UNL     1     136.035 123.096 140.132  1.00  0.00    -0.026 C 
ATOM     14  C   UNL     1     138.313 123.891 139.774  1.00  0.00     0.005 C 
ATOM     15  C   UNL     1     137.052 124.165 140.567  1.00  0.00    -0.001 C 
ATOM     16  C   UNL     1     134.602 123.505 140.641  1.00  0.00     0.007 C 
ATOM     17  C   UNL     1     136.390 121.676 140.690  1.00  0.00     0.012 C 
ATOM     18  C   UNL     1     137.139 124.464 142.092  1.00  0.00     0.000 C 
ATOM     19  C   UNL     1     134.602 124.421 141.901  1.00  0.00     0.005 C 
ATOM     20  C   UNL     1     135.813 124.152 142.830  1.00  0.00     0.003 C 
ATOM     21  C   UNL     1     138.282 123.809 142.868  1.00  0.00     0.031 C 
ATOM     22  C   UNL     1     135.778 124.839 144.246  1.00  0.00    -0.008 C 
ATOM     23  C   UNL     1     138.286 124.339 144.281  1.00  0.00    -0.027 C 
ATOM     24  C   UNL     1     137.174 124.793 144.912  1.00  0.00    -0.065 C 
ATOM     25  C   UNL     1     135.337 126.333 144.145  1.00  0.00     0.014 C 
ATOM     26  C   UNL     1     134.773 124.058 145.139  1.00  0.00     0.016 C 
ATOM     27  C   UNL     1     137.333 125.529 146.225  1.00  0.00     0.063 C 
ATOM     28  C   UNL     1     135.494 127.114 145.465  1.00  0.00     0.033 C 
ATOM     29  C   UNL     1     136.922 126.998 146.035  1.00  0.00     0.118 C 
BRANCH  29  30
ATOM     30  O   UNL     1     137.031 127.703 147.245  1.00  0.00    -0.393 OA
ATOM     31  H   UNL     1     136.661 128.615 147.101  1.00  0.00     0.210 HD
ENDBRANCH  29  30
ENDBRANCH   9  11
ENDBRANCH   1   9
TORSDOF 7
ENDMDL
MODEL 4
REMARK VINA RESULT:     3.464      2.946      7.783
REMARK INTER + INTRA:           4.752
REMARK INTER:                   3.623
REMARK INTRA:                   1.129
REMARK UNBOUND:                -0.028
REMARK SMILES CC[C@@H](CC[C@H](C)[C@H]1CC[C@@H]2[C@@H]3CC=C4C[C@H](O)CC[C@@]4(C)[C@H]3CC[C@]21C)C(C)C
REMARK SMILES IDX 5 1 4 2 3 3 2 4 1 5 28 6 29 7 30 8 6 9 7 10 8 11 9 12 26 13
REMARK SMILES IDX 10 14 11 15 25 16 27 17 12 18 24 19 23 20 13 21 21 22 14 23
REMARK SMILES IDX 15 24 20 25 22 26 16 27 19 28 17 29 18 30
REMARK H PARENT 18 31
REMARK Flexibility Score: inf
ROOT
ATOM      1  C   UNL     1     135.021 125.263 137.884  1.00  0.00     0.004 C 
ENDROOT
BRANCH   1   2
ATOM      2  C   UNL     1     133.669 125.625 138.550  1.00  0.00     0.004 C 
BRANCH   2   3
ATOM      3  C   UNL     1     132.567 126.165 137.589  1.00  0.00    -0.009 C 
BRANCH   3   4
ATOM      4  C   UNL     1     132.997 127.485 136.892  1.00  0.00     0.000 C 
ATOM      5  C   UNL     1     132.120 128.687 137.262  1.00  0.00     0.004 C 
ENDBRANCH   3   4
BRANCH   3   6
ATOM      6  C   UNL     1     131.133 126.224 138.219  1.00  0.00    -0.014 C 
ATOM      7  C   UNL     1     130.034 126.706 137.266  1.00  0.00     0.007 C 
ATOM      8  C   UNL     1     131.105 127.063 139.508  1.00  0.00     0.007 C 
ENDBRANCH   3   6
ENDBRANCH   2   3
ENDBRANCH   1   2
BRANCH   1   9
ATOM      9  C   UNL     1     135.150 123.756 137.539  1.00  0.00    -0.011 C 
ATOM     10  C   UNL     1     133.740 123.133 137.473  1.00  0.00     0.008 C 
BRANCH   9  11
ATOM     11  C   UNL     1     136.159 123.018 138.495  1.00  0.00    -0.002 C 
ATOM     12  C   UNL     1     137.647 123.439 138.291  1.00  0.00     0.005 C 
ATOM     13  C   UNL     1     135.923 123.091 140.052  1.00  0.00    -0.026 C 
ATOM     14  C   UNL     1     138.210 123.847 139.662  1.00  0.00     0.005 C 
ATOM     15  C   UNL     1     136.965 124.143 140.472  1.00  0.00    -0.001 C 
ATOM     16  C   UNL     1     134.504 123.526 140.581  1.00  0.00     0.007 C 
ATOM     17  C   UNL     1     136.261 121.666 140.607  1.00  0.00     0.012 C 
ATOM     18  C   UNL     1     137.077 124.441 141.996  1.00  0.00     0.000 C 
ATOM     19  C   UNL     1     134.537 124.442 141.839  1.00  0.00     0.005 C 
ATOM     20  C   UNL     1     135.757 124.152 142.753  1.00  0.00     0.003 C 
ATOM     21  C   UNL     1     138.219 123.767 142.756  1.00  0.00     0.031 C 
ATOM     22  C   UNL     1     135.753 124.841 144.168  1.00  0.00    -0.008 C 
ATOM     23  C   UNL     1     138.252 124.298 144.169  1.00  0.00    -0.027 C 
ATOM     24  C   UNL     1     137.157 124.771 144.815  1.00  0.00    -0.065 C 
ATOM     25  C   UNL     1     135.337 126.342 144.072  1.00  0.00     0.014 C 
ATOM     26  C   UNL     1     134.747 124.077 145.076  1.00  0.00     0.016 C 
ATOM     27  C   UNL     1     137.347 125.505 146.125  1.00  0.00     0.063 C 
ATOM     28  C   UNL     1     135.525 127.122 145.389  1.00  0.00     0.033 C 
ATOM     29  C   UNL     1     136.958 126.981 145.939  1.00  0.00     0.118 C 
BRANCH  29  30
ATOM     30  O   UNL     1     137.096 127.685 147.147  1.00  0.00    -0.393 OA
ATOM     31  H   UNL     1     137.718 128.444 146.988  1.00  0.00     0.210 HD
ENDBRANCH  29  30
ENDBRANCH   9  11
ENDBRANCH   1   9
TORSDOF 7
ENDMDL
