MODEL 1
REMARK VINA RESULT:    -2.847      0.000      0.000
REMARK INTER + INTRA:          -4.207
REMARK INTER:                  -3.846
REMARK INTRA:                  -0.361
REMARK UNBOUND:                -0.361
REMARK SMILES CCCCCCCC(=O)[O-]
REMARK SMILES IDX 5 1 6 2 7 3 8 4 9 5 10 6 4 7 3 8 2 9 1 10
REMARK H PARENT
REMARK Flexibility Score: inf
ROOT
ATOM      1  C   UNL     1      67.252  54.622  11.070  1.00  0.00     0.000 C 
ENDROOT
BRANCH   1   2
ATOM      2  C   UNL     1      65.962  55.457  11.125  1.00  0.00     0.006 C 
BRANCH   2   3
ATOM      3  C   UNL     1      66.238  56.960  10.981  1.00  0.00     0.053 C 
BRANCH   3   4
ATOM      4  C   UNL     1      65.258  57.619  10.059  1.00  0.00     0.041 C 
ATOM      5  O   UNL     1      65.430  57.573   8.812  1.00  0.00    -0.550 OA
ATOM      6  O   UNL     1      64.169  58.307  10.578  1.00  0.00    -0.550 OA
ENDBRANCH   3   4
ENDBRANCH   2   3
ENDBRANCH   1   2
BRANCH   1   7
ATOM      7  C   UNL     1      67.985  54.742   9.721  1.00  0.00     0.000 C 
BRANCH   7   8
ATOM      8  C   UNL     1      69.500  55.015   9.821  1.00  0.00    -0.000 C 
BRANCH   8   9
ATOM      9  C   UNL     1      69.954  55.695  11.125  1.00  0.00    -0.003 C 
ATOM     10  C   UNL     1      71.389  56.213  11.058  1.00  0.00     0.004 C 
ENDBRANCH   8   9
ENDBRANCH   7   8
ENDBRANCH   1   7
TORSDOF 6
ENDMDL
MODEL 2
REMARK VINA RESULT:    -2.700      1.736      2.842
REMARK INTER + INTRA:          -4.008
REMARK INTER:                  -3.749
REMARK INTRA:                  -0.260
REMARK UNBOUND:                -0.361
REMARK SMILES CCCCCCCC(=O)[O-]
REMARK SMILES IDX 5 1 6 2 7 3 8 4 9 5 10 6 4 7 3 8 2 9 1 10
REMARK H PARENT
REMARK Flexibility Score: inf
ROOT
ATOM      1  C   UNL     1      65.965  56.872   9.321  1.00  0.00     0.000 C 
ENDROOT
BRANCH   1   2
ATOM      2  C   UNL     1      64.920  58.000   9.312  1.00  0.00     0.006 C 
BRANCH   2   3
ATOM      3  C   UNL     1      64.007  57.954  10.545  1.00  0.00     0.053 C 
BRANCH   3   4
ATOM      4  C   UNL     1      62.587  57.657  10.173  1.00  0.00     0.041 C 
ATOM      5  O   UNL     1      61.899  58.516   9.560  1.00  0.00    -0.550 OA
ATOM      6  O   UNL     1      62.013  56.443  10.528  1.00  0.00    -0.550 OA
ENDBRANCH   3   4
ENDBRANCH   2   3
ENDBRANCH   1   2
BRANCH   1   7
ATOM      7  C   UNL     1      66.189  56.276  10.722  1.00  0.00     0.000 C 
BRANCH   7   8
ATOM      8  C   UNL     1      67.128  55.052  10.771  1.00  0.00    -0.000 C 
BRANCH   8   9
ATOM      9  C   UNL     1      68.146  54.968   9.620  1.00  0.00    -0.003 C 
ATOM     10  C   UNL     1      69.595  54.988  10.105  1.00  0.00     0.004 C 
ENDBRANCH   8   9
ENDBRANCH   7   8
ENDBRANCH   1   7
TORSDOF 6
ENDMDL
MODEL 3
REMARK VINA RESULT:    -1.760      2.335      3.795
REMARK INTER + INTRA:          -2.739
REMARK INTER:                  -2.601
REMARK INTRA:                  -0.138
REMARK UNBOUND:                -0.361
REMARK SMILES CCCCCCCC(=O)[O-]
REMARK SMILES IDX 5 1 6 2 7 3 8 4 9 5 10 6 4 7 3 8 2 9 1 10
REMARK H PARENT
REMARK Flexibility Score: inf
ROOT
ATOM      1  C   UNL     1      67.118  54.559  10.317  1.00  0.00     0.000 C 
ENDROOT
BRANCH   1   2
ATOM      2  C   UNL     1      66.825  56.008  10.743  1.00  0.00     0.006 C 
BRANCH   2   3
ATOM      3  C   UNL     1      65.986  56.759   9.700  1.00  0.00     0.053 C 
BRANCH   3   4
ATOM      4  C   UNL     1      64.993  57.677  10.345  1.00  0.00     0.041 C 
ATOM      5  O   UNL     1      65.387  58.671  11.011  1.00  0.00    -0.550 OA
ATOM      6  O   UNL     1      63.632  57.420  10.234  1.00  0.00    -0.550 OA
ENDBRANCH   3   4
ENDBRANCH   2   3
ENDBRANCH   1   2
BRANCH   1   7
ATOM      7  C   UNL     1      66.314  53.525  11.125  1.00  0.00     0.000 C 
BRANCH   7   8
ATOM      8  C   UNL     1      65.745  52.350  10.302  1.00  0.00    -0.000 C 
BRANCH   8   9
ATOM      9  C   UNL     1      65.387  51.097  11.121  1.00  0.00    -0.003 C 
ATOM     10  C   UNL     1      66.427  49.986  10.994  1.00  0.00     0.004 C 
ENDBRANCH   8   9
ENDBRANCH   7   8
ENDBRANCH   1   7
TORSDOF 6
ENDMDL
MODEL 4
REMARK VINA RESULT:    -0.735      3.675      5.134
REMARK INTER + INTRA:          -1.354
REMARK INTER:                  -1.264
REMARK INTRA:                  -0.090
REMARK UNBOUND:                -0.361
REMARK SMILES CCCCCCCC(=O)[O-]
REMARK SMILES IDX 5 1 6 2 7 3 8 4 9 5 10 6 4 7 3 8 2 9 1 10
REMARK H PARENT
REMARK Flexibility Score: inf
ROOT
ATOM      1  C   UNL     1      66.439  52.785  11.052  1.00  0.00     0.000 C 
ENDROOT
BRANCH   1   2
ATOM      2  C   UNL     1      65.911  54.228  11.124  1.00  0.00     0.006 C 
BRANCH   2   3
ATOM      3  C   UNL     1      66.625  55.156  10.132  1.00  0.00     0.053 C 
BRANCH   3   4
ATOM      4  C   UNL     1      66.258  56.591  10.353  1.00  0.00     0.041 C 
ATOM      5  O   UNL     1      67.107  57.400  10.813  1.00  0.00    -0.550 OA
ATOM      6  O   UNL     1      64.970  57.032  10.075  1.00  0.00    -0.550 OA
ENDBRANCH   3   4
ENDBRANCH   2   3
ENDBRANCH   1   2
BRANCH   1   7
ATOM      7  C   UNL     1      65.412  51.802  10.460  1.00  0.00     0.000 C 
BRANCH   7   8
ATOM      8  C   UNL     1      65.457  50.376  11.046  1.00  0.00    -0.000 C 
BRANCH   8   9
ATOM      9  C   UNL     1      64.098  49.658  11.113  1.00  0.00    -0.003 C 
ATOM     10  C   UNL     1      64.182  48.187  10.710  1.00  0.00     0.004 C 
ENDBRANCH   8   9
ENDBRANCH   7   8
ENDBRANCH   1   7
TORSDOF 6
ENDMDL
