MODEL 1
REMARK VINA RESULT:    -5.357      0.000      0.000
REMARK INTER + INTRA:          -7.353
REMARK INTER:                  -6.766
REMARK INTRA:                  -0.587
REMARK UNBOUND:                -0.587
REMARK SMILES Oc1ccc(CCc2cc(O)cc(O)c2)cc1
REMARK SMILES IDX 6 1 5 2 4 3 3 4 2 5 16 6 17 7 1 8 7 10 8 11 15 12 9 13 13 14
REMARK SMILES IDX 10 15 12 16 14 17 11 19
REMARK H PARENT 1 9 14 18 11 20
REMARK Flexibility Score: inf
ROOT
ATOM      1  C   UNL     1    -109.458 -16.338  51.831  1.00  0.00     0.040 C 
ENDROOT
BRANCH   1   2
ATOM      2  C   UNL     1    -108.671 -15.301  52.589  1.00  0.00    -0.047 A 
ATOM      3  C   UNL     1    -107.541 -14.705  52.008  1.00  0.00     0.007 A 
ATOM      4  C   UNL     1    -106.829 -13.719  52.699  1.00  0.00     0.046 A 
ATOM      5  C   UNL     1    -107.247 -13.314  53.973  1.00  0.00     0.115 A 
ATOM      6  C   UNL     1    -109.093 -14.882  53.861  1.00  0.00     0.007 A 
ATOM      7  C   UNL     1    -108.382 -13.896  54.550  1.00  0.00     0.046 A 
BRANCH   5   8
ATOM      8  O   UNL     1    -106.548 -12.333  54.672  1.00  0.00    -0.508 OA
ATOM      9  H   UNL     1    -106.939 -11.410  54.823  1.00  0.00     0.293 HD
ENDBRANCH   5   8
ENDBRANCH   1   2
BRANCH   1  10
ATOM     10  C   UNL     1    -108.912 -17.741  52.116  1.00  0.00     0.040 C 
BRANCH  10  11
ATOM     11  C   UNL     1    -108.043 -18.210  50.979  1.00  0.00    -0.040 A 
ATOM     12  C   UNL     1    -107.137 -19.266  51.171  1.00  0.00     0.050 A 
ATOM     13  C   UNL     1    -108.091 -17.559  49.736  1.00  0.00     0.050 A 
ATOM     14  C   UNL     1    -106.305 -19.682  50.126  1.00  0.00     0.119 A 
ATOM     15  C   UNL     1    -107.259 -17.975  48.688  1.00  0.00     0.119 A 
ATOM     16  C   UNL     1    -106.371 -19.038  48.884  1.00  0.00     0.092 A 
BRANCH  14  17
ATOM     17  O   UNL     1    -105.418 -20.736  50.333  1.00  0.00    -0.508 OA
ATOM     18  H   UNL     1    -105.575 -21.649  49.922  1.00  0.00     0.293 HD
ENDBRANCH  14  17
BRANCH  15  19
ATOM     19  O   UNL     1    -107.306 -17.339  47.449  1.00  0.00    -0.508 OA
ATOM     20  H   UNL     1    -108.043 -16.684  47.218  1.00  0.00     0.293 HD
ENDBRANCH  15  19
ENDBRANCH  10  11
ENDBRANCH   1  10
TORSDOF 6
ENDMDL
MODEL 2
REMARK VINA RESULT:    -5.347      0.119      2.037
REMARK INTER + INTRA:          -7.341
REMARK INTER:                  -6.758
REMARK INTRA:                  -0.582
REMARK UNBOUND:                -0.587
REMARK SMILES Oc1ccc(CCc2cc(O)cc(O)c2)cc1
REMARK SMILES IDX 6 1 5 2 4 3 3 4 2 5 16 6 17 7 1 8 7 10 8 11 15 12 9 13 13 14
REMARK SMILES IDX 10 15 12 16 14 17 11 19
REMARK H PARENT 1 9 14 18 11 20
REMARK Flexibility Score: inf
ROOT
ATOM      1  C   UNL     1    -109.424 -16.399  51.789  1.00  0.00     0.040 C 
ENDROOT
BRANCH   1   2
ATOM      2  C   UNL     1    -108.651 -15.353  52.547  1.00  0.00    -0.047 A 
ATOM      3  C   UNL     1    -107.533 -14.736  51.964  1.00  0.00     0.007 A 
ATOM      4  C   UNL     1    -106.835 -13.742  52.657  1.00  0.00     0.046 A 
ATOM      5  C   UNL     1    -107.254 -13.348  53.935  1.00  0.00     0.115 A 
ATOM      6  C   UNL     1    -109.075 -14.945  53.823  1.00  0.00     0.007 A 
ATOM      7  C   UNL     1    -108.376 -13.951  54.513  1.00  0.00     0.046 A 
BRANCH   5   8
ATOM      8  O   UNL     1    -106.568 -12.359  54.635  1.00  0.00    -0.508 OA
ATOM      9  H   UNL     1    -107.012 -11.831  55.377  1.00  0.00     0.293 HD
ENDBRANCH   5   8
ENDBRANCH   1   2
BRANCH   1  10
ATOM     10  C   UNL     1    -108.833 -17.790  52.039  1.00  0.00     0.040 C 
BRANCH  10  11
ATOM     11  C   UNL     1    -107.939 -18.198  50.897  1.00  0.00    -0.040 A 
ATOM     12  C   UNL     1    -108.061 -17.572  49.646  1.00  0.00     0.050 A 
ATOM     13  C   UNL     1    -107.018 -19.245  51.059  1.00  0.00     0.050 A 
ATOM     14  C   UNL     1    -107.256 -17.972  48.574  1.00  0.00     0.119 A 
ATOM     15  C   UNL     1    -106.210 -19.647  49.987  1.00  0.00     0.119 A 
ATOM     16  C   UNL     1    -106.328 -19.007  48.749  1.00  0.00     0.092 A 
BRANCH  14  17
ATOM     17  O   UNL     1    -107.385 -17.335  47.343  1.00  0.00    -0.508 OA
ATOM     18  H   UNL     1    -106.783 -16.563  47.080  1.00  0.00     0.293 HD
ENDBRANCH  14  17
BRANCH  15  19
ATOM     19  O   UNL     1    -105.288 -20.680  50.141  1.00  0.00    -0.508 OA
ATOM     20  H   UNL     1    -104.360 -20.511  50.511  1.00  0.00     0.293 HD
ENDBRANCH  15  19
ENDBRANCH  10  11
ENDBRANCH   1  10
TORSDOF 6
ENDMDL
MODEL 3
REMARK VINA RESULT:    -5.320      0.841      1.524
REMARK INTER + INTRA:          -7.306
REMARK INTER:                  -6.842
REMARK INTRA:                  -0.464
REMARK UNBOUND:                -0.587
REMARK SMILES Oc1ccc(CCc2cc(O)cc(O)c2)cc1
REMARK SMILES IDX 6 1 5 2 4 3 3 4 2 5 16 6 17 7 1 8 7 10 8 11 15 12 9 13 13 14
REMARK SMILES IDX 10 15 12 16 14 17 11 19
REMARK H PARENT 1 9 14 18 11 20
REMARK Flexibility Score: inf
ROOT
ATOM      1  C   UNL     1    -109.642 -16.597  52.474  1.00  0.00     0.040 C 
ENDROOT
BRANCH   1   2
ATOM      2  C   UNL     1    -108.869 -15.414  52.994  1.00  0.00    -0.047 A 
ATOM      3  C   UNL     1    -109.149 -14.888  54.265  1.00  0.00     0.007 A 
ATOM      4  C   UNL     1    -108.409 -13.810  54.761  1.00  0.00     0.046 A 
ATOM      5  C   UNL     1    -107.377 -13.253  53.994  1.00  0.00     0.115 A 
ATOM      6  C   UNL     1    -107.826 -14.860  52.235  1.00  0.00     0.007 A 
ATOM      7  C   UNL     1    -107.087 -13.783  52.732  1.00  0.00     0.046 A 
BRANCH   5   8
ATOM      8  O   UNL     1    -106.634 -12.179  54.476  1.00  0.00    -0.508 OA
ATOM      9  H   UNL     1    -106.092 -12.252  55.330  1.00  0.00     0.293 HD
ENDBRANCH   5   8
ENDBRANCH   1   2
BRANCH   1  10
ATOM     10  C   UNL     1    -109.540 -16.676  50.947  1.00  0.00     0.040 C 
BRANCH  10  11
ATOM     11  C   UNL     1    -108.508 -17.694  50.539  1.00  0.00    -0.040 A 
ATOM     12  C   UNL     1    -107.968 -18.574  51.490  1.00  0.00     0.050 A 
ATOM     13  C   UNL     1    -108.037 -17.732  49.216  1.00  0.00     0.050 A 
ATOM     14  C   UNL     1    -106.985 -19.498  51.121  1.00  0.00     0.119 A 
ATOM     15  C   UNL     1    -107.053 -18.658  48.844  1.00  0.00     0.119 A 
ATOM     16  C   UNL     1    -106.531 -19.541  49.796  1.00  0.00     0.092 A 
BRANCH  14  17
ATOM     17  O   UNL     1    -106.466 -20.368  52.077  1.00  0.00    -0.508 OA
ATOM     18  H   UNL     1    -105.759 -20.068  52.737  1.00  0.00     0.293 HD
ENDBRANCH  14  17
BRANCH  15  19
ATOM     19  O   UNL     1    -106.585 -18.708  47.532  1.00  0.00    -0.508 OA
ATOM     20  H   UNL     1    -107.041 -18.194  46.788  1.00  0.00     0.293 HD
ENDBRANCH  15  19
ENDBRANCH  10  11
ENDBRANCH   1  10
TORSDOF 6
ENDMDL
MODEL 4
REMARK VINA RESULT:    -5.294      0.853      2.383
REMARK INTER + INTRA:          -7.273
REMARK INTER:                  -6.831
REMARK INTRA:                  -0.442
REMARK UNBOUND:                -0.587
REMARK SMILES Oc1ccc(CCc2cc(O)cc(O)c2)cc1
REMARK SMILES IDX 6 1 5 2 4 3 3 4 2 5 16 6 17 7 1 8 7 10 8 11 15 12 9 13 13 14
REMARK SMILES IDX 10 15 12 16 14 17 11 19
REMARK H PARENT 1 9 14 18 11 20
REMARK Flexibility Score: inf
ROOT
ATOM      1  C   UNL     1    -109.611 -16.606  52.467  1.00  0.00     0.040 C 
ENDROOT
BRANCH   1   2
ATOM      2  C   UNL     1    -108.841 -15.420  52.986  1.00  0.00    -0.047 A 
ATOM      3  C   UNL     1    -109.140 -14.878  54.247  1.00  0.00     0.007 A 
ATOM      4  C   UNL     1    -108.404 -13.798  54.742  1.00  0.00     0.046 A 
ATOM      5  C   UNL     1    -107.356 -13.255  53.987  1.00  0.00     0.115 A 
ATOM      6  C   UNL     1    -107.782 -14.881  52.239  1.00  0.00     0.007 A 
ATOM      7  C   UNL     1    -107.047 -13.801  52.737  1.00  0.00     0.046 A 
BRANCH   5   8
ATOM      8  O   UNL     1    -106.615 -12.179  54.469  1.00  0.00    -0.508 OA
ATOM      9  H   UNL     1    -106.734 -11.245  54.095  1.00  0.00     0.293 HD
ENDBRANCH   5   8
ENDBRANCH   1   2
BRANCH   1  10
ATOM     10  C   UNL     1    -109.476 -16.708  50.944  1.00  0.00     0.040 C 
BRANCH  10  11
ATOM     11  C   UNL     1    -108.411 -17.707  50.575  1.00  0.00    -0.040 A 
ATOM     12  C   UNL     1    -107.935 -17.778  49.255  1.00  0.00     0.050 A 
ATOM     13  C   UNL     1    -107.927 -18.612  51.532  1.00  0.00     0.050 A 
ATOM     14  C   UNL     1    -106.970 -18.726  48.901  1.00  0.00     0.119 A 
ATOM     15  C   UNL     1    -106.959 -19.563  51.180  1.00  0.00     0.119 A 
ATOM     16  C   UNL     1    -106.481 -19.616  49.866  1.00  0.00     0.092 A 
BRANCH  14  17
ATOM     17  O   UNL     1    -106.506 -18.776  47.589  1.00  0.00    -0.508 OA
ATOM     18  H   UNL     1    -105.516 -18.843  47.380  1.00  0.00     0.293 HD
ENDBRANCH  14  17
BRANCH  15  19
ATOM     19  O   UNL     1    -106.469 -20.461  52.126  1.00  0.00    -0.508 OA
ATOM     20  H   UNL     1    -106.842 -21.399  52.208  1.00  0.00     0.293 HD
ENDBRANCH  15  19
ENDBRANCH  10  11
ENDBRANCH   1  10
TORSDOF 6
ENDMDL
MODEL 5
REMARK VINA RESULT:    -5.166      1.179      6.360
REMARK INTER + INTRA:          -7.112
REMARK INTER:                  -6.525
REMARK INTRA:                  -0.587
REMARK UNBOUND:                -0.587
REMARK SMILES Oc1ccc(CCc2cc(O)cc(O)c2)cc1
REMARK SMILES IDX 6 1 5 2 4 3 3 4 2 5 16 6 17 7 1 8 7 10 8 11 15 12 9 13 13 14
REMARK SMILES IDX 10 15 12 16 14 17 11 19
REMARK H PARENT 1 9 14 18 11 20
REMARK Flexibility Score: inf
ROOT
ATOM      1  C   UNL     1    -108.836 -17.578  52.126  1.00  0.00     0.040 C 
ENDROOT
BRANCH   1   2
ATOM      2  C   UNL     1    -108.051 -18.098  50.951  1.00  0.00    -0.047 A 
ATOM      3  C   UNL     1    -108.056 -17.402  49.732  1.00  0.00     0.007 A 
ATOM      4  C   UNL     1    -107.301 -17.868  48.650  1.00  0.00     0.046 A 
ATOM      5  C   UNL     1    -106.527 -19.029  48.781  1.00  0.00     0.115 A 
ATOM      6  C   UNL     1    -107.263 -19.253  51.081  1.00  0.00     0.007 A 
ATOM      7  C   UNL     1    -106.509 -19.717  49.999  1.00  0.00     0.046 A 
BRANCH   5   8
ATOM      8  O   UNL     1    -105.771 -19.503  47.713  1.00  0.00    -0.508 OA
ATOM      9  H   UNL     1    -105.665 -18.965  46.860  1.00  0.00     0.293 HD
ENDBRANCH   5   8
ENDBRANCH   1   2
BRANCH   1  10
ATOM     10  C   UNL     1    -109.430 -16.202  51.808  1.00  0.00     0.040 C 
BRANCH  10  11
ATOM     11  C   UNL     1    -108.760 -15.134  52.631  1.00  0.00    -0.040 A 
ATOM     12  C   UNL     1    -109.406 -14.600  53.758  1.00  0.00     0.050 A 
ATOM     13  C   UNL     1    -107.510 -14.624  52.245  1.00  0.00     0.050 A 
ATOM     14  C   UNL     1    -108.800 -13.585  54.505  1.00  0.00     0.119 A 
ATOM     15  C   UNL     1    -106.901 -13.607  52.993  1.00  0.00     0.119 A 
ATOM     16  C   UNL     1    -107.546 -13.092  54.123  1.00  0.00     0.092 A 
BRANCH  14  17
ATOM     17  O   UNL     1    -109.453 -13.073  55.624  1.00  0.00    -0.508 OA
ATOM     18  H   UNL     1    -109.218 -12.163  56.004  1.00  0.00     0.293 HD
ENDBRANCH  14  17
BRANCH  15  19
ATOM     19  O   UNL     1    -105.657 -13.100  52.621  1.00  0.00    -0.508 OA
ATOM     20  H   UNL     1    -105.261 -13.288  51.708  1.00  0.00     0.293 HD
ENDBRANCH  15  19
ENDBRANCH  10  11
ENDBRANCH   1  10
TORSDOF 6
ENDMDL
MODEL 6
REMARK VINA RESULT:    -5.083      1.192      6.402
REMARK INTER + INTRA:          -7.007
REMARK INTER:                  -6.448
REMARK INTRA:                  -0.559
REMARK UNBOUND:                -0.587
REMARK SMILES Oc1ccc(CCc2cc(O)cc(O)c2)cc1
REMARK SMILES IDX 6 1 5 2 4 3 3 4 2 5 16 6 17 7 1 8 7 10 8 11 15 12 9 13 13 14
REMARK SMILES IDX 10 15 12 16 14 17 11 19
REMARK H PARENT 1 9 14 18 11 20
REMARK Flexibility Score: inf
ROOT
ATOM      1  C   UNL     1    -108.840 -17.579  52.179  1.00  0.00     0.040 C 
ENDROOT
BRANCH   1   2
ATOM      2  C   UNL     1    -108.016 -18.077  51.021  1.00  0.00    -0.047 A 
ATOM      3  C   UNL     1    -107.312 -19.288  51.122  1.00  0.00     0.007 A 
ATOM      4  C   UNL     1    -106.573 -19.767  50.035  1.00  0.00     0.046 A 
ATOM      5  C   UNL     1    -106.540 -19.045  48.835  1.00  0.00     0.115 A 
ATOM      6  C   UNL     1    -107.990 -17.365  49.812  1.00  0.00     0.007 A 
ATOM      7  C   UNL     1    -107.251 -17.845  48.727  1.00  0.00     0.046 A 
BRANCH   5   8
ATOM      8  O   UNL     1    -105.808 -19.511  47.746  1.00  0.00    -0.508 OA
ATOM      9  H   UNL     1    -106.020 -20.401  47.308  1.00  0.00     0.293 HD
ENDBRANCH   5   8
ENDBRANCH   1   2
BRANCH   1  10
ATOM     10  C   UNL     1    -109.488 -16.233  51.836  1.00  0.00     0.040 C 
BRANCH  10  11
ATOM     11  C   UNL     1    -108.849 -15.122  52.626  1.00  0.00    -0.040 A 
ATOM     12  C   UNL     1    -107.580 -14.638  52.267  1.00  0.00     0.050 A 
ATOM     13  C   UNL     1    -109.491 -14.601  53.761  1.00  0.00     0.050 A 
ATOM     14  C   UNL     1    -106.970 -13.629  53.019  1.00  0.00     0.119 A 
ATOM     15  C   UNL     1    -108.882 -13.589  54.515  1.00  0.00     0.119 A 
ATOM     16  C   UNL     1    -107.624 -13.104  54.141  1.00  0.00     0.092 A 
BRANCH  14  17
ATOM     17  O   UNL     1    -105.714 -13.157  52.643  1.00  0.00    -0.508 OA
ATOM     18  H   UNL     1    -105.343 -12.290  53.013  1.00  0.00     0.293 HD
ENDBRANCH  14  17
BRANCH  15  19
ATOM     19  O   UNL     1    -109.515 -13.062  55.638  1.00  0.00    -0.508 OA
ATOM     20  H   UNL     1    -110.442 -13.365  55.915  1.00  0.00     0.293 HD
ENDBRANCH  15  19
ENDBRANCH  10  11
ENDBRANCH   1  10
TORSDOF 6
ENDMDL
MODEL 7
REMARK VINA RESULT:    -5.076      4.045      6.618
REMARK INTER + INTRA:          -6.998
REMARK INTER:                  -6.370
REMARK INTRA:                  -0.627
REMARK UNBOUND:                -0.587
REMARK SMILES Oc1ccc(CCc2cc(O)cc(O)c2)cc1
REMARK SMILES IDX 6 1 5 2 4 3 3 4 2 5 16 6 17 7 1 8 7 10 8 11 15 12 9 13 13 14
REMARK SMILES IDX 10 15 12 16 14 17 11 19
REMARK H PARENT 1 9 14 18 11 20
REMARK Flexibility Score: inf
ROOT
ATOM      1  C   UNL     1    -109.836 -15.841  53.954  1.00  0.00     0.040 C 
ENDROOT
BRANCH   1   2
ATOM      2  C   UNL     1    -108.686 -14.938  53.592  1.00  0.00    -0.047 A 
ATOM      3  C   UNL     1    -108.116 -14.996  52.311  1.00  0.00     0.007 A 
ATOM      4  C   UNL     1    -107.070 -14.135  51.965  1.00  0.00     0.046 A 
ATOM      5  C   UNL     1    -106.591 -13.202  52.893  1.00  0.00     0.115 A 
ATOM      6  C   UNL     1    -108.211 -13.992  54.515  1.00  0.00     0.007 A 
ATOM      7  C   UNL     1    -107.166 -13.132  54.167  1.00  0.00     0.046 A 
BRANCH   5   8
ATOM      8  O   UNL     1    -105.549 -12.339  52.561  1.00  0.00    -0.508 OA
ATOM      9  H   UNL     1    -104.696 -12.304  53.108  1.00  0.00     0.293 HD
ENDBRANCH   5   8
ENDBRANCH   1   2
BRANCH   1  10
ATOM     10  C   UNL     1    -111.076 -15.490  53.125  1.00  0.00     0.040 C 
BRANCH  10  11
ATOM     11  C   UNL     1    -111.448 -14.044  53.315  1.00  0.00    -0.040 A 
ATOM     12  C   UNL     1    -111.191 -13.108  52.300  1.00  0.00     0.050 A 
ATOM     13  C   UNL     1    -112.000 -13.610  54.531  1.00  0.00     0.050 A 
ATOM     14  C   UNL     1    -111.505 -11.758  52.487  1.00  0.00     0.119 A 
ATOM     15  C   UNL     1    -112.316 -12.257  54.720  1.00  0.00     0.119 A 
ATOM     16  C   UNL     1    -112.071 -11.335  53.697  1.00  0.00     0.092 A 
BRANCH  14  17
ATOM     17  O   UNL     1    -111.251 -10.846  51.465  1.00  0.00    -0.508 OA
ATOM     18  H   UNL     1    -111.410  -9.853  51.590  1.00  0.00     0.293 HD
ENDBRANCH  14  17
BRANCH  15  19
ATOM     19  O   UNL     1    -112.871 -11.819  55.921  1.00  0.00    -0.508 OA
ATOM     20  H   UNL     1    -113.557 -12.374  56.420  1.00  0.00     0.293 HD
ENDBRANCH  15  19
ENDBRANCH  10  11
ENDBRANCH   1  10
TORSDOF 6
ENDMDL
MODEL 8
REMARK VINA RESULT:    -4.853      1.668      2.940
REMARK INTER + INTRA:          -6.716
REMARK INTER:                  -6.219
REMARK INTRA:                  -0.497
REMARK UNBOUND:                -0.587
REMARK SMILES Oc1ccc(CCc2cc(O)cc(O)c2)cc1
REMARK SMILES IDX 6 1 5 2 4 3 3 4 2 5 16 6 17 7 1 8 7 10 8 11 15 12 9 13 13 14
REMARK SMILES IDX 10 15 12 16 14 17 11 19
REMARK H PARENT 1 9 14 18 11 20
REMARK Flexibility Score: inf
ROOT
ATOM      1  C   UNL     1    -108.833 -16.575  51.685  1.00  0.00     0.040 C 
ENDROOT
BRANCH   1   2
ATOM      2  C   UNL     1    -108.276 -15.382  52.415  1.00  0.00    -0.047 A 
ATOM      3  C   UNL     1    -108.846 -14.965  53.629  1.00  0.00     0.007 A 
ATOM      4  C   UNL     1    -108.308 -13.877  54.323  1.00  0.00     0.046 A 
ATOM      5  C   UNL     1    -107.190 -13.201  53.815  1.00  0.00     0.115 A 
ATOM      6  C   UNL     1    -107.149 -14.710  51.918  1.00  0.00     0.007 A 
ATOM      7  C   UNL     1    -106.612 -13.623  52.613  1.00  0.00     0.046 A 
BRANCH   5   8
ATOM      8  O   UNL     1    -106.645 -12.116  54.497  1.00  0.00    -0.508 OA
ATOM      9  H   UNL     1    -106.067 -11.431  54.024  1.00  0.00     0.293 HD
ENDBRANCH   5   8
ENDBRANCH   1   2
BRANCH   1  10
ATOM     10  C   UNL     1    -107.752 -17.226  50.817  1.00  0.00     0.040 C 
BRANCH  10  11
ATOM     11  C   UNL     1    -108.265 -17.458  49.420  1.00  0.00    -0.040 A 
ATOM     12  C   UNL     1    -109.632 -17.307  49.134  1.00  0.00     0.050 A 
ATOM     13  C   UNL     1    -107.390 -17.883  48.407  1.00  0.00     0.050 A 
ATOM     14  C   UNL     1    -110.116 -17.555  47.846  1.00  0.00     0.119 A 
ATOM     15  C   UNL     1    -107.874 -18.130  47.115  1.00  0.00     0.119 A 
ATOM     16  C   UNL     1    -109.234 -17.963  46.836  1.00  0.00     0.092 A 
BRANCH  14  17
ATOM     17  O   UNL     1    -111.474 -17.392  47.580  1.00  0.00    -0.508 OA
ATOM     18  H   UNL     1    -112.166 -17.432  48.319  1.00  0.00     0.293 HD
ENDBRANCH  14  17
BRANCH  15  19
ATOM     19  O   UNL     1    -107.011 -18.544  46.101  1.00  0.00    -0.508 OA
ATOM     20  H   UNL     1    -107.027 -19.494  45.749  1.00  0.00     0.293 HD
ENDBRANCH  15  19
ENDBRANCH  10  11
ENDBRANCH   1  10
TORSDOF 6
ENDMDL
MODEL 9
REMARK VINA RESULT:    -4.811      1.520      6.528
REMARK INTER + INTRA:          -6.663
REMARK INTER:                  -6.084
REMARK INTRA:                  -0.580
REMARK UNBOUND:                -0.587
REMARK SMILES Oc1ccc(CCc2cc(O)cc(O)c2)cc1
REMARK SMILES IDX 6 1 5 2 4 3 3 4 2 5 16 6 17 7 1 8 7 10 8 11 15 12 9 13 13 14
REMARK SMILES IDX 10 15 12 16 14 17 11 19
REMARK H PARENT 1 9 14 18 11 20
REMARK Flexibility Score: inf
ROOT
ATOM      1  C   UNL     1    -109.844 -17.026  52.545  1.00  0.00     0.040 C 
ENDROOT
BRANCH   1   2
ATOM      2  C   UNL     1    -108.712 -17.742  51.858  1.00  0.00    -0.047 A 
ATOM      3  C   UNL     1    -108.385 -19.059  52.216  1.00  0.00     0.007 A 
ATOM      4  C   UNL     1    -107.354 -19.735  51.555  1.00  0.00     0.046 A 
ATOM      5  C   UNL     1    -106.647 -19.103  50.524  1.00  0.00     0.115 A 
ATOM      6  C   UNL     1    -108.009 -17.118  50.814  1.00  0.00     0.007 A 
ATOM      7  C   UNL     1    -106.979 -17.795  50.155  1.00  0.00     0.046 A 
BRANCH   5   8
ATOM      8  O   UNL     1    -105.619 -19.765  49.858  1.00  0.00    -0.508 OA
ATOM      9  H   UNL     1    -105.262 -20.655  50.188  1.00  0.00     0.293 HD
ENDBRANCH   5   8
ENDBRANCH   1   2
BRANCH   1  10
ATOM     10  C   UNL     1    -109.985 -15.599  52.004  1.00  0.00     0.040 C 
BRANCH  10  11
ATOM     11  C   UNL     1    -109.508 -14.598  53.023  1.00  0.00    -0.040 A 
ATOM     12  C   UNL     1    -108.177 -14.151  53.007  1.00  0.00     0.050 A 
ATOM     13  C   UNL     1    -110.376 -14.148  54.031  1.00  0.00     0.050 A 
ATOM     14  C   UNL     1    -107.723 -13.247  53.973  1.00  0.00     0.119 A 
ATOM     15  C   UNL     1    -109.923 -13.242  55.000  1.00  0.00     0.119 A 
ATOM     16  C   UNL     1    -108.599 -12.791  54.966  1.00  0.00     0.092 A 
BRANCH  14  17
ATOM     17  O   UNL     1    -106.401 -12.810  53.936  1.00  0.00    -0.508 OA
ATOM     18  H   UNL     1    -105.914 -12.671  53.059  1.00  0.00     0.293 HD
ENDBRANCH  14  17
BRANCH  15  19
ATOM     19  O   UNL     1    -110.779 -12.784  56.000  1.00  0.00    -0.508 OA
ATOM     20  H   UNL     1    -110.637 -11.887  56.448  1.00  0.00     0.293 HD
ENDBRANCH  15  19
ENDBRANCH  10  11
ENDBRANCH   1  10
TORSDOF 6
ENDMDL
