MODEL 1
REMARK VINA RESULT:    15.772      0.000      0.000
REMARK INTER + INTRA:          21.756
REMARK INTER:                  20.843
REMARK INTRA:                   0.912
REMARK UNBOUND:                 0.912
REMARK SMILES CC[C@@H](C=C[C@H](C)[C@H]1CC[C@@H]2[C@@H]3CC=C4C[C@@H](O)CC[C@]4(C)[C@@H]3CC[C@@]21C)C(C)C
REMARK SMILES IDX 6 1 7 2 5 3 4 4 3 5 2 6 1 7 28 8 29 9 30 10 8 11 9 12 26 13
REMARK SMILES IDX 10 14 11 15 25 16 27 17 12 18 24 19 23 20 13 21 21 22 14 23
REMARK SMILES IDX 15 24 20 25 22 26 16 27 19 28 17 29 18 30
REMARK H PARENT 18 31
REMARK Flexibility Score: inf
ROOT
ATOM      1  C   UNL     1     136.032 135.125 138.891  1.00  0.00     0.012 C 
ATOM      2  C   UNL     1     134.880 136.033 139.368  1.00  0.00     0.012 C 
ENDROOT
BRANCH   1   3
ATOM      3  C   UNL     1     136.933 134.718 140.046  1.00  0.00    -0.028 C 
ATOM      4  C   UNL     1     138.147 134.161 139.899  1.00  0.00    -0.027 C 
BRANCH   4   5
ATOM      5  C   UNL     1     138.987 133.789 141.108  1.00  0.00     0.014 C 
BRANCH   5   6
ATOM      6  C   UNL     1     140.008 134.917 141.406  1.00  0.00     0.004 C 
ATOM      7  C   UNL     1     140.157 135.230 142.897  1.00  0.00     0.004 C 
ENDBRANCH   5   6
BRANCH   5   8
ATOM      8  C   UNL     1     139.640 132.375 140.966  1.00  0.00    -0.011 C 
ATOM      9  C   UNL     1     140.486 132.012 142.199  1.00  0.00     0.008 C 
ATOM     10  C   UNL     1     138.632 131.252 140.659  1.00  0.00     0.008 C 
ENDBRANCH   5   8
ENDBRANCH   4   5
ENDBRANCH   1   3
BRANCH   1  11
ATOM     11  C   UNL     1     135.622 133.877 138.018  1.00  0.00     0.002 C 
ATOM     12  C   UNL     1     136.086 132.528 138.598  1.00  0.00     0.005 C 
ATOM     13  C   UNL     1     134.093 133.657 137.729  1.00  0.00    -0.026 C 
ATOM     14  C   UNL     1     134.864 131.854 139.223  1.00  0.00     0.005 C 
ATOM     15  C   UNL     1     133.645 132.729 138.887  1.00  0.00    -0.001 C 
ATOM     16  C   UNL     1     133.918 132.977 136.312  1.00  0.00     0.007 C 
ATOM     17  C   UNL     1     133.256 134.962 137.743  1.00  0.00     0.012 C 
ATOM     18  C   UNL     1     132.297 131.981 138.639  1.00  0.00     0.000 C 
ATOM     19  C   UNL     1     133.372 131.545 136.341  1.00  0.00     0.005 C 
ATOM     20  C   UNL     1     132.081 131.468 137.177  1.00  0.00     0.003 C 
ATOM     21  C   UNL     1     132.021 130.916 139.701  1.00  0.00     0.031 C 
ATOM     22  C   UNL     1     131.285 130.096 137.017  1.00  0.00    -0.008 C 
ATOM     23  C   UNL     1     130.709 130.248 139.450  1.00  0.00    -0.027 C 
ATOM     24  C   UNL     1     130.379 129.814 138.219  1.00  0.00    -0.065 C 
ATOM     25  C   UNL     1     132.218 128.851 136.887  1.00  0.00     0.014 C 
ATOM     26  C   UNL     1     130.417 130.226 135.728  1.00  0.00     0.016 C 
ATOM     27  C   UNL     1     129.499 128.587 138.135  1.00  0.00     0.063 C 
ATOM     28  C   UNL     1     131.446 127.504 136.855  1.00  0.00     0.033 C 
ATOM     29  C   UNL     1     130.422 127.358 138.012  1.00  0.00     0.118 C 
BRANCH  29  30
ATOM     30  O   UNL     1     129.664 126.183 137.873  1.00  0.00    -0.393 OA
ATOM     31  H   UNL     1     130.181 125.559 137.294  1.00  0.00     0.210 HD
ENDBRANCH  29  30
ENDBRANCH   1  11
TORSDOF 6
ENDMDL
MODEL 2
REMARK VINA RESULT:    15.972      2.852      4.718
REMARK INTER + INTRA:          22.020
REMARK INTER:                  20.058
REMARK INTRA:                   1.962
REMARK UNBOUND:                 0.912
REMARK SMILES CC[C@@H](C=C[C@H](C)[C@H]1CC[C@@H]2[C@@H]3CC=C4C[C@@H](O)CC[C@]4(C)[C@@H]3CC[C@@]21C)C(C)C
REMARK SMILES IDX 6 1 7 2 5 3 4 4 3 5 2 6 1 7 28 8 29 9 30 10 8 11 9 12 26 13
REMARK SMILES IDX 10 14 11 15 25 16 27 17 12 18 24 19 23 20 13 21 21 22 14 23
REMARK SMILES IDX 15 24 20 25 22 26 16 27 19 28 17 29 18 30
REMARK H PARENT 18 31
REMARK Flexibility Score: inf
ROOT
ATOM      1  C   UNL     1     134.067 135.167 137.916  1.00  0.00     0.012 C 
ATOM      2  C   UNL     1     134.863 135.927 138.997  1.00  0.00     0.012 C 
ENDROOT
BRANCH   1   3
ATOM      3  C   UNL     1     134.983 134.327 137.039  1.00  0.00    -0.028 C 
ATOM      4  C   UNL     1     134.571 133.297 136.283  1.00  0.00    -0.027 C 
BRANCH   4   5
ATOM      5  C   UNL     1     135.552 132.512 135.430  1.00  0.00     0.014 C 
BRANCH   5   6
ATOM      6  C   UNL     1     136.964 133.141 135.540  1.00  0.00     0.004 C 
ATOM      7  C   UNL     1     138.095 132.177 135.172  1.00  0.00     0.004 C 
ENDBRANCH   5   6
BRANCH   5   8
ATOM      8  C   UNL     1     135.055 132.340 133.958  1.00  0.00    -0.011 C 
ATOM      9  C   UNL     1     133.891 131.338 133.862  1.00  0.00     0.008 C 
ATOM     10  C   UNL     1     134.679 133.665 133.269  1.00  0.00     0.008 C 
ENDBRANCH   5   8
ENDBRANCH   4   5
ENDBRANCH   1   3
BRANCH   1  11
ATOM     11  C   UNL     1     132.830 134.328 138.420  1.00  0.00     0.002 C 
ATOM     12  C   UNL     1     131.724 134.147 137.365  1.00  0.00     0.005 C 
ATOM     13  C   UNL     1     133.099 132.869 138.939  1.00  0.00    -0.026 C 
ATOM     14  C   UNL     1     131.831 132.718 136.830  1.00  0.00     0.005 C 
ATOM     15  C   UNL     1     132.902 132.002 137.669  1.00  0.00    -0.001 C 
ATOM     16  C   UNL     1     132.058 132.515 140.077  1.00  0.00     0.007 C 
ATOM     17  C   UNL     1     134.524 132.656 139.509  1.00  0.00     0.012 C 
ATOM     18  C   UNL     1     132.668 130.483 137.948  1.00  0.00     0.000 C 
ATOM     19  C   UNL     1     131.049 131.419 139.716  1.00  0.00     0.005 C 
ATOM     20  C   UNL     1     131.768 130.165 139.187  1.00  0.00     0.003 C 
ATOM     21  C   UNL     1     132.256 129.720 136.688  1.00  0.00     0.031 C 
ATOM     22  C   UNL     1     130.832 128.879 139.073  1.00  0.00    -0.008 C 
ATOM     23  C   UNL     1     132.076 128.267 136.987  1.00  0.00    -0.027 C 
ATOM     24  C   UNL     1     131.371 127.864 138.061  1.00  0.00    -0.065 C 
ATOM     25  C   UNL     1     129.379 129.211 138.609  1.00  0.00     0.014 C 
ATOM     26  C   UNL     1     130.785 128.229 140.489  1.00  0.00     0.016 C 
ATOM     27  C   UNL     1     130.618 126.559 137.939  1.00  0.00     0.063 C 
ATOM     28  C   UNL     1     128.503 127.949 138.379  1.00  0.00     0.033 C 
ATOM     29  C   UNL     1     129.185 126.888 137.476  1.00  0.00     0.118 C 
BRANCH  29  30
ATOM     30  O   UNL     1     128.410 125.718 137.396  1.00  0.00    -0.393 OA
ATOM     31  H   UNL     1     128.111 125.492 138.318  1.00  0.00     0.210 HD
ENDBRANCH  29  30
ENDBRANCH   1  11
TORSDOF 6
ENDMDL
MODEL 3
REMARK VINA RESULT:    16.365      2.886      7.910
REMARK INTER + INTRA:          22.539
REMARK INTER:                  21.567
REMARK INTRA:                   0.971
REMARK UNBOUND:                 0.912
REMARK SMILES CC[C@@H](C=C[C@H](C)[C@H]1CC[C@@H]2[C@@H]3CC=C4C[C@@H](O)CC[C@]4(C)[C@@H]3CC[C@@]21C)C(C)C
REMARK SMILES IDX 6 1 7 2 5 3 4 4 3 5 2 6 1 7 28 8 29 9 30 10 8 11 9 12 26 13
REMARK SMILES IDX 10 14 11 15 25 16 27 17 12 18 24 19 23 20 13 21 21 22 14 23
REMARK SMILES IDX 15 24 20 25 22 26 16 27 19 28 17 29 18 30
REMARK H PARENT 18 31
REMARK Flexibility Score: inf
ROOT
ATOM      1  C   UNL     1     132.036 134.513 137.892  1.00  0.00     0.012 C 
ATOM      2  C   UNL     1     131.299 135.407 136.874  1.00  0.00     0.012 C 
ENDROOT
BRANCH   1   3
ATOM      3  C   UNL     1     132.062 133.061 137.440  1.00  0.00    -0.028 C 
ATOM      4  C   UNL     1     131.866 132.011 138.255  1.00  0.00    -0.027 C 
BRANCH   4   5
ATOM      5  C   UNL     1     131.903 130.590 137.722  1.00  0.00     0.014 C 
BRANCH   5   6
ATOM      6  C   UNL     1     131.778 130.606 136.177  1.00  0.00     0.004 C 
ATOM      7  C   UNL     1     133.127 130.594 135.453  1.00  0.00     0.004 C 
ENDBRANCH   5   6
BRANCH   5   8
ATOM      8  C   UNL     1     130.859 129.663 138.425  1.00  0.00    -0.011 C 
ATOM      9  C   UNL     1     131.090 128.181 138.081  1.00  0.00     0.008 C 
ATOM     10  C   UNL     1     130.786 129.853 139.952  1.00  0.00     0.008 C 
ENDBRANCH   5   8
ENDBRANCH   4   5
ENDBRANCH   1   3
BRANCH   1  11
ATOM     11  C   UNL     1     133.469 134.998 138.340  1.00  0.00     0.002 C 
ATOM     12  C   UNL     1     133.584 135.302 139.844  1.00  0.00     0.005 C 
ATOM     13  C   UNL     1     134.686 134.048 138.052  1.00  0.00    -0.026 C 
ATOM     14  C   UNL     1     134.334 134.136 140.490  1.00  0.00     0.005 C 
ATOM     15  C   UNL     1     134.795 133.211 139.352  1.00  0.00    -0.001 C 
ATOM     16  C   UNL     1     135.981 134.917 137.786  1.00  0.00     0.007 C 
ATOM     17  C   UNL     1     134.478 133.110 136.835  1.00  0.00     0.012 C 
ATOM     18  C   UNL     1     136.167 132.491 139.550  1.00  0.00     0.000 C 
ATOM     19  C   UNL     1     137.075 134.796 138.853  1.00  0.00     0.005 C 
ATOM     20  C   UNL     1     137.421 133.319 139.117  1.00  0.00     0.003 C 
ATOM     21  C   UNL     1     136.300 131.873 140.943  1.00  0.00     0.031 C 
ATOM     22  C   UNL     1     138.744 133.106 139.979  1.00  0.00    -0.008 C 
ATOM     23  C   UNL     1     137.608 131.165 141.082  1.00  0.00    -0.027 C 
ATOM     24  C   UNL     1     138.756 131.749 140.689  1.00  0.00    -0.065 C 
ATOM     25  C   UNL     1     138.928 134.174 141.104  1.00  0.00     0.014 C 
ATOM     26  C   UNL     1     139.946 133.188 138.990  1.00  0.00     0.016 C 
ATOM     27  C   UNL     1     140.007 131.394 141.460  1.00  0.00     0.063 C 
ATOM     28  C   UNL     1     140.149 133.897 142.022  1.00  0.00     0.033 C 
ATOM     29  C   UNL     1     140.184 132.447 142.572  1.00  0.00     0.118 C 
BRANCH  29  30
ATOM     30  O   UNL     1     141.365 132.208 143.295  1.00  0.00    -0.393 OA
ATOM     31  H   UNL     1     142.114 132.637 142.799  1.00  0.00     0.210 HD
ENDBRANCH  29  30
ENDBRANCH   1  11
TORSDOF 6
ENDMDL
MODEL 4
REMARK VINA RESULT:    18.167      2.873      8.325
REMARK INTER + INTRA:          24.920
REMARK INTER:                  24.802
REMARK INTRA:                   0.118
REMARK UNBOUND:                 0.912
REMARK SMILES CC[C@@H](C=C[C@H](C)[C@H]1CC[C@@H]2[C@@H]3CC=C4C[C@@H](O)CC[C@]4(C)[C@@H]3CC[C@@]21C)C(C)C
REMARK SMILES IDX 6 1 7 2 5 3 4 4 3 5 2 6 1 7 28 8 29 9 30 10 8 11 9 12 26 13
REMARK SMILES IDX 10 14 11 15 25 16 27 17 12 18 24 19 23 20 13 21 21 22 14 23
REMARK SMILES IDX 15 24 20 25 22 26 16 27 19 28 17 29 18 30
REMARK H PARENT 18 31
REMARK Flexibility Score: inf
ROOT
ATOM      1  C   UNL     1     132.318 132.642 136.958  1.00  0.00     0.012 C 
ATOM      2  C   UNL     1     133.047 131.964 135.780  1.00  0.00     0.012 C 
ENDROOT
BRANCH   1   3
ATOM      3  C   UNL     1     131.514 131.635 137.766  1.00  0.00    -0.028 C 
ATOM      4  C   UNL     1     131.611 130.303 137.626  1.00  0.00    -0.027 C 
BRANCH   4   5
ATOM      5  C   UNL     1     130.774 129.365 138.478  1.00  0.00     0.014 C 
BRANCH   5   6
ATOM      6  C   UNL     1     130.974 129.699 139.978  1.00  0.00     0.004 C 
ATOM      7  C   UNL     1     130.811 128.489 140.903  1.00  0.00     0.004 C 
ENDBRANCH   5   6
BRANCH   5   8
ATOM      8  C   UNL     1     131.027 127.861 138.132  1.00  0.00    -0.011 C 
ATOM      9  C   UNL     1     129.709 127.080 137.988  1.00  0.00     0.008 C 
ATOM     10  C   UNL     1     131.913 127.649 136.890  1.00  0.00     0.008 C 
ENDBRANCH   5   8
ENDBRANCH   4   5
ENDBRANCH   1   3
BRANCH   1  11
ATOM     11  C   UNL     1     133.201 133.554 137.895  1.00  0.00     0.002 C 
ATOM     12  C   UNL     1     132.983 133.302 139.398  1.00  0.00     0.005 C 
ATOM     13  C   UNL     1     134.761 133.485 137.723  1.00  0.00    -0.026 C 
ATOM     14  C   UNL     1     134.180 132.497 139.905  1.00  0.00     0.005 C 
ATOM     15  C   UNL     1     135.181 132.395 138.742  1.00  0.00    -0.001 C 
ATOM     16  C   UNL     1     135.389 134.898 138.059  1.00  0.00     0.007 C 
ATOM     17  C   UNL     1     135.220 133.083 136.298  1.00  0.00     0.012 C 
ATOM     18  C   UNL     1     136.696 132.407 139.121  1.00  0.00     0.000 C 
ATOM     19  C   UNL     1     136.262 134.936 139.319  1.00  0.00     0.005 C 
ATOM     20  C   UNL     1     137.330 133.828 139.281  1.00  0.00     0.003 C 
ATOM     21  C   UNL     1     137.007 131.471 140.289  1.00  0.00     0.031 C 
ATOM     22  C   UNL     1     138.462 133.979 140.393  1.00  0.00    -0.008 C 
ATOM     23  C   UNL     1     138.468 131.483 140.600  1.00  0.00    -0.027 C 
ATOM     24  C   UNL     1     139.142 132.643 140.705  1.00  0.00    -0.065 C 
ATOM     25  C   UNL     1     137.921 134.508 141.759  1.00  0.00     0.014 C 
ATOM     26  C   UNL     1     139.514 134.983 139.832  1.00  0.00     0.016 C 
ATOM     27  C   UNL     1     140.302 132.680 141.675  1.00  0.00     0.063 C 
ATOM     28  C   UNL     1     138.998 134.539 142.877  1.00  0.00     0.033 C 
ATOM     29  C   UNL     1     139.765 133.198 143.024  1.00  0.00     0.118 C 
BRANCH  29  30
ATOM     30  O   UNL     1     140.807 133.311 143.960  1.00  0.00    -0.393 OA
ATOM     31  H   UNL     1     140.493 133.912 144.688  1.00  0.00     0.210 HD
ENDBRANCH  29  30
ENDBRANCH   1  11
TORSDOF 6
ENDMDL
