MODEL 1
REMARK VINA RESULT:    -5.226      0.000      0.000
REMARK INTER + INTRA:          -7.376
REMARK INTER:                  -7.976
REMARK INTRA:                   0.601
REMARK UNBOUND:                 0.601
REMARK SMILES CC1=CCC[C@H](C)C(=O)C[C@H](C(C)C)C(=O)C1
REMARK SMILES IDX 8 1 9 2 6 3 7 4 5 5 4 6 3 7 2 8 1 9 10 11 11 12 15 13 16 14
REMARK SMILES IDX 17 15 12 17 13 18 14 19
REMARK H PARENT
REMARK Flexibility Score: 70.00
ROOT
ATOM      1  C   UNL     1      -4.450 -13.297  27.442  1.00  0.00     0.136 C 
ATOM      2  O   UNL     1      -5.139 -14.095  26.823  1.00  0.00    -0.299 OA
ENDROOT
BRANCH   1   3
ATOM      3  C   UNL     1      -3.171 -12.769  26.816  1.00  0.00     0.053 C 
ATOM      4  C   UNL     1      -3.487 -11.666  25.796  1.00  0.00     0.016 C 
BRANCH   3   5
ATOM      5  C   UNL     1      -2.215 -12.247  27.912  1.00  0.00     0.015 C 
BRANCH   5   6
ATOM      6  C   UNL     1      -1.288 -13.357  28.449  1.00  0.00     0.028 C 
BRANCH   6   7
ATOM      7  C   UNL     1      -0.523 -12.878  29.657  1.00  0.00    -0.028 C 
ATOM      8  C   UNL     1      -0.922 -13.049  30.939  1.00  0.00    -0.070 CG0
ATOM      9  C   UNL     1      -0.082 -12.436  32.029  1.00  0.00     0.039 C 
ATOM     10  G   UNL     1      -2.161 -13.847  31.318  1.00  0.00     0.000 G0
ENDBRANCH   6   7
ENDBRANCH   5   6
ENDBRANCH   3   5
ENDBRANCH   1   3
BRANCH   1  11
ATOM     11  C   UNL     1      -4.887 -12.853  28.821  1.00  0.00     0.087 C 
BRANCH  11  12
ATOM     12  C   UNL     1      -4.453 -13.789  29.992  1.00  0.00     0.066 C 
BRANCH  12  13
ATOM     13  C   UNL     1      -3.466 -13.148  30.963  1.00  0.00     0.140 C 
ATOM     14  O   UNL     1      -3.741 -12.088  31.507  1.00  0.00    -0.299 OA
BRANCH  13  15
ATOM     15  C   UNL     1      -2.182 -13.852  31.333  1.00  0.00     0.106 CG0
ATOM     16  G   UNL     1      -0.949 -13.044  30.959  1.00  0.00     0.000 G0
ENDBRANCH  13  15
ENDBRANCH  12  13
BRANCH  12  17
ATOM     17  C   UNL     1      -5.631 -14.493  30.745  1.00  0.00    -0.006 C 
ATOM     18  C   UNL     1      -6.378 -15.546  29.912  1.00  0.00     0.008 C 
ATOM     19  C   UNL     1      -5.165 -15.114  32.073  1.00  0.00     0.008 C 
ENDBRANCH  12  17
ENDBRANCH  11  12
ENDBRANCH   1  11
TORSDOF 1
ENDMDL
MODEL 2
REMARK VINA RESULT:    -5.149      2.378      4.307
REMARK INTER + INTRA:          -7.258
REMARK INTER:                  -7.862
REMARK INTRA:                   0.604
REMARK UNBOUND:                 0.601
REMARK SMILES CC1=CCC[C@H](C)C(=O)C[C@H](C(C)C)C(=O)C1
REMARK SMILES IDX 8 1 9 2 6 3 7 4 5 5 4 6 3 7 2 8 1 9 10 11 11 12 15 13 16 14
REMARK SMILES IDX 17 15 12 17 13 18 14 19
REMARK H PARENT
REMARK Flexibility Score: 70.00
ROOT
ATOM      1  C   UNL     1      -0.997 -13.628  29.199  1.00  0.00     0.136 C 
ATOM      2  O   UNL     1      -0.010 -13.249  28.585  1.00  0.00    -0.299 OA
ENDROOT
BRANCH   1   3
ATOM      3  C   UNL     1      -0.980 -13.627  30.717  1.00  0.00     0.053 C 
ATOM      4  C   UNL     1       0.116 -12.689  31.243  1.00  0.00     0.016 C 
BRANCH   3   5
ATOM      5  C   UNL     1      -2.365 -13.218  31.267  1.00  0.00     0.015 C 
BRANCH   5   6
ATOM      6  C   UNL     1      -2.438 -11.714  31.597  1.00  0.00     0.028 C 
BRANCH   6   7
ATOM      7  C   UNL     1      -3.734 -11.119  31.106  1.00  0.00    -0.028 C 
ATOM      8  C   UNL     1      -3.906 -10.546  29.892  1.00  0.00    -0.070 CG0
ATOM      9  C   UNL     1      -5.245  -9.923  29.587  1.00  0.00     0.039 C 
ATOM     10  G   UNL     1      -2.820 -10.527  28.826  1.00  0.00     0.000 G0
ENDBRANCH   6   7
ENDBRANCH   5   6
ENDBRANCH   3   5
ENDBRANCH   1   3
BRANCH   1  11
ATOM     11  C   UNL     1      -2.216 -14.091  28.431  1.00  0.00     0.087 C 
BRANCH  11  12
ATOM     12  C   UNL     1      -3.379 -13.054  28.337  1.00  0.00     0.066 C 
BRANCH  12  13
ATOM     13  C   UNL     1      -2.941 -11.676  27.850  1.00  0.00     0.140 C 
ATOM     14  O   UNL     1      -2.748 -11.479  26.659  1.00  0.00    -0.299 OA
BRANCH  13  15
ATOM     15  C   UNL     1      -2.825 -10.518  28.813  1.00  0.00     0.106 CG0
ATOM     16  G   UNL     1      -3.907 -10.544  29.883  1.00  0.00     0.000 G0
ENDBRANCH  13  15
ENDBRANCH  12  13
BRANCH  12  17
ATOM     17  C   UNL     1      -4.652 -13.557  27.581  1.00  0.00    -0.006 C 
ATOM     18  C   UNL     1      -4.357 -14.345  26.294  1.00  0.00     0.008 C 
ATOM     19  C   UNL     1      -5.568 -14.386  28.498  1.00  0.00     0.008 C 
ENDBRANCH  12  17
ENDBRANCH  11  12
ENDBRANCH   1  11
TORSDOF 1
ENDMDL
MODEL 3
REMARK VINA RESULT:    -5.057      1.990      4.280
REMARK INTER + INTRA:          -7.116
REMARK INTER:                  -7.272
REMARK INTRA:                   0.156
REMARK UNBOUND:                 0.601
REMARK SMILES CC1=CCC[C@H](C)C(=O)C[C@H](C(C)C)C(=O)C1
REMARK SMILES IDX 8 1 9 2 6 3 7 4 5 5 4 6 3 7 2 8 1 9 10 11 11 12 15 13 16 14
REMARK SMILES IDX 17 15 12 17 13 18 14 19
REMARK H PARENT
REMARK Flexibility Score: 70.00
ROOT
ATOM      1  C   UNL     1      -5.524 -14.514  30.235  1.00  0.00     0.136 C 
ATOM      2  O   UNL     1      -5.719 -15.101  31.290  1.00  0.00    -0.299 OA
ENDROOT
BRANCH   1   3
ATOM      3  C   UNL     1      -5.999 -15.136  28.933  1.00  0.00     0.053 C 
ATOM      4  C   UNL     1      -7.408 -15.722  29.099  1.00  0.00     0.016 C 
BRANCH   3   5
ATOM      5  C   UNL     1      -5.968 -14.089  27.797  1.00  0.00     0.015 C 
BRANCH   5   6
ATOM      6  C   UNL     1      -4.837 -14.363  26.786  1.00  0.00     0.028 C 
BRANCH   6   7
ATOM      7  C   UNL     1      -4.338 -13.077  26.178  1.00  0.00    -0.028 C 
ATOM      8  C   UNL     1      -3.248 -12.396  26.604  1.00  0.00    -0.070 CG0
ATOM      9  C   UNL     1      -2.932 -11.080  25.939  1.00  0.00     0.039 C 
ATOM     10  G   UNL     1      -2.327 -12.913  27.699  1.00  0.00     0.000 G0
ENDBRANCH   6   7
ENDBRANCH   5   6
ENDBRANCH   3   5
ENDBRANCH   1   3
BRANCH   1  11
ATOM     11  C   UNL     1      -4.813 -13.179  30.249  1.00  0.00     0.087 C 
BRANCH  11  12
ATOM     12  C   UNL     1      -3.257 -13.250  30.146  1.00  0.00     0.066 C 
BRANCH  12  13
ATOM     13  C   UNL     1      -2.668 -12.344  29.069  1.00  0.00     0.140 C 
ATOM     14  O   UNL     1      -2.409 -11.176  29.323  1.00  0.00    -0.299 OA
BRANCH  13  15
ATOM     15  C   UNL     1      -2.313 -12.895  27.708  1.00  0.00     0.106 CG0
ATOM     16  G   UNL     1      -3.235 -12.377  26.614  1.00  0.00     0.000 G0
ENDBRANCH  13  15
ENDBRANCH  12  13
BRANCH  12  17
ATOM     17  C   UNL     1      -2.498 -13.102  31.506  1.00  0.00    -0.006 C 
ATOM     18  C   UNL     1      -3.049 -13.982  32.639  1.00  0.00     0.008 C 
ATOM     19  C   UNL     1      -0.988 -13.347  31.343  1.00  0.00     0.008 C 
ENDBRANCH  12  17
ENDBRANCH  11  12
ENDBRANCH   1  11
TORSDOF 1
ENDMDL
MODEL 4
REMARK VINA RESULT:    -4.942      1.949      3.524
REMARK INTER + INTRA:          -6.941
REMARK INTER:                  -7.369
REMARK INTRA:                   0.428
REMARK UNBOUND:                 0.601
REMARK SMILES CC1=CCC[C@H](C)C(=O)C[C@H](C(C)C)C(=O)C1
REMARK SMILES IDX 8 1 9 2 6 3 7 4 5 5 4 6 3 7 2 8 1 9 10 11 11 12 15 13 16 14
REMARK SMILES IDX 17 15 12 17 13 18 14 19
REMARK H PARENT
REMARK Flexibility Score: 70.00
ROOT
ATOM      1  C   UNL     1      -4.002 -11.034  29.961  1.00  0.00     0.136 C 
ATOM      2  O   UNL     1      -3.683  -9.968  29.453  1.00  0.00    -0.299 OA
ENDROOT
BRANCH   1   3
ATOM      3  C   UNL     1      -3.503 -11.379  31.353  1.00  0.00     0.053 C 
ATOM      4  C   UNL     1      -4.061 -12.737  31.804  1.00  0.00     0.016 C 
BRANCH   3   5
ATOM      5  C   UNL     1      -1.958 -11.382  31.382  1.00  0.00     0.015 C 
BRANCH   5   6
ATOM      6  C   UNL     1      -1.385 -12.789  31.644  1.00  0.00     0.028 C 
BRANCH   6   7
ATOM      7  C   UNL     1      -0.362 -13.154  30.597  1.00  0.00    -0.028 C 
ATOM      8  C   UNL     1      -0.647 -13.760  29.420  1.00  0.00    -0.070 CG0
ATOM      9  C   UNL     1       0.502 -14.132  28.520  1.00  0.00     0.039 C 
ATOM     10  G   UNL     1      -2.069 -14.056  28.968  1.00  0.00     0.000 G0
ENDBRANCH   6   7
ENDBRANCH   5   6
ENDBRANCH   3   5
ENDBRANCH   1   3
BRANCH   1  11
ATOM     11  C   UNL     1      -4.888 -11.987  29.190  1.00  0.00     0.087 C 
BRANCH  11  12
ATOM     12  C   UNL     1      -4.186 -12.763  28.032  1.00  0.00     0.066 C 
BRANCH  12  13
ATOM     13  C   UNL     1      -2.673 -12.876  28.193  1.00  0.00     0.140 C 
ATOM     14  O   UNL     1      -1.944 -11.984  27.785  1.00  0.00    -0.299 OA
BRANCH  13  15
ATOM     15  C   UNL     1      -2.062 -14.042  28.935  1.00  0.00     0.106 CG0
ATOM     16  G   UNL     1      -0.650 -13.746  29.419  1.00  0.00     0.000 G0
ENDBRANCH  13  15
ENDBRANCH  12  13
BRANCH  12  17
ATOM     17  C   UNL     1      -4.834 -14.141  27.673  1.00  0.00    -0.006 C 
ATOM     18  C   UNL     1      -6.168 -14.421  28.384  1.00  0.00     0.008 C 
ATOM     19  C   UNL     1      -5.011 -14.307  26.153  1.00  0.00     0.008 C 
ENDBRANCH  12  17
ENDBRANCH  11  12
ENDBRANCH   1  11
TORSDOF 1
ENDMDL
MODEL 5
REMARK VINA RESULT:    -4.743      2.115      3.557
REMARK INTER + INTRA:          -6.638
REMARK INTER:                  -6.954
REMARK INTRA:                   0.316
REMARK UNBOUND:                 0.601
REMARK SMILES CC1=CCC[C@H](C)C(=O)C[C@H](C(C)C)C(=O)C1
REMARK SMILES IDX 8 1 9 2 6 3 7 4 5 5 4 6 3 7 2 8 1 9 10 11 11 12 15 13 16 14
REMARK SMILES IDX 17 15 12 17 13 18 14 19
REMARK H PARENT
REMARK Flexibility Score: 70.00
ROOT
ATOM      1  C   UNL     1      -3.258 -13.253  27.260  1.00  0.00     0.136 C 
ATOM      2  O   UNL     1      -3.510 -13.943  26.283  1.00  0.00    -0.299 OA
ENDROOT
BRANCH   1   3
ATOM      3  C   UNL     1      -3.169 -11.744  27.109  1.00  0.00     0.053 C 
ATOM      4  C   UNL     1      -3.358 -11.339  25.640  1.00  0.00     0.016 C 
BRANCH   3   5
ATOM      5  C   UNL     1      -4.216 -11.053  28.011  1.00  0.00     0.015 C 
BRANCH   5   6
ATOM      6  C   UNL     1      -3.587  -9.959  28.897  1.00  0.00     0.028 C 
BRANCH   6   7
ATOM      7  C   UNL     1      -4.292  -9.875  30.227  1.00  0.00    -0.028 C 
ATOM      8  C   UNL     1      -3.894 -10.515  31.352  1.00  0.00    -0.070 CG0
ATOM      9  C   UNL     1      -4.759 -10.392  32.579  1.00  0.00     0.039 C 
ATOM     10  G   UNL     1      -2.608 -11.325  31.428  1.00  0.00     0.000 G0
ENDBRANCH   6   7
ENDBRANCH   5   6
ENDBRANCH   3   5
ENDBRANCH   1   3
BRANCH   1  11
ATOM     11  C   UNL     1      -3.041 -13.917  28.602  1.00  0.00     0.087 C 
BRANCH  11  12
ATOM     12  C   UNL     1      -2.116 -13.140  29.590  1.00  0.00     0.066 C 
BRANCH  12  13
ATOM     13  C   UNL     1      -2.805 -12.731  30.889  1.00  0.00     0.140 C 
ATOM     14  O   UNL     1      -3.454 -13.550  31.523  1.00  0.00    -0.299 OA
BRANCH  13  15
ATOM     15  C   UNL     1      -2.622 -11.343  31.455  1.00  0.00     0.106 CG0
ATOM     16  G   UNL     1      -3.885 -10.502  31.347  1.00  0.00     0.000 G0
ENDBRANCH  13  15
ENDBRANCH  12  13
BRANCH  12  17
ATOM     17  C   UNL     1      -0.726 -13.807  29.857  1.00  0.00    -0.006 C 
ATOM     18  C   UNL     1      -0.010 -14.309  28.593  1.00  0.00     0.008 C 
ATOM     19  C   UNL     1       0.208 -12.876  30.649  1.00  0.00     0.008 C 
ENDBRANCH  12  17
ENDBRANCH  11  12
ENDBRANCH   1  11
TORSDOF 1
ENDMDL
MODEL 6
REMARK VINA RESULT:    -4.723      1.810      3.202
REMARK INTER + INTRA:          -6.608
REMARK INTER:                  -7.393
REMARK INTRA:                   0.786
REMARK UNBOUND:                 0.601
REMARK SMILES CC1=CCC[C@H](C)C(=O)C[C@H](C(C)C)C(=O)C1
REMARK SMILES IDX 8 1 9 2 6 3 7 4 5 5 4 6 3 7 2 8 1 9 10 11 11 12 15 13 16 14
REMARK SMILES IDX 17 15 12 17 13 18 14 19
REMARK H PARENT
REMARK Flexibility Score: 70.00
ROOT
ATOM      1  C   UNL     1      -1.943 -12.766  28.304  1.00  0.00     0.136 C 
ATOM      2  O   UNL     1      -2.083 -12.012  27.352  1.00  0.00    -0.299 OA
ENDROOT
BRANCH   1   3
ATOM      3  C   UNL     1      -0.872 -12.475  29.340  1.00  0.00     0.053 C 
ATOM      4  C   UNL     1      -1.165 -11.151  30.060  1.00  0.00     0.016 C 
BRANCH   3   5
ATOM      5  C   UNL     1      -0.772 -13.641  30.349  1.00  0.00     0.015 C 
BRANCH   5   6
ATOM      6  C   UNL     1      -1.282 -13.243  31.748  1.00  0.00     0.028 C 
BRANCH   6   7
ATOM      7  C   UNL     1      -2.507 -14.040  32.119  1.00  0.00    -0.028 C 
ATOM      8  C   UNL     1      -3.781 -13.599  31.990  1.00  0.00    -0.070 CG0
ATOM      9  C   UNL     1      -4.891 -14.490  32.485  1.00  0.00     0.039 C 
ATOM     10  G   UNL     1      -4.131 -12.264  31.351  1.00  0.00     0.000 G0
ENDBRANCH   6   7
ENDBRANCH   5   6
ENDBRANCH   3   5
ENDBRANCH   1   3
BRANCH   1  11
ATOM     11  C   UNL     1      -2.842 -13.977  28.430  1.00  0.00     0.087 C 
BRANCH  11  12
ATOM     12  C   UNL     1      -4.212 -13.720  29.134  1.00  0.00     0.066 C 
BRANCH  12  13
ATOM     13  C   UNL     1      -4.302 -12.368  29.835  1.00  0.00     0.140 C 
ATOM     14  O   UNL     1      -4.594 -11.366  29.200  1.00  0.00    -0.299 OA
BRANCH  13  15
ATOM     15  C   UNL     1      -4.123 -12.263  31.332  1.00  0.00     0.106 CG0
ATOM     16  G   UNL     1      -3.768 -13.599  31.968  1.00  0.00     0.000 G0
ENDBRANCH  13  15
ENDBRANCH  12  13
BRANCH  12  17
ATOM     17  C   UNL     1      -5.471 -13.998  28.248  1.00  0.00    -0.006 C 
ATOM     18  C   UNL     1      -5.156 -14.321  26.778  1.00  0.00     0.008 C 
ATOM     19  C   UNL     1      -6.353 -15.108  28.846  1.00  0.00     0.008 C 
ENDBRANCH  12  17
ENDBRANCH  11  12
ENDBRANCH   1  11
TORSDOF 1
ENDMDL
MODEL 7
REMARK VINA RESULT:    -4.714      1.572      2.360
REMARK INTER + INTRA:          -6.594
REMARK INTER:                  -6.667
REMARK INTRA:                   0.074
REMARK UNBOUND:                 0.601
REMARK SMILES CC1=CCC[C@H](C)C(=O)C[C@H](C(C)C)C(=O)C1
REMARK SMILES IDX 8 1 9 2 6 3 7 4 5 5 4 6 3 7 2 8 1 9 10 11 11 12 15 13 16 14
REMARK SMILES IDX 17 15 12 17 13 18 14 19
REMARK H PARENT
REMARK Flexibility Score: 70.00
ROOT
ATOM      1  C   UNL     1      -5.084 -13.886  29.026  1.00  0.00     0.136 C 
ATOM      2  O   UNL     1      -6.012 -14.682  29.020  1.00  0.00    -0.299 OA
ENDROOT
BRANCH   1   3
ATOM      3  C   UNL     1      -4.333 -13.601  27.737  1.00  0.00     0.053 C 
ATOM      4  C   UNL     1      -4.904 -14.439  26.585  1.00  0.00     0.016 C 
BRANCH   3   5
ATOM      5  C   UNL     1      -4.394 -12.093  27.405  1.00  0.00     0.015 C 
BRANCH   5   6
ATOM      6  C   UNL     1      -3.066 -11.375  27.720  1.00  0.00     0.028 C 
BRANCH   6   7
ATOM      7  C   UNL     1      -1.944 -12.370  27.877  1.00  0.00    -0.028 C 
ATOM      8  C   UNL     1      -1.388 -12.724  29.060  1.00  0.00    -0.070 CG0
ATOM      9  C   UNL     1      -0.216 -13.671  29.035  1.00  0.00     0.039 C 
ATOM     10  G   UNL     1      -1.911 -12.226  30.399  1.00  0.00     0.000 G0
ENDBRANCH   6   7
ENDBRANCH   5   6
ENDBRANCH   3   5
ENDBRANCH   1   3
BRANCH   1  11
ATOM     11  C   UNL     1      -4.704 -13.199  30.320  1.00  0.00     0.087 C 
BRANCH  11  12
ATOM     12  C   UNL     1      -3.708 -13.989  31.227  1.00  0.00     0.066 C 
BRANCH  12  13
ATOM     13  C   UNL     1      -2.327 -13.348  31.330  1.00  0.00     0.140 C 
ATOM     14  O   UNL     1      -1.503 -13.791  32.117  1.00  0.00    -0.299 OA
BRANCH  13  15
ATOM     15  C   UNL     1      -1.928 -12.223  30.404  1.00  0.00     0.106 CG0
ATOM     16  G   UNL     1      -1.408 -12.729  29.068  1.00  0.00     0.000 G0
ENDBRANCH  13  15
ENDBRANCH  12  13
BRANCH  12  17
ATOM     17  C   UNL     1      -4.269 -14.386  32.632  1.00  0.00    -0.006 C 
ATOM     18  C   UNL     1      -4.899 -13.224  33.417  1.00  0.00     0.008 C 
ATOM     19  C   UNL     1      -5.269 -15.551  32.536  1.00  0.00     0.008 C 
ENDBRANCH  12  17
ENDBRANCH  11  12
ENDBRANCH   1  11
TORSDOF 1
ENDMDL
MODEL 8
REMARK VINA RESULT:    -4.644      1.875      5.012
REMARK INTER + INTRA:          -6.486
REMARK INTER:                  -6.645
REMARK INTRA:                   0.159
REMARK UNBOUND:                 0.601
REMARK SMILES CC1=CCC[C@H](C)C(=O)C[C@H](C(C)C)C(=O)C1
REMARK SMILES IDX 8 1 9 2 6 3 7 4 5 5 4 6 3 7 2 8 1 9 10 11 11 12 15 13 16 14
REMARK SMILES IDX 17 15 12 17 13 18 14 19
REMARK H PARENT
REMARK Flexibility Score: 70.00
ROOT
ATOM      1  C   UNL     1      -4.081 -13.134  31.957  1.00  0.00     0.136 C 
ATOM      2  O   UNL     1      -4.608 -12.676  32.961  1.00  0.00    -0.299 OA
ENDROOT
BRANCH   1   3
ATOM      3  C   UNL     1      -4.661 -14.380  31.310  1.00  0.00     0.053 C 
ATOM      4  C   UNL     1      -5.411 -15.227  32.348  1.00  0.00     0.016 C 
BRANCH   3   5
ATOM      5  C   UNL     1      -5.592 -13.991  30.139  1.00  0.00     0.015 C 
BRANCH   5   6
ATOM      6  C   UNL     1      -5.252 -14.760  28.847  1.00  0.00     0.028 C 
BRANCH   6   7
ATOM      7  C   UNL     1      -5.174 -13.821  27.670  1.00  0.00    -0.028 C 
ATOM      8  C   UNL     1      -4.029 -13.282  27.188  1.00  0.00    -0.070 CG0
ATOM      9  C   UNL     1      -4.134 -12.294  26.055  1.00  0.00     0.039 C 
ATOM     10  G   UNL     1      -2.655 -13.649  27.728  1.00  0.00     0.000 G0
ENDBRANCH   6   7
ENDBRANCH   5   6
ENDBRANCH   3   5
ENDBRANCH   1   3
BRANCH   1  11
ATOM     11  C   UNL     1      -2.862 -12.450  31.379  1.00  0.00     0.087 C 
BRANCH  11  12
ATOM     12  C   UNL     1      -2.091 -13.264  30.293  1.00  0.00     0.066 C 
BRANCH  12  13
ATOM     13  C   UNL     1      -2.253 -12.714  28.879  1.00  0.00     0.140 C 
ATOM     14  O   UNL     1      -1.987 -11.546  28.640  1.00  0.00    -0.299 OA
BRANCH  13  15
ATOM     15  C   UNL     1      -2.657 -13.623  27.741  1.00  0.00     0.106 CG0
ATOM     16  G   UNL     1      -4.027 -13.274  27.179  1.00  0.00     0.000 G0
ENDBRANCH  13  15
ENDBRANCH  12  13
BRANCH  12  17
ATOM     17  C   UNL     1      -0.592 -13.559  30.630  1.00  0.00    -0.006 C 
ATOM     18  C   UNL     1       0.319 -13.708  29.401  1.00  0.00     0.008 C 
ATOM     19  C   UNL     1      -0.007 -12.506  31.587  1.00  0.00     0.008 C 
ENDBRANCH  12  17
ENDBRANCH  11  12
ENDBRANCH   1  11
TORSDOF 1
ENDMDL
MODEL 9
REMARK VINA RESULT:    -4.641      2.314      4.411
REMARK INTER + INTRA:          -6.482
REMARK INTER:                  -7.570
REMARK INTRA:                   1.088
REMARK UNBOUND:                 0.601
REMARK SMILES CC1=CCC[C@H](C)C(=O)C[C@H](C(C)C)C(=O)C1
REMARK SMILES IDX 8 1 9 2 6 3 7 4 5 5 4 6 3 7 2 8 1 9 10 11 11 12 15 13 16 14
REMARK SMILES IDX 17 15 12 17 13 18 14 19
REMARK H PARENT
REMARK Flexibility Score: 70.00
ROOT
ATOM      1  C   UNL     1      -1.491 -13.468  29.283  1.00  0.00     0.136 C 
ATOM      2  O   UNL     1      -1.705 -14.492  28.651  1.00  0.00    -0.299 OA
ENDROOT
BRANCH   1   3
ATOM      3  C   UNL     1      -0.818 -13.554  30.642  1.00  0.00     0.053 C 
ATOM      4  C   UNL     1       0.253 -12.463  30.782  1.00  0.00     0.016 C 
BRANCH   3   5
ATOM      5  C   UNL     1      -1.870 -13.442  31.768  1.00  0.00     0.015 C 
BRANCH   5   6
ATOM      6  C   UNL     1      -3.287 -13.192  31.215  1.00  0.00     0.028 C 
BRANCH   6   7
ATOM      7  C   UNL     1      -3.998 -12.133  32.020  1.00  0.00    -0.028 C 
ATOM      8  C   UNL     1      -4.027 -10.817  31.705  1.00  0.00    -0.070 CG0
ATOM      9  C   UNL     1      -4.713  -9.876  32.662  1.00  0.00     0.039 C 
ATOM     10  G   UNL     1      -3.420 -10.261  30.426  1.00  0.00     0.000 G0
ENDBRANCH   6   7
ENDBRANCH   5   6
ENDBRANCH   3   5
ENDBRANCH   1   3
BRANCH   1  11
ATOM     11  C   UNL     1      -1.901 -12.135  28.698  1.00  0.00     0.087 C 
BRANCH  11  12
ATOM     12  C   UNL     1      -3.429 -11.969  28.422  1.00  0.00     0.066 C 
BRANCH  12  13
ATOM     13  C   UNL     1      -4.070 -10.810  29.180  1.00  0.00     0.140 C 
ATOM     14  O   UNL     1      -5.154 -10.370  28.826  1.00  0.00    -0.299 OA
BRANCH  13  15
ATOM     15  C   UNL     1      -3.422 -10.250  30.425  1.00  0.00     0.106 CG0
ATOM     16  G   UNL     1      -4.039 -10.807  31.699  1.00  0.00     0.000 G0
ENDBRANCH  13  15
ENDBRANCH  12  13
BRANCH  12  17
ATOM     17  C   UNL     1      -3.830 -11.964  26.910  1.00  0.00    -0.006 C 
ATOM     18  C   UNL     1      -2.951 -11.069  26.022  1.00  0.00     0.008 C 
ATOM     19  C   UNL     1      -3.875 -13.389  26.330  1.00  0.00     0.008 C 
ENDBRANCH  12  17
ENDBRANCH  11  12
ENDBRANCH   1  11
TORSDOF 1
ENDMDL
