MODEL 1
REMARK VINA RESULT:    -6.469      0.000      0.000
REMARK INTER + INTRA:          -7.081
REMARK INTER:                  -7.036
REMARK INTRA:                  -0.045
REMARK UNBOUND:                -0.045
REMARK SMILES COc1cc2ccc(=O)oc2cc1O
REMARK SMILES IDX 3 1 13 2 12 3 11 4 5 5 4 6 6 7 7 8 8 9 9 10 10 11 2 12 1 13
REMARK SMILES IDX 14 14
REMARK H PARENT 14 15
REMARK Flexibility Score: inf
ROOT
ATOM      1  C   UNL     1      42.968  44.925  39.935  1.00  0.00     0.161 A 
ATOM      2  C   UNL     1      41.720  45.001  40.586  1.00  0.00     0.161 A 
ATOM      3  C   UNL     1      41.656  45.267  41.958  1.00  0.00     0.098 A 
ATOM      4  C   UNL     1      42.825  45.461  42.697  1.00  0.00     0.142 A 
ATOM      5  C   UNL     1      44.079  45.387  42.056  1.00  0.00     0.022 A 
ATOM      6  C   UNL     1      44.148  45.121  40.681  1.00  0.00     0.062 A 
ATOM      7  C   UNL     1      45.231  45.586  42.821  1.00  0.00     0.019 A 
ATOM      8  C   UNL     1      45.111  45.849  44.186  1.00  0.00     0.094 A 
ATOM      9  C   UNL     1      43.834  45.907  44.754  1.00  0.00     0.336 A 
ATOM     10  O   UNL     1      43.703  46.143  45.983  1.00  0.00    -0.246 OA
ATOM     11  O   UNL     1      42.753  45.714  44.002  1.00  0.00    -0.423 OA
ENDROOT
BRANCH   1  12
ATOM     12  O   UNL     1      42.996  44.656  38.558  1.00  0.00    -0.493 OA
ATOM     13  C   UNL     1      44.068  44.006  37.883  1.00  0.00     0.278 C 
ENDBRANCH   1  12
BRANCH   2  14
ATOM     14  O   UNL     1      40.530  44.814  39.883  1.00  0.00    -0.504 OA
ATOM     15  H   UNL     1      39.895  45.577  39.684  1.00  0.00     0.293 HD
ENDBRANCH   2  14
TORSDOF 2
ENDMDL
MODEL 2
REMARK VINA RESULT:    -6.278      2.105      5.964
REMARK INTER + INTRA:          -6.874
REMARK INTER:                  -6.813
REMARK INTRA:                  -0.061
REMARK UNBOUND:                -0.045
REMARK SMILES COc1cc2ccc(=O)oc2cc1O
REMARK SMILES IDX 3 1 13 2 12 3 11 4 5 5 4 6 6 7 7 8 8 9 9 10 10 11 2 12 1 13
REMARK SMILES IDX 14 14
REMARK H PARENT 14 15
REMARK Flexibility Score: inf
ROOT
ATOM      1  C   UNL     1      45.459  45.879  46.742  1.00  0.00     0.161 A 
ATOM      2  C   UNL     1      44.130  46.284  46.977  1.00  0.00     0.161 A 
ATOM      3  C   UNL     1      43.197  46.279  45.934  1.00  0.00     0.098 A 
ATOM      4  C   UNL     1      43.572  45.873  44.651  1.00  0.00     0.142 A 
ATOM      5  C   UNL     1      44.900  45.466  44.405  1.00  0.00     0.022 A 
ATOM      6  C   UNL     1      45.837  45.470  45.447  1.00  0.00     0.062 A 
ATOM      7  C   UNL     1      45.245  45.066  43.111  1.00  0.00     0.019 A 
ATOM      8  C   UNL     1      44.276  45.080  42.108  1.00  0.00     0.094 A 
ATOM      9  C   UNL     1      42.979  45.496  42.425  1.00  0.00     0.336 A 
ATOM     10  O   UNL     1      42.090  45.516  41.535  1.00  0.00    -0.246 OA
ATOM     11  O   UNL     1      42.677  45.873  43.666  1.00  0.00    -0.423 OA
ENDROOT
BRANCH   1  12
ATOM     12  O   UNL     1      46.369  45.896  47.811  1.00  0.00    -0.493 OA
ATOM     13  C   UNL     1      46.656  44.778  48.646  1.00  0.00     0.278 C 
ENDBRANCH   1  12
BRANCH   2  14
ATOM     14  O   UNL     1      43.717  46.695  48.244  1.00  0.00    -0.504 OA
ATOM     15  H   UNL     1      42.820  46.429  48.632  1.00  0.00     0.293 HD
ENDBRANCH   2  14
TORSDOF 2
ENDMDL
MODEL 3
REMARK VINA RESULT:    -6.277      1.275      5.395
REMARK INTER + INTRA:          -6.873
REMARK INTER:                  -6.925
REMARK INTRA:                   0.052
REMARK UNBOUND:                -0.045
REMARK SMILES COc1cc2ccc(=O)oc2cc1O
REMARK SMILES IDX 3 1 13 2 12 3 11 4 5 5 4 6 6 7 7 8 8 9 9 10 10 11 2 12 1 13
REMARK SMILES IDX 14 14
REMARK H PARENT 14 15
REMARK Flexibility Score: inf
ROOT
ATOM      1  C   UNL     1      43.555  45.780  44.027  1.00  0.00     0.161 A 
ATOM      2  C   UNL     1      44.838  45.594  43.476  1.00  0.00     0.161 A 
ATOM      3  C   UNL     1      44.984  45.280  42.120  1.00  0.00     0.098 A 
ATOM      4  C   UNL     1      43.861  45.148  41.300  1.00  0.00     0.142 A 
ATOM      5  C   UNL     1      42.572  45.332  41.841  1.00  0.00     0.022 A 
ATOM      6  C   UNL     1      42.422  45.647  43.199  1.00  0.00     0.062 A 
ATOM      7  C   UNL     1      41.468  45.194  40.995  1.00  0.00     0.019 A 
ATOM      8  C   UNL     1      41.670  44.880  39.651  1.00  0.00     0.094 A 
ATOM      9  C   UNL     1      42.977  44.711  39.184  1.00  0.00     0.336 A 
ATOM     10  O   UNL     1      43.181  44.428  37.975  1.00  0.00    -0.246 OA
ATOM     11  O   UNL     1      44.011  44.849  40.011  1.00  0.00    -0.423 OA
ENDROOT
BRANCH   1  12
ATOM     12  O   UNL     1      43.445  46.094  45.391  1.00  0.00    -0.493 OA
ATOM     13  C   UNL     1      43.754  47.365  45.956  1.00  0.00     0.278 C 
ENDBRANCH   1  12
BRANCH   2  14
ATOM     14  O   UNL     1      45.984  45.718  44.262  1.00  0.00    -0.504 OA
ATOM     15  H   UNL     1      46.906  45.489  43.912  1.00  0.00     0.293 HD
ENDBRANCH   2  14
TORSDOF 2
ENDMDL
MODEL 4
REMARK VINA RESULT:    -5.902      1.279      5.064
REMARK INTER + INTRA:          -6.465
REMARK INTER:                  -6.418
REMARK INTRA:                  -0.047
REMARK UNBOUND:                -0.045
REMARK SMILES COc1cc2ccc(=O)oc2cc1O
REMARK SMILES IDX 3 1 13 2 12 3 11 4 5 5 4 6 6 7 7 8 8 9 9 10 10 11 2 12 1 13
REMARK SMILES IDX 14 14
REMARK H PARENT 14 15
REMARK Flexibility Score: inf
ROOT
ATOM      1  C   UNL     1      45.055  45.789  44.733  1.00  0.00     0.161 A 
ATOM      2  C   UNL     1      43.743  45.984  45.208  1.00  0.00     0.161 A 
ATOM      3  C   UNL     1      42.656  45.897  44.330  1.00  0.00     0.098 A 
ATOM      4  C   UNL     1      42.859  45.618  42.977  1.00  0.00     0.142 A 
ATOM      5  C   UNL     1      44.169  45.422  42.492  1.00  0.00     0.022 A 
ATOM      6  C   UNL     1      45.260  45.507  43.367  1.00  0.00     0.062 A 
ATOM      7  C   UNL     1      44.340  45.144  41.133  1.00  0.00     0.019 A 
ATOM      8  C   UNL     1      43.222  45.069  40.301  1.00  0.00     0.094 A 
ATOM      9  C   UNL     1      41.954  45.275  40.853  1.00  0.00     0.336 A 
ATOM     10  O   UNL     1      40.932  45.212  40.121  1.00  0.00    -0.246 OA
ATOM     11  O   UNL     1      41.818  45.538  42.151  1.00  0.00    -0.423 OA
ENDROOT
BRANCH   1  12
ATOM     12  O   UNL     1      46.122  45.883  45.640  1.00  0.00    -0.493 OA
ATOM     13  C   UNL     1      46.807  47.089  45.961  1.00  0.00     0.278 C 
ENDBRANCH   1  12
BRANCH   2  14
ATOM     14  O   UNL     1      43.498  46.264  46.552  1.00  0.00    -0.504 OA
ATOM     15  H   UNL     1      42.566  46.439  46.906  1.00  0.00     0.293 HD
ENDBRANCH   2  14
TORSDOF 2
ENDMDL
MODEL 5
REMARK VINA RESULT:    -5.841      1.769      5.862
REMARK INTER + INTRA:          -6.398
REMARK INTER:                  -6.335
REMARK INTRA:                  -0.064
REMARK UNBOUND:                -0.045
REMARK SMILES COc1cc2ccc(=O)oc2cc1O
REMARK SMILES IDX 3 1 13 2 12 3 11 4 5 5 4 6 6 7 7 8 8 9 9 10 10 11 2 12 1 13
REMARK SMILES IDX 14 14
REMARK H PARENT 14 15
REMARK Flexibility Score: inf
ROOT
ATOM      1  C   UNL     1      44.072  46.243  45.924  1.00  0.00     0.161 A 
ATOM      2  C   UNL     1      45.379  46.096  45.417  1.00  0.00     0.161 A 
ATOM      3  C   UNL     1      45.581  45.783  44.068  1.00  0.00     0.098 A 
ATOM      4  C   UNL     1      44.492  45.614  43.211  1.00  0.00     0.142 A 
ATOM      5  C   UNL     1      43.180  45.759  43.707  1.00  0.00     0.022 A 
ATOM      6  C   UNL     1      42.973  46.072  45.057  1.00  0.00     0.062 A 
ATOM      7  C   UNL     1      42.111  45.583  42.824  1.00  0.00     0.019 A 
ATOM      8  C   UNL     1      42.368  45.273  41.489  1.00  0.00     0.094 A 
ATOM      9  C   UNL     1      43.695  45.144  41.067  1.00  0.00     0.336 A 
ATOM     10  O   UNL     1      43.949  44.864  39.867  1.00  0.00    -0.246 OA
ATOM     11  O   UNL     1      44.695  45.317  41.929  1.00  0.00    -0.423 OA
ENDROOT
BRANCH   1  12
ATOM     12  O   UNL     1      43.906  46.557  47.282  1.00  0.00    -0.493 OA
ATOM     13  C   UNL     1      43.464  45.638  48.276  1.00  0.00     0.278 C 
ENDBRANCH   1  12
BRANCH   2  14
ATOM     14  O   UNL     1      46.492  46.258  46.241  1.00  0.00    -0.504 OA
ATOM     15  H   UNL     1      47.422  46.413  45.870  1.00  0.00     0.293 HD
ENDBRANCH   2  14
TORSDOF 2
ENDMDL
MODEL 6
REMARK VINA RESULT:    -5.714      2.387      4.178
REMARK INTER + INTRA:          -6.260
REMARK INTER:                  -6.198
REMARK INTRA:                  -0.062
REMARK UNBOUND:                -0.045
REMARK SMILES COc1cc2ccc(=O)oc2cc1O
REMARK SMILES IDX 3 1 13 2 12 3 11 4 5 5 4 6 6 7 7 8 8 9 9 10 10 11 2 12 1 13
REMARK SMILES IDX 14 14
REMARK H PARENT 14 15
REMARK Flexibility Score: inf
ROOT
ATOM      1  C   UNL     1      43.668  45.553  43.318  1.00  0.00     0.161 A 
ATOM      2  C   UNL     1      44.843  44.775  43.318  1.00  0.00     0.161 A 
ATOM      3  C   UNL     1      45.604  44.649  44.485  1.00  0.00     0.098 A 
ATOM      4  C   UNL     1      45.210  45.292  45.660  1.00  0.00     0.142 A 
ATOM      5  C   UNL     1      44.037  46.075  45.671  1.00  0.00     0.022 A 
ATOM      6  C   UNL     1      43.271  46.203  44.504  1.00  0.00     0.062 A 
ATOM      7  C   UNL     1      43.668  46.706  46.862  1.00  0.00     0.019 A 
ATOM      8  C   UNL     1      44.464  46.548  47.997  1.00  0.00     0.094 A 
ATOM      9  C   UNL     1      45.614  45.757  47.912  1.00  0.00     0.336 A 
ATOM     10  O   UNL     1      46.346  45.601  48.924  1.00  0.00    -0.246 OA
ATOM     11  O   UNL     1      45.943  45.166  46.765  1.00  0.00    -0.423 OA
ENDROOT
BRANCH   1  12
ATOM     12  O   UNL     1      42.927  45.658  42.130  1.00  0.00    -0.493 OA
ATOM     13  C   UNL     1      41.648  45.069  41.920  1.00  0.00     0.278 C 
ENDBRANCH   1  12
BRANCH   2  14
ATOM     14  O   UNL     1      45.269  44.116  42.165  1.00  0.00    -0.504 OA
ATOM     15  H   UNL     1      45.641  44.613  41.365  1.00  0.00     0.293 HD
ENDBRANCH   2  14
TORSDOF 2
ENDMDL
MODEL 7
REMARK VINA RESULT:    -5.696      1.774      2.872
REMARK INTER + INTRA:          -6.240
REMARK INTER:                  -6.241
REMARK INTRA:                   0.001
REMARK UNBOUND:                -0.045
REMARK SMILES COc1cc2ccc(=O)oc2cc1O
REMARK SMILES IDX 3 1 13 2 12 3 11 4 5 5 4 6 6 7 7 8 8 9 9 10 10 11 2 12 1 13
REMARK SMILES IDX 14 14
REMARK H PARENT 14 15
REMARK Flexibility Score: inf
ROOT
ATOM      1  C   UNL     1      42.588  45.513  41.806  1.00  0.00     0.161 A 
ATOM      2  C   UNL     1      43.900  45.198  41.400  1.00  0.00     0.161 A 
ATOM      3  C   UNL     1      44.945  45.198  42.330  1.00  0.00     0.098 A 
ATOM      4  C   UNL     1      44.700  45.511  43.669  1.00  0.00     0.142 A 
ATOM      5  C   UNL     1      43.392  45.830  44.086  1.00  0.00     0.022 A 
ATOM      6  C   UNL     1      42.342  45.830  43.158  1.00  0.00     0.062 A 
ATOM      7  C   UNL     1      43.178  46.139  45.432  1.00  0.00     0.019 A 
ATOM      8  C   UNL     1      44.256  46.125  46.318  1.00  0.00     0.094 A 
ATOM      9  C   UNL     1      45.527  45.800  45.833  1.00  0.00     0.336 A 
ATOM     10  O   UNL     1      46.512  45.782  46.615  1.00  0.00    -0.246 OA
ATOM     11  O   UNL     1      45.702  45.509  44.546  1.00  0.00    -0.423 OA
ENDROOT
BRANCH   1  12
ATOM     12  O   UNL     1      41.563  45.503  40.847  1.00  0.00    -0.493 OA
ATOM     13  C   UNL     1      40.904  44.330  40.381  1.00  0.00     0.278 C 
ENDBRANCH   1  12
BRANCH   2  14
ATOM     14  O   UNL     1      44.184  44.878  40.073  1.00  0.00    -0.504 OA
ATOM     15  H   UNL     1      44.992  45.250  39.588  1.00  0.00     0.293 HD
ENDBRANCH   2  14
TORSDOF 2
ENDMDL
MODEL 8
REMARK VINA RESULT:    -5.667      3.231      5.414
REMARK INTER + INTRA:          -6.210
REMARK INTER:                  -6.179
REMARK INTRA:                  -0.031
REMARK UNBOUND:                -0.045
REMARK SMILES COc1cc2ccc(=O)oc2cc1O
REMARK SMILES IDX 3 1 13 2 12 3 11 4 5 5 4 6 6 7 7 8 8 9 9 10 10 11 2 12 1 13
REMARK SMILES IDX 14 14
REMARK H PARENT 14 15
REMARK Flexibility Score: inf
ROOT
ATOM      1  C   UNL     1      44.771  45.802  44.610  1.00  0.00     0.161 A 
ATOM      2  C   UNL     1      44.376  46.730  45.594  1.00  0.00     0.161 A 
ATOM      3  C   UNL     1      44.822  46.591  46.913  1.00  0.00     0.098 A 
ATOM      4  C   UNL     1      45.660  45.532  47.269  1.00  0.00     0.142 A 
ATOM      5  C   UNL     1      46.061  44.597  46.292  1.00  0.00     0.022 A 
ATOM      6  C   UNL     1      45.617  44.733  44.970  1.00  0.00     0.062 A 
ATOM      7  C   UNL     1      46.900  43.548  46.679  1.00  0.00     0.019 A 
ATOM      8  C   UNL     1      47.315  43.456  48.008  1.00  0.00     0.094 A 
ATOM      9  C   UNL     1      46.877  44.420  48.922  1.00  0.00     0.336 A 
ATOM     10  O   UNL     1      47.240  44.355  50.125  1.00  0.00    -0.246 OA
ATOM     11  O   UNL     1      46.078  45.409  48.527  1.00  0.00    -0.423 OA
ENDROOT
BRANCH   1  12
ATOM     12  O   UNL     1      44.306  45.971  43.296  1.00  0.00    -0.493 OA
ATOM     13  C   UNL     1      43.055  45.492  42.813  1.00  0.00     0.278 C 
ENDBRANCH   1  12
BRANCH   2  14
ATOM     14  O   UNL     1      43.541  47.801  45.278  1.00  0.00    -0.504 OA
ATOM     15  H   UNL     1      43.844  48.764  45.359  1.00  0.00     0.293 HD
ENDBRANCH   2  14
TORSDOF 2
ENDMDL
MODEL 9
REMARK VINA RESULT:    -5.544      4.225      7.222
REMARK INTER + INTRA:          -6.076
REMARK INTER:                  -6.030
REMARK INTRA:                  -0.046
REMARK UNBOUND:                -0.045
REMARK SMILES COc1cc2ccc(=O)oc2cc1O
REMARK SMILES IDX 3 1 13 2 12 3 11 4 5 5 4 6 6 7 7 8 8 9 9 10 10 11 2 12 1 13
REMARK SMILES IDX 14 14
REMARK H PARENT 14 15
REMARK Flexibility Score: inf
ROOT
ATOM      1  C   UNL     1      47.578  43.937  47.702  1.00  0.00     0.161 A 
ATOM      2  C   UNL     1      46.750  44.339  48.768  1.00  0.00     0.161 A 
ATOM      3  C   UNL     1      45.559  45.028  48.515  1.00  0.00     0.098 A 
ATOM      4  C   UNL     1      45.179  45.325  47.205  1.00  0.00     0.142 A 
ATOM      5  C   UNL     1      46.001  44.929  46.130  1.00  0.00     0.022 A 
ATOM      6  C   UNL     1      47.194  44.238  46.379  1.00  0.00     0.062 A 
ATOM      7  C   UNL     1      45.593  45.241  44.829  1.00  0.00     0.019 A 
ATOM      8  C   UNL     1      44.396  45.930  44.633  1.00  0.00     0.094 A 
ATOM      9  C   UNL     1      43.632  46.292  45.747  1.00  0.00     0.336 A 
ATOM     10  O   UNL     1      42.549  46.914  45.591  1.00  0.00    -0.246 OA
ATOM     11  O   UNL     1      44.044  45.982  46.975  1.00  0.00    -0.423 OA
ENDROOT
BRANCH   1  12
ATOM     12  O   UNL     1      48.766  43.247  47.991  1.00  0.00    -0.493 OA
ATOM     13  C   UNL     1      49.354  42.260  47.149  1.00  0.00     0.278 C 
ENDBRANCH   1  12
BRANCH   2  14
ATOM     14  O   UNL     1      47.094  44.059  50.091  1.00  0.00    -0.504 OA
ATOM     15  H   UNL     1      46.399  43.864  50.800  1.00  0.00     0.293 HD
ENDBRANCH   2  14
TORSDOF 2
ENDMDL
