MODEL 1
REMARK VINA RESULT:    -3.152      0.000      0.000
REMARK INTER + INTRA:          -4.497
REMARK INTER:                  -4.073
REMARK INTRA:                  -0.424
REMARK UNBOUND:                -0.424
REMARK SMILES CCO[C@@H]1O[C@H](CO)[C@H](O)[C@H](O)[C@H]1O
REMARK SMILES IDX 4 1 13 2 11 3 9 4 6 5 5 6 3 7 2 8 1 9 14 10 12 12 7 14 8 15
REMARK SMILES IDX 10 17
REMARK H PARENT 14 11 12 13 8 16 10 18
REMARK Flexibility Score: inf
ROOT
ATOM      1  C   UNL     1     -12.773 -22.782  15.935  1.00  0.00     0.281 C 
ATOM      2  C   UNL     1     -11.617 -22.167  15.111  1.00  0.00     0.202 C 
ATOM      3  C   UNL     1     -11.017 -20.934  15.809  1.00  0.00     0.179 C 
ATOM      4  C   UNL     1     -10.709 -21.243  17.281  1.00  0.00     0.177 C 
ATOM      5  C   UNL     1     -11.888 -21.956  17.998  1.00  0.00     0.178 C 
ATOM      6  O   UNL     1     -12.383 -23.075  17.270  1.00  0.00    -0.341 OA
ENDROOT
BRANCH   1   7
ATOM      7  O   UNL     1     -13.911 -21.931  15.929  1.00  0.00    -0.350 OA
BRANCH   7   8
ATOM      8  C   UNL     1     -15.059 -22.580  15.412  1.00  0.00     0.160 C 
ATOM      9  C   UNL     1     -15.145 -22.378  13.903  1.00  0.00     0.035 C 
ENDBRANCH   7   8
ENDBRANCH   1   7
BRANCH   2  10
ATOM     10  O   UNL     1     -10.620 -23.125  14.840  1.00  0.00    -0.385 OA
ATOM     11  H   UNL     1     -10.824 -23.550  13.967  1.00  0.00     0.211 HD
ENDBRANCH   2  10
BRANCH   3  12
ATOM     12  O   UNL     1     -11.898 -19.843  15.715  1.00  0.00    -0.387 OA
ATOM     13  H   UNL     1     -12.769 -20.201  15.400  1.00  0.00     0.211 HD
ENDBRANCH   3  12
BRANCH   5  14
ATOM     14  C   UNL     1     -13.021 -21.026  18.485  1.00  0.00     0.191 C 
BRANCH  14  15
ATOM     15  O   UNL     1     -14.106 -21.785  18.945  1.00  0.00    -0.394 OA
ATOM     16  H   UNL     1     -14.018 -22.678  18.520  1.00  0.00     0.210 HD
ENDBRANCH  14  15
ENDBRANCH   5  14
BRANCH   4  17
ATOM     17  O   UNL     1     -10.348 -20.059  17.946  1.00  0.00    -0.387 OA
ATOM     18  H   UNL     1      -9.456 -20.218  18.354  1.00  0.00     0.211 HD
ENDBRANCH   4  17
TORSDOF 7
ENDMDL
MODEL 2
REMARK VINA RESULT:    -2.937      1.630      4.379
REMARK INTER + INTRA:          -4.219
REMARK INTER:                  -3.846
REMARK INTRA:                  -0.372
REMARK UNBOUND:                -0.424
REMARK SMILES CCO[C@@H]1O[C@H](CO)[C@H](O)[C@H](O)[C@H]1O
REMARK SMILES IDX 4 1 13 2 11 3 9 4 6 5 5 6 3 7 2 8 1 9 14 10 12 12 7 14 8 15
REMARK SMILES IDX 10 17
REMARK H PARENT 14 11 12 13 8 16 10 18
REMARK Flexibility Score: inf
ROOT
ATOM      1  C   UNL     1     -12.924 -22.000  16.993  1.00  0.00     0.281 C 
ATOM      2  C   UNL     1     -14.406 -22.033  16.549  1.00  0.00     0.202 C 
ATOM      3  C   UNL     1     -14.538 -22.050  15.015  1.00  0.00     0.179 C 
ATOM      4  C   UNL     1     -13.626 -23.124  14.407  1.00  0.00     0.177 C 
ATOM      5  C   UNL     1     -12.186 -23.083  14.991  1.00  0.00     0.178 C 
ATOM      6  O   UNL     1     -12.167 -23.056  16.415  1.00  0.00    -0.341 OA
ENDROOT
BRANCH   1   7
ATOM      7  O   UNL     1     -12.330 -20.745  16.690  1.00  0.00    -0.350 OA
BRANCH   7   8
ATOM      8  C   UNL     1     -11.390 -20.350  17.673  1.00  0.00     0.160 C 
ATOM      9  C   UNL     1     -12.084 -20.136  19.013  1.00  0.00     0.035 C 
ENDBRANCH   7   8
ENDBRANCH   1   7
BRANCH   2  10
ATOM     10  O   UNL     1     -15.085 -23.125  17.123  1.00  0.00    -0.385 OA
ATOM     11  H   UNL     1     -14.414 -23.803  17.392  1.00  0.00     0.211 HD
ENDBRANCH   2  10
BRANCH   3  12
ATOM     12  O   UNL     1     -14.224 -20.788  14.484  1.00  0.00    -0.387 OA
ATOM     13  H   UNL     1     -13.345 -20.875  14.030  1.00  0.00     0.211 HD
ENDBRANCH   3  12
BRANCH   5  14
ATOM     14  C   UNL     1     -11.256 -22.017  14.372  1.00  0.00     0.191 C 
BRANCH  14  15
ATOM     15  O   UNL     1     -11.029 -22.302  13.018  1.00  0.00    -0.394 OA
ATOM     16  H   UNL     1     -10.596 -23.195  12.992  1.00  0.00     0.210 HD
ENDBRANCH  14  15
ENDBRANCH   5  14
BRANCH   4  17
ATOM     17  O   UNL     1     -13.613 -22.995  13.008  1.00  0.00    -0.387 OA
ATOM     18  H   UNL     1     -13.214 -23.830  12.645  1.00  0.00     0.211 HD
ENDBRANCH   4  17
TORSDOF 7
ENDMDL
MODEL 3
REMARK VINA RESULT:    -2.708      1.668      4.217
REMARK INTER + INTRA:          -3.923
REMARK INTER:                  -3.591
REMARK INTRA:                  -0.332
REMARK UNBOUND:                -0.424
REMARK SMILES CCO[C@@H]1O[C@H](CO)[C@H](O)[C@H](O)[C@H]1O
REMARK SMILES IDX 4 1 13 2 11 3 9 4 6 5 5 6 3 7 2 8 1 9 14 10 12 12 7 14 8 15
REMARK SMILES IDX 10 17
REMARK H PARENT 14 11 12 13 8 16 10 18
REMARK Flexibility Score: inf
ROOT
ATOM      1  C   UNL     1     -12.318 -22.466  17.818  1.00  0.00     0.281 C 
ATOM      2  C   UNL     1     -12.356 -21.097  18.541  1.00  0.00     0.202 C 
ATOM      3  C   UNL     1     -11.660 -20.001  17.714  1.00  0.00     0.179 C 
ATOM      4  C   UNL     1     -12.165 -20.015  16.264  1.00  0.00     0.177 C 
ATOM      5  C   UNL     1     -12.195 -21.446  15.658  1.00  0.00     0.178 C 
ATOM      6  O   UNL     1     -12.846 -22.391  16.500  1.00  0.00    -0.341 OA
ENDROOT
BRANCH   1   7
ATOM      7  O   UNL     1     -10.999 -22.992  17.792  1.00  0.00    -0.350 OA
BRANCH   7   8
ATOM      8  C   UNL     1     -10.452 -23.125  19.092  1.00  0.00     0.160 C 
ATOM      9  C   UNL     1      -8.930 -23.095  19.030  1.00  0.00     0.035 C 
ENDBRANCH   7   8
ENDBRANCH   1   7
BRANCH   2  10
ATOM     10  O   UNL     1     -13.676 -20.724  18.857  1.00  0.00    -0.385 OA
ATOM     11  H   UNL     1     -14.218 -21.549  18.955  1.00  0.00     0.211 HD
ENDBRANCH   2  10
BRANCH   3  12
ATOM     12  O   UNL     1     -10.266 -20.178  17.744  1.00  0.00    -0.387 OA
ATOM     13  H   UNL     1     -10.069 -20.798  18.494  1.00  0.00     0.211 HD
ENDBRANCH   3  12
BRANCH   5  14
ATOM     14  C   UNL     1     -10.837 -21.965  15.134  1.00  0.00     0.191 C 
BRANCH  14  15
ATOM     15  O   UNL     1     -10.612 -21.498  13.831  1.00  0.00    -0.394 OA
ATOM     16  H   UNL     1     -10.074 -20.669  13.924  1.00  0.00     0.210 HD
ENDBRANCH  14  15
ENDBRANCH   5  14
BRANCH   4  17
ATOM     17  O   UNL     1     -11.385 -19.146  15.484  1.00  0.00    -0.387 OA
ATOM     18  H   UNL     1     -10.704 -18.748  16.090  1.00  0.00     0.211 HD
ENDBRANCH   4  17
TORSDOF 7
ENDMDL
MODEL 4
REMARK VINA RESULT:    -2.570      1.906      3.512
REMARK INTER + INTRA:          -3.745
REMARK INTER:                  -3.456
REMARK INTRA:                  -0.289
REMARK UNBOUND:                -0.424
REMARK SMILES CCO[C@@H]1O[C@H](CO)[C@H](O)[C@H](O)[C@H]1O
REMARK SMILES IDX 4 1 13 2 11 3 9 4 6 5 5 6 3 7 2 8 1 9 14 10 12 12 7 14 8 15
REMARK SMILES IDX 10 17
REMARK H PARENT 14 11 12 13 8 16 10 18
REMARK Flexibility Score: inf
ROOT
ATOM      1  C   UNL     1     -11.358 -21.129  18.148  1.00  0.00     0.281 C 
ATOM      2  C   UNL     1     -11.212 -22.591  17.662  1.00  0.00     0.202 C 
ATOM      3  C   UNL     1     -11.442 -22.709  16.145  1.00  0.00     0.179 C 
ATOM      4  C   UNL     1     -10.615 -21.660  15.389  1.00  0.00     0.177 C 
ATOM      5  C   UNL     1     -10.738 -20.242  16.014  1.00  0.00     0.178 C 
ATOM      6  O   UNL     1     -10.523 -20.236  17.421  1.00  0.00    -0.341 OA
ENDROOT
BRANCH   1   7
ATOM      7  O   UNL     1     -12.711 -20.702  18.081  1.00  0.00    -0.350 OA
BRANCH   7   8
ATOM      8  C   UNL     1     -13.496 -21.253  19.123  1.00  0.00     0.160 C 
ATOM      9  C   UNL     1     -14.869 -21.653  18.596  1.00  0.00     0.035 C 
ENDBRANCH   7   8
ENDBRANCH   1   7
BRANCH   2  10
ATOM     10  O   UNL     1      -9.960 -23.125  18.023  1.00  0.00    -0.385 OA
ATOM     11  H   UNL     1      -9.671 -23.751  17.311  1.00  0.00     0.211 HD
ENDBRANCH   2  10
BRANCH   3  12
ATOM     12  O   UNL     1     -12.807 -22.560  15.845  1.00  0.00    -0.387 OA
ATOM     13  H   UNL     1     -12.923 -22.808  14.891  1.00  0.00     0.211 HD
ENDBRANCH   3  12
BRANCH   5  14
ATOM     14  C   UNL     1     -12.006 -19.456  15.612  1.00  0.00     0.191 C 
BRANCH  14  15
ATOM     15  O   UNL     1     -11.680 -18.118  15.347  1.00  0.00    -0.394 OA
ATOM     16  H   UNL     1     -12.418 -17.573  15.727  1.00  0.00     0.210 HD
ENDBRANCH  14  15
ENDBRANCH   5  14
BRANCH   4  17
ATOM     17  O   UNL     1     -10.984 -21.655  14.034  1.00  0.00    -0.387 OA
ATOM     18  H   UNL     1     -11.954 -21.867  13.999  1.00  0.00     0.211 HD
ENDBRANCH   4  17
TORSDOF 7
ENDMDL
MODEL 5
REMARK VINA RESULT:    -2.437      1.447      2.986
REMARK INTER + INTRA:          -3.574
REMARK INTER:                  -3.143
REMARK INTRA:                  -0.431
REMARK UNBOUND:                -0.424
REMARK SMILES CCO[C@@H]1O[C@H](CO)[C@H](O)[C@H](O)[C@H]1O
REMARK SMILES IDX 4 1 13 2 11 3 9 4 6 5 5 6 3 7 2 8 1 9 14 10 12 12 7 14 8 15
REMARK SMILES IDX 10 17
REMARK H PARENT 14 11 12 13 8 16 10 18
REMARK Flexibility Score: inf
ROOT
ATOM      1  C   UNL     1     -12.866 -22.123  15.957  1.00  0.00     0.281 C 
ATOM      2  C   UNL     1     -12.672 -23.075  17.161  1.00  0.00     0.202 C 
ATOM      3  C   UNL     1     -11.441 -22.684  17.999  1.00  0.00     0.179 C 
ATOM      4  C   UNL     1     -11.459 -21.183  18.320  1.00  0.00     0.177 C 
ATOM      5  C   UNL     1     -11.769 -20.312  17.071  1.00  0.00     0.178 C 
ATOM      6  O   UNL     1     -12.915 -20.758  16.354  1.00  0.00    -0.341 OA
ENDROOT
BRANCH   1   7
ATOM      7  O   UNL     1     -11.849 -22.316  14.985  1.00  0.00    -0.350 OA
BRANCH   7   8
ATOM      8  C   UNL     1     -12.295 -23.104  13.896  1.00  0.00     0.160 C 
ATOM      9  C   UNL     1     -13.751 -22.787  13.575  1.00  0.00     0.035 C 
ENDBRANCH   7   8
ENDBRANCH   1   7
BRANCH   2  10
ATOM     10  O   UNL     1     -13.828 -23.125  17.963  1.00  0.00    -0.385 OA
ATOM     11  H   UNL     1     -14.527 -23.628  17.472  1.00  0.00     0.211 HD
ENDBRANCH   2  10
BRANCH   3  12
ATOM     12  O   UNL     1     -10.259 -23.021  17.316  1.00  0.00    -0.387 OA
ATOM     13  H   UNL     1     -10.285 -24.001  17.159  1.00  0.00     0.211 HD
ENDBRANCH   3  12
BRANCH   5  14
ATOM     14  C   UNL     1     -10.564 -20.045  16.141  1.00  0.00     0.191 C 
BRANCH  14  15
ATOM     15  O   UNL     1     -10.974 -19.311  15.019  1.00  0.00    -0.394 OA
ATOM     16  H   UNL     1     -11.814 -18.852  15.280  1.00  0.00     0.210 HD
ENDBRANCH  14  15
ENDBRANCH   5  14
BRANCH   4  17
ATOM     17  O   UNL     1     -10.241 -20.812  18.912  1.00  0.00    -0.387 OA
ATOM     18  H   UNL     1     -10.232 -21.207  19.823  1.00  0.00     0.211 HD
ENDBRANCH   4  17
TORSDOF 7
ENDMDL
MODEL 6
REMARK VINA RESULT:    -1.992      1.502      3.594
REMARK INTER + INTRA:          -2.997
REMARK INTER:                  -2.604
REMARK INTRA:                  -0.394
REMARK UNBOUND:                -0.424
REMARK SMILES CCO[C@@H]1O[C@H](CO)[C@H](O)[C@H](O)[C@H]1O
REMARK SMILES IDX 4 1 13 2 11 3 9 4 6 5 5 6 3 7 2 8 1 9 14 10 12 12 7 14 8 15
REMARK SMILES IDX 10 17
REMARK H PARENT 14 11 12 13 8 16 10 18
REMARK Flexibility Score: inf
ROOT
ATOM      1  C   UNL     1     -11.184 -22.005  16.155  1.00  0.00     0.281 C 
ATOM      2  C   UNL     1     -10.956 -22.025  17.686  1.00  0.00     0.202 C 
ATOM      3  C   UNL     1     -12.288 -22.042  18.457  1.00  0.00     0.179 C 
ATOM      4  C   UNL     1     -13.222 -23.125  17.898  1.00  0.00     0.177 C 
ATOM      5  C   UNL     1     -13.304 -23.097  16.347  1.00  0.00     0.178 C 
ATOM      6  O   UNL     1     -12.023 -23.069  15.725  1.00  0.00    -0.341 OA
ENDROOT
BRANCH   1   7
ATOM      7  O   UNL     1     -11.715 -20.757  15.736  1.00  0.00    -0.350 OA
BRANCH   7   8
ATOM      8  C   UNL     1     -10.749 -19.723  15.785  1.00  0.00     0.160 C 
ATOM      9  C   UNL     1     -11.371 -18.396  15.366  1.00  0.00     0.035 C 
ENDBRANCH   7   8
ENDBRANCH   1   7
BRANCH   2  10
ATOM     10  O   UNL     1     -10.143 -23.110  18.066  1.00  0.00    -0.385 OA
ATOM     11  H   UNL     1     -10.434 -23.421  18.961  1.00  0.00     0.211 HD
ENDBRANCH   2  10
BRANCH   3  12
ATOM     12  O   UNL     1     -12.908 -20.783  18.388  1.00  0.00    -0.387 OA
ATOM     13  H   UNL     1     -13.830 -20.932  18.051  1.00  0.00     0.211 HD
ENDBRANCH   3  12
BRANCH   5  14
ATOM     14  C   UNL     1     -14.264 -22.039  15.759  1.00  0.00     0.191 C 
BRANCH  14  15
ATOM     15  O   UNL     1     -14.010 -21.863  14.391  1.00  0.00    -0.394 OA
ATOM     16  H   UNL     1     -14.514 -22.577  13.922  1.00  0.00     0.210 HD
ENDBRANCH  14  15
ENDBRANCH   5  14
BRANCH   4  17
ATOM     17  O   UNL     1     -14.494 -22.996  18.479  1.00  0.00    -0.387 OA
ATOM     18  H   UNL     1     -14.554 -22.072  18.840  1.00  0.00     0.211 HD
ENDBRANCH   4  17
TORSDOF 7
ENDMDL
MODEL 7
REMARK VINA RESULT:    -1.862      1.554      3.570
REMARK INTER + INTRA:          -2.830
REMARK INTER:                  -2.475
REMARK INTRA:                  -0.355
REMARK UNBOUND:                -0.424
REMARK SMILES CCO[C@@H]1O[C@H](CO)[C@H](O)[C@H](O)[C@H]1O
REMARK SMILES IDX 4 1 13 2 11 3 9 4 6 5 5 6 3 7 2 8 1 9 14 10 12 12 7 14 8 15
REMARK SMILES IDX 10 17
REMARK H PARENT 14 11 12 13 8 16 10 18
REMARK Flexibility Score: inf
ROOT
ATOM      1  C   UNL     1     -12.922 -21.434  17.549  1.00  0.00     0.281 C 
ATOM      2  C   UNL     1     -11.408 -21.137  17.662  1.00  0.00     0.202 C 
ATOM      3  C   UNL     1     -10.629 -21.697  16.458  1.00  0.00     0.179 C 
ATOM      4  C   UNL     1     -11.302 -21.285  15.141  1.00  0.00     0.177 C 
ATOM      5  C   UNL     1     -12.838 -21.519  15.159  1.00  0.00     0.178 C 
ATOM      6  O   UNL     1     -13.467 -20.979  16.317  1.00  0.00    -0.341 OA
ENDROOT
BRANCH   1   7
ATOM      7  O   UNL     1     -13.184 -22.819  17.722  1.00  0.00    -0.350 OA
BRANCH   7   8
ATOM      8  C   UNL     1     -13.881 -23.084  18.926  1.00  0.00     0.160 C 
ATOM      9  C   UNL     1     -15.229 -22.374  18.924  1.00  0.00     0.035 C 
ENDBRANCH   7   8
ENDBRANCH   1   7
BRANCH   2  10
ATOM     10  O   UNL     1     -11.169 -19.758  17.817  1.00  0.00    -0.385 OA
ATOM     11  H   UNL     1     -11.200 -19.333  16.921  1.00  0.00     0.211 HD
ENDBRANCH   2  10
BRANCH   3  12
ATOM     12  O   UNL     1     -10.541 -23.097  16.541  1.00  0.00    -0.387 OA
ATOM     13  H   UNL     1     -11.231 -23.467  15.932  1.00  0.00     0.211 HD
ENDBRANCH   3  12
BRANCH   5  14
ATOM     14  C   UNL     1     -13.285 -22.970  14.873  1.00  0.00     0.191 C 
BRANCH  14  15
ATOM     15  O   UNL     1     -13.579 -23.125  13.511  1.00  0.00    -0.394 OA
ATOM     16  H   UNL     1     -13.570 -24.102  13.336  1.00  0.00     0.210 HD
ENDBRANCH  14  15
ENDBRANCH   5  14
BRANCH   4  17
ATOM     17  O   UNL     1     -10.695 -21.961  14.069  1.00  0.00    -0.387 OA
ATOM     18  H   UNL     1     -10.734 -21.351  13.286  1.00  0.00     0.211 HD
ENDBRANCH   4  17
TORSDOF 7
ENDMDL
MODEL 8
REMARK VINA RESULT:    -0.686      1.635      2.821
REMARK INTER + INTRA:          -1.310
REMARK INTER:                  -0.954
REMARK INTRA:                  -0.356
REMARK UNBOUND:                -0.424
REMARK SMILES CCO[C@@H]1O[C@H](CO)[C@H](O)[C@H](O)[C@H]1O
REMARK SMILES IDX 4 1 13 2 11 3 9 4 6 5 5 6 3 7 2 8 1 9 14 10 12 12 7 14 8 15
REMARK SMILES IDX 10 17
REMARK H PARENT 14 11 12 13 8 16 10 18
REMARK Flexibility Score: inf
ROOT
ATOM      1  C   UNL     1     -11.005 -22.337  17.108  1.00  0.00     0.281 C 
ATOM      2  C   UNL     1     -10.567 -21.142  17.988  1.00  0.00     0.202 C 
ATOM      3  C   UNL     1     -11.767 -20.266  18.392  1.00  0.00     0.179 C 
ATOM      4  C   UNL     1     -12.906 -21.133  18.946  1.00  0.00     0.177 C 
ATOM      5  C   UNL     1     -13.203 -22.369  18.052  1.00  0.00     0.178 C 
ATOM      6  O   UNL     1     -12.031 -23.107  17.721  1.00  0.00    -0.341 OA
ENDROOT
BRANCH   1   7
ATOM      7  O   UNL     1     -11.419 -21.898  15.822  1.00  0.00    -0.350 OA
BRANCH   7   8
ATOM      8  C   UNL     1     -11.228 -22.893  14.832  1.00  0.00     0.160 C 
ATOM      9  C   UNL     1     -12.302 -22.781  13.756  1.00  0.00     0.035 C 
ENDBRANCH   7   8
ENDBRANCH   1   7
BRANCH   2  10
ATOM     10  O   UNL     1      -9.860 -21.579  19.125  1.00  0.00    -0.385 OA
ATOM     11  H   UNL     1      -9.160 -20.908  19.334  1.00  0.00     0.211 HD
ENDBRANCH   2  10
BRANCH   3  12
ATOM     12  O   UNL     1     -12.217 -19.518  17.291  1.00  0.00    -0.387 OA
ATOM     13  H   UNL     1     -11.475 -19.498  16.631  1.00  0.00     0.211 HD
ENDBRANCH   3  12
BRANCH   5  14
ATOM     14  C   UNL     1     -14.088 -22.089  16.817  1.00  0.00     0.191 C 
BRANCH  14  15
ATOM     15  O   UNL     1     -15.436 -22.023  17.195  1.00  0.00    -0.394 OA
ATOM     16  H   UNL     1     -15.535 -21.186  17.720  1.00  0.00     0.210 HD
ENDBRANCH  14  15
ENDBRANCH   5  14
BRANCH   4  17
ATOM     17  O   UNL     1     -14.055 -20.345  19.125  1.00  0.00    -0.387 OA
ATOM     18  H   UNL     1     -14.676 -20.569  18.382  1.00  0.00     0.211 HD
ENDBRANCH   4  17
TORSDOF 7
ENDMDL
