MODEL 1
REMARK VINA RESULT:    -3.939      0.000      0.000
REMARK INTER + INTRA:          -4.310
REMARK INTER:                  -4.170
REMARK INTRA:                  -0.140
REMARK UNBOUND:                -0.140
REMARK SMILES CC1=CCC(C(C)C)=CC1
REMARK SMILES IDX 1 1 2 2 3 3 4 4 5 5 9 6 10 7 6 8 7 9 8 10
REMARK H PARENT
REMARK Flexibility Score: inf
ROOT
ATOM      1  C   UNL     1       3.559   4.878  12.407  1.00  0.00     0.039 C 
ATOM      2  C   UNL     1       4.795   5.733  12.405  1.00  0.00    -0.073 C 
ATOM      3  C   UNL     1       4.715   7.027  12.042  1.00  0.00    -0.023 C 
ATOM      4  C   UNL     1       5.948   7.893  11.985  1.00  0.00     0.058 C 
ATOM      5  C   UNL     1       6.977   7.468  13.013  1.00  0.00    -0.068 C 
ATOM      6  C   UNL     1       7.055   6.166  13.373  1.00  0.00    -0.023 C 
ATOM      7  C   UNL     1       6.138   5.134  12.764  1.00  0.00     0.057 C 
ENDROOT
BRANCH   5   8
ATOM      8  C   UNL     1       7.930   8.505  13.588  1.00  0.00     0.009 C 
ATOM      9  C   UNL     1       9.380   8.219  13.181  1.00  0.00     0.012 C 
ATOM     10  C   UNL     1       7.791   8.598  15.113  1.00  0.00     0.012 C 
ENDBRANCH   5   8
TORSDOF 1
ENDMDL
MODEL 2
REMARK VINA RESULT:    -3.384      1.186      4.371
REMARK INTER + INTRA:          -3.722
REMARK INTER:                  -3.577
REMARK INTRA:                  -0.145
REMARK UNBOUND:                -0.140
REMARK SMILES CC1=CCC(C(C)C)=CC1
REMARK SMILES IDX 1 1 2 2 3 3 4 4 5 5 9 6 10 7 6 8 7 9 8 10
REMARK H PARENT
REMARK Flexibility Score: inf
ROOT
ATOM      1  C   UNL     1       9.821   8.605  13.844  1.00  0.00     0.039 C 
ATOM      2  C   UNL     1       8.564   7.831  13.563  1.00  0.00    -0.073 C 
ATOM      3  C   UNL     1       7.574   7.803  14.475  1.00  0.00    -0.023 C 
ATOM      4  C   UNL     1       6.324   6.995  14.237  1.00  0.00     0.058 C 
ATOM      5  C   UNL     1       5.983   6.915  12.762  1.00  0.00    -0.068 C 
ATOM      6  C   UNL     1       6.981   6.942  11.849  1.00  0.00    -0.023 C 
ATOM      7  C   UNL     1       8.424   7.044  12.277  1.00  0.00     0.057 C 
ENDROOT
BRANCH   5   8
ATOM      8  C   UNL     1       4.530   6.764  12.339  1.00  0.00     0.009 C 
ATOM      9  C   UNL     1       3.607   7.652  13.184  1.00  0.00     0.012 C 
ATOM     10  C   UNL     1       4.087   5.297  12.392  1.00  0.00     0.012 C 
ENDBRANCH   5   8
TORSDOF 1
ENDMDL
MODEL 3
REMARK VINA RESULT:    -2.242      1.101      4.341
REMARK INTER + INTRA:          -2.513
REMARK INTER:                  -2.371
REMARK INTRA:                  -0.142
REMARK UNBOUND:                -0.140
REMARK SMILES CC1=CCC(C(C)C)=CC1
REMARK SMILES IDX 1 1 2 2 3 3 4 4 5 5 9 6 10 7 6 8 7 9 8 10
REMARK H PARENT
REMARK Flexibility Score: inf
ROOT
ATOM      1  C   UNL     1      10.031   8.243  13.872  1.00  0.00     0.039 C 
ATOM      2  C   UNL     1       8.582   8.086  13.510  1.00  0.00    -0.073 C 
ATOM      3  C   UNL     1       8.219   7.993  12.217  1.00  0.00    -0.023 C 
ATOM      4  C   UNL     1       6.767   7.884  11.825  1.00  0.00     0.058 C 
ATOM      5  C   UNL     1       5.957   7.159  12.882  1.00  0.00    -0.068 C 
ATOM      6  C   UNL     1       6.324   7.256  14.180  1.00  0.00    -0.023 C 
ATOM      7  C   UNL     1       7.521   8.077  14.591  1.00  0.00     0.057 C 
ENDROOT
BRANCH   5   8
ATOM      8  C   UNL     1       4.724   6.372  12.466  1.00  0.00     0.009 C 
ATOM      9  C   UNL     1       3.458   6.918  13.139  1.00  0.00     0.012 C 
ATOM     10  C   UNL     1       4.900   4.875  12.752  1.00  0.00     0.012 C 
ENDBRANCH   5   8
TORSDOF 1
ENDMDL
MODEL 4
REMARK VINA RESULT:    -1.505      1.576      2.483
REMARK INTER + INTRA:          -1.733
REMARK INTER:                  -1.566
REMARK INTRA:                  -0.166
REMARK UNBOUND:                -0.140
REMARK SMILES CC1=CCC(C(C)C)=CC1
REMARK SMILES IDX 1 1 2 2 3 3 4 4 5 5 9 6 10 7 6 8 7 9 8 10
REMARK H PARENT
REMARK Flexibility Score: inf
ROOT
ATOM      1  C   UNL     1       2.641   8.254  13.874  1.00  0.00     0.039 C 
ATOM      2  C   UNL     1       3.822   7.742  13.098  1.00  0.00    -0.073 C 
ATOM      3  C   UNL     1       4.710   8.610  12.576  1.00  0.00    -0.023 C 
ATOM      4  C   UNL     1       5.876   8.123  11.753  1.00  0.00     0.058 C 
ATOM      5  C   UNL     1       6.345   6.754  12.203  1.00  0.00    -0.068 C 
ATOM      6  C   UNL     1       5.449   5.886  12.725  1.00  0.00    -0.023 C 
ATOM      7  C   UNL     1       3.993   6.257  12.860  1.00  0.00     0.057 C 
ENDROOT
BRANCH   5   8
ATOM      8  C   UNL     1       7.805   6.369  12.021  1.00  0.00     0.009 C 
ATOM      9  C   UNL     1       8.035   4.885  12.334  1.00  0.00     0.012 C 
ATOM     10  C   UNL     1       8.723   7.262  12.865  1.00  0.00     0.012 C 
ENDBRANCH   5   8
TORSDOF 1
ENDMDL
