MODEL 1
REMARK VINA RESULT:    -5.073      0.000      0.000
REMARK INTER + INTRA:          -7.809
REMARK INTER:                  -6.259
REMARK INTRA:                  -1.550
REMARK UNBOUND:                -1.550
REMARK SMILES CC(C)=CCC[C@@H](C)c1ccc(C)cc1
REMARK SMILES IDX 6 1 7 2 8 3 9 4 13 5 12 6 11 7 14 8 10 9 15 10 5 11 4 12
REMARK SMILES IDX 2 13 1 14 3 15
REMARK H PARENT
REMARK Flexibility Score: inf
ROOT
ATOM      1  C   UNL     1      39.827 -52.005  24.287  1.00  0.00     0.012 C 
ENDROOT
BRANCH   1   2
ATOM      2  C   UNL     1      41.368 -51.914  24.201  1.00  0.00     0.016 C 
ATOM      3  C   UNL     1      42.011 -53.258  23.826  1.00  0.00     0.013 C 
BRANCH   2   4
ATOM      4  C   UNL     1      41.779 -50.839  23.210  1.00  0.00    -0.045 A 
ATOM      5  C   UNL     1      42.946 -47.754  20.420  1.00  0.00     0.044 C 
ATOM      6  C   UNL     1      42.519 -48.834  21.369  1.00  0.00    -0.051 A 
ATOM      7  C   UNL     1      41.581 -48.561  22.374  1.00  0.00     0.004 A 
ATOM      8  C   UNL     1      43.106 -50.105  21.303  1.00  0.00     0.004 A 
ATOM      9  C   UNL     1      41.208 -49.556  23.283  1.00  0.00     0.004 A 
ATOM     10  C   UNL     1      42.735 -51.103  22.211  1.00  0.00     0.004 A 
ENDBRANCH   2   4
ENDBRANCH   1   2
BRANCH   1  11
ATOM     11  C   UNL     1      39.208 -52.715  23.073  1.00  0.00     0.028 C 
BRANCH  11  12
ATOM     12  C   UNL     1      38.721 -51.709  22.060  1.00  0.00    -0.028 C 
ATOM     13  C   UNL     1      39.135 -51.659  20.773  1.00  0.00    -0.080 C 
ATOM     14  C   UNL     1      40.107 -52.666  20.204  1.00  0.00     0.039 C 
ATOM     15  C   UNL     1      38.588 -50.570  19.886  1.00  0.00     0.039 C 
ENDBRANCH  11  12
ENDBRANCH   1  11
TORSDOF 4
ENDMDL
MODEL 2
REMARK VINA RESULT:    -4.813      1.641      4.659
REMARK INTER + INTRA:          -7.489
REMARK INTER:                  -6.518
REMARK INTRA:                  -0.971
REMARK UNBOUND:                -1.550
REMARK SMILES CC(C)=CCC[C@@H](C)c1ccc(C)cc1
REMARK SMILES IDX 6 1 7 2 8 3 9 4 13 5 12 6 11 7 14 8 10 9 15 10 5 11 4 12
REMARK SMILES IDX 2 13 1 14 3 15
REMARK H PARENT
REMARK Flexibility Score: inf
ROOT
ATOM      1  C   UNL     1      40.006 -50.163  21.828  1.00  0.00     0.012 C 
ENDROOT
BRANCH   1   2
ATOM      2  C   UNL     1      40.745 -50.160  23.186  1.00  0.00     0.016 C 
ATOM      3  C   UNL     1      39.821 -49.771  24.350  1.00  0.00     0.013 C 
BRANCH   2   4
ATOM      4  C   UNL     1      41.377 -51.516  23.446  1.00  0.00    -0.045 A 
ATOM      5  C   UNL     1      43.139 -55.388  24.198  1.00  0.00     0.044 C 
ATOM      6  C   UNL     1      42.549 -54.031  23.955  1.00  0.00    -0.051 A 
ATOM      7  C   UNL     1      41.530 -53.544  24.785  1.00  0.00     0.004 A 
ATOM      8  C   UNL     1      42.963 -53.268  22.854  1.00  0.00     0.004 A 
ATOM      9  C   UNL     1      40.954 -52.295  24.537  1.00  0.00     0.004 A 
ATOM     10  C   UNL     1      42.388 -52.018  22.604  1.00  0.00     0.004 A 
ENDBRANCH   2   4
ENDBRANCH   1   2
BRANCH   1  11
ATOM     11  C   UNL     1      40.395 -48.971  20.941  1.00  0.00     0.028 C 
BRANCH  11  12
ATOM     12  C   UNL     1      41.780 -49.158  20.373  1.00  0.00    -0.028 C 
ATOM     13  C   UNL     1      42.880 -48.508  20.814  1.00  0.00    -0.080 C 
ATOM     14  C   UNL     1      42.832 -47.550  21.981  1.00  0.00     0.039 C 
ATOM     15  C   UNL     1      44.193 -48.769  20.121  1.00  0.00     0.039 C 
ENDBRANCH  11  12
ENDBRANCH   1  11
TORSDOF 4
ENDMDL
MODEL 3
REMARK VINA RESULT:    -4.803      1.596      3.361
REMARK INTER + INTRA:          -7.477
REMARK INTER:                  -6.482
REMARK INTRA:                  -0.994
REMARK UNBOUND:                -1.550
REMARK SMILES CC(C)=CCC[C@@H](C)c1ccc(C)cc1
REMARK SMILES IDX 6 1 7 2 8 3 9 4 13 5 12 6 11 7 14 8 10 9 15 10 5 11 4 12
REMARK SMILES IDX 2 13 1 14 3 15
REMARK H PARENT
REMARK Flexibility Score: inf
ROOT
ATOM      1  C   UNL     1      40.866 -52.219  23.920  1.00  0.00     0.012 C 
ENDROOT
BRANCH   1   2
ATOM      2  C   UNL     1      40.422 -51.994  22.457  1.00  0.00     0.016 C 
ATOM      3  C   UNL     1      38.934 -51.628  22.350  1.00  0.00     0.013 C 
BRANCH   2   4
ATOM      4  C   UNL     1      41.276 -50.920  21.804  1.00  0.00    -0.045 A 
ATOM      5  C   UNL     1      43.673 -47.840  19.953  1.00  0.00     0.044 C 
ATOM      6  C   UNL     1      42.847 -48.928  20.573  1.00  0.00    -0.051 A 
ATOM      7  C   UNL     1      41.477 -49.021  20.294  1.00  0.00     0.004 A 
ATOM      8  C   UNL     1      43.425 -49.818  21.490  1.00  0.00     0.004 A 
ATOM      9  C   UNL     1      40.699 -50.013  20.899  1.00  0.00     0.004 A 
ATOM     10  C   UNL     1      42.649 -50.810  22.096  1.00  0.00     0.004 A 
ENDBRANCH   2   4
ENDBRANCH   1   2
BRANCH   1  11
ATOM     11  C   UNL     1      41.076 -53.704  24.253  1.00  0.00     0.028 C 
BRANCH  11  12
ATOM     12  C   UNL     1      42.516 -54.098  24.039  1.00  0.00    -0.028 C 
ATOM     13  C   UNL     1      42.975 -54.754  22.948  1.00  0.00    -0.080 C 
ATOM     14  C   UNL     1      42.074 -55.111  21.790  1.00  0.00     0.039 C 
ATOM     15  C   UNL     1      44.437 -55.117  22.892  1.00  0.00     0.039 C 
ENDBRANCH  11  12
ENDBRANCH   1  11
TORSDOF 4
ENDMDL
MODEL 4
REMARK VINA RESULT:    -4.796     13.709     15.709
REMARK INTER + INTRA:          -7.468
REMARK INTER:                  -6.650
REMARK INTRA:                  -0.818
REMARK UNBOUND:                -1.550
REMARK SMILES CC(C)=CCC[C@@H](C)c1ccc(C)cc1
REMARK SMILES IDX 6 1 7 2 8 3 9 4 13 5 12 6 11 7 14 8 10 9 15 10 5 11 4 12
REMARK SMILES IDX 2 13 1 14 3 15
REMARK H PARENT
REMARK Flexibility Score: inf
ROOT
ATOM      1  C   UNL     1      44.408 -42.147  34.588  1.00  0.00     0.012 C 
ENDROOT
BRANCH   1   2
ATOM      2  C   UNL     1      43.380 -41.085  34.137  1.00  0.00     0.016 C 
ATOM      3  C   UNL     1      43.866 -39.653  34.410  1.00  0.00     0.013 C 
BRANCH   2   4
ATOM      4  C   UNL     1      43.053 -41.257  32.664  1.00  0.00    -0.045 A 
ATOM      5  C   UNL     1      42.083 -41.741  28.483  1.00  0.00     0.044 C 
ATOM      6  C   UNL     1      42.434 -41.600  29.934  1.00  0.00    -0.051 A 
ATOM      7  C   UNL     1      41.555 -42.063  30.922  1.00  0.00     0.004 A 
ATOM      8  C   UNL     1      43.613 -40.942  30.314  1.00  0.00     0.004 A 
ATOM      9  C   UNL     1      41.864 -41.899  32.276  1.00  0.00     0.004 A 
ATOM     10  C   UNL     1      43.924 -40.777  31.668  1.00  0.00     0.004 A 
ENDBRANCH   2   4
ENDBRANCH   1   2
BRANCH   1  11
ATOM     11  C   UNL     1      43.861 -43.070  35.688  1.00  0.00     0.028 C 
BRANCH  11  12
ATOM     12  C   UNL     1      44.227 -42.545  37.054  1.00  0.00    -0.028 C 
ATOM     13  C   UNL     1      43.379 -41.874  37.866  1.00  0.00    -0.080 C 
ATOM     14  C   UNL     1      41.935 -41.631  37.494  1.00  0.00     0.039 C 
ATOM     15  C   UNL     1      43.899 -41.374  39.190  1.00  0.00     0.039 C 
ENDBRANCH  11  12
ENDBRANCH   1  11
TORSDOF 4
ENDMDL
MODEL 5
REMARK VINA RESULT:    -4.785     13.638     15.657
REMARK INTER + INTRA:          -7.454
REMARK INTER:                  -6.631
REMARK INTRA:                  -0.823
REMARK UNBOUND:                -1.550
REMARK SMILES CC(C)=CCC[C@@H](C)c1ccc(C)cc1
REMARK SMILES IDX 6 1 7 2 8 3 9 4 13 5 12 6 11 7 14 8 10 9 15 10 5 11 4 12
REMARK SMILES IDX 2 13 1 14 3 15
REMARK H PARENT
REMARK Flexibility Score: inf
ROOT
ATOM      1  C   UNL     1      44.301 -42.268  34.506  1.00  0.00     0.012 C 
ENDROOT
BRANCH   1   2
ATOM      2  C   UNL     1      43.308 -41.168  34.069  1.00  0.00     0.016 C 
ATOM      3  C   UNL     1      43.839 -39.756  34.360  1.00  0.00     0.013 C 
BRANCH   2   4
ATOM      4  C   UNL     1      42.975 -41.312  32.594  1.00  0.00    -0.045 A 
ATOM      5  C   UNL     1      42.069 -41.730  28.391  1.00  0.00     0.044 C 
ATOM      6  C   UNL     1      42.369 -41.558  29.850  1.00  0.00    -0.051 A 
ATOM      7  C   UNL     1      43.572 -40.964  30.259  1.00  0.00     0.004 A 
ATOM      8  C   UNL     1      41.482 -42.051  30.817  1.00  0.00     0.004 A 
ATOM      9  C   UNL     1      43.870 -40.836  31.619  1.00  0.00     0.004 A 
ATOM     10  C   UNL     1      41.778 -41.924  32.178  1.00  0.00     0.004 A 
ENDBRANCH   2   4
ENDBRANCH   1   2
BRANCH   1  11
ATOM     11  C   UNL     1      43.764 -43.125  35.663  1.00  0.00     0.028 C 
BRANCH  11  12
ATOM     12  C   UNL     1      44.180 -42.546  36.992  1.00  0.00    -0.028 C 
ATOM     13  C   UNL     1      43.362 -41.849  37.812  1.00  0.00    -0.080 C 
ATOM     14  C   UNL     1      41.902 -41.628  37.490  1.00  0.00     0.039 C 
ATOM     15  C   UNL     1      43.931 -41.296  39.094  1.00  0.00     0.039 C 
ENDBRANCH  11  12
ENDBRANCH   1  11
TORSDOF 4
ENDMDL
MODEL 6
REMARK VINA RESULT:    -4.711      2.441      5.555
REMARK INTER + INTRA:          -7.363
REMARK INTER:                  -6.816
REMARK INTRA:                  -0.547
REMARK UNBOUND:                -1.550
REMARK SMILES CC(C)=CCC[C@@H](C)c1ccc(C)cc1
REMARK SMILES IDX 6 1 7 2 8 3 9 4 13 5 12 6 11 7 14 8 10 9 15 10 5 11 4 12
REMARK SMILES IDX 2 13 1 14 3 15
REMARK H PARENT
REMARK Flexibility Score: inf
ROOT
ATOM      1  C   UNL     1      41.858 -51.874  23.537  1.00  0.00     0.012 C 
ENDROOT
BRANCH   1   2
ATOM      2  C   UNL     1      41.458 -53.344  23.278  1.00  0.00     0.016 C 
ATOM      3  C   UNL     1      41.162 -53.615  21.795  1.00  0.00     0.013 C 
BRANCH   2   4
ATOM      4  C   UNL     1      42.543 -54.283  23.779  1.00  0.00    -0.045 A 
ATOM      5  C   UNL     1      45.655 -56.930  25.180  1.00  0.00     0.044 C 
ATOM      6  C   UNL     1      44.558 -56.035  24.685  1.00  0.00    -0.051 A 
ATOM      7  C   UNL     1      44.593 -55.531  23.377  1.00  0.00     0.004 A 
ATOM      8  C   UNL     1      43.525 -55.640  25.546  1.00  0.00     0.004 A 
ATOM      9  C   UNL     1      43.591 -54.667  22.925  1.00  0.00     0.004 A 
ATOM     10  C   UNL     1      42.521 -54.776  25.097  1.00  0.00     0.004 A 
ENDBRANCH   2   4
ENDBRANCH   1   2
BRANCH   1  11
ATOM     11  C   UNL     1      41.476 -50.944  22.375  1.00  0.00     0.028 C 
BRANCH  11  12
ATOM     12  C   UNL     1      42.708 -50.322  21.765  1.00  0.00    -0.028 C 
ATOM     13  C   UNL     1      42.688 -49.314  20.864  1.00  0.00    -0.080 C 
ATOM     14  C   UNL     1      41.400 -48.664  20.416  1.00  0.00     0.039 C 
ATOM     15  C   UNL     1      44.000 -48.820  20.311  1.00  0.00     0.039 C 
ENDBRANCH  11  12
ENDBRANCH   1  11
TORSDOF 4
ENDMDL
MODEL 7
REMARK VINA RESULT:    -4.704     15.555     16.937
REMARK INTER + INTRA:          -7.355
REMARK INTER:                  -6.521
REMARK INTRA:                  -0.833
REMARK UNBOUND:                -1.550
REMARK SMILES CC(C)=CCC[C@@H](C)c1ccc(C)cc1
REMARK SMILES IDX 6 1 7 2 8 3 9 4 13 5 12 6 11 7 14 8 10 9 15 10 5 11 4 12
REMARK SMILES IDX 2 13 1 14 3 15
REMARK H PARENT
REMARK Flexibility Score: inf
ROOT
ATOM      1  C   UNL     1      27.405 -41.566  25.922  1.00  0.00     0.012 C 
ENDROOT
BRANCH   1   2
ATOM      2  C   UNL     1      28.436 -40.466  26.264  1.00  0.00     0.016 C 
ATOM      3  C   UNL     1      27.950 -39.066  25.859  1.00  0.00     0.013 C 
BRANCH   2   4
ATOM      4  C   UNL     1      28.771 -40.499  27.746  1.00  0.00    -0.045 A 
ATOM      5  C   UNL     1      29.685 -40.596  31.966  1.00  0.00     0.044 C 
ATOM      6  C   UNL     1      29.384 -40.537  30.498  1.00  0.00    -0.051 A 
ATOM      7  C   UNL     1      28.234 -39.881  30.038  1.00  0.00     0.004 A 
ATOM      8  C   UNL     1      30.214 -41.196  29.580  1.00  0.00     0.004 A 
ATOM      9  C   UNL     1      27.933 -39.856  28.673  1.00  0.00     0.004 A 
ATOM     10  C   UNL     1      29.915 -41.173  28.215  1.00  0.00     0.004 A 
ENDBRANCH   2   4
ENDBRANCH   1   2
BRANCH   1  11
ATOM     11  C   UNL     1      27.899 -42.519  24.824  1.00  0.00     0.028 C 
BRANCH  11  12
ATOM     12  C   UNL     1      27.575 -41.970  23.457  1.00  0.00    -0.028 C 
ATOM     13  C   UNL     1      28.482 -41.417  22.620  1.00  0.00    -0.080 C 
ATOM     14  C   UNL     1      29.951 -41.347  22.964  1.00  0.00     0.039 C 
ATOM     15  C   UNL     1      28.001 -40.874  21.299  1.00  0.00     0.039 C 
ENDBRANCH  11  12
ENDBRANCH   1  11
TORSDOF 4
ENDMDL
MODEL 8
REMARK VINA RESULT:    -4.689     13.910     15.884
REMARK INTER + INTRA:          -7.336
REMARK INTER:                  -6.639
REMARK INTRA:                  -0.697
REMARK UNBOUND:                -1.550
REMARK SMILES CC(C)=CCC[C@@H](C)c1ccc(C)cc1
REMARK SMILES IDX 6 1 7 2 8 3 9 4 13 5 12 6 11 7 14 8 10 9 15 10 5 11 4 12
REMARK SMILES IDX 2 13 1 14 3 15
REMARK H PARENT
REMARK Flexibility Score: inf
ROOT
ATOM      1  C   UNL     1      42.998 -40.677  34.958  1.00  0.00     0.012 C 
ENDROOT
BRANCH   1   2
ATOM      2  C   UNL     1      43.525 -41.918  34.203  1.00  0.00     0.016 C 
ATOM      3  C   UNL     1      43.007 -43.232  34.808  1.00  0.00     0.013 C 
BRANCH   2   4
ATOM      4  C   UNL     1      43.159 -41.836  32.731  1.00  0.00    -0.045 A 
ATOM      5  C   UNL     1      42.156 -41.604  28.536  1.00  0.00     0.044 C 
ATOM      6  C   UNL     1      42.486 -41.661  29.997  1.00  0.00    -0.051 A 
ATOM      7  C   UNL     1      43.607 -40.981  30.496  1.00  0.00     0.004 A 
ATOM      8  C   UNL     1      41.717 -42.449  30.865  1.00  0.00     0.004 A 
ATOM      9  C   UNL     1      43.937 -41.063  31.852  1.00  0.00     0.004 A 
ATOM     10  C   UNL     1      42.046 -42.532  32.222  1.00  0.00     0.004 A 
ENDBRANCH   2   4
ENDBRANCH   1   2
BRANCH   1  11
ATOM     11  C   UNL     1      42.353 -41.035  36.306  1.00  0.00     0.028 C 
BRANCH  11  12
ATOM     12  C   UNL     1      43.246 -40.622  37.449  1.00  0.00    -0.028 C 
ATOM     13  C   UNL     1      43.619 -41.438  38.461  1.00  0.00    -0.080 C 
ATOM     14  C   UNL     1      43.209 -42.891  38.511  1.00  0.00     0.039 C 
ATOM     15  C   UNL     1      44.485 -40.872  39.557  1.00  0.00     0.039 C 
ENDBRANCH  11  12
ENDBRANCH   1  11
TORSDOF 4
ENDMDL
MODEL 9
REMARK VINA RESULT:    -4.557     15.026     16.850
REMARK INTER + INTRA:          -7.173
REMARK INTER:                  -6.310
REMARK INTRA:                  -0.863
REMARK UNBOUND:                -1.550
REMARK SMILES CC(C)=CCC[C@@H](C)c1ccc(C)cc1
REMARK SMILES IDX 6 1 7 2 8 3 9 4 13 5 12 6 11 7 14 8 10 9 15 10 5 11 4 12
REMARK SMILES IDX 2 13 1 14 3 15
REMARK H PARENT
REMARK Flexibility Score: inf
ROOT
ATOM      1  C   UNL     1      29.426 -42.353  25.552  1.00  0.00     0.012 C 
ENDROOT
BRANCH   1   2
ATOM      2  C   UNL     1      29.116 -41.048  24.783  1.00  0.00     0.016 C 
ATOM      3  C   UNL     1      30.392 -40.296  24.375  1.00  0.00     0.013 C 
BRANCH   2   4
ATOM      4  C   UNL     1      28.267 -41.346  23.559  1.00  0.00    -0.045 A 
ATOM      5  C   UNL     1      25.884 -42.188  20.056  1.00  0.00     0.044 C 
ATOM      6  C   UNL     1      26.691 -41.874  21.281  1.00  0.00    -0.051 A 
ATOM      7  C   UNL     1      27.721 -40.924  21.225  1.00  0.00     0.004 A 
ATOM      8  C   UNL     1      26.468 -42.578  22.473  1.00  0.00     0.004 A 
ATOM      9  C   UNL     1      28.497 -40.657  22.356  1.00  0.00     0.004 A 
ATOM     10  C   UNL     1      27.244 -42.313  23.605  1.00  0.00     0.004 A 
ENDBRANCH   2   4
ENDBRANCH   1   2
BRANCH   1  11
ATOM     11  C   UNL     1      28.766 -42.393  26.939  1.00  0.00     0.028 C 
BRANCH  11  12
ATOM     12  C   UNL     1      28.127 -41.066  27.263  1.00  0.00    -0.028 C 
ATOM     13  C   UNL     1      28.516 -40.256  28.274  1.00  0.00    -0.080 C 
ATOM     14  C   UNL     1      29.693 -40.591  29.161  1.00  0.00     0.039 C 
ATOM     15  C   UNL     1      27.755 -38.976  28.501  1.00  0.00     0.039 C 
ENDBRANCH  11  12
ENDBRANCH   1  11
TORSDOF 4
ENDMDL
