MODEL 1
REMARK VINA RESULT:    -3.637      0.000      0.000
REMARK INTER + INTRA:          -4.393
REMARK INTER:                  -4.275
REMARK INTRA:                  -0.118
REMARK UNBOUND:                -0.118
REMARK SMILES O=C([O-])CCC(=O)[O-]
REMARK SMILES IDX 4 1 2 2 1 3 3 4 5 5 6 6 7 7 8 8
REMARK H PARENT
REMARK Flexibility Score: inf
ROOT
ATOM      1  C   UNL     1      25.436  11.475  34.408  1.00  0.00     0.059 C 
ENDROOT
BRANCH   1   2
ATOM      2  C   UNL     1      24.529  11.734  35.572  1.00  0.00     0.042 C 
ATOM      3  O   UNL     1      24.715  12.736  36.310  1.00  0.00    -0.550 OA
ATOM      4  O   UNL     1      23.502  10.845  35.864  1.00  0.00    -0.550 OA
ENDBRANCH   1   2
BRANCH   1   5
ATOM      5  C   UNL     1      26.865  11.162  34.865  1.00  0.00     0.059 C 
BRANCH   5   6
ATOM      6  C   UNL     1      27.820  12.244  34.465  1.00  0.00     0.042 C 
ATOM      7  O   UNL     1      28.538  12.108  33.440  1.00  0.00    -0.550 OA
ATOM      8  O   UNL     1      27.947  13.385  35.248  1.00  0.00    -0.550 OA
ENDBRANCH   5   6
ENDBRANCH   1   5
TORSDOF 3
ENDMDL
MODEL 2
REMARK VINA RESULT:    -3.627      1.231      1.560
REMARK INTER + INTRA:          -4.381
REMARK INTER:                  -4.201
REMARK INTRA:                  -0.180
REMARK UNBOUND:                -0.118
REMARK SMILES O=C([O-])CCC(=O)[O-]
REMARK SMILES IDX 4 1 2 2 1 3 3 4 5 5 6 6 7 7 8 8
REMARK H PARENT
REMARK Flexibility Score: inf
ROOT
ATOM      1  C   UNL     1      26.508  11.154  34.795  1.00  0.00     0.059 C 
ENDROOT
BRANCH   1   2
ATOM      2  C   UNL     1      25.149  11.735  35.035  1.00  0.00     0.042 C 
ATOM      3  O   UNL     1      24.311  11.795  34.097  1.00  0.00    -0.550 OA
ATOM      4  O   UNL     1      24.822  12.248  36.283  1.00  0.00    -0.550 OA
ENDBRANCH   1   2
BRANCH   1   5
ATOM      5  C   UNL     1      27.618  12.135  35.187  1.00  0.00     0.059 C 
BRANCH   5   6
ATOM      6  C   UNL     1      27.522  13.414  34.413  1.00  0.00     0.042 C 
ATOM      7  O   UNL     1      27.641  13.407  33.160  1.00  0.00    -0.550 OA
ATOM      8  O   UNL     1      27.342  14.619  35.082  1.00  0.00    -0.550 OA
ENDBRANCH   5   6
ENDBRANCH   1   5
TORSDOF 3
ENDMDL
MODEL 3
REMARK VINA RESULT:    -3.626      1.047      3.703
REMARK INTER + INTRA:          -4.380
REMARK INTER:                  -4.221
REMARK INTRA:                  -0.159
REMARK UNBOUND:                -0.118
REMARK SMILES O=C([O-])CCC(=O)[O-]
REMARK SMILES IDX 4 1 2 2 1 3 3 4 5 5 6 6 7 7 8 8
REMARK H PARENT
REMARK Flexibility Score: inf
ROOT
ATOM      1  C   UNL     1      27.646  12.068  35.140  1.00  0.00     0.059 C 
ENDROOT
BRANCH   1   2
ATOM      2  C   UNL     1      27.617  13.185  34.144  1.00  0.00     0.042 C 
ATOM      3  O   UNL     1      27.909  12.968  32.938  1.00  0.00    -0.550 OA
ATOM      4  O   UNL     1      27.308  14.475  34.555  1.00  0.00    -0.550 OA
ENDBRANCH   1   2
BRANCH   1   5
ATOM      5  C   UNL     1      26.558  11.028  34.853  1.00  0.00     0.059 C 
BRANCH   5   6
ATOM      6  C   UNL     1      25.196  11.544  35.201  1.00  0.00     0.042 C 
ATOM      7  O   UNL     1      24.218  11.315  34.443  1.00  0.00    -0.550 OA
ATOM      8  O   UNL     1      25.016  12.314  36.344  1.00  0.00    -0.550 OA
ENDBRANCH   5   6
ENDBRANCH   1   5
TORSDOF 3
ENDMDL
MODEL 4
REMARK VINA RESULT:    -3.622      1.643      4.164
REMARK INTER + INTRA:          -4.375
REMARK INTER:                  -4.264
REMARK INTRA:                  -0.111
REMARK UNBOUND:                -0.118
REMARK SMILES O=C([O-])CCC(=O)[O-]
REMARK SMILES IDX 4 1 2 2 1 3 3 4 5 5 6 6 7 7 8 8
REMARK H PARENT
REMARK Flexibility Score: inf
ROOT
ATOM      1  C   UNL     1      27.162  13.482  33.716  1.00  0.00     0.059 C 
ENDROOT
BRANCH   1   2
ATOM      2  C   UNL     1      28.096  12.518  33.053  1.00  0.00     0.042 C 
ATOM      3  O   UNL     1      28.549  11.533  33.692  1.00  0.00    -0.550 OA
ATOM      4  O   UNL     1      28.498  12.731  31.740  1.00  0.00    -0.550 OA
ENDBRANCH   1   2
BRANCH   1   5
ATOM      5  C   UNL     1      27.022  13.193  35.214  1.00  0.00     0.059 C 
BRANCH   5   6
ATOM      6  C   UNL     1      25.722  12.519  35.527  1.00  0.00     0.042 C 
ATOM      7  O   UNL     1      24.868  13.093  36.252  1.00  0.00    -0.550 OA
ATOM      8  O   UNL     1      25.471  11.238  35.049  1.00  0.00    -0.550 OA
ENDBRANCH   5   6
ENDBRANCH   1   5
TORSDOF 3
ENDMDL
MODEL 5
REMARK VINA RESULT:    -3.603      1.987      4.044
REMARK INTER + INTRA:          -4.353
REMARK INTER:                  -4.267
REMARK INTRA:                  -0.086
REMARK UNBOUND:                -0.118
REMARK SMILES O=C([O-])CCC(=O)[O-]
REMARK SMILES IDX 4 1 2 2 1 3 3 4 5 5 6 6 7 7 8 8
REMARK H PARENT
REMARK Flexibility Score: inf
ROOT
ATOM      1  C   UNL     1      28.329  12.232  33.394  1.00  0.00     0.059 C 
ENDROOT
BRANCH   1   2
ATOM      2  C   UNL     1      27.925  12.657  32.016  1.00  0.00     0.042 C 
ATOM      3  O   UNL     1      28.779  12.706  31.092  1.00  0.00    -0.550 OA
ATOM      4  O   UNL     1      26.614  13.040  31.763  1.00  0.00    -0.550 OA
ENDBRANCH   1   2
BRANCH   1   5
ATOM      5  C   UNL     1      27.618  13.057  34.471  1.00  0.00     0.059 C 
BRANCH   5   6
ATOM      6  C   UNL     1      26.541  12.267  35.150  1.00  0.00     0.042 C 
ATOM      7  O   UNL     1      26.535  11.011  35.077  1.00  0.00    -0.550 OA
ATOM      8  O   UNL     1      25.522  12.923  35.830  1.00  0.00    -0.550 OA
ENDBRANCH   5   6
ENDBRANCH   1   5
TORSDOF 3
ENDMDL
MODEL 6
REMARK VINA RESULT:    -3.591      1.964      2.716
REMARK INTER + INTRA:          -4.339
REMARK INTER:                  -4.221
REMARK INTRA:                  -0.119
REMARK UNBOUND:                -0.118
REMARK SMILES O=C([O-])CCC(=O)[O-]
REMARK SMILES IDX 4 1 2 2 1 3 3 4 5 5 6 6 7 7 8 8
REMARK H PARENT
REMARK Flexibility Score: inf
ROOT
ATOM      1  C   UNL     1      27.418  13.152  34.394  1.00  0.00     0.059 C 
ENDROOT
BRANCH   1   2
ATOM      2  C   UNL     1      26.402  12.376  35.173  1.00  0.00     0.042 C 
ATOM      3  O   UNL     1      26.420  11.117  35.162  1.00  0.00    -0.550 OA
ATOM      4  O   UNL     1      25.409  13.043  35.878  1.00  0.00    -0.550 OA
ENDBRANCH   1   2
BRANCH   1   5
ATOM      5  C   UNL     1      28.356  12.227  33.610  1.00  0.00     0.059 C 
BRANCH   5   6
ATOM      6  C   UNL     1      27.984  12.164  32.161  1.00  0.00     0.042 C 
ATOM      7  O   UNL     1      27.020  11.449  31.784  1.00  0.00    -0.550 OA
ATOM      8  O   UNL     1      28.731  12.865  31.221  1.00  0.00    -0.550 OA
ENDBRANCH   5   6
ENDBRANCH   1   5
TORSDOF 3
ENDMDL
MODEL 7
REMARK VINA RESULT:    -3.581      2.766      3.572
REMARK INTER + INTRA:          -4.327
REMARK INTER:                  -4.269
REMARK INTRA:                  -0.058
REMARK UNBOUND:                -0.118
REMARK SMILES O=C([O-])CCC(=O)[O-]
REMARK SMILES IDX 4 1 2 2 1 3 3 4 5 5 6 6 7 7 8 8
REMARK H PARENT
REMARK Flexibility Score: inf
ROOT
ATOM      1  C   UNL     1      27.240  13.413  33.237  1.00  0.00     0.059 C 
ENDROOT
BRANCH   1   2
ATOM      2  C   UNL     1      27.479  13.504  34.713  1.00  0.00     0.042 C 
ATOM      3  O   UNL     1      27.529  14.627  35.279  1.00  0.00    -0.550 OA
ATOM      4  O   UNL     1      27.688  12.349  35.455  1.00  0.00    -0.550 OA
ENDBRANCH   1   2
BRANCH   1   5
ATOM      5  C   UNL     1      27.189  11.957  32.762  1.00  0.00     0.059 C 
BRANCH   5   6
ATOM      6  C   UNL     1      27.928  11.772  31.472  1.00  0.00     0.042 C 
ATOM      7  O   UNL     1      28.657  12.693  31.021  1.00  0.00    -0.550 OA
ATOM      8  O   UNL     1      27.777  10.595  30.748  1.00  0.00    -0.550 OA
ENDBRANCH   5   6
ENDBRANCH   1   5
TORSDOF 3
ENDMDL
MODEL 8
REMARK VINA RESULT:    -3.534      1.557      4.160
REMARK INTER + INTRA:          -4.271
REMARK INTER:                  -4.191
REMARK INTRA:                  -0.080
REMARK UNBOUND:                -0.118
REMARK SMILES O=C([O-])CCC(=O)[O-]
REMARK SMILES IDX 4 1 2 2 1 3 3 4 5 5 6 6 7 7 8 8
REMARK H PARENT
REMARK Flexibility Score: inf
ROOT
ATOM      1  C   UNL     1      25.604  12.437  35.735  1.00  0.00     0.059 C 
ENDROOT
BRANCH   1   2
ATOM      2  C   UNL     1      27.001  12.181  35.261  1.00  0.00     0.042 C 
ATOM      3  O   UNL     1      27.354  11.019  34.926  1.00  0.00    -0.550 OA
ATOM      4  O   UNL     1      27.925  13.217  35.227  1.00  0.00    -0.550 OA
ENDBRANCH   1   2
BRANCH   1   5
ATOM      5  C   UNL     1      24.824  11.132  35.926  1.00  0.00     0.059 C 
BRANCH   5   6
ATOM      6  C   UNL     1      23.501  11.172  35.225  1.00  0.00     0.042 C 
ATOM      7  O   UNL     1      23.383  11.779  34.128  1.00  0.00    -0.550 OA
ATOM      8  O   UNL     1      22.389  10.574  35.805  1.00  0.00    -0.550 OA
ENDBRANCH   5   6
ENDBRANCH   1   5
TORSDOF 3
ENDMDL
MODEL 9
REMARK VINA RESULT:    -3.514      1.925      2.469
REMARK INTER + INTRA:          -4.248
REMARK INTER:                  -4.174
REMARK INTRA:                  -0.074
REMARK UNBOUND:                -0.118
REMARK SMILES O=C([O-])CCC(=O)[O-]
REMARK SMILES IDX 4 1 2 2 1 3 3 4 5 5 6 6 7 7 8 8
REMARK H PARENT
REMARK Flexibility Score: inf
ROOT
ATOM      1  C   UNL     1      24.106  12.475  35.854  1.00  0.00     0.059 C 
ENDROOT
BRANCH   1   2
ATOM      2  C   UNL     1      22.691  12.169  35.472  1.00  0.00     0.042 C 
ATOM      3  O   UNL     1      22.131  11.125  35.898  1.00  0.00    -0.550 OA
ATOM      4  O   UNL     1      22.004  13.017  34.613  1.00  0.00    -0.550 OA
ENDBRANCH   1   2
BRANCH   1   5
ATOM      5  C   UNL     1      24.992  11.226  35.787  1.00  0.00     0.059 C 
BRANCH   5   6
ATOM      6  C   UNL     1      26.069  11.369  34.756  1.00  0.00     0.042 C 
ATOM      7  O   UNL     1      27.169  10.776  34.903  1.00  0.00    -0.550 OA
ATOM      8  O   UNL     1      25.871  12.190  33.652  1.00  0.00    -0.550 OA
ENDBRANCH   5   6
ENDBRANCH   1   5
TORSDOF 3
ENDMDL
