MODEL 1
REMARK VINA RESULT:    -5.391      0.000      0.000
REMARK INTER + INTRA:          -5.864
REMARK INTER:                  -5.864
REMARK INTRA:                   0.000
REMARK UNBOUND:                 0.000
REMARK SMILES Cc1cc(O)c2c(c1)C(=O)c1cc(O)cc(O)c1C2=O
REMARK SMILES IDX 1 1 2 2 8 3 7 4 6 5 4 6 3 7 19 8 20 9 18 10 11 11 9 12 10 13
REMARK SMILES IDX 12 14 13 15 15 16 16 17 5 18 17 20 14 22
REMARK H PARENT 5 19 17 21 14 23
REMARK Flexibility Score: inf
ROOT
ATOM      1  C   UNL     1     159.094   8.829  27.111  1.00  0.00     0.044 C 
ATOM      2  C   UNL     1     158.221   8.839  28.332  1.00  0.00    -0.047 A 
ATOM      3  C   UNL     1     158.597   8.119  29.472  1.00  0.00     0.016 A 
ATOM      4  C   UNL     1     157.806   8.152  30.634  1.00  0.00     0.038 A 
ATOM      5  C   UNL     1     156.624   8.921  30.656  1.00  0.00     0.076 A 
ATOM      6  C   UNL     1     156.263   9.668  29.511  1.00  0.00     0.127 A 
ATOM      7  C   UNL     1     157.064   9.625  28.364  1.00  0.00     0.050 A 
ATOM      8  C   UNL     1     155.777   8.912  31.878  1.00  0.00     0.201 C 
ATOM      9  O   UNL     1     154.574   9.278  31.800  1.00  0.00    -0.288 OA
ATOM     10  C   UNL     1     156.312   8.366  33.156  1.00  0.00     0.076 A 
ATOM     11  C   UNL     1     157.466   7.548  33.106  1.00  0.00     0.041 A 
ATOM     12  C   UNL     1     158.207   7.382  31.833  1.00  0.00     0.194 C 
ATOM     13  O   UNL     1     159.193   6.597  31.776  1.00  0.00    -0.289 OA
ATOM     14  C   UNL     1     157.913   6.897  34.270  1.00  0.00     0.059 A 
ATOM     15  C   UNL     1     157.238   7.065  35.481  1.00  0.00     0.120 A 
ATOM     16  C   UNL     1     156.131   7.908  35.546  1.00  0.00     0.093 A 
ATOM     17  C   UNL     1     155.680   8.588  34.410  1.00  0.00     0.131 A 
ENDROOT
BRANCH   6  18
ATOM     18  O   UNL     1     155.115  10.464  29.514  1.00  0.00    -0.507 OA
ATOM     19  H   UNL     1     155.015  11.257  28.891  1.00  0.00     0.293 HD
ENDBRANCH   6  18
BRANCH  17  20
ATOM     20  O   UNL     1     154.632   9.494  34.585  1.00  0.00    -0.507 OA
ATOM     21  H   UNL     1     154.503  10.320  34.017  1.00  0.00     0.293 HD
ENDBRANCH  17  20
BRANCH  15  22
ATOM     22  O   UNL     1     157.670   6.408  36.631  1.00  0.00    -0.508 OA
ATOM     23  H   UNL     1     157.407   5.450  36.826  1.00  0.00     0.293 HD
ENDBRANCH  15  22
TORSDOF 3
ENDMDL
MODEL 2
REMARK VINA RESULT:    -5.157      1.247      5.496
REMARK INTER + INTRA:          -5.610
REMARK INTER:                  -5.610
REMARK INTRA:                   0.000
REMARK UNBOUND:                 0.000
REMARK SMILES Cc1cc(O)c2c(c1)C(=O)c1cc(O)cc(O)c1C2=O
REMARK SMILES IDX 1 1 2 2 8 3 7 4 6 5 4 6 3 7 19 8 20 9 18 10 11 11 9 12 10 13
REMARK SMILES IDX 12 14 13 15 15 16 16 17 5 18 17 20 14 22
REMARK H PARENT 5 19 17 21 14 23
REMARK Flexibility Score: inf
ROOT
ATOM      1  C   UNL     1     157.041   5.378  36.489  1.00  0.00     0.044 C 
ATOM      2  C   UNL     1     156.769   6.354  35.383  1.00  0.00    -0.047 A 
ATOM      3  C   UNL     1     157.536   6.323  34.211  1.00  0.00     0.016 A 
ATOM      4  C   UNL     1     157.264   7.207  33.153  1.00  0.00     0.038 A 
ATOM      5  C   UNL     1     156.207   8.133  33.266  1.00  0.00     0.076 A 
ATOM      6  C   UNL     1     155.418   8.143  34.440  1.00  0.00     0.127 A 
ATOM      7  C   UNL     1     155.701   7.253  35.482  1.00  0.00     0.050 A 
ATOM      8  C   UNL     1     155.959   9.090  32.155  1.00  0.00     0.201 C 
ATOM      9  O   UNL     1     155.286  10.132  32.374  1.00  0.00    -0.288 OA
ATOM     10  C   UNL     1     156.598   8.876  30.827  1.00  0.00     0.076 A 
ATOM     11  C   UNL     1     157.697   7.987  30.745  1.00  0.00     0.041 A 
ATOM     12  C   UNL     1     158.085   7.173  31.921  1.00  0.00     0.194 C 
ATOM     13  O   UNL     1     159.107   6.434  31.867  1.00  0.00    -0.289 OA
ATOM     14  C   UNL     1     158.415   7.872  29.542  1.00  0.00     0.059 A 
ATOM     15  C   UNL     1     158.044   8.615  28.419  1.00  0.00     0.120 A 
ATOM     16  C   UNL     1     156.934   9.455  28.480  1.00  0.00     0.093 A 
ATOM     17  C   UNL     1     156.186   9.569  29.655  1.00  0.00     0.131 A 
ENDROOT
BRANCH   6  18
ATOM     18  O   UNL     1     154.344   9.026  34.567  1.00  0.00    -0.507 OA
ATOM     19  H   UNL     1     154.469   9.971  34.911  1.00  0.00     0.293 HD
ENDBRANCH   6  18
BRANCH  17  20
ATOM     20  O   UNL     1     155.028  10.348  29.600  1.00  0.00    -0.507 OA
ATOM     21  H   UNL     1     154.518  10.537  28.749  1.00  0.00     0.293 HD
ENDBRANCH  17  20
BRANCH  15  22
ATOM     22  O   UNL     1     158.765   8.514  27.232  1.00  0.00    -0.508 OA
ATOM     23  H   UNL     1     158.310   8.561  26.328  1.00  0.00     0.293 HD
ENDBRANCH  15  22
TORSDOF 3
ENDMDL
MODEL 3
REMARK VINA RESULT:    -4.929      0.953      1.166
REMARK INTER + INTRA:          -5.361
REMARK INTER:                  -5.361
REMARK INTRA:                   0.000
REMARK UNBOUND:                 0.000
REMARK SMILES Cc1cc(O)c2c(c1)C(=O)c1cc(O)cc(O)c1C2=O
REMARK SMILES IDX 1 1 2 2 8 3 7 4 6 5 4 6 3 7 19 8 20 9 18 10 11 11 9 12 10 13
REMARK SMILES IDX 12 14 13 15 15 16 16 17 5 18 17 20 14 22
REMARK H PARENT 5 19 17 21 14 23
REMARK Flexibility Score: inf
ROOT
ATOM      1  C   UNL     1     158.380   8.609  27.866  1.00  0.00     0.044 C 
ATOM      2  C   UNL     1     157.696   8.569  29.200  1.00  0.00    -0.047 A 
ATOM      3  C   UNL     1     158.272   7.867  30.266  1.00  0.00     0.016 A 
ATOM      4  C   UNL     1     157.659   7.856  31.531  1.00  0.00     0.038 A 
ATOM      5  C   UNL     1     156.455   8.561  31.734  1.00  0.00     0.076 A 
ATOM      6  C   UNL     1     155.891   9.291  30.662  1.00  0.00     0.127 A 
ATOM      7  C   UNL     1     156.517   9.293  29.410  1.00  0.00     0.050 A 
ATOM      8  C   UNL     1     155.798   8.504  33.066  1.00  0.00     0.201 C 
ATOM      9  O   UNL     1     154.579   8.807  33.170  1.00  0.00    -0.288 OA
ATOM     10  C   UNL     1     156.542   7.984  34.247  1.00  0.00     0.076 A 
ATOM     11  C   UNL     1     157.717   7.228  34.021  1.00  0.00     0.041 A 
ATOM     12  C   UNL     1     158.271   7.104  32.651  1.00  0.00     0.194 C 
ATOM     13  O   UNL     1     159.277   6.373  32.442  1.00  0.00    -0.289 OA
ATOM     14  C   UNL     1     158.363   6.598  35.099  1.00  0.00     0.059 A 
ATOM     15  C   UNL     1     157.865   6.727  36.398  1.00  0.00     0.120 A 
ATOM     16  C   UNL     1     156.737   7.510  36.633  1.00  0.00     0.093 A 
ATOM     17  C   UNL     1     156.091   8.168  35.583  1.00  0.00     0.131 A 
ENDROOT
BRANCH   6  18
ATOM     18  O   UNL     1     154.717  10.025  30.841  1.00  0.00    -0.507 OA
ATOM     19  H   UNL     1     154.729  10.963  31.226  1.00  0.00     0.293 HD
ENDBRANCH   6  18
BRANCH  17  20
ATOM     20  O   UNL     1     155.034   9.018  35.918  1.00  0.00    -0.507 OA
ATOM     21  H   UNL     1     154.547   9.600  35.250  1.00  0.00     0.293 HD
ENDBRANCH  17  20
BRANCH  15  22
ATOM     22  O   UNL     1     158.495   6.091  37.465  1.00  0.00    -0.508 OA
ATOM     23  H   UNL     1     159.463   6.277  37.698  1.00  0.00     0.293 HD
ENDBRANCH  15  22
TORSDOF 3
ENDMDL
MODEL 4
REMARK VINA RESULT:    -4.657      2.289      6.229
REMARK INTER + INTRA:          -5.065
REMARK INTER:                  -5.065
REMARK INTRA:                   0.000
REMARK UNBOUND:                 0.000
REMARK SMILES Cc1cc(O)c2c(c1)C(=O)c1cc(O)cc(O)c1C2=O
REMARK SMILES IDX 1 1 2 2 8 3 7 4 6 5 4 6 3 7 19 8 20 9 18 10 11 11 9 12 10 13
REMARK SMILES IDX 12 14 13 15 15 16 16 17 5 18 17 20 14 22
REMARK H PARENT 5 19 17 21 14 23
REMARK Flexibility Score: inf
ROOT
ATOM      1  C   UNL     1     158.982   5.142  36.124  1.00  0.00     0.044 C 
ATOM      2  C   UNL     1     158.569   5.225  34.684  1.00  0.00    -0.047 A 
ATOM      3  C   UNL     1     157.962   6.387  34.192  1.00  0.00     0.016 A 
ATOM      4  C   UNL     1     157.606   6.491  32.836  1.00  0.00     0.038 A 
ATOM      5  C   UNL     1     157.867   5.418  31.958  1.00  0.00     0.076 A 
ATOM      6  C   UNL     1     158.505   4.257  32.454  1.00  0.00     0.127 A 
ATOM      7  C   UNL     1     158.854   4.173  33.807  1.00  0.00     0.050 A 
ATOM      8  C   UNL     1     157.447   5.527  30.536  1.00  0.00     0.201 C 
ATOM      9  O   UNL     1     157.335   4.482  29.842  1.00  0.00    -0.288 OA
ATOM     10  C   UNL     1     157.049   6.847  29.972  1.00  0.00     0.076 A 
ATOM     11  C   UNL     1     156.735   7.895  30.870  1.00  0.00     0.041 A 
ATOM     12  C   UNL     1     156.958   7.720  32.325  1.00  0.00     0.194 C 
ATOM     13  O   UNL     1     156.611   8.628  33.129  1.00  0.00    -0.289 OA
ATOM     14  C   UNL     1     156.217   9.105  30.378  1.00  0.00     0.059 A 
ATOM     15  C   UNL     1     156.026   9.292  29.008  1.00  0.00     0.120 A 
ATOM     16  C   UNL     1     156.379   8.282  28.116  1.00  0.00     0.093 A 
ATOM     17  C   UNL     1     156.921   7.078  28.575  1.00  0.00     0.131 A 
ENDROOT
BRANCH   6  18
ATOM     18  O   UNL     1     158.805   3.192  31.603  1.00  0.00    -0.507 OA
ATOM     19  H   UNL     1     159.445   3.296  30.824  1.00  0.00     0.293 HD
ENDBRANCH   6  18
BRANCH  17  20
ATOM     20  O   UNL     1     157.347   6.162  27.610  1.00  0.00    -0.507 OA
ATOM     21  H   UNL     1     158.181   6.282  27.052  1.00  0.00     0.293 HD
ENDBRANCH  17  20
BRANCH  15  22
ATOM     22  O   UNL     1     155.497  10.485  28.521  1.00  0.00    -0.508 OA
ATOM     23  H   UNL     1     155.849  11.385  28.825  1.00  0.00     0.293 HD
ENDBRANCH  15  22
TORSDOF 3
ENDMDL
MODEL 5
REMARK VINA RESULT:    -4.618      2.858      6.306
REMARK INTER + INTRA:          -5.023
REMARK INTER:                  -5.023
REMARK INTRA:                   0.000
REMARK UNBOUND:                 0.000
REMARK SMILES Cc1cc(O)c2c(c1)C(=O)c1cc(O)cc(O)c1C2=O
REMARK SMILES IDX 1 1 2 2 8 3 7 4 6 5 4 6 3 7 19 8 20 9 18 10 11 11 9 12 10 13
REMARK SMILES IDX 12 14 13 15 15 16 16 17 5 18 17 20 14 22
REMARK H PARENT 5 19 17 21 14 23
REMARK Flexibility Score: inf
ROOT
ATOM      1  C   UNL     1     153.875   6.559  35.352  1.00  0.00     0.044 C 
ATOM      2  C   UNL     1     154.368   6.434  33.940  1.00  0.00    -0.047 A 
ATOM      3  C   UNL     1     154.914   7.544  33.283  1.00  0.00     0.016 A 
ATOM      4  C   UNL     1     155.414   7.429  31.975  1.00  0.00     0.038 A 
ATOM      5  C   UNL     1     155.373   6.183  31.315  1.00  0.00     0.076 A 
ATOM      6  C   UNL     1     154.846   5.059  31.992  1.00  0.00     0.127 A 
ATOM      7  C   UNL     1     154.355   5.192  33.296  1.00  0.00     0.050 A 
ATOM      8  C   UNL     1     155.867   6.087  29.917  1.00  0.00     0.201 C 
ATOM      9  O   UNL     1     155.515   5.112  29.201  1.00  0.00    -0.288 OA
ATOM     10  C   UNL     1     156.676   7.193  29.331  1.00  0.00     0.076 A 
ATOM     11  C   UNL     1     156.658   8.452  29.975  1.00  0.00     0.041 A 
ATOM     12  C   UNL     1     155.982   8.609  31.285  1.00  0.00     0.194 C 
ATOM     13  O   UNL     1     155.906   9.748  31.823  1.00  0.00    -0.289 OA
ATOM     14  C   UNL     1     157.288   9.555  29.373  1.00  0.00     0.059 A 
ATOM     15  C   UNL     1     157.950   9.415  28.151  1.00  0.00     0.120 A 
ATOM     16  C   UNL     1     158.012   8.166  27.536  1.00  0.00     0.093 A 
ATOM     17  C   UNL     1     157.416   7.047  28.126  1.00  0.00     0.131 A 
ENDROOT
BRANCH   6  18
ATOM     18  O   UNL     1     154.821   3.805  31.377  1.00  0.00    -0.507 OA
ATOM     19  H   UNL     1     155.480   3.557  30.648  1.00  0.00     0.293 HD
ENDBRANCH   6  18
BRANCH  17  20
ATOM     20  O   UNL     1     157.617   5.815  27.500  1.00  0.00    -0.507 OA
ATOM     21  H   UNL     1     158.527   5.454  27.248  1.00  0.00     0.293 HD
ENDBRANCH  17  20
BRANCH  15  22
ATOM     22  O   UNL     1     158.561  10.510  27.545  1.00  0.00    -0.508 OA
ATOM     23  H   UNL     1     159.088  10.416  26.685  1.00  0.00     0.293 HD
ENDBRANCH  15  22
TORSDOF 3
ENDMDL
MODEL 6
REMARK VINA RESULT:    -4.573      2.751      3.592
REMARK INTER + INTRA:          -4.974
REMARK INTER:                  -4.974
REMARK INTRA:                   0.000
REMARK UNBOUND:                 0.000
REMARK SMILES Cc1cc(O)c2c(c1)C(=O)c1cc(O)cc(O)c1C2=O
REMARK SMILES IDX 1 1 2 2 8 3 7 4 6 5 4 6 3 7 19 8 20 9 18 10 11 11 9 12 10 13
REMARK SMILES IDX 12 14 13 15 15 16 16 17 5 18 17 20 14 22
REMARK H PARENT 5 19 17 21 14 23
REMARK Flexibility Score: inf
ROOT
ATOM      1  C   UNL     1     158.180  10.514  27.507  1.00  0.00     0.044 C 
ATOM      2  C   UNL     1     157.776   9.267  28.236  1.00  0.00    -0.047 A 
ATOM      3  C   UNL     1     157.244   9.348  29.529  1.00  0.00     0.016 A 
ATOM      4  C   UNL     1     156.826   8.189  30.206  1.00  0.00     0.038 A 
ATOM      5  C   UNL     1     156.936   6.931  29.578  1.00  0.00     0.076 A 
ATOM      6  C   UNL     1     157.449   6.857  28.262  1.00  0.00     0.127 A 
ATOM      7  C   UNL     1     157.858   8.022  27.602  1.00  0.00     0.050 A 
ATOM      8  C   UNL     1     156.529   5.711  30.323  1.00  0.00     0.201 C 
ATOM      9  O   UNL     1     156.947   4.585  29.943  1.00  0.00    -0.288 OA
ATOM     10  C   UNL     1     155.731   5.830  31.575  1.00  0.00     0.076 A 
ATOM     11  C   UNL     1     155.680   7.088  32.223  1.00  0.00     0.041 A 
ATOM     12  C   UNL     1     156.272   8.283  31.576  1.00  0.00     0.194 C 
ATOM     13  O   UNL     1     156.288   9.387  32.186  1.00  0.00    -0.289 OA
ATOM     14  C   UNL     1     155.060   7.203  33.479  1.00  0.00     0.059 A 
ATOM     15  C   UNL     1     154.476   6.090  34.088  1.00  0.00     0.120 A 
ATOM     16  C   UNL     1     154.481   4.860  33.433  1.00  0.00     0.093 A 
ATOM     17  C   UNL     1     155.067   4.723  32.171  1.00  0.00     0.131 A 
ENDROOT
BRANCH   6  18
ATOM     18  O   UNL     1     157.540   5.630  27.603  1.00  0.00    -0.507 OA
ATOM     19  H   UNL     1     158.022   4.838  28.014  1.00  0.00     0.293 HD
ENDBRANCH   6  18
BRANCH  17  20
ATOM     20  O   UNL     1     154.934   3.485  31.539  1.00  0.00    -0.507 OA
ATOM     21  H   UNL     1     154.105   2.910  31.596  1.00  0.00     0.293 HD
ENDBRANCH  17  20
BRANCH  15  22
ATOM     22  O   UNL     1     153.876   6.199  35.340  1.00  0.00    -0.508 OA
ATOM     23  H   UNL     1     152.872   6.286  35.442  1.00  0.00     0.293 HD
ENDBRANCH  15  22
TORSDOF 3
ENDMDL
MODEL 7
REMARK VINA RESULT:    -4.491      2.409      5.840
REMARK INTER + INTRA:          -4.885
REMARK INTER:                  -4.885
REMARK INTRA:                   0.000
REMARK UNBOUND:                 0.000
REMARK SMILES Cc1cc(O)c2c(c1)C(=O)c1cc(O)cc(O)c1C2=O
REMARK SMILES IDX 1 1 2 2 8 3 7 4 6 5 4 6 3 7 19 8 20 9 18 10 11 11 9 12 10 13
REMARK SMILES IDX 12 14 13 15 15 16 16 17 5 18 17 20 14 22
REMARK H PARENT 5 19 17 21 14 23
REMARK Flexibility Score: inf
ROOT
ATOM      1  C   UNL     1     157.998   4.317  36.104  1.00  0.00     0.044 C 
ATOM      2  C   UNL     1     157.313   4.930  34.918  1.00  0.00    -0.047 A 
ATOM      3  C   UNL     1     158.054   5.638  33.965  1.00  0.00     0.016 A 
ATOM      4  C   UNL     1     157.428   6.183  32.830  1.00  0.00     0.038 A 
ATOM      5  C   UNL     1     156.041   6.013  32.644  1.00  0.00     0.076 A 
ATOM      6  C   UNL     1     155.301   5.274  33.596  1.00  0.00     0.127 A 
ATOM      7  C   UNL     1     155.942   4.736  34.719  1.00  0.00     0.050 A 
ATOM      8  C   UNL     1     155.387   6.631  31.461  1.00  0.00     0.201 C 
ATOM      9  O   UNL     1     154.139   6.804  31.463  1.00  0.00    -0.288 OA
ATOM     10  C   UNL     1     156.212   7.147  30.333  1.00  0.00     0.076 A 
ATOM     11  C   UNL     1     157.592   7.367  30.557  1.00  0.00     0.041 A 
ATOM     12  C   UNL     1     158.218   6.937  31.830  1.00  0.00     0.194 C 
ATOM     13  O   UNL     1     159.432   7.198  32.055  1.00  0.00    -0.289 OA
ATOM     14  C   UNL     1     158.371   7.989  29.565  1.00  0.00     0.059 A 
ATOM     15  C   UNL     1     157.799   8.376  28.352  1.00  0.00     0.120 A 
ATOM     16  C   UNL     1     156.452   8.117  28.107  1.00  0.00     0.093 A 
ATOM     17  C   UNL     1     155.660   7.477  29.065  1.00  0.00     0.131 A 
ENDROOT
BRANCH   6  18
ATOM     18  O   UNL     1     153.932   5.061  33.423  1.00  0.00    -0.507 OA
ATOM     19  H   UNL     1     153.578   4.273  32.892  1.00  0.00     0.293 HD
ENDBRANCH   6  18
BRANCH  17  20
ATOM     20  O   UNL     1     154.350   7.160  28.700  1.00  0.00    -0.507 OA
ATOM     21  H   UNL     1     154.100   6.732  27.820  1.00  0.00     0.293 HD
ENDBRANCH  17  20
BRANCH  15  22
ATOM     22  O   UNL     1     158.566   9.006  27.375  1.00  0.00    -0.508 OA
ATOM     23  H   UNL     1     159.093   8.478  26.690  1.00  0.00     0.293 HD
ENDBRANCH  15  22
TORSDOF 3
ENDMDL
MODEL 8
REMARK VINA RESULT:    -4.398      2.296      2.377
REMARK INTER + INTRA:          -4.784
REMARK INTER:                  -4.784
REMARK INTRA:                   0.000
REMARK UNBOUND:                 0.000
REMARK SMILES Cc1cc(O)c2c(c1)C(=O)c1cc(O)cc(O)c1C2=O
REMARK SMILES IDX 1 1 2 2 8 3 7 4 6 5 4 6 3 7 19 8 20 9 18 10 11 11 9 12 10 13
REMARK SMILES IDX 12 14 13 15 15 16 16 17 5 18 17 20 14 22
REMARK H PARENT 5 19 17 21 14 23
REMARK Flexibility Score: inf
ROOT
ATOM      1  C   UNL     1     158.544   9.523  27.514  1.00  0.00     0.044 C 
ATOM      2  C   UNL     1     157.777   8.613  28.428  1.00  0.00    -0.047 A 
ATOM      3  C   UNL     1     158.345   8.182  29.633  1.00  0.00     0.016 A 
ATOM      4  C   UNL     1     157.621   7.362  30.514  1.00  0.00     0.038 A 
ATOM      5  C   UNL     1     156.306   6.971  30.188  1.00  0.00     0.076 A 
ATOM      6  C   UNL     1     155.726   7.431  28.983  1.00  0.00     0.127 A 
ATOM      7  C   UNL     1     156.462   8.250  28.119  1.00  0.00     0.050 A 
ATOM      8  C   UNL     1     155.568   6.068  31.111  1.00  0.00     0.201 C 
ATOM      9  O   UNL     1     154.570   5.428  30.686  1.00  0.00    -0.288 OA
ATOM     10  C   UNL     1     156.074   5.835  32.493  1.00  0.00     0.076 A 
ATOM     11  C   UNL     1     157.415   6.180  32.785  1.00  0.00     0.041 A 
ATOM     12  C   UNL     1     158.233   6.904  31.783  1.00  0.00     0.194 C 
ATOM     13  O   UNL     1     159.448   7.147  32.018  1.00  0.00    -0.289 OA
ATOM     14  C   UNL     1     157.969   5.840  34.031  1.00  0.00     0.059 A 
ATOM     15  C   UNL     1     157.202   5.180  34.994  1.00  0.00     0.120 A 
ATOM     16  C   UNL     1     155.867   4.881  34.730  1.00  0.00     0.093 A 
ATOM     17  C   UNL     1     155.283   5.231  33.509  1.00  0.00     0.131 A 
ENDROOT
BRANCH   6  18
ATOM     18  O   UNL     1     154.414   7.087  28.649  1.00  0.00    -0.507 OA
ATOM     19  H   UNL     1     153.773   7.760  28.245  1.00  0.00     0.293 HD
ENDBRANCH   6  18
BRANCH  17  20
ATOM     20  O   UNL     1     153.914   4.993  33.366  1.00  0.00    -0.507 OA
ATOM     21  H   UNL     1     153.232   5.182  34.088  1.00  0.00     0.293 HD
ENDBRANCH  17  20
BRANCH  15  22
ATOM     22  O   UNL     1     157.755   4.828  36.223  1.00  0.00    -0.508 OA
ATOM     23  H   UNL     1     157.174   4.627  37.028  1.00  0.00     0.293 HD
ENDBRANCH  15  22
TORSDOF 3
ENDMDL
MODEL 9
REMARK VINA RESULT:    -4.318      2.965      3.417
REMARK INTER + INTRA:          -4.697
REMARK INTER:                  -4.697
REMARK INTRA:                   0.000
REMARK UNBOUND:                 0.000
REMARK SMILES Cc1cc(O)c2c(c1)C(=O)c1cc(O)cc(O)c1C2=O
REMARK SMILES IDX 1 1 2 2 8 3 7 4 6 5 4 6 3 7 19 8 20 9 18 10 11 11 9 12 10 13
REMARK SMILES IDX 12 14 13 15 15 16 16 17 5 18 17 20 14 22
REMARK H PARENT 5 19 17 21 14 23
REMARK Flexibility Score: inf
ROOT
ATOM      1  C   UNL     1     157.655   3.342  27.119  1.00  0.00     0.044 C 
ATOM      2  C   UNL     1     157.253   4.542  27.925  1.00  0.00    -0.047 A 
ATOM      3  C   UNL     1     156.568   4.381  29.135  1.00  0.00     0.016 A 
ATOM      4  C   UNL     1     156.221   5.496  29.917  1.00  0.00     0.038 A 
ATOM      5  C   UNL     1     156.569   6.792  29.484  1.00  0.00     0.076 A 
ATOM      6  C   UNL     1     157.284   6.949  28.274  1.00  0.00     0.127 A 
ATOM      7  C   UNL     1     157.624   5.826  27.510  1.00  0.00     0.050 A 
ATOM      8  C   UNL     1     156.158   7.964  30.301  1.00  0.00     0.201 C 
ATOM      9  O   UNL     1     156.131   9.108  29.774  1.00  0.00    -0.288 OA
ATOM     10  C   UNL     1     155.672   7.771  31.696  1.00  0.00     0.076 A 
ATOM     11  C   UNL     1     155.272   6.473  32.094  1.00  0.00     0.041 A 
ATOM     12  C   UNL     1     155.490   5.317  31.192  1.00  0.00     0.194 C 
ATOM     13  O   UNL     1     155.069   4.173  31.520  1.00  0.00    -0.289 OA
ATOM     14  C   UNL     1     154.672   6.281  33.351  1.00  0.00     0.059 A 
ATOM     15  C   UNL     1     154.484   7.358  34.220  1.00  0.00     0.120 A 
ATOM     16  C   UNL     1     154.920   8.629  33.853  1.00  0.00     0.093 A 
ATOM     17  C   UNL     1     155.543   8.844  32.620  1.00  0.00     0.131 A 
ENDROOT
BRANCH   6  18
ATOM     18  O   UNL     1     157.671   8.217  27.835  1.00  0.00    -0.507 OA
ATOM     19  H   UNL     1     158.646   8.469  27.727  1.00  0.00     0.293 HD
ENDBRANCH   6  18
BRANCH  17  20
ATOM     20  O   UNL     1     156.046  10.124  32.375  1.00  0.00    -0.507 OA
ATOM     21  H   UNL     1     156.918  10.303  31.898  1.00  0.00     0.293 HD
ENDBRANCH  17  20
BRANCH  15  22
ATOM     22  O   UNL     1     153.875   7.171  35.459  1.00  0.00    -0.508 OA
ATOM     23  H   UNL     1     153.043   6.602  35.562  1.00  0.00     0.293 HD
ENDBRANCH  15  22
TORSDOF 3
ENDMDL
