MODEL 1
REMARK VINA RESULT:    -3.746      0.000      0.000
REMARK INTER + INTRA:          -5.479
REMARK INTER:                  -5.059
REMARK INTRA:                  -0.420
REMARK UNBOUND:                -0.420
REMARK SMILES CCCCCCCC(=O)[O-]
REMARK SMILES IDX 5 1 6 2 7 3 8 4 9 5 10 6 4 7 3 8 2 9 1 10
REMARK H PARENT
REMARK Flexibility Score: inf
ROOT
ATOM      1  C   UNL     1       2.487  -7.973  -9.386  1.00  0.00     0.000 C 
ENDROOT
BRANCH   1   2
ATOM      2  C   UNL     1       1.967  -6.534  -9.236  1.00  0.00     0.006 C 
BRANCH   2   3
ATOM      3  C   UNL     1       2.774  -5.716  -8.220  1.00  0.00     0.053 C 
BRANCH   3   4
ATOM      4  C   UNL     1       1.964  -4.565  -7.716  1.00  0.00     0.041 C 
ATOM      5  O   UNL     1       1.724  -4.448  -6.485  1.00  0.00    -0.550 OA
ATOM      6  O   UNL     1       1.514  -3.591  -8.598  1.00  0.00    -0.550 OA
ENDBRANCH   3   4
ENDBRANCH   2   3
ENDBRANCH   1   2
BRANCH   1   7
ATOM      7  C   UNL     1       3.485  -8.358  -8.279  1.00  0.00     0.000 C 
BRANCH   7   8
ATOM      8  C   UNL     1       4.794  -8.935  -8.840  1.00  0.00    -0.000 C 
BRANCH   8   9
ATOM      9  C   UNL     1       6.040  -8.234  -8.277  1.00  0.00    -0.003 C 
ATOM     10  C   UNL     1       6.289  -6.905  -8.986  1.00  0.00     0.004 C 
ENDBRANCH   8   9
ENDBRANCH   7   8
ENDBRANCH   1   7
TORSDOF 6
ENDMDL
MODEL 2
REMARK VINA RESULT:    -3.508      3.074      4.809
REMARK INTER + INTRA:          -5.157
REMARK INTER:                  -4.786
REMARK INTRA:                  -0.371
REMARK UNBOUND:                -0.420
REMARK SMILES CCCCCCCC(=O)[O-]
REMARK SMILES IDX 5 1 6 2 7 3 8 4 9 5 10 6 4 7 3 8 2 9 1 10
REMARK H PARENT
REMARK Flexibility Score: inf
ROOT
ATOM      1  C   UNL     1       2.797  -8.165  -8.438  1.00  0.00     0.000 C 
ENDROOT
BRANCH   1   2
ATOM      2  C   UNL     1       4.164  -8.701  -7.983  1.00  0.00     0.006 C 
BRANCH   2   3
ATOM      3  C   UNL     1       5.177  -8.791  -9.132  1.00  0.00     0.053 C 
BRANCH   3   4
ATOM      4  C   UNL     1       6.465  -8.137  -8.744  1.00  0.00     0.041 C 
ATOM      5  O   UNL     1       7.503  -8.830  -8.573  1.00  0.00    -0.550 OA
ATOM      6  O   UNL     1       6.534  -6.755  -8.620  1.00  0.00    -0.550 OA
ENDBRANCH   3   4
ENDBRANCH   2   3
ENDBRANCH   1   2
BRANCH   1   7
ATOM      7  C   UNL     1       2.922  -6.946  -9.369  1.00  0.00     0.000 C 
BRANCH   7   8
ATOM      8  C   UNL     1       3.168  -5.639  -8.598  1.00  0.00    -0.000 C 
BRANCH   8   9
ATOM      9  C   UNL     1       1.873  -4.860  -8.321  1.00  0.00    -0.003 C 
ATOM     10  C   UNL     1       1.743  -4.520  -6.839  1.00  0.00     0.004 C 
ENDBRANCH   8   9
ENDBRANCH   7   8
ENDBRANCH   1   7
TORSDOF 6
ENDMDL
MODEL 3
REMARK VINA RESULT:    -3.426     15.198     16.870
REMARK INTER + INTRA:          -5.048
REMARK INTER:                  -4.777
REMARK INTRA:                  -0.271
REMARK UNBOUND:                -0.420
REMARK SMILES CCCCCCCC(=O)[O-]
REMARK SMILES IDX 5 1 6 2 7 3 8 4 9 5 10 6 4 7 3 8 2 9 1 10
REMARK H PARENT
REMARK Flexibility Score: inf
ROOT
ATOM      1  C   UNL     1      -4.162   5.627  -1.977  1.00  0.00     0.000 C 
ENDROOT
BRANCH   1   2
ATOM      2  C   UNL     1      -2.974   6.587  -2.153  1.00  0.00     0.006 C 
BRANCH   2   3
ATOM      3  C   UNL     1      -1.618   5.886  -1.991  1.00  0.00     0.053 C 
BRANCH   3   4
ATOM      4  C   UNL     1      -0.986   6.267  -0.690  1.00  0.00     0.041 C 
ATOM      5  O   UNL     1      -1.634   6.161   0.385  1.00  0.00    -0.550 OA
ATOM      6  O   UNL     1       0.336   6.692  -0.657  1.00  0.00    -0.550 OA
ENDBRANCH   3   4
ENDBRANCH   2   3
ENDBRANCH   1   2
BRANCH   1   7
ATOM      7  C   UNL     1      -4.938   5.884  -0.673  1.00  0.00     0.000 C 
BRANCH   7   8
ATOM      8  C   UNL     1      -6.320   6.508  -0.922  1.00  0.00    -0.000 C 
BRANCH   8   9
ATOM      9  C   UNL     1      -6.634   6.676  -2.417  1.00  0.00    -0.003 C 
ATOM     10  C   UNL     1      -8.140   6.665  -2.666  1.00  0.00     0.004 C 
ENDBRANCH   8   9
ENDBRANCH   7   8
ENDBRANCH   1   7
TORSDOF 6
ENDMDL
MODEL 4
REMARK VINA RESULT:    -3.399     12.573     13.274
REMARK INTER + INTRA:          -5.011
REMARK INTER:                  -4.817
REMARK INTRA:                  -0.194
REMARK UNBOUND:                -0.420
REMARK SMILES CCCCCCCC(=O)[O-]
REMARK SMILES IDX 5 1 6 2 7 3 8 4 9 5 10 6 4 7 3 8 2 9 1 10
REMARK H PARENT
REMARK Flexibility Score: inf
ROOT
ATOM      1  C   UNL     1      -8.901  -6.924  -4.176  1.00  0.00     0.000 C 
ENDROOT
BRANCH   1   2
ATOM      2  C   UNL     1      -9.524  -5.556  -4.497  1.00  0.00     0.006 C 
BRANCH   2   3
ATOM      3  C   UNL     1      -8.497  -4.547  -5.027  1.00  0.00     0.053 C 
BRANCH   3   4
ATOM      4  C   UNL     1      -8.342  -3.409  -4.070  1.00  0.00     0.041 C 
ATOM      5  O   UNL     1      -9.109  -3.306  -3.077  1.00  0.00    -0.550 OA
ATOM      6  O   UNL     1      -7.318  -2.487  -4.246  1.00  0.00    -0.550 OA
ENDBRANCH   3   4
ENDBRANCH   2   3
ENDBRANCH   1   2
BRANCH   1   7
ATOM      7  C   UNL     1      -9.864  -8.092  -4.453  1.00  0.00     0.000 C 
BRANCH   7   8
ATOM      8  C   UNL     1      -9.128  -9.387  -4.830  1.00  0.00    -0.000 C 
BRANCH   8   9
ATOM      9  C   UNL     1      -9.498 -10.566  -3.918  1.00  0.00    -0.003 C 
ATOM     10  C   UNL     1      -9.138 -10.269  -2.464  1.00  0.00     0.004 C 
ENDBRANCH   8   9
ENDBRANCH   7   8
ENDBRANCH   1   7
TORSDOF 6
ENDMDL
MODEL 5
REMARK VINA RESULT:    -3.367     15.504     16.886
REMARK INTER + INTRA:          -4.967
REMARK INTER:                  -4.659
REMARK INTRA:                  -0.308
REMARK UNBOUND:                -0.420
REMARK SMILES CCCCCCCC(=O)[O-]
REMARK SMILES IDX 5 1 6 2 7 3 8 4 9 5 10 6 4 7 3 8 2 9 1 10
REMARK H PARENT
REMARK Flexibility Score: inf
ROOT
ATOM      1  C   UNL     1      -4.832   5.675  -2.516  1.00  0.00     0.000 C 
ENDROOT
BRANCH   1   2
ATOM      2  C   UNL     1      -5.248   6.265  -1.159  1.00  0.00     0.006 C 
BRANCH   2   3
ATOM      3  C   UNL     1      -6.693   6.783  -1.156  1.00  0.00     0.053 C 
BRANCH   3   4
ATOM      4  C   UNL     1      -7.475   6.142  -0.054  1.00  0.00     0.041 C 
ATOM      5  O   UNL     1      -8.691   6.426   0.109  1.00  0.00    -0.550 OA
ATOM      6  O   UNL     1      -6.875   5.193   0.764  1.00  0.00    -0.550 OA
ENDBRANCH   3   4
ENDBRANCH   2   3
ENDBRANCH   1   2
BRANCH   1   7
ATOM      7  C   UNL     1      -3.621   6.402  -3.128  1.00  0.00     0.000 C 
BRANCH   7   8
ATOM      8  C   UNL     1      -2.562   6.772  -2.077  1.00  0.00    -0.000 C 
BRANCH   8   9
ATOM      9  C   UNL     1      -1.633   5.598  -1.734  1.00  0.00    -0.003 C 
ATOM     10  C   UNL     1      -1.926   5.056  -0.338  1.00  0.00     0.004 C 
ENDBRANCH   8   9
ENDBRANCH   7   8
ENDBRANCH   1   7
TORSDOF 6
ENDMDL
MODEL 6
REMARK VINA RESULT:    -3.336     14.628     15.752
REMARK INTER + INTRA:          -4.926
REMARK INTER:                  -4.710
REMARK INTRA:                  -0.217
REMARK UNBOUND:                -0.420
REMARK SMILES CCCCCCCC(=O)[O-]
REMARK SMILES IDX 5 1 6 2 7 3 8 4 9 5 10 6 4 7 3 8 2 9 1 10
REMARK H PARENT
REMARK Flexibility Score: inf
ROOT
ATOM      1  C   UNL     1      -4.573   5.239  -1.877  1.00  0.00     0.000 C 
ENDROOT
BRANCH   1   2
ATOM      2  C   UNL     1      -3.560   5.997  -1.004  1.00  0.00     0.006 C 
BRANCH   2   3
ATOM      3  C   UNL     1      -2.247   5.227  -0.816  1.00  0.00     0.053 C 
BRANCH   3   4
ATOM      4  C   UNL     1      -1.115   5.960  -1.461  1.00  0.00     0.041 C 
ATOM      5  O   UNL     1      -1.132   6.192  -2.699  1.00  0.00    -0.550 OA
ATOM      6  O   UNL     1      -0.062   6.433  -0.688  1.00  0.00    -0.550 OA
ENDBRANCH   3   4
ENDBRANCH   2   3
ENDBRANCH   1   2
BRANCH   1   7
ATOM      7  C   UNL     1      -5.336   6.168  -2.838  1.00  0.00     0.000 C 
BRANCH   7   8
ATOM      8  C   UNL     1      -4.847   6.045  -4.290  1.00  0.00    -0.000 C 
BRANCH   8   9
ATOM      9  C   UNL     1      -5.981   5.711  -5.271  1.00  0.00    -0.003 C 
ATOM     10  C   UNL     1      -5.660   4.451  -6.071  1.00  0.00     0.004 C 
ENDBRANCH   8   9
ENDBRANCH   7   8
ENDBRANCH   1   7
TORSDOF 6
ENDMDL
MODEL 7
REMARK VINA RESULT:    -3.287     12.461     13.183
REMARK INTER + INTRA:          -4.860
REMARK INTER:                  -4.584
REMARK INTRA:                  -0.276
REMARK UNBOUND:                -0.420
REMARK SMILES CCCCCCCC(=O)[O-]
REMARK SMILES IDX 5 1 6 2 7 3 8 4 9 5 10 6 4 7 3 8 2 9 1 10
REMARK H PARENT
REMARK Flexibility Score: inf
ROOT
ATOM      1  C   UNL     1      -8.138  -4.653  -4.180  1.00  0.00     0.000 C 
ENDROOT
BRANCH   1   2
ATOM      2  C   UNL     1      -7.862  -3.143  -4.264  1.00  0.00     0.006 C 
BRANCH   2   3
ATOM      3  C   UNL     1      -9.047  -2.355  -4.839  1.00  0.00     0.053 C 
BRANCH   3   4
ATOM      4  C   UNL     1      -8.655  -1.680  -6.115  1.00  0.00     0.041 C 
ATOM      5  O   UNL     1      -9.108  -0.539  -6.395  1.00  0.00    -0.550 OA
ATOM      6  O   UNL     1      -7.748  -2.289  -6.974  1.00  0.00    -0.550 OA
ENDBRANCH   3   4
ENDBRANCH   2   3
ENDBRANCH   1   2
BRANCH   1   7
ATOM      7  C   UNL     1      -9.642  -4.980  -4.212  1.00  0.00     0.000 C 
BRANCH   7   8
ATOM      8  C   UNL     1      -9.922  -6.427  -4.648  1.00  0.00    -0.000 C 
BRANCH   8   9
ATOM      9  C   UNL     1      -8.896  -7.424  -4.087  1.00  0.00    -0.003 C 
ATOM     10  C   UNL     1      -9.198  -8.845  -4.558  1.00  0.00     0.004 C 
ENDBRANCH   8   9
ENDBRANCH   7   8
ENDBRANCH   1   7
TORSDOF 6
ENDMDL
MODEL 8
REMARK VINA RESULT:    -3.263     16.938     18.138
REMARK INTER + INTRA:          -4.827
REMARK INTER:                  -4.656
REMARK INTRA:                  -0.171
REMARK UNBOUND:                -0.420
REMARK SMILES CCCCCCCC(=O)[O-]
REMARK SMILES IDX 5 1 6 2 7 3 8 4 9 5 10 6 4 7 3 8 2 9 1 10
REMARK H PARENT
REMARK Flexibility Score: inf
ROOT
ATOM      1  C   UNL     1      -2.437  -8.934   8.343  1.00  0.00     0.000 C 
ENDROOT
BRANCH   1   2
ATOM      2  C   UNL     1      -1.359  -9.280   9.383  1.00  0.00     0.006 C 
BRANCH   2   3
ATOM      3  C   UNL     1       0.012  -8.687   9.034  1.00  0.00     0.053 C 
BRANCH   3   4
ATOM      4  C   UNL     1       0.839  -9.686   8.290  1.00  0.00     0.041 C 
ATOM      5  O   UNL     1       0.617 -10.919   8.421  1.00  0.00    -0.550 OA
ATOM      6  O   UNL     1       1.824  -9.257   7.410  1.00  0.00    -0.550 OA
ENDBRANCH   3   4
ENDBRANCH   2   3
ENDBRANCH   1   2
BRANCH   1   7
ATOM      7  C   UNL     1      -3.646  -8.213   8.965  1.00  0.00     0.000 C 
BRANCH   7   8
ATOM      8  C   UNL     1      -4.473  -7.442   7.924  1.00  0.00    -0.000 C 
BRANCH   8   9
ATOM      9  C   UNL     1      -4.497  -8.136   6.554  1.00  0.00    -0.003 C 
ATOM     10  C   UNL     1      -5.433  -9.342   6.567  1.00  0.00     0.004 C 
ENDBRANCH   8   9
ENDBRANCH   7   8
ENDBRANCH   1   7
TORSDOF 6
ENDMDL
MODEL 9
REMARK VINA RESULT:    -3.222     14.751     15.402
REMARK INTER + INTRA:          -4.772
REMARK INTER:                  -4.401
REMARK INTRA:                  -0.371
REMARK UNBOUND:                -0.420
REMARK SMILES CCCCCCCC(=O)[O-]
REMARK SMILES IDX 5 1 6 2 7 3 8 4 9 5 10 6 4 7 3 8 2 9 1 10
REMARK H PARENT
REMARK Flexibility Score: inf
ROOT
ATOM      1  C   UNL     1      -4.833   5.454  -2.153  1.00  0.00     0.000 C 
ENDROOT
BRANCH   1   2
ATOM      2  C   UNL     1      -5.425   6.204  -3.358  1.00  0.00     0.006 C 
BRANCH   2   3
ATOM      3  C   UNL     1      -4.409   6.397  -4.492  1.00  0.00     0.053 C 
BRANCH   3   4
ATOM      4  C   UNL     1      -4.911   5.770  -5.753  1.00  0.00     0.041 C 
ATOM      5  O   UNL     1      -4.134   5.598  -6.729  1.00  0.00    -0.550 OA
ATOM      6  O   UNL     1      -6.226   5.328  -5.836  1.00  0.00    -0.550 OA
ENDBRANCH   3   4
ENDBRANCH   2   3
ENDBRANCH   1   2
BRANCH   1   7
ATOM      7  C   UNL     1      -3.616   6.177  -1.549  1.00  0.00     0.000 C 
BRANCH   7   8
ATOM      8  C   UNL     1      -2.557   5.201  -1.011  1.00  0.00    -0.000 C 
BRANCH   8   9
ATOM      9  C   UNL     1      -1.136   5.551  -1.480  1.00  0.00    -0.003 C 
ATOM     10  C   UNL     1      -1.171   6.420  -2.735  1.00  0.00     0.004 C 
ENDBRANCH   8   9
ENDBRANCH   7   8
ENDBRANCH   1   7
TORSDOF 6
ENDMDL
