MODEL 1
REMARK VINA RESULT:    -3.437      0.000      0.000
REMARK INTER + INTRA:          -4.086
REMARK INTER:                  -4.040
REMARK INTRA:                  -0.046
REMARK UNBOUND:                -0.046
REMARK SMILES O=C([O-])CCC(=O)[O-]
REMARK SMILES IDX 4 1 2 2 1 3 3 4 5 5 6 6 7 7 8 8
REMARK H PARENT
REMARK Flexibility Score: inf
ROOT
ATOM      1  C   UNL     1      -1.092 -26.125   0.481  1.00  0.00     0.059 C 
ENDROOT
BRANCH   1   2
ATOM      2  C   UNL     1      -0.989 -27.322   1.372  1.00  0.00     0.042 C 
ATOM      3  O   UNL     1      -2.006 -28.030   1.602  1.00  0.00    -0.550 OA
ATOM      4  O   UNL     1       0.239 -27.685   1.910  1.00  0.00    -0.550 OA
ENDBRANCH   1   2
BRANCH   1   5
ATOM      5  C   UNL     1      -2.539 -25.639   0.401  1.00  0.00     0.059 C 
BRANCH   5   6
ATOM      6  C   UNL     1      -2.833 -25.088  -0.959  1.00  0.00     0.042 C 
ATOM      7  O   UNL     1      -3.562 -25.731  -1.759  1.00  0.00    -0.550 OA
ATOM      8  O   UNL     1      -2.342 -23.840  -1.324  1.00  0.00    -0.550 OA
ENDBRANCH   5   6
ENDBRANCH   1   5
TORSDOF 3
ENDMDL
MODEL 2
REMARK VINA RESULT:    -3.431      0.041      4.096
REMARK INTER + INTRA:          -4.079
REMARK INTER:                  -4.034
REMARK INTRA:                  -0.044
REMARK UNBOUND:                -0.046
REMARK SMILES O=C([O-])CCC(=O)[O-]
REMARK SMILES IDX 4 1 2 2 1 3 3 4 5 5 6 6 7 7 8 8
REMARK H PARENT
REMARK Flexibility Score: inf
ROOT
ATOM      1  C   UNL     1      -2.544 -25.683   0.401  1.00  0.00     0.059 C 
ENDROOT
BRANCH   1   2
ATOM      2  C   UNL     1      -2.824 -25.118  -0.956  1.00  0.00     0.042 C 
ATOM      3  O   UNL     1      -3.557 -25.748  -1.765  1.00  0.00    -0.550 OA
ATOM      4  O   UNL     1      -2.317 -23.874  -1.310  1.00  0.00    -0.550 OA
ENDBRANCH   1   2
BRANCH   1   5
ATOM      5  C   UNL     1      -1.085 -26.130   0.504  1.00  0.00     0.059 C 
BRANCH   5   6
ATOM      6  C   UNL     1      -0.964 -27.319   1.404  1.00  0.00     0.042 C 
ATOM      7  O   UNL     1      -1.967 -28.047   1.629  1.00  0.00    -0.550 OA
ATOM      8  O   UNL     1       0.267 -27.653   1.954  1.00  0.00    -0.550 OA
ENDBRANCH   5   6
ENDBRANCH   1   5
TORSDOF 3
ENDMDL
MODEL 3
REMARK VINA RESULT:    -3.407      1.018      4.153
REMARK INTER + INTRA:          -4.050
REMARK INTER:                  -4.012
REMARK INTRA:                  -0.038
REMARK UNBOUND:                -0.046
REMARK SMILES O=C([O-])CCC(=O)[O-]
REMARK SMILES IDX 4 1 2 2 1 3 3 4 5 5 6 6 7 7 8 8
REMARK H PARENT
REMARK Flexibility Score: inf
ROOT
ATOM      1  C   UNL     1      -1.713 -25.732  -0.118  1.00  0.00     0.059 C 
ENDROOT
BRANCH   1   2
ATOM      2  C   UNL     1      -2.577 -25.022  -1.112  1.00  0.00     0.042 C 
ATOM      3  O   UNL     1      -2.373 -23.806  -1.374  1.00  0.00    -0.550 OA
ATOM      4  O   UNL     1      -3.575 -25.714  -1.786  1.00  0.00    -0.550 OA
ENDBRANCH   1   2
BRANCH   1   5
ATOM      5  C   UNL     1      -2.394 -25.772   1.251  1.00  0.00     0.059 C 
BRANCH   5   6
ATOM      6  C   UNL     1      -1.898 -26.937   2.048  1.00  0.00     0.042 C 
ATOM      7  O   UNL     1      -1.952 -28.101   1.569  1.00  0.00    -0.550 OA
ATOM      8  O   UNL     1      -1.333 -26.733   3.301  1.00  0.00    -0.550 OA
ENDBRANCH   5   6
ENDBRANCH   1   5
TORSDOF 3
ENDMDL
MODEL 4
REMARK VINA RESULT:    -3.397      0.117      1.622
REMARK INTER + INTRA:          -4.038
REMARK INTER:                  -3.996
REMARK INTRA:                  -0.042
REMARK UNBOUND:                -0.046
REMARK SMILES O=C([O-])CCC(=O)[O-]
REMARK SMILES IDX 4 1 2 2 1 3 3 4 5 5 6 6 7 7 8 8
REMARK H PARENT
REMARK Flexibility Score: inf
ROOT
ATOM      1  C   UNL     1      -1.038 -26.140   0.518  1.00  0.00     0.059 C 
ENDROOT
BRANCH   1   2
ATOM      2  C   UNL     1      -0.930 -27.369   1.364  1.00  0.00     0.042 C 
ATOM      3  O   UNL     1       0.190 -27.732   1.814  1.00  0.00    -0.550 OA
ATOM      4  O   UNL     1      -2.071 -28.087   1.698  1.00  0.00    -0.550 OA
ENDBRANCH   1   2
BRANCH   1   5
ATOM      5  C   UNL     1      -2.479 -25.630   0.497  1.00  0.00     0.059 C 
BRANCH   5   6
ATOM      6  C   UNL     1      -2.805 -25.035  -0.837  1.00  0.00     0.042 C 
ATOM      7  O   UNL     1      -2.373 -23.892  -1.142  1.00  0.00    -0.550 OA
ATOM      8  O   UNL     1      -3.543 -25.762  -1.761  1.00  0.00    -0.550 OA
ENDBRANCH   5   6
ENDBRANCH   1   5
TORSDOF 3
ENDMDL
MODEL 5
REMARK VINA RESULT:    -3.392      2.030      3.972
REMARK INTER + INTRA:          -4.033
REMARK INTER:                  -3.914
REMARK INTRA:                  -0.118
REMARK UNBOUND:                -0.046
REMARK SMILES O=C([O-])CCC(=O)[O-]
REMARK SMILES IDX 4 1 2 2 1 3 3 4 5 5 6 6 7 7 8 8
REMARK H PARENT
REMARK Flexibility Score: inf
ROOT
ATOM      1  C   UNL     1      -2.410 -25.740  -0.104  1.00  0.00     0.059 C 
ENDROOT
BRANCH   1   2
ATOM      2  C   UNL     1      -2.902 -25.149  -1.387  1.00  0.00     0.042 C 
ATOM      3  O   UNL     1      -3.779 -25.747  -2.066  1.00  0.00    -0.550 OA
ATOM      4  O   UNL     1      -2.429 -23.913  -1.810  1.00  0.00    -0.550 OA
ENDBRANCH   1   2
BRANCH   1   5
ATOM      5  C   UNL     1      -0.922 -25.446   0.086  1.00  0.00     0.059 C 
BRANCH   5   6
ATOM      6  C   UNL     1      -0.714 -24.518   1.240  1.00  0.00     0.042 C 
ATOM      7  O   UNL     1       0.303 -24.638   1.974  1.00  0.00    -0.550 OA
ATOM      8  O   UNL     1      -1.617 -23.489   1.477  1.00  0.00    -0.550 OA
ENDBRANCH   5   6
ENDBRANCH   1   5
TORSDOF 3
ENDMDL
MODEL 6
REMARK VINA RESULT:    -3.331      1.849      2.340
REMARK INTER + INTRA:          -3.961
REMARK INTER:                  -3.843
REMARK INTRA:                  -0.118
REMARK UNBOUND:                -0.046
REMARK SMILES O=C([O-])CCC(=O)[O-]
REMARK SMILES IDX 4 1 2 2 1 3 3 4 5 5 6 6 7 7 8 8
REMARK H PARENT
REMARK Flexibility Score: inf
ROOT
ATOM      1  C   UNL     1      -2.328 -26.056   1.564  1.00  0.00     0.059 C 
ENDROOT
BRANCH   1   2
ATOM      2  C   UNL     1      -1.338 -25.460   2.513  1.00  0.00     0.042 C 
ATOM      3  O   UNL     1      -0.396 -24.744   2.080  1.00  0.00    -0.550 OA
ATOM      4  O   UNL     1      -1.482 -25.653   3.881  1.00  0.00    -0.550 OA
ENDBRANCH   1   2
BRANCH   1   5
ATOM      5  C   UNL     1      -1.769 -26.063   0.140  1.00  0.00     0.059 C 
BRANCH   5   6
ATOM      6  C   UNL     1      -2.588 -25.183  -0.749  1.00  0.00     0.042 C 
ATOM      7  O   UNL     1      -2.421 -23.934  -0.732  1.00  0.00    -0.550 OA
ATOM      8  O   UNL     1      -3.502 -25.743  -1.633  1.00  0.00    -0.550 OA
ENDBRANCH   5   6
ENDBRANCH   1   5
TORSDOF 3
ENDMDL
MODEL 7
REMARK VINA RESULT:    -3.305      1.989      4.105
REMARK INTER + INTRA:          -3.931
REMARK INTER:                  -3.809
REMARK INTRA:                  -0.121
REMARK UNBOUND:                -0.046
REMARK SMILES O=C([O-])CCC(=O)[O-]
REMARK SMILES IDX 4 1 2 2 1 3 3 4 5 5 6 6 7 7 8 8
REMARK H PARENT
REMARK Flexibility Score: inf
ROOT
ATOM      1  C   UNL     1      -1.941 -25.756  -0.262  1.00  0.00     0.059 C 
ENDROOT
BRANCH   1   2
ATOM      2  C   UNL     1      -2.709 -24.887  -1.207  1.00  0.00     0.042 C 
ATOM      3  O   UNL     1      -2.345 -23.698  -1.412  1.00  0.00    -0.550 OA
ATOM      4  O   UNL     1      -3.797 -25.403  -1.899  1.00  0.00    -0.550 OA
ENDBRANCH   1   2
BRANCH   1   5
ATOM      5  C   UNL     1      -2.337 -25.457   1.184  1.00  0.00     0.059 C 
BRANCH   5   6
ATOM      6  C   UNL     1      -1.196 -24.830   1.921  1.00  0.00     0.042 C 
ATOM      7  O   UNL     1      -1.121 -24.930   3.175  1.00  0.00    -0.550 OA
ATOM      8  O   UNL     1      -0.188 -24.179   1.221  1.00  0.00    -0.550 OA
ENDBRANCH   5   6
ENDBRANCH   1   5
TORSDOF 3
ENDMDL
MODEL 8
REMARK VINA RESULT:    -3.275      9.410     10.663
REMARK INTER + INTRA:          -3.895
REMARK INTER:                  -3.862
REMARK INTRA:                  -0.032
REMARK UNBOUND:                -0.046
REMARK SMILES O=C([O-])CCC(=O)[O-]
REMARK SMILES IDX 4 1 2 2 1 3 3 4 5 5 6 6 7 7 8 8
REMARK H PARENT
REMARK Flexibility Score: inf
ROOT
ATOM      1  C   UNL     1      -2.662 -25.674  10.912  1.00  0.00     0.059 C 
ENDROOT
BRANCH   1   2
ATOM      2  C   UNL     1      -4.054 -25.241  10.573  1.00  0.00     0.042 C 
ATOM      3  O   UNL     1      -4.840 -26.035   9.991  1.00  0.00    -0.550 OA
ATOM      4  O   UNL     1      -4.498 -23.978  10.942  1.00  0.00    -0.550 OA
ENDBRANCH   1   2
BRANCH   1   5
ATOM      5  C   UNL     1      -2.103 -26.585   9.819  1.00  0.00     0.059 C 
BRANCH   5   6
ATOM      6  C   UNL     1      -0.608 -26.524   9.800  1.00  0.00     0.042 C 
ATOM      7  O   UNL     1       0.012 -26.544   8.704  1.00  0.00    -0.550 OA
ATOM      8  O   UNL     1       0.098 -26.396  10.989  1.00  0.00    -0.550 OA
ENDBRANCH   5   6
ENDBRANCH   1   5
TORSDOF 3
ENDMDL
MODEL 9
REMARK VINA RESULT:    -3.269      9.471     10.338
REMARK INTER + INTRA:          -3.889
REMARK INTER:                  -3.856
REMARK INTRA:                  -0.032
REMARK UNBOUND:                -0.046
REMARK SMILES O=C([O-])CCC(=O)[O-]
REMARK SMILES IDX 4 1 2 2 1 3 3 4 5 5 6 6 7 7 8 8
REMARK H PARENT
REMARK Flexibility Score: inf
ROOT
ATOM      1  C   UNL     1      -2.218 -26.486   9.874  1.00  0.00     0.059 C 
ENDROOT
BRANCH   1   2
ATOM      2  C   UNL     1      -0.723 -26.524   9.928  1.00  0.00     0.042 C 
ATOM      3  O   UNL     1      -0.131 -26.579  11.039  1.00  0.00    -0.550 OA
ATOM      4  O   UNL     1       0.016 -26.548   8.752  1.00  0.00    -0.550 OA
ENDBRANCH   1   2
BRANCH   1   5
ATOM      5  C   UNL     1      -2.769 -25.539  10.939  1.00  0.00     0.059 C 
BRANCH   5   6
ATOM      6  C   UNL     1      -4.166 -25.123  10.599  1.00  0.00     0.042 C 
ATOM      7  O   UNL     1      -4.587 -23.984  10.934  1.00  0.00    -0.550 OA
ATOM      8  O   UNL     1      -4.986 -25.974   9.869  1.00  0.00    -0.550 OA
ENDBRANCH   5   6
ENDBRANCH   1   5
TORSDOF 3
ENDMDL
