MODEL 1
REMARK VINA RESULT:    -2.791      0.000      0.000
REMARK INTER + INTRA:          -3.375
REMARK INTER:                  -3.281
REMARK INTRA:                  -0.094
REMARK UNBOUND:                -0.094
REMARK SMILES O=C([O-])CCC(=O)[O-]
REMARK SMILES IDX 4 1 2 2 1 3 3 4 5 5 6 6 7 7 8 8
REMARK H PARENT
REMARK Flexibility Score: inf
ROOT
ATOM      1  C   UNL     1     -18.053  22.510  42.470  1.00  0.00     0.059 C 
ENDROOT
BRANCH   1   2
ATOM      2  C   UNL     1     -17.704  23.965  42.377  1.00  0.00     0.042 C 
ATOM      3  O   UNL     1     -16.537  24.356  42.649  1.00  0.00    -0.550 OA
ATOM      4  O   UNL     1     -18.676  24.893  42.029  1.00  0.00    -0.550 OA
ENDBRANCH   1   2
BRANCH   1   5
ATOM      5  C   UNL     1     -18.253  22.069  43.924  1.00  0.00     0.059 C 
BRANCH   5   6
ATOM      6  C   UNL     1     -17.389  20.895  44.268  1.00  0.00     0.042 C 
ATOM      7  O   UNL     1     -17.902  19.848  44.744  1.00  0.00    -0.550 OA
ATOM      8  O   UNL     1     -16.012  20.971  44.101  1.00  0.00    -0.550 OA
ENDBRANCH   5   6
ENDBRANCH   1   5
TORSDOF 3
ENDMDL
MODEL 2
REMARK VINA RESULT:    -2.784      0.088      4.171
REMARK INTER + INTRA:          -3.367
REMARK INTER:                  -3.289
REMARK INTRA:                  -0.078
REMARK UNBOUND:                -0.094
REMARK SMILES O=C([O-])CCC(=O)[O-]
REMARK SMILES IDX 4 1 2 2 1 3 3 4 5 5 6 6 7 7 8 8
REMARK H PARENT
REMARK Flexibility Score: inf
ROOT
ATOM      1  C   UNL     1     -18.253  22.057  43.921  1.00  0.00     0.059 C 
ENDROOT
BRANCH   1   2
ATOM      2  C   UNL     1     -17.398  20.877  44.269  1.00  0.00     0.042 C 
ATOM      3  O   UNL     1     -17.920  19.836  44.749  1.00  0.00    -0.550 OA
ATOM      4  O   UNL     1     -16.021  20.941  44.101  1.00  0.00    -0.550 OA
ENDBRANCH   1   2
BRANCH   1   5
ATOM      5  C   UNL     1     -18.035  22.504  42.470  1.00  0.00     0.059 C 
BRANCH   5   6
ATOM      6  C   UNL     1     -17.793  23.980  42.379  1.00  0.00     0.042 C 
ATOM      7  O   UNL     1     -16.656  24.453  42.644  1.00  0.00    -0.550 OA
ATOM      8  O   UNL     1     -18.831  24.837  42.039  1.00  0.00    -0.550 OA
ENDBRANCH   5   6
ENDBRANCH   1   5
TORSDOF 3
ENDMDL
MODEL 3
REMARK VINA RESULT:    -2.761      0.191      4.076
REMARK INTER + INTRA:          -3.339
REMARK INTER:                  -3.276
REMARK INTRA:                  -0.063
REMARK UNBOUND:                -0.094
REMARK SMILES O=C([O-])CCC(=O)[O-]
REMARK SMILES IDX 4 1 2 2 1 3 3 4 5 5 6 6 7 7 8 8
REMARK H PARENT
REMARK Flexibility Score: inf
ROOT
ATOM      1  C   UNL     1     -18.259  22.107  43.920  1.00  0.00     0.059 C 
ENDROOT
BRANCH   1   2
ATOM      2  C   UNL     1     -17.399  20.919  44.229  1.00  0.00     0.042 C 
ATOM      3  O   UNL     1     -17.913  19.870  44.701  1.00  0.00    -0.550 OA
ATOM      4  O   UNL     1     -16.025  20.984  44.034  1.00  0.00    -0.550 OA
ENDBRANCH   1   2
BRANCH   1   5
ATOM      5  C   UNL     1     -18.052  22.595  42.482  1.00  0.00     0.059 C 
BRANCH   5   6
ATOM      6  C   UNL     1     -17.916  24.085  42.419  1.00  0.00     0.042 C 
ATOM      7  O   UNL     1     -18.872  24.792  42.005  1.00  0.00    -0.550 OA
ATOM      8  O   UNL     1     -16.719  24.691  42.780  1.00  0.00    -0.550 OA
ENDBRANCH   5   6
ENDBRANCH   1   5
TORSDOF 3
ENDMDL
MODEL 4
REMARK VINA RESULT:    -2.752      0.184      1.622
REMARK INTER + INTRA:          -3.329
REMARK INTER:                  -3.261
REMARK INTRA:                  -0.068
REMARK UNBOUND:                -0.094
REMARK SMILES O=C([O-])CCC(=O)[O-]
REMARK SMILES IDX 4 1 2 2 1 3 3 4 5 5 6 6 7 7 8 8
REMARK H PARENT
REMARK Flexibility Score: inf
ROOT
ATOM      1  C   UNL     1     -18.002  22.609  42.469  1.00  0.00     0.059 C 
ENDROOT
BRANCH   1   2
ATOM      2  C   UNL     1     -17.858  24.099  42.409  1.00  0.00     0.042 C 
ATOM      3  O   UNL     1     -18.809  24.813  41.993  1.00  0.00    -0.550 OA
ATOM      4  O   UNL     1     -16.658  24.698  42.773  1.00  0.00    -0.550 OA
ENDBRANCH   1   2
BRANCH   1   5
ATOM      5  C   UNL     1     -18.257  22.124  43.901  1.00  0.00     0.059 C 
BRANCH   5   6
ATOM      6  C   UNL     1     -17.399  20.945  44.245  1.00  0.00     0.042 C 
ATOM      7  O   UNL     1     -16.158  20.981  44.032  1.00  0.00    -0.550 OA
ATOM      8  O   UNL     1     -17.975  19.792  44.762  1.00  0.00    -0.550 OA
ENDBRANCH   5   6
ENDBRANCH   1   5
TORSDOF 3
ENDMDL
MODEL 5
REMARK VINA RESULT:    -2.694      0.886      4.023
REMARK INTER + INTRA:          -3.261
REMARK INTER:                  -3.140
REMARK INTRA:                  -0.121
REMARK UNBOUND:                -0.094
REMARK SMILES O=C([O-])CCC(=O)[O-]
REMARK SMILES IDX 4 1 2 2 1 3 3 4 5 5 6 6 7 7 8 8
REMARK H PARENT
REMARK Flexibility Score: inf
ROOT
ATOM      1  C   UNL     1     -17.793  21.991  43.885  1.00  0.00     0.059 C 
ENDROOT
BRANCH   1   2
ATOM      2  C   UNL     1     -16.450  21.343  44.034  1.00  0.00     0.042 C 
ATOM      3  O   UNL     1     -15.496  21.681  43.284  1.00  0.00    -0.550 OA
ATOM      4  O   UNL     1     -16.263  20.338  44.974  1.00  0.00    -0.550 OA
ENDBRANCH   1   2
BRANCH   1   5
ATOM      5  C   UNL     1     -18.006  22.528  42.465  1.00  0.00     0.059 C 
BRANCH   5   6
ATOM      6  C   UNL     1     -18.017  24.026  42.437  1.00  0.00     0.042 C 
ATOM      7  O   UNL     1     -16.986  24.673  42.761  1.00  0.00    -0.550 OA
ATOM      8  O   UNL     1     -19.177  24.708  42.093  1.00  0.00    -0.550 OA
ENDBRANCH   5   6
ENDBRANCH   1   5
TORSDOF 3
ENDMDL
MODEL 6
REMARK VINA RESULT:    -2.551     14.125     15.167
REMARK INTER + INTRA:          -3.093
REMARK INTER:                  -3.056
REMARK INTRA:                  -0.036
REMARK UNBOUND:                -0.094
REMARK SMILES O=C([O-])CCC(=O)[O-]
REMARK SMILES IDX 4 1 2 2 1 3 3 4 5 5 6 6 7 7 8 8
REMARK H PARENT
REMARK Flexibility Score: inf
ROOT
ATOM      1  C   UNL     1      -8.160  20.541  31.596  1.00  0.00     0.059 C 
ENDROOT
BRANCH   1   2
ATOM      2  C   UNL     1      -8.057  19.219  32.294  1.00  0.00     0.042 C 
ATOM      3  O   UNL     1      -8.095  19.162  33.552  1.00  0.00    -0.550 OA
ATOM      4  O   UNL     1      -7.877  18.055  31.558  1.00  0.00    -0.550 OA
ENDBRANCH   1   2
BRANCH   1   5
ATOM      5  C   UNL     1      -8.000  21.711  32.574  1.00  0.00     0.059 C 
BRANCH   5   6
ATOM      6  C   UNL     1      -8.528  22.988  31.996  1.00  0.00     0.042 C 
ATOM      7  O   UNL     1      -9.143  23.808  32.729  1.00  0.00    -0.550 OA
ATOM      8  O   UNL     1      -8.376  23.256  30.642  1.00  0.00    -0.550 OA
ENDBRANCH   5   6
ENDBRANCH   1   5
TORSDOF 3
ENDMDL
MODEL 7
REMARK VINA RESULT:    -2.404      2.345      3.813
REMARK INTER + INTRA:          -2.920
REMARK INTER:                  -2.800
REMARK INTRA:                  -0.120
REMARK UNBOUND:                -0.094
REMARK SMILES O=C([O-])CCC(=O)[O-]
REMARK SMILES IDX 4 1 2 2 1 3 3 4 5 5 6 6 7 7 8 8
REMARK H PARENT
REMARK Flexibility Score: inf
ROOT
ATOM      1  C   UNL     1     -15.202  23.749  42.758  1.00  0.00     0.059 C 
ENDROOT
BRANCH   1   2
ATOM      2  C   UNL     1     -14.359  22.542  43.037  1.00  0.00     0.042 C 
ATOM      3  O   UNL     1     -13.127  22.555  42.775  1.00  0.00    -0.550 OA
ATOM      4  O   UNL     1     -14.941  21.389  43.548  1.00  0.00    -0.550 OA
ENDBRANCH   1   2
BRANCH   1   5
ATOM      5  C   UNL     1     -16.530  23.699  43.522  1.00  0.00     0.059 C 
BRANCH   5   6
ATOM      6  C   UNL     1     -17.687  23.452  42.603  1.00  0.00     0.042 C 
ATOM      7  O   UNL     1     -18.011  22.275  42.295  1.00  0.00    -0.550 OA
ATOM      8  O   UNL     1     -18.382  24.522  42.055  1.00  0.00    -0.550 OA
ENDBRANCH   5   6
ENDBRANCH   1   5
TORSDOF 3
ENDMDL
MODEL 8
REMARK VINA RESULT:    -2.396     13.208     14.157
REMARK INTER + INTRA:          -2.911
REMARK INTER:                  -2.796
REMARK INTRA:                  -0.115
REMARK UNBOUND:                -0.094
REMARK SMILES O=C([O-])CCC(=O)[O-]
REMARK SMILES IDX 4 1 2 2 1 3 3 4 5 5 6 6 7 7 8 8
REMARK H PARENT
REMARK Flexibility Score: inf
ROOT
ATOM      1  C   UNL     1      -9.453  23.598  33.332  1.00  0.00     0.059 C 
ENDROOT
BRANCH   1   2
ATOM      2  C   UNL     1      -9.675  25.061  33.094  1.00  0.00     0.042 C 
ATOM      3  O   UNL     1      -9.207  25.614  32.064  1.00  0.00    -0.550 OA
ATOM      4  O   UNL     1     -10.364  25.822  34.030  1.00  0.00    -0.550 OA
ENDBRANCH   1   2
BRANCH   1   5
ATOM      5  C   UNL     1      -8.076  23.148  32.833  1.00  0.00     0.059 C 
BRANCH   5   6
ATOM      6  C   UNL     1      -8.187  22.269  31.625  1.00  0.00     0.042 C 
ATOM      7  O   UNL     1      -8.286  22.779  30.477  1.00  0.00    -0.550 OA
ATOM      8  O   UNL     1      -8.221  20.888  31.768  1.00  0.00    -0.550 OA
ENDBRANCH   5   6
ENDBRANCH   1   5
TORSDOF 3
ENDMDL
MODEL 9
REMARK VINA RESULT:    -2.342      1.787      2.209
REMARK INTER + INTRA:          -2.847
REMARK INTER:                  -2.724
REMARK INTRA:                  -0.123
REMARK UNBOUND:                -0.094
REMARK SMILES O=C([O-])CCC(=O)[O-]
REMARK SMILES IDX 4 1 2 2 1 3 3 4 5 5 6 6 7 7 8 8
REMARK H PARENT
REMARK Flexibility Score: inf
ROOT
ATOM      1  C   UNL     1     -17.641  21.778  42.844  1.00  0.00     0.059 C 
ENDROOT
BRANCH   1   2
ATOM      2  C   UNL     1     -18.223  23.156  42.939  1.00  0.00     0.042 C 
ATOM      3  O   UNL     1     -17.999  24.003  42.033  1.00  0.00    -0.550 OA
ATOM      4  O   UNL     1     -18.978  23.518  44.047  1.00  0.00    -0.550 OA
ENDBRANCH   1   2
BRANCH   1   5
ATOM      5  C   UNL     1     -16.858  21.407  44.109  1.00  0.00     0.059 C 
BRANCH   5   6
ATOM      6  C   UNL     1     -15.477  21.987  44.092  1.00  0.00     0.042 C 
ATOM      7  O   UNL     1     -14.522  21.334  43.596  1.00  0.00    -0.550 OA
ATOM      8  O   UNL     1     -15.237  23.231  44.661  1.00  0.00    -0.550 OA
ENDBRANCH   5   6
ENDBRANCH   1   5
TORSDOF 3
ENDMDL
