MODEL 1
REMARK VINA RESULT:    -3.877      0.000      0.000
REMARK INTER + INTRA:          -5.336
REMARK INTER:                  -5.011
REMARK INTRA:                  -0.325
REMARK UNBOUND:                -0.325
REMARK SMILES CCCCCCC(=O)[O-]
REMARK SMILES IDX 5 1 6 2 7 3 8 4 9 5 4 6 3 7 2 8 1 9
REMARK H PARENT
REMARK Flexibility Score: inf
ROOT
ATOM      1  C   UNL     1       6.750  -1.585  49.047  1.00  0.00     0.006 C 
ENDROOT
BRANCH   1   2
ATOM      2  C   UNL     1       6.293  -2.179  47.707  1.00  0.00     0.053 C 
BRANCH   2   3
ATOM      3  C   UNL     1       6.123  -1.122  46.660  1.00  0.00     0.041 C 
ATOM      4  O   UNL     1       5.440  -1.355  45.628  1.00  0.00    -0.550 OA
ATOM      5  O   UNL     1       6.695   0.132  46.837  1.00  0.00    -0.550 OA
ENDBRANCH   2   3
ENDBRANCH   1   2
BRANCH   1   6
ATOM      6  C   UNL     1       8.019  -2.271  49.582  1.00  0.00     0.000 C 
BRANCH   6   7
ATOM      7  C   UNL     1       9.167  -2.269  48.561  1.00  0.00    -0.000 C 
BRANCH   7   8
ATOM      8  C   UNL     1       9.683  -3.682  48.248  1.00  0.00    -0.003 C 
ATOM      9  C   UNL     1       8.951  -4.731  49.079  1.00  0.00     0.004 C 
ENDBRANCH   7   8
ENDBRANCH   6   7
ENDBRANCH   1   6
TORSDOF 5
ENDMDL
MODEL 2
REMARK VINA RESULT:    -3.842      1.390      2.711
REMARK INTER + INTRA:          -5.290
REMARK INTER:                  -4.867
REMARK INTRA:                  -0.424
REMARK UNBOUND:                -0.325
REMARK SMILES CCCCCCC(=O)[O-]
REMARK SMILES IDX 5 1 6 2 7 3 8 4 9 5 4 6 3 7 2 8 1 9
REMARK H PARENT
REMARK Flexibility Score: inf
ROOT
ATOM      1  C   UNL     1       8.434  -1.877  48.086  1.00  0.00     0.006 C 
ENDROOT
BRANCH   1   2
ATOM      2  C   UNL     1       7.657  -1.894  46.763  1.00  0.00     0.053 C 
BRANCH   2   3
ATOM      3  C   UNL     1       6.425  -1.044  46.830  1.00  0.00     0.041 C 
ATOM      4  O   UNL     1       6.521   0.210  46.873  1.00  0.00    -0.550 OA
ATOM      5  O   UNL     1       5.169  -1.638  46.816  1.00  0.00    -0.550 OA
ENDBRANCH   2   3
ENDBRANCH   1   2
BRANCH   1   6
ATOM      6  C   UNL     1       7.792  -2.787  49.147  1.00  0.00     0.000 C 
BRANCH   6   7
ATOM      7  C   UNL     1       7.285  -2.004  50.367  1.00  0.00    -0.000 C 
BRANCH   7   8
ATOM      8  C   UNL     1       5.753  -1.891  50.404  1.00  0.00    -0.003 C 
ATOM      9  C   UNL     1       5.095  -3.202  49.983  1.00  0.00     0.004 C 
ENDBRANCH   7   8
ENDBRANCH   6   7
ENDBRANCH   1   6
TORSDOF 5
ENDMDL
MODEL 3
REMARK VINA RESULT:    -3.833      2.884      4.368
REMARK INTER + INTRA:          -5.278
REMARK INTER:                  -4.939
REMARK INTRA:                  -0.340
REMARK UNBOUND:                -0.325
REMARK SMILES CCCCCCC(=O)[O-]
REMARK SMILES IDX 5 1 6 2 7 3 8 4 9 5 4 6 3 7 2 8 1 9
REMARK H PARENT
REMARK Flexibility Score: inf
ROOT
ATOM      1  C   UNL     1       9.041  -2.311  48.640  1.00  0.00     0.006 C 
ENDROOT
BRANCH   1   2
ATOM      2  C   UNL     1       9.760  -3.641  48.900  1.00  0.00     0.053 C 
BRANCH   2   3
ATOM      3  C   UNL     1       8.843  -4.813  48.728  1.00  0.00     0.041 C 
ATOM      4  O   UNL     1       8.273  -5.017  47.624  1.00  0.00    -0.550 OA
ATOM      5  O   UNL     1       8.640  -5.698  49.780  1.00  0.00    -0.550 OA
ENDBRANCH   2   3
ENDBRANCH   1   2
BRANCH   1   6
ATOM      6  C   UNL     1       7.820  -2.123  49.556  1.00  0.00     0.000 C 
BRANCH   6   7
ATOM      7  C   UNL     1       6.557  -1.715  48.781  1.00  0.00    -0.000 C 
BRANCH   7   8
ATOM      8  C   UNL     1       6.819  -1.522  47.280  1.00  0.00    -0.003 C 
ATOM      9  C   UNL     1       6.630  -0.063  46.873  1.00  0.00     0.004 C 
ENDBRANCH   7   8
ENDBRANCH   6   7
ENDBRANCH   1   6
TORSDOF 5
ENDMDL
MODEL 4
REMARK VINA RESULT:    -3.823      1.795      2.479
REMARK INTER + INTRA:          -5.266
REMARK INTER:                  -4.841
REMARK INTRA:                  -0.425
REMARK UNBOUND:                -0.325
REMARK SMILES CCCCCCC(=O)[O-]
REMARK SMILES IDX 5 1 6 2 7 3 8 4 9 5 4 6 3 7 2 8 1 9
REMARK H PARENT
REMARK Flexibility Score: inf
ROOT
ATOM      1  C   UNL     1       7.372  -0.802  46.850  1.00  0.00     0.006 C 
ENDROOT
BRANCH   1   2
ATOM      2  C   UNL     1       5.868  -0.807  47.151  1.00  0.00     0.053 C 
BRANCH   2   3
ATOM      3  C   UNL     1       5.217  -2.083  46.712  1.00  0.00     0.041 C 
ATOM      4  O   UNL     1       4.735  -2.876  47.563  1.00  0.00    -0.550 OA
ATOM      5  O   UNL     1       5.116  -2.382  45.359  1.00  0.00    -0.550 OA
ENDBRANCH   2   3
ENDBRANCH   1   2
BRANCH   1   6
ATOM      6  C   UNL     1       8.065  -2.087  47.333  1.00  0.00     0.000 C 
BRANCH   6   7
ATOM      7  C   UNL     1       8.440  -2.032  48.822  1.00  0.00    -0.000 C 
BRANCH   7   8
ATOM      8  C   UNL     1       7.534  -2.913  49.695  1.00  0.00    -0.003 C 
ATOM      9  C   UNL     1       6.630  -2.062  50.582  1.00  0.00     0.004 C 
ENDBRANCH   7   8
ENDBRANCH   6   7
ENDBRANCH   1   6
TORSDOF 5
ENDMDL
MODEL 5
REMARK VINA RESULT:    -3.814      2.420      4.174
REMARK INTER + INTRA:          -5.255
REMARK INTER:                  -4.863
REMARK INTRA:                  -0.392
REMARK UNBOUND:                -0.325
REMARK SMILES CCCCCCC(=O)[O-]
REMARK SMILES IDX 5 1 6 2 7 3 8 4 9 5 4 6 3 7 2 8 1 9
REMARK H PARENT
REMARK Flexibility Score: inf
ROOT
ATOM      1  C   UNL     1       6.668  -2.670  49.586  1.00  0.00     0.006 C 
ENDROOT
BRANCH   1   2
ATOM      2  C   UNL     1       8.159  -2.340  49.742  1.00  0.00     0.053 C 
BRANCH   2   3
ATOM      3  C   UNL     1       9.004  -3.106  48.771  1.00  0.00     0.041 C 
ATOM      4  O   UNL     1      10.217  -3.327  49.022  1.00  0.00    -0.550 OA
ATOM      5  O   UNL     1       8.441  -3.602  47.601  1.00  0.00    -0.550 OA
ENDBRANCH   2   3
ENDBRANCH   1   2
BRANCH   1   6
ATOM      6  C   UNL     1       5.890  -1.529  48.909  1.00  0.00     0.000 C 
BRANCH   6   7
ATOM      7  C   UNL     1       5.342  -1.925  47.529  1.00  0.00    -0.000 C 
BRANCH   7   8
ATOM      8  C   UNL     1       5.934  -1.080  46.391  1.00  0.00    -0.003 C 
ATOM      9  C   UNL     1       7.013  -0.136  46.912  1.00  0.00     0.004 C 
ENDBRANCH   7   8
ENDBRANCH   6   7
ENDBRANCH   1   6
TORSDOF 5
ENDMDL
MODEL 6
REMARK VINA RESULT:    -3.808      2.603      3.805
REMARK INTER + INTRA:          -5.246
REMARK INTER:                  -4.848
REMARK INTRA:                  -0.398
REMARK UNBOUND:                -0.325
REMARK SMILES CCCCCCC(=O)[O-]
REMARK SMILES IDX 5 1 6 2 7 3 8 4 9 5 4 6 3 7 2 8 1 9
REMARK H PARENT
REMARK Flexibility Score: inf
ROOT
ATOM      1  C   UNL     1       7.543  -2.378  49.794  1.00  0.00     0.006 C 
ENDROOT
BRANCH   1   2
ATOM      2  C   UNL     1       6.106  -1.955  50.127  1.00  0.00     0.053 C 
BRANCH   2   3
ATOM      3  C   UNL     1       5.135  -3.078  49.925  1.00  0.00     0.041 C 
ATOM      4  O   UNL     1       4.925  -3.909  50.847  1.00  0.00    -0.550 OA
ATOM      5  O   UNL     1       4.439  -3.188  48.728  1.00  0.00    -0.550 OA
ENDBRANCH   2   3
ENDBRANCH   1   2
BRANCH   1   6
ATOM      6  C   UNL     1       8.074  -1.681  48.529  1.00  0.00     0.000 C 
BRANCH   6   7
ATOM      7  C   UNL     1       7.685  -2.420  47.240  1.00  0.00    -0.000 C 
BRANCH   7   8
ATOM      8  C   UNL     1       6.665  -1.642  46.395  1.00  0.00    -0.003 C 
ATOM      9  C   UNL     1       6.556  -0.193  46.863  1.00  0.00     0.004 C 
ENDBRANCH   7   8
ENDBRANCH   6   7
ENDBRANCH   1   6
TORSDOF 5
ENDMDL
MODEL 7
REMARK VINA RESULT:    -3.789      1.416      1.832
REMARK INTER + INTRA:          -5.222
REMARK INTER:                  -5.053
REMARK INTRA:                  -0.168
REMARK UNBOUND:                -0.325
REMARK SMILES CCCCCCC(=O)[O-]
REMARK SMILES IDX 5 1 6 2 7 3 8 4 9 5 4 6 3 7 2 8 1 9
REMARK H PARENT
REMARK Flexibility Score: inf
ROOT
ATOM      1  C   UNL     1       7.368  -0.668  47.131  1.00  0.00     0.006 C 
ENDROOT
BRANCH   1   2
ATOM      2  C   UNL     1       5.903  -0.831  47.555  1.00  0.00     0.053 C 
BRANCH   2   3
ATOM      3  C   UNL     1       5.259  -2.010  46.891  1.00  0.00     0.041 C 
ATOM      4  O   UNL     1       4.835  -2.974  47.580  1.00  0.00    -0.550 OA
ATOM      5  O   UNL     1       5.102  -2.029  45.510  1.00  0.00    -0.550 OA
ENDBRANCH   2   3
ENDBRANCH   1   2
BRANCH   1   6
ATOM      6  C   UNL     1       8.150  -1.989  47.226  1.00  0.00     0.000 C 
BRANCH   6   7
ATOM      7  C   UNL     1       8.940  -2.115  48.538  1.00  0.00    -0.000 C 
BRANCH   7   8
ATOM      8  C   UNL     1       9.728  -3.430  48.631  1.00  0.00    -0.003 C 
ATOM      9  C   UNL     1       8.822  -4.583  49.054  1.00  0.00     0.004 C 
ENDBRANCH   7   8
ENDBRANCH   6   7
ENDBRANCH   1   6
TORSDOF 5
ENDMDL
MODEL 8
REMARK VINA RESULT:    -3.764      1.052      1.760
REMARK INTER + INTRA:          -5.190
REMARK INTER:                  -4.833
REMARK INTRA:                  -0.357
REMARK UNBOUND:                -0.325
REMARK SMILES CCCCCCC(=O)[O-]
REMARK SMILES IDX 5 1 6 2 7 3 8 4 9 5 4 6 3 7 2 8 1 9
REMARK H PARENT
REMARK Flexibility Score: inf
ROOT
ATOM      1  C   UNL     1       5.693  -2.756  48.646  1.00  0.00     0.006 C 
ENDROOT
BRANCH   1   2
ATOM      2  C   UNL     1       5.879  -1.245  48.457  1.00  0.00     0.053 C 
BRANCH   2   3
ATOM      3  C   UNL     1       6.094  -0.886  47.019  1.00  0.00     0.041 C 
ATOM      4  O   UNL     1       6.510   0.260  46.706  1.00  0.00    -0.550 OA
ATOM      5  O   UNL     1       5.862  -1.829  46.024  1.00  0.00    -0.550 OA
ENDBRANCH   2   3
ENDBRANCH   1   2
BRANCH   1   6
ATOM      6  C   UNL     1       6.942  -3.424  49.246  1.00  0.00     0.000 C 
BRANCH   6   7
ATOM      7  C   UNL     1       7.999  -2.404  49.696  1.00  0.00    -0.000 C 
BRANCH   7   8
ATOM      8  C   UNL     1       9.383  -2.678  49.088  1.00  0.00    -0.003 C 
ATOM      9  C   UNL     1       9.307  -2.774  47.567  1.00  0.00     0.004 C 
ENDBRANCH   7   8
ENDBRANCH   6   7
ENDBRANCH   1   6
TORSDOF 5
ENDMDL
MODEL 9
REMARK VINA RESULT:    -3.676      1.977      2.491
REMARK INTER + INTRA:          -5.075
REMARK INTER:                  -4.677
REMARK INTRA:                  -0.398
REMARK UNBOUND:                -0.325
REMARK SMILES CCCCCCC(=O)[O-]
REMARK SMILES IDX 5 1 6 2 7 3 8 4 9 5 4 6 3 7 2 8 1 9
REMARK H PARENT
REMARK Flexibility Score: inf
ROOT
ATOM      1  C   UNL     1       7.444  -0.858  47.223  1.00  0.00     0.006 C 
ENDROOT
BRANCH   1   2
ATOM      2  C   UNL     1       5.976  -0.992  47.647  1.00  0.00     0.053 C 
BRANCH   2   3
ATOM      3  C   UNL     1       5.819  -1.898  48.829  1.00  0.00     0.041 C 
ATOM      4  O   UNL     1       6.299  -1.573  49.946  1.00  0.00    -0.550 OA
ATOM      5  O   UNL     1       5.115  -3.090  48.704  1.00  0.00    -0.550 OA
ENDBRANCH   2   3
ENDBRANCH   1   2
BRANCH   1   6
ATOM      6  C   UNL     1       8.122  -2.226  47.036  1.00  0.00     0.000 C 
BRANCH   6   7
ATOM      7  C   UNL     1       9.312  -2.431  47.985  1.00  0.00    -0.000 C 
BRANCH   7   8
ATOM      8  C   UNL     1       9.231  -3.753  48.761  1.00  0.00    -0.003 C 
ATOM      9  C   UNL     1       8.356  -4.767  48.029  1.00  0.00     0.004 C 
ENDBRANCH   7   8
ENDBRANCH   6   7
ENDBRANCH   1   6
TORSDOF 5
ENDMDL
