MODEL 1
REMARK VINA RESULT:    -5.676      0.000      0.000
REMARK INTER + INTRA:          -8.302
REMARK INTER:                  -7.667
REMARK INTRA:                  -0.635
REMARK UNBOUND:                -0.635
REMARK SMILES COc1ccc(-c2cc(=O)c3c(OC)c(OC)c(OC)c(OC)c3o2)cc1
REMARK SMILES IDX 7 1 8 2 9 3 10 4 11 5 24 6 25 7 21 8 18 9 15 10 12 11 6 12
REMARK SMILES IDX 3 13 4 14 27 15 5 16 26 17 2 18 1 19 22 20 23 21 13 22 14 23
REMARK SMILES IDX 19 24 20 25 16 26 17 27
REMARK H PARENT
REMARK Flexibility Score: inf
ROOT
ATOM      1  C   UNL     1     168.786 145.544 181.307  1.00  0.00     0.138 A 
ATOM      2  C   UNL     1     168.391 145.365 179.974  1.00  0.00     0.100 A 
ATOM      3  C   UNL     1     169.230 145.795 178.947  1.00  0.00     0.197 A 
ATOM      4  O   UNL     1     168.860 145.622 177.755  1.00  0.00    -0.289 OA
ATOM      5  C   UNL     1     170.464 146.412 179.259  1.00  0.00     0.115 A 
ATOM      6  C   UNL     1     170.779 146.576 180.626  1.00  0.00     0.188 A 
ATOM      7  O   UNL     1     169.945 146.140 181.567  1.00  0.00    -0.452 OA
ATOM      8  C   UNL     1     171.966 147.195 181.020  1.00  0.00     0.209 A 
ATOM      9  C   UNL     1     172.845 147.700 180.040  1.00  0.00     0.211 A 
ATOM     10  C   UNL     1     172.598 147.459 178.666  1.00  0.00     0.208 A 
ATOM     11  C   UNL     1     171.376 146.855 178.269  1.00  0.00     0.179 A 
ENDROOT
BRANCH   1  12
ATOM     12  C   UNL     1     167.941 145.099 182.444  1.00  0.00     0.018 A 
ATOM     13  C   UNL     1     166.274 144.264 184.568  1.00  0.00     0.118 A 
ATOM     14  C   UNL     1     167.387 145.073 184.816  1.00  0.00     0.047 A 
ATOM     15  C   UNL     1     165.993 143.875 183.246  1.00  0.00     0.047 A 
ATOM     16  C   UNL     1     168.211 145.493 183.769  1.00  0.00     0.016 A 
ATOM     17  C   UNL     1     166.818 144.293 182.197  1.00  0.00     0.016 A 
BRANCH  13  18
ATOM     18  O   UNL     1     165.476 143.875 185.655  1.00  0.00    -0.497 OA
ATOM     19  C   UNL     1     165.085 144.741 186.716  1.00  0.00     0.278 C 
ENDBRANCH  13  18
ENDBRANCH   1  12
BRANCH   8  20
ATOM     20  O   UNL     1     172.213 147.288 182.403  1.00  0.00    -0.490 OA
ATOM     21  C   UNL     1     173.086 146.450 183.152  1.00  0.00     0.278 C 
ENDBRANCH   8  20
BRANCH  11  22
ATOM     22  O   UNL     1     171.029 146.661 176.915  1.00  0.00    -0.492 OA
ATOM     23  C   UNL     1     170.567 147.645 175.995  1.00  0.00     0.278 C 
ENDBRANCH  11  22
BRANCH   9  24
ATOM     24  O   UNL     1     173.927 148.491 180.422  1.00  0.00    -0.490 OA
ATOM     25  C   UNL     1     173.749 149.866 180.744  1.00  0.00     0.279 C 
ENDBRANCH   9  24
BRANCH  10  26
ATOM     26  O   UNL     1     173.541 147.798 177.682  1.00  0.00    -0.490 OA
ATOM     27  C   UNL     1     173.684 149.078 177.069  1.00  0.00     0.278 C 
ENDBRANCH  10  26
TORSDOF 6
ENDMDL
MODEL 2
REMARK VINA RESULT:    -5.635      1.749      4.109
REMARK INTER + INTRA:          -8.246
REMARK INTER:                  -7.661
REMARK INTRA:                  -0.585
REMARK UNBOUND:                -0.635
REMARK SMILES COc1ccc(-c2cc(=O)c3c(OC)c(OC)c(OC)c(OC)c3o2)cc1
REMARK SMILES IDX 7 1 8 2 9 3 10 4 11 5 24 6 25 7 21 8 18 9 15 10 12 11 6 12
REMARK SMILES IDX 3 13 4 14 27 15 5 16 26 17 2 18 1 19 22 20 23 21 13 22 14 23
REMARK SMILES IDX 19 24 20 25 16 26 17 27
REMARK H PARENT
REMARK Flexibility Score: inf
ROOT
ATOM      1  C   UNL     1     169.600 146.118 184.122  1.00  0.00     0.138 A 
ATOM      2  C   UNL     1     170.795 146.800 184.391  1.00  0.00     0.100 A 
ATOM      3  C   UNL     1     171.603 147.211 183.332  1.00  0.00     0.197 A 
ATOM      4  O   UNL     1     172.671 147.826 183.593  1.00  0.00    -0.289 OA
ATOM      5  C   UNL     1     171.215 146.928 182.001  1.00  0.00     0.115 A 
ATOM      6  C   UNL     1     170.009 146.217 181.815  1.00  0.00     0.188 A 
ATOM      7  O   UNL     1     169.270 145.856 182.861  1.00  0.00    -0.452 OA
ATOM      8  C   UNL     1     169.565 145.878 180.536  1.00  0.00     0.209 A 
ATOM      9  C   UNL     1     170.352 146.217 179.415  1.00  0.00     0.211 A 
ATOM     10  C   UNL     1     171.512 147.014 179.571  1.00  0.00     0.208 A 
ATOM     11  C   UNL     1     171.975 147.332 180.875  1.00  0.00     0.179 A 
ENDROOT
BRANCH   1  12
ATOM     12  C   UNL     1     168.692 145.664 185.206  1.00  0.00     0.018 A 
ATOM     13  C   UNL     1     167.022 144.774 187.304  1.00  0.00     0.118 A 
ATOM     14  C   UNL     1     166.619 144.639 185.972  1.00  0.00     0.047 A 
ATOM     15  C   UNL     1     168.271 145.354 187.586  1.00  0.00     0.047 A 
ATOM     16  C   UNL     1     167.444 145.073 184.931  1.00  0.00     0.016 A 
ATOM     17  C   UNL     1     169.097 145.791 186.545  1.00  0.00     0.016 A 
BRANCH  13  18
ATOM     18  O   UNL     1     166.158 144.316 188.312  1.00  0.00    -0.497 OA
ATOM     19  C   UNL     1     166.574 143.956 189.625  1.00  0.00     0.278 C 
ENDBRANCH  13  18
ENDBRANCH   1  12
BRANCH   8  20
ATOM     20  O   UNL     1     168.337 145.197 180.442  1.00  0.00    -0.490 OA
ATOM     21  C   UNL     1     167.108 145.752 179.985  1.00  0.00     0.278 C 
ENDBRANCH   8  20
BRANCH  11  22
ATOM     22  O   UNL     1     173.167 148.051 181.104  1.00  0.00    -0.492 OA
ATOM     23  C   UNL     1     173.395 149.438 180.874  1.00  0.00     0.278 C 
ENDBRANCH  11  22
BRANCH   9  24
ATOM     24  O   UNL     1     170.020 145.712 178.159  1.00  0.00    -0.490 OA
ATOM     25  C   UNL     1     169.323 146.513 177.211  1.00  0.00     0.279 C 
ENDBRANCH   9  24
BRANCH  10  26
ATOM     26  O   UNL     1     172.215 147.509 178.460  1.00  0.00    -0.490 OA
ATOM     27  C   UNL     1     173.325 146.876 177.826  1.00  0.00     0.278 C 
ENDBRANCH  10  26
TORSDOF 6
ENDMDL
MODEL 3
REMARK VINA RESULT:    -5.348      1.809      2.817
REMARK INTER + INTRA:          -7.858
REMARK INTER:                  -7.299
REMARK INTRA:                  -0.559
REMARK UNBOUND:                -0.635
REMARK SMILES COc1ccc(-c2cc(=O)c3c(OC)c(OC)c(OC)c(OC)c3o2)cc1
REMARK SMILES IDX 7 1 8 2 9 3 10 4 11 5 24 6 25 7 21 8 18 9 15 10 12 11 6 12
REMARK SMILES IDX 3 13 4 14 27 15 5 16 26 17 2 18 1 19 22 20 23 21 13 22 14 23
REMARK SMILES IDX 19 24 20 25 16 26 17 27
REMARK H PARENT
REMARK Flexibility Score: inf
ROOT
ATOM      1  C   UNL     1     168.501 145.494 183.577  1.00  0.00     0.138 A 
ATOM      2  C   UNL     1     167.610 145.011 182.609  1.00  0.00     0.100 A 
ATOM      3  C   UNL     1     167.931 145.136 181.258  1.00  0.00     0.197 A 
ATOM      4  O   UNL     1     167.119 144.693 180.402  1.00  0.00    -0.289 OA
ATOM      5  C   UNL     1     169.146 145.754 180.879  1.00  0.00     0.115 A 
ATOM      6  C   UNL     1     169.980 146.234 181.914  1.00  0.00     0.188 A 
ATOM      7  O   UNL     1     169.628 146.081 183.188  1.00  0.00    -0.452 OA
ATOM      8  C   UNL     1     171.185 146.875 181.626  1.00  0.00     0.209 A 
ATOM      9  C   UNL     1     171.558 147.082 180.281  1.00  0.00     0.211 A 
ATOM     10  C   UNL     1     170.788 146.523 179.233  1.00  0.00     0.208 A 
ATOM     11  C   UNL     1     169.549 145.897 179.528  1.00  0.00     0.179 A 
ENDROOT
BRANCH   1  12
ATOM     12  C   UNL     1     168.220 145.381 185.031  1.00  0.00     0.018 A 
ATOM     13  C   UNL     1     167.753 145.147 187.808  1.00  0.00     0.118 A 
ATOM     14  C   UNL     1     166.799 144.701 186.890  1.00  0.00     0.047 A 
ATOM     15  C   UNL     1     168.951 145.709 187.332  1.00  0.00     0.047 A 
ATOM     16  C   UNL     1     167.027 144.810 185.515  1.00  0.00     0.016 A 
ATOM     17  C   UNL     1     169.181 145.820 185.957  1.00  0.00     0.016 A 
BRANCH  13  18
ATOM     18  O   UNL     1     167.477 145.008 189.177  1.00  0.00    -0.497 OA
ATOM     19  C   UNL     1     166.840 143.876 189.759  1.00  0.00     0.278 C 
ENDBRANCH  13  18
ENDBRANCH   1  12
BRANCH   8  20
ATOM     20  O   UNL     1     171.967 147.293 182.719  1.00  0.00    -0.490 OA
ATOM     21  C   UNL     1     172.996 146.536 183.346  1.00  0.00     0.278 C 
ENDBRANCH   8  20
BRANCH  11  22
ATOM     22  O   UNL     1     168.694 145.393 178.526  1.00  0.00    -0.492 OA
ATOM     23  C   UNL     1     167.772 146.131 177.729  1.00  0.00     0.278 C 
ENDBRANCH  11  22
BRANCH   9  24
ATOM     24  O   UNL     1     172.653 147.892 179.984  1.00  0.00    -0.490 OA
ATOM     25  C   UNL     1     173.953 147.335 179.829  1.00  0.00     0.279 C 
ENDBRANCH   9  24
BRANCH  10  26
ATOM     26  O   UNL     1     171.227 146.566 177.899  1.00  0.00    -0.490 OA
ATOM     27  C   UNL     1     171.127 147.687 177.023  1.00  0.00     0.278 C 
ENDBRANCH  10  26
TORSDOF 6
ENDMDL
MODEL 4
REMARK VINA RESULT:    -5.252      3.377      8.032
REMARK INTER + INTRA:          -7.729
REMARK INTER:                  -7.032
REMARK INTRA:                  -0.697
REMARK UNBOUND:                -0.635
REMARK SMILES COc1ccc(-c2cc(=O)c3c(OC)c(OC)c(OC)c(OC)c3o2)cc1
REMARK SMILES IDX 7 1 8 2 9 3 10 4 11 5 24 6 25 7 21 8 18 9 15 10 12 11 6 12
REMARK SMILES IDX 3 13 4 14 27 15 5 16 26 17 2 18 1 19 22 20 23 21 13 22 14 23
REMARK SMILES IDX 19 24 20 25 16 26 17 27
REMARK H PARENT
REMARK Flexibility Score: inf
ROOT
ATOM      1  C   UNL     1     170.105 146.163 183.187  1.00  0.00     0.138 A 
ATOM      2  C   UNL     1     168.794 145.905 183.610  1.00  0.00     0.100 A 
ATOM      3  C   UNL     1     168.534 145.727 184.968  1.00  0.00     0.197 A 
ATOM      4  O   UNL     1     167.349 145.500 185.329  1.00  0.00    -0.289 OA
ATOM      5  C   UNL     1     169.594 145.800 185.902  1.00  0.00     0.115 A 
ATOM      6  C   UNL     1     170.890 146.041 185.393  1.00  0.00     0.188 A 
ATOM      7  O   UNL     1     171.081 146.212 184.088  1.00  0.00    -0.452 OA
ATOM      8  C   UNL     1     171.994 146.106 186.244  1.00  0.00     0.209 A 
ATOM      9  C   UNL     1     171.820 145.889 187.627  1.00  0.00     0.211 A 
ATOM     10  C   UNL     1     170.519 145.745 188.169  1.00  0.00     0.208 A 
ATOM     11  C   UNL     1     169.402 145.651 187.298  1.00  0.00     0.179 A 
ENDROOT
BRANCH   1  12
ATOM     12  C   UNL     1     170.444 146.371 181.756  1.00  0.00     0.018 A 
ATOM     13  C   UNL     1     171.105 146.836 179.048  1.00  0.00     0.118 A 
ATOM     14  C   UNL     1     169.981 146.075 179.382  1.00  0.00     0.047 A 
ATOM     15  C   UNL     1     171.900 147.371 180.077  1.00  0.00     0.047 A 
ATOM     16  C   UNL     1     169.647 145.847 180.720  1.00  0.00     0.016 A 
ATOM     17  C   UNL     1     171.568 147.142 181.416  1.00  0.00     0.016 A 
BRANCH  13  18
ATOM     18  O   UNL     1     171.392 147.041 177.690  1.00  0.00    -0.497 OA
ATOM     19  C   UNL     1     170.569 146.593 176.617  1.00  0.00     0.278 C 
ENDBRANCH  13  18
ENDBRANCH   1  12
BRANCH   8  20
ATOM     20  O   UNL     1     173.242 146.381 185.656  1.00  0.00    -0.490 OA
ATOM     21  C   UNL     1     173.829 147.669 185.507  1.00  0.00     0.278 C 
ENDBRANCH   8  20
BRANCH  11  22
ATOM     22  O   UNL     1     168.091 145.423 187.765  1.00  0.00    -0.492 OA
ATOM     23  C   UNL     1     167.593 144.249 188.398  1.00  0.00     0.278 C 
ENDBRANCH  11  22
BRANCH   9  24
ATOM     24  O   UNL     1     172.935 145.754 188.452  1.00  0.00    -0.490 OA
ATOM     25  C   UNL     1     173.518 146.889 189.084  1.00  0.00     0.279 C 
ENDBRANCH   9  24
BRANCH  10  26
ATOM     26  O   UNL     1     170.305 145.701 189.557  1.00  0.00    -0.490 OA
ATOM     27  C   UNL     1     170.049 146.824 190.397  1.00  0.00     0.278 C 
ENDBRANCH  10  26
TORSDOF 6
ENDMDL
MODEL 5
REMARK VINA RESULT:    -5.220      3.382      8.147
REMARK INTER + INTRA:          -7.686
REMARK INTER:                  -7.014
REMARK INTRA:                  -0.672
REMARK UNBOUND:                -0.635
REMARK SMILES COc1ccc(-c2cc(=O)c3c(OC)c(OC)c(OC)c(OC)c3o2)cc1
REMARK SMILES IDX 7 1 8 2 9 3 10 4 11 5 24 6 25 7 21 8 18 9 15 10 12 11 6 12
REMARK SMILES IDX 3 13 4 14 27 15 5 16 26 17 2 18 1 19 22 20 23 21 13 22 14 23
REMARK SMILES IDX 19 24 20 25 16 26 17 27
REMARK H PARENT
REMARK Flexibility Score: inf
ROOT
ATOM      1  C   UNL     1     168.499 145.379 183.865  1.00  0.00     0.138 A 
ATOM      2  C   UNL     1     167.318 145.003 184.519  1.00  0.00     0.100 A 
ATOM      3  C   UNL     1     167.285 144.977 185.913  1.00  0.00     0.197 A 
ATOM      4  O   UNL     1     166.213 144.640 186.483  1.00  0.00    -0.289 OA
ATOM      5  C   UNL     1     168.442 145.319 186.650  1.00  0.00     0.115 A 
ATOM      6  C   UNL     1     169.600 145.664 185.916  1.00  0.00     0.188 A 
ATOM      7  O   UNL     1     169.574 145.682 184.586  1.00  0.00    -0.452 OA
ATOM      8  C   UNL     1     170.790 145.993 186.566  1.00  0.00     0.209 A 
ATOM      9  C   UNL     1     170.850 145.943 187.974  1.00  0.00     0.211 A 
ATOM     10  C   UNL     1     169.678 145.697 188.731  1.00  0.00     0.208 A 
ATOM     11  C   UNL     1     168.477 145.334 188.067  1.00  0.00     0.179 A 
ENDROOT
BRANCH   1  12
ATOM     12  C   UNL     1     168.594 145.437 182.384  1.00  0.00     0.018 A 
ATOM     13  C   UNL     1     168.741 145.482 179.562  1.00  0.00     0.118 A 
ATOM     14  C   UNL     1     169.828 145.900 180.335  1.00  0.00     0.047 A 
ATOM     15  C   UNL     1     167.574 145.035 180.208  1.00  0.00     0.047 A 
ATOM     16  C   UNL     1     169.763 145.874 181.731  1.00  0.00     0.016 A 
ATOM     17  C   UNL     1     167.506 145.010 181.604  1.00  0.00     0.016 A 
BRANCH  13  18
ATOM     18  O   UNL     1     168.861 145.522 178.164  1.00  0.00    -0.497 OA
ATOM     19  C   UNL     1     169.938 146.139 177.467  1.00  0.00     0.278 C 
ENDBRANCH  13  18
ENDBRANCH   1  12
BRANCH   8  20
ATOM     20  O   UNL     1     171.884 146.354 185.757  1.00  0.00    -0.490 OA
ATOM     21  C   UNL     1     172.913 145.481 185.307  1.00  0.00     0.278 C 
ENDBRANCH   8  20
BRANCH  11  22
ATOM     22  O   UNL     1     167.297 144.995 188.761  1.00  0.00    -0.492 OA
ATOM     23  C   UNL     1     167.092 143.875 189.617  1.00  0.00     0.278 C 
ENDBRANCH  11  22
BRANCH   9  24
ATOM     24  O   UNL     1     172.079 146.074 188.619  1.00  0.00    -0.490 OA
ATOM     25  C   UNL     1     172.833 144.926 188.994  1.00  0.00     0.279 C 
ENDBRANCH   9  24
BRANCH  10  26
ATOM     26  O   UNL     1     169.673 145.811 190.131  1.00  0.00    -0.490 OA
ATOM     27  C   UNL     1     169.648 147.032 190.868  1.00  0.00     0.278 C 
ENDBRANCH  10  26
TORSDOF 6
ENDMDL
MODEL 6
REMARK VINA RESULT:    -5.069      3.244      8.907
REMARK INTER + INTRA:          -7.482
REMARK INTER:                  -6.925
REMARK INTRA:                  -0.557
REMARK UNBOUND:                -0.635
REMARK SMILES COc1ccc(-c2cc(=O)c3c(OC)c(OC)c(OC)c(OC)c3o2)cc1
REMARK SMILES IDX 7 1 8 2 9 3 10 4 11 5 24 6 25 7 21 8 18 9 15 10 12 11 6 12
REMARK SMILES IDX 3 13 4 14 27 15 5 16 26 17 2 18 1 19 22 20 23 21 13 22 14 23
REMARK SMILES IDX 19 24 20 25 16 26 17 27
REMARK H PARENT
REMARK Flexibility Score: inf
ROOT
ATOM      1  C   UNL     1     169.729 146.321 184.262  1.00  0.00     0.138 A 
ATOM      2  C   UNL     1     168.507 145.733 183.903  1.00  0.00     0.100 A 
ATOM      3  C   UNL     1     167.699 145.175 184.892  1.00  0.00     0.197 A 
ATOM      4  O   UNL     1     166.603 144.655 184.551  1.00  0.00    -0.289 OA
ATOM      5  C   UNL     1     168.121 145.199 186.242  1.00  0.00     0.115 A 
ATOM      6  C   UNL     1     169.374 145.790 186.519  1.00  0.00     0.188 A 
ATOM      7  O   UNL     1     170.103 146.316 185.537  1.00  0.00    -0.452 OA
ATOM      8  C   UNL     1     169.875 145.835 187.820  1.00  0.00     0.209 A 
ATOM      9  C   UNL     1     169.136 145.249 188.870  1.00  0.00     0.211 A 
ATOM     10  C   UNL     1     167.836 144.741 188.631  1.00  0.00     0.208 A 
ATOM     11  C   UNL     1     167.343 144.671 187.302  1.00  0.00     0.179 A 
ENDROOT
BRANCH   1  12
ATOM     12  C   UNL     1     170.629 146.941 183.257  1.00  0.00     0.018 A 
ATOM     13  C   UNL     1     172.319 148.186 181.365  1.00  0.00     0.118 A 
ATOM     14  C   UNL     1     171.613 147.027 181.030  1.00  0.00     0.047 A 
ATOM     15  C   UNL     1     172.174 148.727 182.654  1.00  0.00     0.047 A 
ATOM     16  C   UNL     1     170.772 146.410 181.960  1.00  0.00     0.016 A 
ATOM     17  C   UNL     1     171.334 148.111 183.587  1.00  0.00     0.016 A 
BRANCH  13  18
ATOM     18  O   UNL     1     173.145 148.768 180.391  1.00  0.00    -0.497 OA
ATOM     19  C   UNL     1     173.390 148.209 179.105  1.00  0.00     0.278 C 
ENDBRANCH  13  18
ENDBRANCH   1  12
BRANCH   8  20
ATOM     20  O   UNL     1     171.117 146.470 188.009  1.00  0.00    -0.490 OA
ATOM     21  C   UNL     1     172.382 145.823 188.075  1.00  0.00     0.278 C 
ENDBRANCH   8  20
BRANCH  11  22
ATOM     22  O   UNL     1     166.092 144.101 186.984  1.00  0.00    -0.492 OA
ATOM     23  C   UNL     1     164.811 144.712 187.106  1.00  0.00     0.278 C 
ENDBRANCH  11  22
BRANCH   9  24
ATOM     24  O   UNL     1     169.715 145.113 190.130  1.00  0.00    -0.490 OA
ATOM     25  C   UNL     1     169.716 146.196 191.054  1.00  0.00     0.279 C 
ENDBRANCH   9  24
BRANCH  10  26
ATOM     26  O   UNL     1     167.013 144.311 189.685  1.00  0.00    -0.490 OA
ATOM     27  C   UNL     1     166.239 145.153 190.537  1.00  0.00     0.278 C 
ENDBRANCH  10  26
TORSDOF 6
ENDMDL
MODEL 7
REMARK VINA RESULT:    -4.820      3.570      8.591
REMARK INTER + INTRA:          -7.145
REMARK INTER:                  -6.627
REMARK INTRA:                  -0.518
REMARK UNBOUND:                -0.635
REMARK SMILES COc1ccc(-c2cc(=O)c3c(OC)c(OC)c(OC)c(OC)c3o2)cc1
REMARK SMILES IDX 7 1 8 2 9 3 10 4 11 5 24 6 25 7 21 8 18 9 15 10 12 11 6 12
REMARK SMILES IDX 3 13 4 14 27 15 5 16 26 17 2 18 1 19 22 20 23 21 13 22 14 23
REMARK SMILES IDX 19 24 20 25 16 26 17 27
REMARK H PARENT
REMARK Flexibility Score: inf
ROOT
ATOM      1  C   UNL     1     167.900 145.053 184.499  1.00  0.00     0.138 A 
ATOM      2  C   UNL     1     166.729 144.631 185.143  1.00  0.00     0.100 A 
ATOM      3  C   UNL     1     166.685 144.606 186.536  1.00  0.00     0.197 A 
ATOM      4  O   UNL     1     165.622 144.227 187.098  1.00  0.00    -0.289 OA
ATOM      5  C   UNL     1     167.820 144.997 187.283  1.00  0.00     0.115 A 
ATOM      6  C   UNL     1     168.969 145.388 186.559  1.00  0.00     0.188 A 
ATOM      7  O   UNL     1     168.954 145.401 185.228  1.00  0.00    -0.452 OA
ATOM      8  C   UNL     1     170.139 145.767 187.218  1.00  0.00     0.209 A 
ATOM      9  C   UNL     1     170.188 145.723 188.627  1.00  0.00     0.211 A 
ATOM     10  C   UNL     1     169.021 145.430 189.374  1.00  0.00     0.208 A 
ATOM     11  C   UNL     1     167.842 145.017 188.700  1.00  0.00     0.179 A 
ENDROOT
BRANCH   1  12
ATOM     12  C   UNL     1     168.005 145.111 183.018  1.00  0.00     0.018 A 
ATOM     13  C   UNL     1     168.232 145.290 180.207  1.00  0.00     0.118 A 
ATOM     14  C   UNL     1     167.120 144.676 180.791  1.00  0.00     0.047 A 
ATOM     15  C   UNL     1     169.235 145.820 181.037  1.00  0.00     0.047 A 
ATOM     16  C   UNL     1     167.000 144.591 182.181  1.00  0.00     0.016 A 
ATOM     17  C   UNL     1     169.118 145.734 182.428  1.00  0.00     0.016 A 
BRANCH  13  18
ATOM     18  O   UNL     1     168.300 145.355 178.807  1.00  0.00    -0.497 OA
ATOM     19  C   UNL     1     169.384 145.923 178.079  1.00  0.00     0.278 C 
ENDBRANCH  13  18
ENDBRANCH   1  12
BRANCH   8  20
ATOM     20  O   UNL     1     171.224 146.171 186.418  1.00  0.00    -0.490 OA
ATOM     21  C   UNL     1     172.347 145.370 186.069  1.00  0.00     0.278 C 
ENDBRANCH   8  20
BRANCH  11  22
ATOM     22  O   UNL     1     166.670 144.632 189.385  1.00  0.00    -0.492 OA
ATOM     23  C   UNL     1     165.867 145.439 190.240  1.00  0.00     0.278 C 
ENDBRANCH  11  22
BRANCH   9  24
ATOM     24  O   UNL     1     171.405 145.906 189.282  1.00  0.00    -0.490 OA
ATOM     25  C   UNL     1     171.914 147.213 189.525  1.00  0.00     0.279 C 
ENDBRANCH   9  24
BRANCH  10  26
ATOM     26  O   UNL     1     168.998 145.548 190.773  1.00  0.00    -0.490 OA
ATOM     27  C   UNL     1     168.912 146.768 191.507  1.00  0.00     0.278 C 
ENDBRANCH  10  26
TORSDOF 6
ENDMDL
