MODEL 1
REMARK VINA RESULT:    -4.573      0.000      0.000
REMARK INTER + INTRA:          -6.956
REMARK INTER:                  -6.979
REMARK INTRA:                   0.023
REMARK UNBOUND:                 0.023
REMARK SMILES CC1=CCC[C@H](C)C(=O)C[C@H](C(C)C)C(=O)C1
REMARK SMILES IDX 8 1 9 2 6 3 7 4 5 5 4 6 3 7 2 8 1 9 10 11 11 12 15 13 16 14
REMARK SMILES IDX 17 15 12 17 13 18 14 19
REMARK H PARENT
REMARK Flexibility Score: 70.00
ROOT
ATOM      1  C   UNL     1     -12.662 -15.876  28.495  1.00  0.00     0.136 C 
ATOM      2  O   UNL     1     -13.560 -15.606  27.710  1.00  0.00    -0.299 OA
ENDROOT
BRANCH   1   3
ATOM      3  C   UNL     1     -11.634 -16.937  28.138  1.00  0.00     0.053 C 
ATOM      4  C   UNL     1     -11.375 -17.011  26.624  1.00  0.00     0.016 C 
BRANCH   3   5
ATOM      5  C   UNL     1     -10.314 -16.748  28.917  1.00  0.00     0.015 C 
BRANCH   5   6
ATOM      6  C   UNL     1     -10.082 -17.795  30.034  1.00  0.00     0.028 C 
BRANCH   6   7
ATOM      7  C   UNL     1     -11.167 -18.844  30.019  1.00  0.00    -0.028 C 
ATOM      8  C   UNL     1     -12.193 -18.931  30.902  1.00  0.00    -0.070 CG0
ATOM      9  C   UNL     1     -13.218 -20.015  30.681  1.00  0.00     0.039 C 
ATOM     10  G   UNL     1     -12.318 -18.041  32.131  1.00  0.00     0.000 G0
ENDBRANCH   6   7
ENDBRANCH   5   6
ENDBRANCH   3   5
ENDBRANCH   1   3
BRANCH   1  11
ATOM     11  C   UNL     1     -12.585 -15.114  29.799  1.00  0.00     0.087 C 
BRANCH  11  12
ATOM     12  C   UNL     1     -13.322 -15.824  30.967  1.00  0.00     0.066 C 
BRANCH  12  13
ATOM     13  C   UNL     1     -12.355 -16.545  31.902  1.00  0.00     0.140 C 
ATOM     14  O   UNL     1     -11.510 -15.885  32.490  1.00  0.00    -0.299 OA
BRANCH  13  15
ATOM     15  C   UNL     1     -12.352 -18.045  32.142  1.00  0.00     0.106 CG0
ATOM     16  G   UNL     1     -12.191 -18.925  30.910  1.00  0.00     0.000 G0
ENDBRANCH  13  15
ENDBRANCH  12  13
BRANCH  12  17
ATOM     17  C   UNL     1     -14.281 -14.850  31.721  1.00  0.00    -0.006 C 
ATOM     18  C   UNL     1     -15.139 -14.043  30.736  1.00  0.00     0.008 C 
ATOM     19  C   UNL     1     -15.191 -15.527  32.762  1.00  0.00     0.008 C 
ENDBRANCH  12  17
ENDBRANCH  11  12
ENDBRANCH   1  11
TORSDOF 1
ENDMDL
MODEL 2
REMARK VINA RESULT:    -4.394      1.801      3.696
REMARK INTER + INTRA:          -6.682
REMARK INTER:                  -6.611
REMARK INTRA:                  -0.072
REMARK UNBOUND:                 0.023
REMARK SMILES CC1=CCC[C@H](C)C(=O)C[C@H](C(C)C)C(=O)C1
REMARK SMILES IDX 8 1 9 2 6 3 7 4 5 5 4 6 3 7 2 8 1 9 10 11 11 12 15 13 16 14
REMARK SMILES IDX 17 15 12 17 13 18 14 19
REMARK H PARENT
REMARK Flexibility Score: 70.00
ROOT
ATOM      1  C   UNL     1     -12.984 -19.023  28.890  1.00  0.00     0.136 C 
ATOM      2  O   UNL     1     -14.027 -19.458  28.422  1.00  0.00    -0.299 OA
ENDROOT
BRANCH   1   3
ATOM      3  C   UNL     1     -12.344 -19.708  30.087  1.00  0.00     0.053 C 
ATOM      4  C   UNL     1     -10.933 -19.170  30.380  1.00  0.00     0.016 C 
BRANCH   3   5
ATOM      5  C   UNL     1     -13.239 -19.629  31.343  1.00  0.00     0.015 C 
BRANCH   5   6
ATOM      6  C   UNL     1     -12.778 -18.581  32.385  1.00  0.00     0.028 C 
BRANCH   6   7
ATOM      7  C   UNL     1     -13.677 -17.369  32.361  1.00  0.00    -0.028 C 
ATOM      8  C   UNL     1     -13.350 -16.156  31.850  1.00  0.00    -0.070 CG0
ATOM      9  C   UNL     1     -14.411 -15.084  31.858  1.00  0.00     0.039 C 
ATOM     10  G   UNL     1     -11.959 -15.807  31.339  1.00  0.00     0.000 G0
ENDBRANCH   6   7
ENDBRANCH   5   6
ENDBRANCH   3   5
ENDBRANCH   1   3
BRANCH   1  11
ATOM     11  C   UNL     1     -12.341 -17.821  28.235  1.00  0.00     0.087 C 
BRANCH  11  12
ATOM     12  C   UNL     1     -12.794 -16.471  28.855  1.00  0.00     0.066 C 
BRANCH  12  13
ATOM     13  C   UNL     1     -11.760 -15.911  29.828  1.00  0.00     0.140 C 
ATOM     14  O   UNL     1     -10.688 -15.528  29.383  1.00  0.00    -0.299 OA
BRANCH  13  15
ATOM     15  C   UNL     1     -11.961 -15.814  31.331  1.00  0.00     0.106 CG0
ATOM     16  G   UNL     1     -13.348 -16.164  31.851  1.00  0.00     0.000 G0
ENDBRANCH  13  15
ENDBRANCH  12  13
BRANCH  12  17
ATOM     17  C   UNL     1     -13.212 -15.443  27.757  1.00  0.00    -0.006 C 
ATOM     18  C   UNL     1     -13.825 -16.150  26.540  1.00  0.00     0.008 C 
ATOM     19  C   UNL     1     -14.167 -14.338  28.246  1.00  0.00     0.008 C 
ENDBRANCH  12  17
ENDBRANCH  11  12
ENDBRANCH   1  11
TORSDOF 1
ENDMDL
MODEL 3
REMARK VINA RESULT:    -4.236      1.920      3.770
REMARK INTER + INTRA:          -6.441
REMARK INTER:                  -6.587
REMARK INTRA:                   0.146
REMARK UNBOUND:                 0.023
REMARK SMILES CC1=CCC[C@H](C)C(=O)C[C@H](C(C)C)C(=O)C1
REMARK SMILES IDX 8 1 9 2 6 3 7 4 5 5 4 6 3 7 2 8 1 9 10 11 11 12 15 13 16 14
REMARK SMILES IDX 17 15 12 17 13 18 14 19
REMARK H PARENT
REMARK Flexibility Score: 70.00
ROOT
ATOM      1  C   UNL     1     -12.056 -17.999  31.688  1.00  0.00     0.136 C 
ATOM      2  O   UNL     1     -11.015 -17.481  32.069  1.00  0.00    -0.299 OA
ENDROOT
BRANCH   1   3
ATOM      3  C   UNL     1     -12.019 -19.330  30.956  1.00  0.00     0.053 C 
ATOM      4  C   UNL     1     -12.583 -20.480  31.807  1.00  0.00     0.016 C 
BRANCH   3   5
ATOM      5  C   UNL     1     -12.728 -19.255  29.586  1.00  0.00     0.015 C 
BRANCH   5   6
ATOM      6  C   UNL     1     -11.939 -18.475  28.506  1.00  0.00     0.028 C 
BRANCH   6   7
ATOM      7  C   UNL     1     -12.846 -17.524  27.762  1.00  0.00    -0.028 C 
ATOM      8  C   UNL     1     -13.046 -16.220  28.075  1.00  0.00    -0.070 CG0
ATOM      9  C   UNL     1     -13.941 -15.412  27.169  1.00  0.00     0.039 C 
ATOM     10  G   UNL     1     -12.473 -15.558  29.321  1.00  0.00     0.000 G0
ENDBRANCH   6   7
ENDBRANCH   5   6
ENDBRANCH   3   5
ENDBRANCH   1   3
BRANCH   1  11
ATOM     11  C   UNL     1     -13.364 -17.303  31.989  1.00  0.00     0.087 C 
BRANCH  11  12
ATOM     12  C   UNL     1     -13.273 -15.756  31.886  1.00  0.00     0.066 C 
BRANCH  12  13
ATOM     13  C   UNL     1     -13.456 -15.264  30.453  1.00  0.00     0.140 C 
ATOM     14  O   UNL     1     -14.458 -14.620  30.181  1.00  0.00    -0.299 OA
BRANCH  13  15
ATOM     15  C   UNL     1     -12.482 -15.541  29.321  1.00  0.00     0.106 CG0
ATOM     16  G   UNL     1     -13.056 -16.221  28.086  1.00  0.00     0.000 G0
ENDBRANCH  13  15
ENDBRANCH  12  13
BRANCH  12  17
ATOM     17  C   UNL     1     -14.234 -15.053  32.896  1.00  0.00    -0.006 C 
ATOM     18  C   UNL     1     -15.412 -15.965  33.267  1.00  0.00     0.008 C 
ATOM     19  C   UNL     1     -13.552 -14.543  34.179  1.00  0.00     0.008 C 
ENDBRANCH  12  17
ENDBRANCH  11  12
ENDBRANCH   1  11
TORSDOF 1
ENDMDL
MODEL 4
REMARK VINA RESULT:    -4.154      1.164      1.582
REMARK INTER + INTRA:          -6.316
REMARK INTER:                  -6.224
REMARK INTRA:                  -0.092
REMARK UNBOUND:                 0.023
REMARK SMILES CC1=CCC[C@H](C)C(=O)C[C@H](C(C)C)C(=O)C1
REMARK SMILES IDX 8 1 9 2 6 3 7 4 5 5 4 6 3 7 2 8 1 9 10 11 11 12 15 13 16 14
REMARK SMILES IDX 17 15 12 17 13 18 14 19
REMARK H PARENT
REMARK Flexibility Score: 70.00
ROOT
ATOM      1  C   UNL     1     -13.182 -15.308  28.586  1.00  0.00     0.136 C 
ATOM      2  O   UNL     1     -13.990 -14.478  28.192  1.00  0.00    -0.299 OA
ENDROOT
BRANCH   1   3
ATOM      3  C   UNL     1     -12.876 -16.532  27.737  1.00  0.00     0.053 C 
ATOM      4  C   UNL     1     -11.365 -16.783  27.600  1.00  0.00     0.016 C 
BRANCH   3   5
ATOM      5  C   UNL     1     -13.602 -17.791  28.259  1.00  0.00     0.015 C 
BRANCH   5   6
ATOM      6  C   UNL     1     -12.688 -19.031  28.415  1.00  0.00     0.028 C 
BRANCH   6   7
ATOM      7  C   UNL     1     -12.882 -19.673  29.768  1.00  0.00    -0.028 C 
ATOM      8  C   UNL     1     -12.253 -19.306  30.911  1.00  0.00    -0.070 CG0
ATOM      9  C   UNL     1     -12.630 -20.028  32.181  1.00  0.00     0.039 C 
ATOM     10  G   UNL     1     -11.146 -18.262  30.963  1.00  0.00     0.000 G0
ENDBRANCH   6   7
ENDBRANCH   5   6
ENDBRANCH   3   5
ENDBRANCH   1   3
BRANCH   1  11
ATOM     11  C   UNL     1     -12.483 -15.071  29.905  1.00  0.00     0.087 C 
BRANCH  11  12
ATOM     12  C   UNL     1     -12.802 -16.156  30.970  1.00  0.00     0.066 C 
BRANCH  12  13
ATOM     13  C   UNL     1     -11.547 -16.889  31.437  1.00  0.00     0.140 C 
ATOM     14  O   UNL     1     -10.800 -16.325  32.222  1.00  0.00    -0.299 OA
BRANCH  13  15
ATOM     15  C   UNL     1     -11.144 -18.278  30.972  1.00  0.00     0.106 CG0
ATOM     16  G   UNL     1     -12.257 -19.314  30.897  1.00  0.00     0.000 G0
ENDBRANCH  13  15
ENDBRANCH  12  13
BRANCH  12  17
ATOM     17  C   UNL     1     -13.639 -15.574  32.153  1.00  0.00    -0.006 C 
ATOM     18  C   UNL     1     -14.748 -14.643  31.643  1.00  0.00     0.008 C 
ATOM     19  C   UNL     1     -14.246 -16.635  33.090  1.00  0.00     0.008 C 
ENDBRANCH  12  17
ENDBRANCH  11  12
ENDBRANCH   1  11
TORSDOF 1
ENDMDL
MODEL 5
REMARK VINA RESULT:    -4.100      2.017      3.404
REMARK INTER + INTRA:          -6.235
REMARK INTER:                  -6.913
REMARK INTRA:                   0.679
REMARK UNBOUND:                 0.023
REMARK SMILES CC1=CCC[C@H](C)C(=O)C[C@H](C(C)C)C(=O)C1
REMARK SMILES IDX 8 1 9 2 6 3 7 4 5 5 4 6 3 7 2 8 1 9 10 11 11 12 15 13 16 14
REMARK SMILES IDX 17 15 12 17 13 18 14 19
REMARK H PARENT
REMARK Flexibility Score: 70.00
ROOT
ATOM      1  C   UNL     1     -13.002 -18.831  30.565  1.00  0.00     0.136 C 
ATOM      2  O   UNL     1     -12.849 -19.728  31.382  1.00  0.00    -0.299 OA
ENDROOT
BRANCH   1   3
ATOM      3  C   UNL     1     -12.957 -19.142  29.078  1.00  0.00     0.053 C 
ATOM      4  C   UNL     1     -14.059 -20.128  28.655  1.00  0.00     0.016 C 
BRANCH   3   5
ATOM      5  C   UNL     1     -13.001 -17.859  28.219  1.00  0.00     0.015 C 
BRANCH   5   6
ATOM      6  C   UNL     1     -11.659 -17.510  27.531  1.00  0.00     0.028 C 
BRANCH   6   7
ATOM      7  C   UNL     1     -11.072 -16.247  28.112  1.00  0.00    -0.028 C 
ATOM      8  C   UNL     1     -10.460 -16.144  29.317  1.00  0.00    -0.070 CG0
ATOM      9  C   UNL     1      -9.876 -14.805  29.695  1.00  0.00     0.039 C 
ATOM     10  G   UNL     1     -10.396 -17.283  30.326  1.00  0.00     0.000 G0
ENDBRANCH   6   7
ENDBRANCH   5   6
ENDBRANCH   3   5
ENDBRANCH   1   3
BRANCH   1  11
ATOM     11  C   UNL     1     -13.265 -17.430  31.069  1.00  0.00     0.087 C 
BRANCH  11  12
ATOM     12  C   UNL     1     -12.297 -16.995  32.203  1.00  0.00     0.066 C 
BRANCH  12  13
ATOM     13  C   UNL     1     -10.841 -16.989  31.743  1.00  0.00     0.140 C 
ATOM     14  O   UNL     1      -9.973 -16.711  32.558  1.00  0.00    -0.299 OA
BRANCH  13  15
ATOM     15  C   UNL     1     -10.389 -17.287  30.324  1.00  0.00     0.106 CG0
ATOM     16  G   UNL     1     -10.471 -16.133  29.333  1.00  0.00     0.000 G0
ENDBRANCH  13  15
ENDBRANCH  12  13
BRANCH  12  17
ATOM     17  C   UNL     1     -12.734 -15.642  32.847  1.00  0.00    -0.006 C 
ATOM     18  C   UNL     1     -14.243 -15.413  32.685  1.00  0.00     0.008 C 
ATOM     19  C   UNL     1     -12.345 -15.485  34.329  1.00  0.00     0.008 C 
ENDBRANCH  12  17
ENDBRANCH  11  12
ENDBRANCH   1  11
TORSDOF 1
ENDMDL
MODEL 6
REMARK VINA RESULT:    -4.053      1.860      4.632
REMARK INTER + INTRA:          -6.163
REMARK INTER:                  -7.171
REMARK INTRA:                   1.009
REMARK UNBOUND:                 0.023
REMARK SMILES CC1=CCC[C@H](C)C(=O)C[C@H](C(C)C)C(=O)C1
REMARK SMILES IDX 8 1 9 2 6 3 7 4 5 5 4 6 3 7 2 8 1 9 10 11 11 12 15 13 16 14
REMARK SMILES IDX 17 15 12 17 13 18 14 19
REMARK H PARENT
REMARK Flexibility Score: 70.00
ROOT
ATOM      1  C   UNL     1     -12.718 -16.518  32.343  1.00  0.00     0.136 C 
ATOM      2  O   UNL     1     -11.823 -15.852  32.845  1.00  0.00    -0.299 OA
ENDROOT
BRANCH   1   3
ATOM      3  C   UNL     1     -14.054 -15.870  32.017  1.00  0.00     0.053 C 
ATOM      4  C   UNL     1     -14.440 -14.785  33.036  1.00  0.00     0.016 C 
BRANCH   3   5
ATOM      5  C   UNL     1     -14.090 -15.315  30.576  1.00  0.00     0.015 C 
BRANCH   5   6
ATOM      6  C   UNL     1     -12.694 -15.145  29.928  1.00  0.00     0.028 C 
BRANCH   6   7
ATOM      7  C   UNL     1     -12.697 -15.655  28.508  1.00  0.00    -0.028 C 
ATOM      8  C   UNL     1     -11.810 -16.539  27.986  1.00  0.00    -0.070 CG0
ATOM      9  C   UNL     1     -12.019 -16.980  26.559  1.00  0.00     0.039 C 
ATOM     10  G   UNL     1     -10.590 -17.047  28.741  1.00  0.00     0.000 G0
ENDBRANCH   6   7
ENDBRANCH   5   6
ENDBRANCH   3   5
ENDBRANCH   1   3
BRANCH   1  11
ATOM     11  C   UNL     1     -12.453 -17.973  32.032  1.00  0.00     0.087 C 
BRANCH  11  12
ATOM     12  C   UNL     1     -12.227 -18.245  30.520  1.00  0.00     0.066 C 
BRANCH  12  13
ATOM     13  C   UNL     1     -10.848 -17.784  30.054  1.00  0.00     0.140 C 
ATOM     14  O   UNL     1      -9.887 -17.995  30.778  1.00  0.00    -0.299 OA
BRANCH  13  15
ATOM     15  C   UNL     1     -10.586 -17.053  28.748  1.00  0.00     0.106 CG0
ATOM     16  G   UNL     1     -11.810 -16.547  27.999  1.00  0.00     0.000 G0
ENDBRANCH  13  15
ENDBRANCH  12  13
BRANCH  12  17
ATOM     17  C   UNL     1     -12.525 -19.732  30.151  1.00  0.00    -0.006 C 
ATOM     18  C   UNL     1     -12.789 -20.573  31.407  1.00  0.00     0.008 C 
ATOM     19  C   UNL     1     -13.681 -19.923  29.151  1.00  0.00     0.008 C 
ENDBRANCH  12  17
ENDBRANCH  11  12
ENDBRANCH   1  11
TORSDOF 1
ENDMDL
MODEL 7
REMARK VINA RESULT:    -3.935      1.943      3.610
REMARK INTER + INTRA:          -5.982
REMARK INTER:                  -6.267
REMARK INTRA:                   0.285
REMARK UNBOUND:                 0.023
REMARK SMILES CC1=CCC[C@H](C)C(=O)C[C@H](C(C)C)C(=O)C1
REMARK SMILES IDX 8 1 9 2 6 3 7 4 5 5 4 6 3 7 2 8 1 9 10 11 11 12 15 13 16 14
REMARK SMILES IDX 17 15 12 17 13 18 14 19
REMARK H PARENT
REMARK Flexibility Score: 70.00
ROOT
ATOM      1  C   UNL     1     -11.957 -17.159  28.371  1.00  0.00     0.136 C 
ATOM      2  O   UNL     1     -11.286 -17.944  27.715  1.00  0.00    -0.299 OA
ENDROOT
BRANCH   1   3
ATOM      3  C   UNL     1     -11.590 -15.684  28.399  1.00  0.00     0.053 C 
ATOM      4  C   UNL     1     -12.795 -14.790  28.732  1.00  0.00     0.016 C 
BRANCH   3   5
ATOM      5  C   UNL     1     -10.410 -15.402  29.354  1.00  0.00     0.015 C 
BRANCH   5   6
ATOM      6  C   UNL     1     -10.153 -16.522  30.392  1.00  0.00     0.028 C 
BRANCH   6   7
ATOM      7  C   UNL     1     -10.280 -15.989  31.798  1.00  0.00    -0.028 C 
ATOM      8  C   UNL     1     -11.440 -15.857  32.489  1.00  0.00    -0.070 CG0
ATOM      9  C   UNL     1     -11.355 -15.365  33.912  1.00  0.00     0.039 C 
ATOM     10  G   UNL     1     -12.812 -16.111  31.880  1.00  0.00     0.000 G0
ENDBRANCH   6   7
ENDBRANCH   5   6
ENDBRANCH   3   5
ENDBRANCH   1   3
BRANCH   1  11
ATOM     11  C   UNL     1     -13.163 -17.684  29.117  1.00  0.00     0.087 C 
BRANCH  11  12
ATOM     12  C   UNL     1     -12.799 -18.383  30.455  1.00  0.00     0.066 C 
BRANCH  12  13
ATOM     13  C   UNL     1     -13.211 -17.552  31.667  1.00  0.00     0.140 C 
ATOM     14  O   UNL     1     -13.919 -18.071  32.517  1.00  0.00    -0.299 OA
BRANCH  13  15
ATOM     15  C   UNL     1     -12.817 -16.101  31.885  1.00  0.00     0.106 CG0
ATOM     16  G   UNL     1     -11.437 -15.858  32.481  1.00  0.00     0.000 G0
ENDBRANCH  13  15
ENDBRANCH  12  13
BRANCH  12  17
ATOM     17  C   UNL     1     -13.344 -19.844  30.508  1.00  0.00    -0.006 C 
ATOM     18  C   UNL     1     -13.599 -20.394  29.098  1.00  0.00     0.008 C 
ATOM     19  C   UNL     1     -12.457 -20.829  31.293  1.00  0.00     0.008 C 
ENDBRANCH  12  17
ENDBRANCH  11  12
ENDBRANCH   1  11
TORSDOF 1
ENDMDL
MODEL 8
REMARK VINA RESULT:    -3.900      1.925      3.790
REMARK INTER + INTRA:          -5.929
REMARK INTER:                  -6.757
REMARK INTRA:                   0.827
REMARK UNBOUND:                 0.023
REMARK SMILES CC1=CCC[C@H](C)C(=O)C[C@H](C(C)C)C(=O)C1
REMARK SMILES IDX 8 1 9 2 6 3 7 4 5 5 4 6 3 7 2 8 1 9 10 11 11 12 15 13 16 14
REMARK SMILES IDX 17 15 12 17 13 18 14 19
REMARK H PARENT
REMARK Flexibility Score: 70.00
ROOT
ATOM      1  C   UNL     1     -11.212 -15.902  30.687  1.00  0.00     0.136 C 
ATOM      2  O   UNL     1     -10.264 -15.334  30.161  1.00  0.00    -0.299 OA
ENDROOT
BRANCH   1   3
ATOM      3  C   UNL     1     -11.030 -16.605  32.022  1.00  0.00     0.053 C 
ATOM      4  C   UNL     1     -10.700 -15.622  33.158  1.00  0.00     0.016 C 
BRANCH   3   5
ATOM      5  C   UNL     1     -12.251 -17.479  32.384  1.00  0.00     0.015 C 
BRANCH   5   6
ATOM      6  C   UNL     1     -12.099 -18.970  31.995  1.00  0.00     0.028 C 
BRANCH   6   7
ATOM      7  C   UNL     1     -13.088 -19.346  30.918  1.00  0.00    -0.028 C 
ATOM      8  C   UNL     1     -12.889 -19.212  29.584  1.00  0.00    -0.070 CG0
ATOM      9  C   UNL     1     -13.974 -19.708  28.660  1.00  0.00     0.039 C 
ATOM     10  G   UNL     1     -11.668 -18.530  28.982  1.00  0.00     0.000 G0
ENDBRANCH   6   7
ENDBRANCH   5   6
ENDBRANCH   3   5
ENDBRANCH   1   3
BRANCH   1  11
ATOM     11  C   UNL     1     -12.556 -15.860  29.996  1.00  0.00     0.087 C 
BRANCH  11  12
ATOM     12  C   UNL     1     -12.455 -15.995  28.452  1.00  0.00     0.066 C 
BRANCH  12  13
ATOM     13  C   UNL     1     -11.922 -17.361  28.029  1.00  0.00     0.140 C 
ATOM     14  O   UNL     1     -11.696 -17.559  26.845  1.00  0.00    -0.299 OA
BRANCH  13  15
ATOM     15  C   UNL     1     -11.668 -18.515  28.984  1.00  0.00     0.106 CG0
ATOM     16  G   UNL     1     -12.900 -19.185  29.577  1.00  0.00     0.000 G0
ENDBRANCH  13  15
ENDBRANCH  12  13
BRANCH  12  17
ATOM     17  C   UNL     1     -13.801 -15.627  27.752  1.00  0.00    -0.006 C 
ATOM     18  C   UNL     1     -14.232 -14.195  28.097  1.00  0.00     0.008 C 
ATOM     19  C   UNL     1     -13.797 -15.809  26.223  1.00  0.00     0.008 C 
ENDBRANCH  12  17
ENDBRANCH  11  12
ENDBRANCH   1  11
TORSDOF 1
ENDMDL
MODEL 9
REMARK VINA RESULT:    -3.650      1.631      2.274
REMARK INTER + INTRA:          -5.547
REMARK INTER:                  -5.574
REMARK INTRA:                   0.027
REMARK UNBOUND:                 0.023
REMARK SMILES CC1=CCC[C@H](C)C(=O)C[C@H](C(C)C)C(=O)C1
REMARK SMILES IDX 8 1 9 2 6 3 7 4 5 5 4 6 3 7 2 8 1 9 10 11 11 12 15 13 16 14
REMARK SMILES IDX 17 15 12 17 13 18 14 19
REMARK H PARENT
REMARK Flexibility Score: 70.00
ROOT
ATOM      1  C   UNL     1     -13.516 -15.309  29.525  1.00  0.00     0.136 C 
ATOM      2  O   UNL     1     -14.341 -14.435  29.753  1.00  0.00    -0.299 OA
ENDROOT
BRANCH   1   3
ATOM      3  C   UNL     1     -13.293 -15.790  28.101  1.00  0.00     0.053 C 
ATOM      4  C   UNL     1     -14.033 -14.922  27.070  1.00  0.00     0.016 C 
BRANCH   3   5
ATOM      5  C   UNL     1     -11.791 -15.899  27.757  1.00  0.00     0.015 C 
BRANCH   5   6
ATOM      6  C   UNL     1     -11.170 -17.284  28.062  1.00  0.00     0.028 C 
BRANCH   6   7
ATOM      7  C   UNL     1     -12.229 -18.360  28.053  1.00  0.00    -0.028 C 
ATOM      8  C   UNL     1     -12.716 -18.995  29.148  1.00  0.00    -0.070 CG0
ATOM      9  C   UNL     1     -13.824 -19.998  28.941  1.00  0.00     0.039 C 
ATOM     10  G   UNL     1     -12.157 -18.798  30.550  1.00  0.00     0.000 G0
ENDBRANCH   6   7
ENDBRANCH   5   6
ENDBRANCH   3   5
ENDBRANCH   1   3
BRANCH   1  11
ATOM     11  C   UNL     1     -12.714 -15.866  30.679  1.00  0.00     0.087 C 
BRANCH  11  12
ATOM     12  C   UNL     1     -13.553 -16.759  31.633  1.00  0.00     0.066 C 
BRANCH  12  13
ATOM     13  C   UNL     1     -13.115 -18.221  31.585  1.00  0.00     0.140 C 
ATOM     14  O   UNL     1     -13.540 -18.985  32.439  1.00  0.00    -0.299 OA
BRANCH  13  15
ATOM     15  C   UNL     1     -12.161 -18.796  30.553  1.00  0.00     0.106 CG0
ATOM     16  G   UNL     1     -12.721 -18.996  29.152  1.00  0.00     0.000 G0
ENDBRANCH  13  15
ENDBRANCH  12  13
BRANCH  12  17
ATOM     17  C   UNL     1     -13.584 -16.183  33.084  1.00  0.00    -0.006 C 
ATOM     18  C   UNL     1     -12.225 -15.584  33.471  1.00  0.00     0.008 C 
ATOM     19  C   UNL     1     -14.695 -15.146  33.336  1.00  0.00     0.008 C 
ENDBRANCH  12  17
ENDBRANCH  11  12
ENDBRANCH   1  11
TORSDOF 1
ENDMDL
