MODEL 1
REMARK VINA RESULT:    -5.880      0.000      0.000
REMARK INTER + INTRA:          -6.396
REMARK INTER:                  -6.396
REMARK INTRA:                   0.000
REMARK UNBOUND:                 0.000
REMARK SMILES Cc1cc(O)c2c(c1)C(=O)c1cc(O)cc(O)c1C2=O
REMARK SMILES IDX 1 1 2 2 8 3 7 4 6 5 4 6 3 7 19 8 20 9 18 10 11 11 9 12 10 13
REMARK SMILES IDX 12 14 13 15 15 16 16 17 5 18 17 20 14 22
REMARK H PARENT 5 19 17 21 14 23
REMARK Flexibility Score: inf
ROOT
ATOM      1  C   UNL     1      39.403 -37.963  19.870  1.00  0.00     0.044 C 
ATOM      2  C   UNL     1      39.189 -39.382  20.307  1.00  0.00    -0.047 A 
ATOM      3  C   UNL     1      38.966 -39.677  21.658  1.00  0.00     0.016 A 
ATOM      4  C   UNL     1      38.736 -40.999  22.073  1.00  0.00     0.038 A 
ATOM      5  C   UNL     1      38.729 -42.044  21.122  1.00  0.00     0.076 A 
ATOM      6  C   UNL     1      38.870 -41.728  19.746  1.00  0.00     0.127 A 
ATOM      7  C   UNL     1      39.118 -40.408  19.359  1.00  0.00     0.050 A 
ATOM      8  C   UNL     1      38.630 -43.442  21.615  1.00  0.00     0.201 C 
ATOM      9  O   UNL     1      39.169 -44.376  20.962  1.00  0.00    -0.288 OA
ATOM     10  C   UNL     1      38.065 -43.712  22.963  1.00  0.00     0.076 A 
ATOM     11  C   UNL     1      38.072 -42.663  23.911  1.00  0.00     0.041 A 
ATOM     12  C   UNL     1      38.494 -41.302  23.503  1.00  0.00     0.194 C 
ATOM     13  O   UNL     1      38.622 -40.394  24.371  1.00  0.00    -0.289 OA
ATOM     14  C   UNL     1      37.675 -42.916  25.235  1.00  0.00     0.059 A 
ATOM     15  C   UNL     1      37.258 -44.193  25.618  1.00  0.00     0.120 A 
ATOM     16  C   UNL     1      37.211 -45.219  24.676  1.00  0.00     0.093 A 
ATOM     17  C   UNL     1      37.583 -44.989  23.348  1.00  0.00     0.131 A 
ENDROOT
BRANCH   6  18
ATOM     18  O   UNL     1      38.737 -42.682  18.735  1.00  0.00    -0.507 OA
ATOM     19  H   UNL     1      39.342 -43.486  18.642  1.00  0.00     0.293 HD
ENDBRANCH   6  18
BRANCH  17  20
ATOM     20  O   UNL     1      37.422 -46.041  22.443  1.00  0.00    -0.507 OA
ATOM     21  H   UNL     1      37.243 -45.908  21.457  1.00  0.00     0.293 HD
ENDBRANCH  17  20
BRANCH  15  22
ATOM     22  O   UNL     1      36.875 -44.450  26.933  1.00  0.00    -0.508 OA
ATOM     23  H   UNL     1      36.642 -45.387  27.245  1.00  0.00     0.293 HD
ENDBRANCH  15  22
TORSDOF 3
ENDMDL
MODEL 2
REMARK VINA RESULT:    -5.879      1.256      3.603
REMARK INTER + INTRA:          -6.394
REMARK INTER:                  -6.394
REMARK INTRA:                   0.000
REMARK UNBOUND:                 0.000
REMARK SMILES Cc1cc(O)c2c(c1)C(=O)c1cc(O)cc(O)c1C2=O
REMARK SMILES IDX 1 1 2 2 8 3 7 4 6 5 4 6 3 7 19 8 20 9 18 10 11 11 9 12 10 13
REMARK SMILES IDX 12 14 13 15 15 16 16 17 5 18 17 20 14 22
REMARK H PARENT 5 19 17 21 14 23
REMARK Flexibility Score: inf
ROOT
ATOM      1  C   UNL     1      40.670 -37.266  20.249  1.00  0.00     0.044 C 
ATOM      2  C   UNL     1      39.993 -38.266  21.139  1.00  0.00    -0.047 A 
ATOM      3  C   UNL     1      39.624 -39.520  20.635  1.00  0.00     0.016 A 
ATOM      4  C   UNL     1      39.016 -40.474  21.467  1.00  0.00     0.038 A 
ATOM      5  C   UNL     1      38.773 -40.171  22.825  1.00  0.00     0.076 A 
ATOM      6  C   UNL     1      39.227 -38.933  23.350  1.00  0.00     0.127 A 
ATOM      7  C   UNL     1      39.811 -37.991  22.498  1.00  0.00     0.050 A 
ATOM      8  C   UNL     1      37.997 -41.145  23.636  1.00  0.00     0.201 C 
ATOM      9  O   UNL     1      37.281 -40.737  24.589  1.00  0.00    -0.288 OA
ATOM     10  C   UNL     1      37.918 -42.565  23.206  1.00  0.00     0.076 A 
ATOM     11  C   UNL     1      38.163 -42.866  21.846  1.00  0.00     0.041 A 
ATOM     12  C   UNL     1      38.634 -41.801  20.928  1.00  0.00     0.194 C 
ATOM     13  O   UNL     1      38.734 -42.032  19.691  1.00  0.00    -0.289 OA
ATOM     14  C   UNL     1      37.964 -44.173  21.373  1.00  0.00     0.059 A 
ATOM     15  C   UNL     1      37.539 -45.184  22.239  1.00  0.00     0.120 A 
ATOM     16  C   UNL     1      37.336 -44.900  23.588  1.00  0.00     0.093 A 
ATOM     17  C   UNL     1      37.546 -43.612  24.089  1.00  0.00     0.131 A 
ENDROOT
BRANCH   6  18
ATOM     18  O   UNL     1      39.150 -38.615  24.707  1.00  0.00    -0.507 OA
ATOM     19  H   UNL     1      39.930 -38.258  25.242  1.00  0.00     0.293 HD
ENDBRANCH   6  18
BRANCH  17  20
ATOM     20  O   UNL     1      37.410 -43.426  25.466  1.00  0.00    -0.507 OA
ATOM     21  H   UNL     1      37.535 -44.164  26.145  1.00  0.00     0.293 HD
ENDBRANCH  17  20
BRANCH  15  22
ATOM     22  O   UNL     1      37.329 -46.479  21.770  1.00  0.00    -0.508 OA
ATOM     23  H   UNL     1      37.605 -47.291  22.310  1.00  0.00     0.293 HD
ENDBRANCH  15  22
TORSDOF 3
ENDMDL
MODEL 3
REMARK VINA RESULT:    -5.595      9.787     11.615
REMARK INTER + INTRA:          -6.085
REMARK INTER:                  -6.085
REMARK INTRA:                   0.000
REMARK UNBOUND:                 0.000
REMARK SMILES Cc1cc(O)c2c(c1)C(=O)c1cc(O)cc(O)c1C2=O
REMARK SMILES IDX 1 1 2 2 8 3 7 4 6 5 4 6 3 7 19 8 20 9 18 10 11 11 9 12 10 13
REMARK SMILES IDX 12 14 13 15 15 16 16 17 5 18 17 20 14 22
REMARK H PARENT 5 19 17 21 14 23
REMARK Flexibility Score: inf
ROOT
ATOM      1  C   UNL     1      41.769 -46.970  29.691  1.00  0.00     0.044 C 
ATOM      2  C   UNL     1      41.938 -45.646  30.376  1.00  0.00    -0.047 A 
ATOM      3  C   UNL     1      43.036 -44.832  30.074  1.00  0.00     0.016 A 
ATOM      4  C   UNL     1      43.189 -43.579  30.689  1.00  0.00     0.038 A 
ATOM      5  C   UNL     1      42.227 -43.132  31.622  1.00  0.00     0.076 A 
ATOM      6  C   UNL     1      41.073 -43.923  31.860  1.00  0.00     0.127 A 
ATOM      7  C   UNL     1      40.953 -45.176  31.252  1.00  0.00     0.050 A 
ATOM      8  C   UNL     1      42.498 -41.871  32.361  1.00  0.00     0.201 C 
ATOM      9  O   UNL     1      42.044 -41.718  33.526  1.00  0.00    -0.288 OA
ATOM     10  C   UNL     1      43.453 -40.879  31.803  1.00  0.00     0.076 A 
ATOM     11  C   UNL     1      44.412 -41.329  30.867  1.00  0.00     0.041 A 
ATOM     12  C   UNL     1      44.350 -42.720  30.358  1.00  0.00     0.194 C 
ATOM     13  O   UNL     1      45.275 -43.165  29.622  1.00  0.00    -0.289 OA
ATOM     14  C   UNL     1      45.417 -40.455  30.421  1.00  0.00     0.059 A 
ATOM     15  C   UNL     1      45.468 -39.137  30.884  1.00  0.00     0.120 A 
ATOM     16  C   UNL     1      44.499 -38.678  31.775  1.00  0.00     0.093 A 
ATOM     17  C   UNL     1      43.477 -39.523  32.219  1.00  0.00     0.131 A 
ENDROOT
BRANCH   6  18
ATOM     18  O   UNL     1      40.014 -43.490  32.660  1.00  0.00    -0.507 OA
ATOM     19  H   UNL     1      39.178 -44.035  32.822  1.00  0.00     0.293 HD
ENDBRANCH   6  18
BRANCH  17  20
ATOM     20  O   UNL     1      42.492 -38.966  33.038  1.00  0.00    -0.507 OA
ATOM     21  H   UNL     1      42.343 -37.971  33.136  1.00  0.00     0.293 HD
ENDBRANCH  17  20
BRANCH  15  22
ATOM     22  O   UNL     1      46.470 -38.271  30.454  1.00  0.00    -0.508 OA
ATOM     23  H   UNL     1      46.326 -37.268  30.416  1.00  0.00     0.293 HD
ENDBRANCH  15  22
TORSDOF 3
ENDMDL
MODEL 4
REMARK VINA RESULT:    -5.432      1.853      3.758
REMARK INTER + INTRA:          -5.909
REMARK INTER:                  -5.909
REMARK INTRA:                   0.000
REMARK UNBOUND:                 0.000
REMARK SMILES Cc1cc(O)c2c(c1)C(=O)c1cc(O)cc(O)c1C2=O
REMARK SMILES IDX 1 1 2 2 8 3 7 4 6 5 4 6 3 7 19 8 20 9 18 10 11 11 9 12 10 13
REMARK SMILES IDX 12 14 13 15 15 16 16 17 5 18 17 20 14 22
REMARK H PARENT 5 19 17 21 14 23
REMARK Flexibility Score: inf
ROOT
ATOM      1  C   UNL     1      39.102 -43.572  18.790  1.00  0.00     0.044 C 
ATOM      2  C   UNL     1      38.737 -43.121  20.174  1.00  0.00    -0.047 A 
ATOM      3  C   UNL     1      38.340 -44.056  21.138  1.00  0.00     0.016 A 
ATOM      4  C   UNL     1      38.023 -43.647  22.444  1.00  0.00     0.038 A 
ATOM      5  C   UNL     1      38.104 -42.280  22.792  1.00  0.00     0.076 A 
ATOM      6  C   UNL     1      38.589 -41.350  21.836  1.00  0.00     0.127 A 
ATOM      7  C   UNL     1      38.878 -41.777  20.537  1.00  0.00     0.050 A 
ATOM      8  C   UNL     1      37.621 -41.867  24.135  1.00  0.00     0.201 C 
ATOM      9  O   UNL     1      37.137 -40.715  24.299  1.00  0.00    -0.288 OA
ATOM     10  C   UNL     1      37.534 -42.869  25.228  1.00  0.00     0.076 A 
ATOM     11  C   UNL     1      37.456 -44.236  24.877  1.00  0.00     0.041 A 
ATOM     12  C   UNL     1      37.611 -44.643  23.460  1.00  0.00     0.194 C 
ATOM     13  O   UNL     1      37.417 -45.845  23.124  1.00  0.00    -0.289 OA
ATOM     14  C   UNL     1      37.235 -45.202  25.873  1.00  0.00     0.059 A 
ATOM     15  C   UNL     1      37.107 -44.824  27.212  1.00  0.00     0.120 A 
ATOM     16  C   UNL     1      37.225 -43.481  27.567  1.00  0.00     0.093 A 
ATOM     17  C   UNL     1      37.464 -42.502  26.598  1.00  0.00     0.131 A 
ENDROOT
BRANCH   6  18
ATOM     18  O   UNL     1      38.829 -40.009  22.142  1.00  0.00    -0.507 OA
ATOM     19  H   UNL     1      39.749 -39.591  22.138  1.00  0.00     0.293 HD
ENDBRANCH   6  18
BRANCH  17  20
ATOM     20  O   UNL     1      37.661 -41.192  27.040  1.00  0.00    -0.507 OA
ATOM     21  H   UNL     1      37.175 -40.790  27.830  1.00  0.00     0.293 HD
ENDBRANCH  17  20
BRANCH  15  22
ATOM     22  O   UNL     1      36.875 -45.778  28.200  1.00  0.00    -0.508 OA
ATOM     23  H   UNL     1      36.961 -46.770  28.011  1.00  0.00     0.293 HD
ENDBRANCH  15  22
TORSDOF 3
ENDMDL
MODEL 5
REMARK VINA RESULT:    -5.172      9.820     10.127
REMARK INTER + INTRA:          -5.626
REMARK INTER:                  -5.626
REMARK INTRA:                   0.000
REMARK UNBOUND:                 0.000
REMARK SMILES Cc1cc(O)c2c(c1)C(=O)c1cc(O)cc(O)c1C2=O
REMARK SMILES IDX 1 1 2 2 8 3 7 4 6 5 4 6 3 7 19 8 20 9 18 10 11 11 9 12 10 13
REMARK SMILES IDX 12 14 13 15 15 16 16 17 5 18 17 20 14 22
REMARK H PARENT 5 19 17 21 14 23
REMARK Flexibility Score: inf
ROOT
ATOM      1  C   UNL     1      45.180 -38.779  31.260  1.00  0.00     0.044 C 
ATOM      2  C   UNL     1      44.641 -40.177  31.167  1.00  0.00    -0.047 A 
ATOM      3  C   UNL     1      43.459 -40.521  31.835  1.00  0.00     0.016 A 
ATOM      4  C   UNL     1      42.931 -41.819  31.732  1.00  0.00     0.038 A 
ATOM      5  C   UNL     1      43.596 -42.788  30.948  1.00  0.00     0.076 A 
ATOM      6  C   UNL     1      44.745 -42.409  30.206  1.00  0.00     0.127 A 
ATOM      7  C   UNL     1      45.263 -41.118  30.341  1.00  0.00     0.050 A 
ATOM      8  C   UNL     1      43.091 -44.185  30.982  1.00  0.00     0.201 C 
ATOM      9  O   UNL     1      43.892 -45.144  30.814  1.00  0.00    -0.288 OA
ATOM     10  C   UNL     1      41.690 -44.454  31.396  1.00  0.00     0.076 A 
ATOM     11  C   UNL     1      41.027 -43.481  32.179  1.00  0.00     0.041 A 
ATOM     12  C   UNL     1      41.676 -42.173  32.435  1.00  0.00     0.194 C 
ATOM     13  O   UNL     1      41.147 -41.352  33.234  1.00  0.00    -0.289 OA
ATOM     14  C   UNL     1      39.754 -43.757  32.705  1.00  0.00     0.059 A 
ATOM     15  C   UNL     1      39.131 -44.981  32.449  1.00  0.00     0.120 A 
ATOM     16  C   UNL     1      39.764 -45.926  31.645  1.00  0.00     0.093 A 
ATOM     17  C   UNL     1      41.023 -45.669  31.093  1.00  0.00     0.131 A 
ENDROOT
BRANCH   6  18
ATOM     18  O   UNL     1      45.377 -43.267  29.304  1.00  0.00    -0.507 OA
ATOM     19  H   UNL     1      44.913 -43.680  28.507  1.00  0.00     0.293 HD
ENDBRANCH   6  18
BRANCH  17  20
ATOM     20  O   UNL     1      41.553 -46.626  30.224  1.00  0.00    -0.507 OA
ATOM     21  H   UNL     1      42.094 -46.395  29.402  1.00  0.00     0.293 HD
ENDBRANCH  17  20
BRANCH  15  22
ATOM     22  O   UNL     1      37.874 -45.262  32.980  1.00  0.00    -0.508 OA
ATOM     23  H   UNL     1      37.042 -44.778  32.662  1.00  0.00     0.293 HD
ENDBRANCH  15  22
TORSDOF 3
ENDMDL
MODEL 6
REMARK VINA RESULT:    -5.167      9.338     10.632
REMARK INTER + INTRA:          -5.621
REMARK INTER:                  -5.621
REMARK INTRA:                   0.000
REMARK UNBOUND:                 0.000
REMARK SMILES Cc1cc(O)c2c(c1)C(=O)c1cc(O)cc(O)c1C2=O
REMARK SMILES IDX 1 1 2 2 8 3 7 4 6 5 4 6 3 7 19 8 20 9 18 10 11 11 9 12 10 13
REMARK SMILES IDX 12 14 13 15 15 16 16 17 5 18 17 20 14 22
REMARK H PARENT 5 19 17 21 14 23
REMARK Flexibility Score: inf
ROOT
ATOM      1  C   UNL     1      44.949 -37.205  33.022  1.00  0.00     0.044 C 
ATOM      2  C   UNL     1      44.675 -38.551  32.418  1.00  0.00    -0.047 A 
ATOM      3  C   UNL     1      43.661 -39.363  32.940  1.00  0.00     0.016 A 
ATOM      4  C   UNL     1      43.378 -40.613  32.365  1.00  0.00     0.038 A 
ATOM      5  C   UNL     1      44.120 -41.058  31.248  1.00  0.00     0.076 A 
ATOM      6  C   UNL     1      45.087 -40.194  30.671  1.00  0.00     0.127 A 
ATOM      7  C   UNL     1      45.366 -38.964  31.274  1.00  0.00     0.050 A 
ATOM      8  C   UNL     1      43.893 -42.443  30.760  1.00  0.00     0.201 C 
ATOM      9  O   UNL     1      44.835 -43.075  30.212  1.00  0.00    -0.288 OA
ATOM     10  C   UNL     1      42.623 -43.141  31.085  1.00  0.00     0.076 A 
ATOM     11  C   UNL     1      41.882 -42.693  32.202  1.00  0.00     0.041 A 
ATOM     12  C   UNL     1      42.299 -41.464  32.919  1.00  0.00     0.194 C 
ATOM     13  O   UNL     1      41.717 -41.129  33.989  1.00  0.00    -0.289 OA
ATOM     14  C   UNL     1      40.750 -43.411  32.624  1.00  0.00     0.059 A 
ATOM     15  C   UNL     1      40.343 -44.558  31.939  1.00  0.00     0.120 A 
ATOM     16  C   UNL     1      41.047 -44.980  30.813  1.00  0.00     0.093 A 
ATOM     17  C   UNL     1      42.165 -44.273  30.361  1.00  0.00     0.131 A 
ENDROOT
BRANCH   6  18
ATOM     18  O   UNL     1      45.763 -40.501  29.489  1.00  0.00    -0.507 OA
ATOM     19  H   UNL     1      45.611 -41.350  28.963  1.00  0.00     0.293 HD
ENDBRANCH   6  18
BRANCH  17  20
ATOM     20  O   UNL     1      42.764 -44.703  29.175  1.00  0.00    -0.507 OA
ATOM     21  H   UNL     1      43.290 -44.096  28.562  1.00  0.00     0.293 HD
ENDBRANCH  17  20
BRANCH  15  22
ATOM     22  O   UNL     1      39.229 -45.280  32.362  1.00  0.00    -0.508 OA
ATOM     23  H   UNL     1      39.109 -45.552  33.332  1.00  0.00     0.293 HD
ENDBRANCH  15  22
TORSDOF 3
ENDMDL
MODEL 7
REMARK VINA RESULT:    -5.158      9.379     11.130
REMARK INTER + INTRA:          -5.610
REMARK INTER:                  -5.610
REMARK INTRA:                   0.000
REMARK UNBOUND:                 0.000
REMARK SMILES Cc1cc(O)c2c(c1)C(=O)c1cc(O)cc(O)c1C2=O
REMARK SMILES IDX 1 1 2 2 8 3 7 4 6 5 4 6 3 7 19 8 20 9 18 10 11 11 9 12 10 13
REMARK SMILES IDX 12 14 13 15 15 16 16 17 5 18 17 20 14 22
REMARK H PARENT 5 19 17 21 14 23
REMARK Flexibility Score: inf
ROOT
ATOM      1  C   UNL     1      37.962 -45.723  33.581  1.00  0.00     0.044 C 
ATOM      2  C   UNL     1      39.135 -45.276  32.758  1.00  0.00    -0.047 A 
ATOM      3  C   UNL     1      39.708 -44.017  32.975  1.00  0.00     0.016 A 
ATOM      4  C   UNL     1      40.824 -43.600  32.230  1.00  0.00     0.038 A 
ATOM      5  C   UNL     1      41.376 -44.458  31.252  1.00  0.00     0.076 A 
ATOM      6  C   UNL     1      40.845 -45.764  31.097  1.00  0.00     0.127 A 
ATOM      7  C   UNL     1      39.722 -46.149  31.835  1.00  0.00     0.050 A 
ATOM      8  C   UNL     1      42.460 -43.927  30.384  1.00  0.00     0.201 C 
ATOM      9  O   UNL     1      42.588 -44.361  29.208  1.00  0.00    -0.288 OA
ATOM     10  C   UNL     1      43.264 -42.763  30.836  1.00  0.00     0.076 A 
ATOM     11  C   UNL     1      42.709 -41.908  31.816  1.00  0.00     0.041 A 
ATOM     12  C   UNL     1      41.429 -42.269  32.470  1.00  0.00     0.194 C 
ATOM     13  O   UNL     1      40.867 -41.452  33.252  1.00  0.00    -0.289 OA
ATOM     14  C   UNL     1      43.376 -40.723  32.168  1.00  0.00     0.059 A 
ATOM     15  C   UNL     1      44.593 -40.389  31.568  1.00  0.00     0.120 A 
ATOM     16  C   UNL     1      45.163 -41.249  30.631  1.00  0.00     0.093 A 
ATOM     17  C   UNL     1      44.529 -42.444  30.277  1.00  0.00     0.131 A 
ENDROOT
BRANCH   6  18
ATOM     18  O   UNL     1      41.419 -46.717  30.254  1.00  0.00    -0.507 OA
ATOM     19  H   UNL     1      40.897 -47.240  29.565  1.00  0.00     0.293 HD
ENDBRANCH   6  18
BRANCH  17  20
ATOM     20  O   UNL     1      45.205 -43.297  29.401  1.00  0.00    -0.507 OA
ATOM     21  H   UNL     1      45.448 -44.251  29.627  1.00  0.00     0.293 HD
ENDBRANCH  17  20
BRANCH  15  22
ATOM     22  O   UNL     1      45.251 -39.208  31.906  1.00  0.00    -0.508 OA
ATOM     23  H   UNL     1      45.278 -38.870  32.862  1.00  0.00     0.293 HD
ENDBRANCH  15  22
TORSDOF 3
ENDMDL
MODEL 8
REMARK VINA RESULT:    -3.673      1.745      6.079
REMARK INTER + INTRA:          -3.995
REMARK INTER:                  -3.995
REMARK INTRA:                   0.000
REMARK UNBOUND:                 0.000
REMARK SMILES Cc1cc(O)c2c(c1)C(=O)c1cc(O)cc(O)c1C2=O
REMARK SMILES IDX 1 1 2 2 8 3 7 4 6 5 4 6 3 7 19 8 20 9 18 10 11 11 9 12 10 13
REMARK SMILES IDX 12 14 13 15 15 16 16 17 5 18 17 20 14 22
REMARK H PARENT 5 19 17 21 14 23
REMARK Flexibility Score: inf
ROOT
ATOM      1  C   UNL     1      36.876 -46.606  21.790  1.00  0.00     0.044 C 
ATOM      2  C   UNL     1      37.251 -45.238  22.280  1.00  0.00    -0.047 A 
ATOM      3  C   UNL     1      37.805 -44.302  21.399  1.00  0.00     0.016 A 
ATOM      4  C   UNL     1      38.134 -43.010  21.841  1.00  0.00     0.038 A 
ATOM      5  C   UNL     1      37.903 -42.647  23.186  1.00  0.00     0.076 A 
ATOM      6  C   UNL     1      37.262 -43.571  24.052  1.00  0.00     0.127 A 
ATOM      7  C   UNL     1      36.964 -44.858  23.595  1.00  0.00     0.050 A 
ATOM      8  C   UNL     1      38.398 -41.325  23.653  1.00  0.00     0.201 C 
ATOM      9  O   UNL     1      38.744 -41.175  24.855  1.00  0.00    -0.288 OA
ATOM     10  C   UNL     1      38.659 -40.246  22.666  1.00  0.00     0.076 A 
ATOM     11  C   UNL     1      38.887 -40.612  21.320  1.00  0.00     0.041 A 
ATOM     12  C   UNL     1      38.714 -42.023  20.900  1.00  0.00     0.194 C 
ATOM     13  O   UNL     1      39.037 -42.378  19.732  1.00  0.00    -0.289 OA
ATOM     14  C   UNL     1      39.273 -39.636  20.386  1.00  0.00     0.059 A 
ATOM     15  C   UNL     1      39.419 -38.301  20.774  1.00  0.00     0.120 A 
ATOM     16  C   UNL     1      39.155 -37.930  22.092  1.00  0.00     0.093 A 
ATOM     17  C   UNL     1      38.751 -38.878  23.036  1.00  0.00     0.131 A 
ENDROOT
BRANCH   6  18
ATOM     18  O   UNL     1      36.875 -43.242  25.353  1.00  0.00    -0.507 OA
ATOM     19  H   UNL     1      37.507 -43.244  26.141  1.00  0.00     0.293 HD
ENDBRANCH   6  18
BRANCH  17  20
ATOM     20  O   UNL     1      38.417 -38.416  24.311  1.00  0.00    -0.507 OA
ATOM     21  H   UNL     1      37.861 -37.589  24.477  1.00  0.00     0.293 HD
ENDBRANCH  17  20
BRANCH  15  22
ATOM     22  O   UNL     1      39.814 -37.333  19.854  1.00  0.00    -0.508 OA
ATOM     23  H   UNL     1      40.577 -36.695  20.048  1.00  0.00     0.293 HD
ENDBRANCH  15  22
TORSDOF 3
ENDMDL
MODEL 9
REMARK VINA RESULT:    -3.083      2.091      5.222
REMARK INTER + INTRA:          -3.354
REMARK INTER:                  -3.354
REMARK INTRA:                   0.000
REMARK UNBOUND:                 0.000
REMARK SMILES Cc1cc(O)c2c(c1)C(=O)c1cc(O)cc(O)c1C2=O
REMARK SMILES IDX 1 1 2 2 8 3 7 4 6 5 4 6 3 7 19 8 20 9 18 10 11 11 9 12 10 13
REMARK SMILES IDX 12 14 13 15 15 16 16 17 5 18 17 20 14 22
REMARK H PARENT 5 19 17 21 14 23
REMARK Flexibility Score: inf
ROOT
ATOM      1  C   UNL     1      36.881 -46.175  22.189  1.00  0.00     0.044 C 
ATOM      2  C   UNL     1      37.436 -44.857  21.734  1.00  0.00    -0.047 A 
ATOM      3  C   UNL     1      37.415 -43.751  22.592  1.00  0.00     0.016 A 
ATOM      4  C   UNL     1      37.958 -42.520  22.186  1.00  0.00     0.038 A 
ATOM      5  C   UNL     1      38.531 -42.394  20.902  1.00  0.00     0.076 A 
ATOM      6  C   UNL     1      38.627 -43.540  20.070  1.00  0.00     0.127 A 
ATOM      7  C   UNL     1      38.061 -44.748  20.487  1.00  0.00     0.050 A 
ATOM      8  C   UNL     1      38.960 -41.043  20.453  1.00  0.00     0.201 C 
ATOM      9  O   UNL     1      38.928 -40.751  19.228  1.00  0.00    -0.288 OA
ATOM     10  C   UNL     1      39.245 -39.987  21.459  1.00  0.00     0.076 A 
ATOM     11  C   UNL     1      38.671 -40.118  22.744  1.00  0.00     0.041 A 
ATOM     12  C   UNL     1      37.938 -41.356  23.103  1.00  0.00     0.194 C 
ATOM     13  O   UNL     1      37.318 -41.427  24.201  1.00  0.00    -0.289 OA
ATOM     14  C   UNL     1      38.802 -39.076  23.677  1.00  0.00     0.059 A 
ATOM     15  C   UNL     1      39.509 -37.916  23.350  1.00  0.00     0.120 A 
ATOM     16  C   UNL     1      40.110 -37.801  22.097  1.00  0.00     0.093 A 
ATOM     17  C   UNL     1      40.011 -38.832  21.158  1.00  0.00     0.131 A 
ENDROOT
BRANCH   6  18
ATOM     18  O   UNL     1      39.300 -43.531  18.847  1.00  0.00    -0.507 OA
ATOM     19  H   UNL     1      40.284 -43.320  18.753  1.00  0.00     0.293 HD
ENDBRANCH   6  18
BRANCH  17  20
ATOM     20  O   UNL     1      40.716 -38.683  19.961  1.00  0.00    -0.507 OA
ATOM     21  H   UNL     1      40.763 -39.397  19.248  1.00  0.00     0.293 HD
ENDBRANCH  17  20
BRANCH  15  22
ATOM     22  O   UNL     1      39.630 -36.875  24.268  1.00  0.00    -0.508 OA
ATOM     23  H   UNL     1      40.340 -36.885  24.992  1.00  0.00     0.293 HD
ENDBRANCH  15  22
TORSDOF 3
ENDMDL
