MODEL 1
REMARK VINA RESULT:    -4.732      0.000      0.000
REMARK INTER + INTRA:          -5.572
REMARK INTER:                  -5.700
REMARK INTRA:                   0.128
REMARK UNBOUND:                 0.128
REMARK SMILES O=c1c(O)c(-c2ccc(O)c(O)c2)oc2cc(O)cc(O)c12
REMARK SMILES IDX 5 1 3 2 2 3 1 4 22 5 20 6 19 7 17 8 16 9 15 10 14 11 6 12
REMARK SMILES IDX 7 13 8 14 9 15 13 16 11 17 10 18 12 20 4 22 21 24 18 26
REMARK H PARENT 10 19 12 21 4 23 21 25 18 27
REMARK Flexibility Score: inf
ROOT
ATOM      1  C   UNL     1      11.919   5.563  -2.162  1.00  0.00     0.180 A 
ATOM      2  C   UNL     1      10.524   5.484  -2.010  1.00  0.00     0.208 A 
ATOM      3  C   UNL     1       9.779   6.673  -1.936  1.00  0.00     0.238 A 
ATOM      4  O   UNL     1       8.525   6.596  -1.856  1.00  0.00    -0.285 OA
ATOM      5  C   UNL     1      10.439   7.923  -1.996  1.00  0.00     0.111 A 
ATOM      6  C   UNL     1       9.789   9.189  -1.889  1.00  0.00     0.134 A 
ATOM      7  C   UNL     1      10.525  10.362  -2.094  1.00  0.00     0.093 A 
ATOM      8  C   UNL     1      11.897  10.320  -2.336  1.00  0.00     0.123 A 
ATOM      9  C   UNL     1      12.555   9.089  -2.382  1.00  0.00     0.094 A 
ATOM     10  C   UNL     1      11.842   7.899  -2.219  1.00  0.00     0.146 A 
ATOM     11  O   UNL     1      12.502   6.750  -2.281  1.00  0.00    -0.452 OA
ENDROOT
BRANCH   1  12
ATOM     12  C   UNL     1      12.775   4.356  -2.223  1.00  0.00     0.025 A 
ATOM     13  C   UNL     1      12.387   3.275  -3.026  1.00  0.00     0.016 A 
ATOM     14  C   UNL     1      13.189   2.135  -3.112  1.00  0.00     0.051 A 
ATOM     15  C   UNL     1      14.398   2.057  -2.413  1.00  0.00     0.157 A 
ATOM     16  C   UNL     1      14.000   4.291  -1.536  1.00  0.00     0.062 A 
ATOM     17  C   UNL     1      14.813   3.153  -1.619  1.00  0.00     0.158 A 
BRANCH  15  18
ATOM     18  O   UNL     1      15.150   0.887  -2.537  1.00  0.00    -0.504 OA
ATOM     19  H   UNL     1      15.927   0.650  -1.939  1.00  0.00     0.293 HD
ENDBRANCH  15  18
BRANCH  17  20
ATOM     20  O   UNL     1      16.015   3.158  -0.910  1.00  0.00    -0.504 OA
ATOM     21  H   UNL     1      16.536   2.325  -0.676  1.00  0.00     0.293 HD
ENDBRANCH  17  20
ENDBRANCH   1  12
BRANCH   2  22
ATOM     22  O   UNL     1       9.890   4.239  -1.975  1.00  0.00    -0.502 OA
ATOM     23  H   UNL     1       9.187   3.968  -2.652  1.00  0.00     0.293 HD
ENDBRANCH   2  22
BRANCH   6  24
ATOM     24  O   UNL     1       8.440   9.348  -1.561  1.00  0.00    -0.507 OA
ATOM     25  H   UNL     1       7.712   9.587  -2.217  1.00  0.00     0.293 HD
ENDBRANCH   6  24
BRANCH   8  26
ATOM     26  O   UNL     1      12.601  11.508  -2.518  1.00  0.00    -0.508 OA
ATOM     27  H   UNL     1      13.024  11.743  -3.408  1.00  0.00     0.293 HD
ENDBRANCH   8  26
TORSDOF 6
ENDMDL
MODEL 2
REMARK VINA RESULT:    -4.433      0.965      1.148
REMARK INTER + INTRA:          -5.212
REMARK INTER:                  -5.449
REMARK INTRA:                   0.236
REMARK UNBOUND:                 0.128
REMARK SMILES O=c1c(O)c(-c2ccc(O)c(O)c2)oc2cc(O)cc(O)c12
REMARK SMILES IDX 5 1 3 2 2 3 1 4 22 5 20 6 19 7 17 8 16 9 15 10 14 11 6 12
REMARK SMILES IDX 7 13 8 14 9 15 13 16 11 17 10 18 12 20 4 22 21 24 18 26
REMARK H PARENT 10 19 12 21 4 23 21 25 18 27
REMARK Flexibility Score: inf
ROOT
ATOM      1  C   UNL     1      10.985   6.204  -2.104  1.00  0.00     0.180 A 
ATOM      2  C   UNL     1       9.583   6.130  -2.050  1.00  0.00     0.208 A 
ATOM      3  C   UNL     1       8.844   7.318  -1.928  1.00  0.00     0.238 A 
ATOM      4  O   UNL     1       7.586   7.251  -1.936  1.00  0.00    -0.285 OA
ATOM      5  C   UNL     1       9.515   8.561  -1.845  1.00  0.00     0.111 A 
ATOM      6  C   UNL     1       8.868   9.823  -1.679  1.00  0.00     0.134 A 
ATOM      7  C   UNL     1       9.624  11.000  -1.740  1.00  0.00     0.093 A 
ATOM      8  C   UNL     1      11.009  10.959  -1.895  1.00  0.00     0.123 A 
ATOM      9  C   UNL     1      11.660   9.728  -1.998  1.00  0.00     0.094 A 
ATOM     10  C   UNL     1      10.929   8.538  -1.977  1.00  0.00     0.146 A 
ATOM     11  O   UNL     1      11.584   7.390  -2.089  1.00  0.00    -0.452 OA
ENDROOT
BRANCH   1  12
ATOM     12  C   UNL     1      11.834   4.995  -2.206  1.00  0.00     0.025 A 
ATOM     13  C   UNL     1      11.411   3.919  -2.999  1.00  0.00     0.016 A 
ATOM     14  C   UNL     1      12.205   2.778  -3.124  1.00  0.00     0.051 A 
ATOM     15  C   UNL     1      13.443   2.693  -2.476  1.00  0.00     0.157 A 
ATOM     16  C   UNL     1      13.086   4.923  -1.571  1.00  0.00     0.062 A 
ATOM     17  C   UNL     1      13.892   3.784  -1.694  1.00  0.00     0.158 A 
BRANCH  15  18
ATOM     18  O   UNL     1      14.185   1.522  -2.637  1.00  0.00    -0.504 OA
ATOM     19  H   UNL     1      14.003   0.665  -2.135  1.00  0.00     0.293 HD
ENDBRANCH  15  18
BRANCH  17  20
ATOM     20  O   UNL     1      15.122   3.781  -1.034  1.00  0.00    -0.504 OA
ATOM     21  H   UNL     1      15.861   4.445  -1.215  1.00  0.00     0.293 HD
ENDBRANCH  17  20
ENDBRANCH   1  12
BRANCH   2  22
ATOM     22  O   UNL     1       8.939   4.895  -2.156  1.00  0.00    -0.502 OA
ATOM     23  H   UNL     1       8.757   4.306  -1.353  1.00  0.00     0.293 HD
ENDBRANCH   2  22
BRANCH   6  24
ATOM     24  O   UNL     1       7.502   9.971  -1.426  1.00  0.00    -0.507 OA
ATOM     25  H   UNL     1       6.770   9.476  -1.913  1.00  0.00     0.293 HD
ENDBRANCH   6  24
BRANCH   8  26
ATOM     26  O   UNL     1      11.732  12.150  -1.936  1.00  0.00    -0.508 OA
ATOM     27  H   UNL     1      12.744  12.154  -1.982  1.00  0.00     0.293 HD
ENDBRANCH   8  26
TORSDOF 6
ENDMDL
MODEL 3
REMARK VINA RESULT:    -4.246      1.801      7.025
REMARK INTER + INTRA:          -4.987
REMARK INTER:                  -5.195
REMARK INTRA:                   0.208
REMARK UNBOUND:                 0.128
REMARK SMILES O=c1c(O)c(-c2ccc(O)c(O)c2)oc2cc(O)cc(O)c12
REMARK SMILES IDX 5 1 3 2 2 3 1 4 22 5 20 6 19 7 17 8 16 9 15 10 14 11 6 12
REMARK SMILES IDX 7 13 8 14 9 15 13 16 11 17 10 18 12 20 4 22 21 24 18 26
REMARK H PARENT 10 19 12 21 4 23 21 25 18 27
REMARK Flexibility Score: inf
ROOT
ATOM      1  C   UNL     1      11.025   9.373  -1.808  1.00  0.00     0.180 A 
ATOM      2  C   UNL     1       9.684   8.953  -1.785  1.00  0.00     0.208 A 
ATOM      3  C   UNL     1       9.399   7.582  -1.883  1.00  0.00     0.238 A 
ATOM      4  O   UNL     1       8.199   7.207  -1.806  1.00  0.00    -0.285 OA
ATOM      5  C   UNL     1      10.455   6.650  -2.021  1.00  0.00     0.111 A 
ATOM      6  C   UNL     1      10.279   5.241  -2.170  1.00  0.00     0.134 A 
ATOM      7  C   UNL     1      11.399   4.402  -2.167  1.00  0.00     0.093 A 
ATOM      8  C   UNL     1      12.690   4.922  -2.086  1.00  0.00     0.123 A 
ATOM      9  C   UNL     1      12.876   6.303  -2.001  1.00  0.00     0.094 A 
ATOM     10  C   UNL     1      11.777   7.164  -1.965  1.00  0.00     0.146 A 
ATOM     11  O   UNL     1      11.997   8.470  -1.872  1.00  0.00    -0.452 OA
ENDROOT
BRANCH   1  12
ATOM     12  C   UNL     1      11.405  10.802  -1.734  1.00  0.00     0.025 A 
ATOM     13  C   UNL     1      10.703  11.660  -0.876  1.00  0.00     0.016 A 
ATOM     14  C   UNL     1      11.057  13.007  -0.777  1.00  0.00     0.051 A 
ATOM     15  C   UNL     1      12.127  13.521  -1.519  1.00  0.00     0.157 A 
ATOM     16  C   UNL     1      12.494  11.310  -2.465  1.00  0.00     0.062 A 
ATOM     17  C   UNL     1      12.859  12.659  -2.370  1.00  0.00     0.158 A 
BRANCH  15  18
ATOM     18  O   UNL     1      12.425  14.878  -1.380  1.00  0.00    -0.504 OA
ATOM     19  H   UNL     1      13.326  15.281  -1.591  1.00  0.00     0.293 HD
ENDBRANCH  15  18
BRANCH  17  20
ATOM     20  O   UNL     1      13.950  13.093  -3.125  1.00  0.00    -0.504 OA
ATOM     21  H   UNL     1      14.533  12.483  -3.678  1.00  0.00     0.293 HD
ENDBRANCH  17  20
ENDBRANCH   1  12
BRANCH   2  22
ATOM     22  O   UNL     1       8.658   9.888  -1.626  1.00  0.00    -0.502 OA
ATOM     23  H   UNL     1       7.679   9.638  -1.694  1.00  0.00     0.293 HD
ENDBRANCH   2  22
BRANCH   6  24
ATOM     24  O   UNL     1       9.038   4.625  -2.350  1.00  0.00    -0.507 OA
ATOM     25  H   UNL     1       8.271   5.018  -2.875  1.00  0.00     0.293 HD
ENDBRANCH   6  24
BRANCH   8  26
ATOM     26  O   UNL     1      13.783   4.058  -2.103  1.00  0.00    -0.508 OA
ATOM     27  H   UNL     1      14.236   3.759  -1.247  1.00  0.00     0.293 HD
ENDBRANCH   8  26
TORSDOF 6
ENDMDL
MODEL 4
REMARK VINA RESULT:    -4.109      2.175      4.266
REMARK INTER + INTRA:          -4.822
REMARK INTER:                  -4.925
REMARK INTRA:                   0.104
REMARK UNBOUND:                 0.128
REMARK SMILES O=c1c(O)c(-c2ccc(O)c(O)c2)oc2cc(O)cc(O)c12
REMARK SMILES IDX 5 1 3 2 2 3 1 4 22 5 20 6 19 7 17 8 16 9 15 10 14 11 6 12
REMARK SMILES IDX 7 13 8 14 9 15 13 16 11 17 10 18 12 20 4 22 21 24 18 26
REMARK H PARENT 10 19 12 21 4 23 21 25 18 27
REMARK Flexibility Score: inf
ROOT
ATOM      1  C   UNL     1      12.019   8.445  -2.329  1.00  0.00     0.180 A 
ATOM      2  C   UNL     1      13.280   8.933  -2.714  1.00  0.00     0.208 A 
ATOM      3  C   UNL     1      13.527  10.314  -2.641  1.00  0.00     0.238 A 
ATOM      4  O   UNL     1      14.675  10.738  -2.935  1.00  0.00    -0.285 OA
ATOM      5  C   UNL     1      12.506  11.190  -2.201  1.00  0.00     0.111 A 
ATOM      6  C   UNL     1      12.633  12.610  -2.127  1.00  0.00     0.134 A 
ATOM      7  C   UNL     1      11.604  13.365  -1.553  1.00  0.00     0.093 A 
ATOM      8  C   UNL     1      10.427  12.762  -1.111  1.00  0.00     0.123 A 
ATOM      9  C   UNL     1      10.267  11.381  -1.234  1.00  0.00     0.094 A 
ATOM     10  C   UNL     1      11.291  10.595  -1.769  1.00  0.00     0.146 A 
ATOM     11  O   UNL     1      11.104   9.285  -1.859  1.00  0.00    -0.452 OA
ENDROOT
BRANCH   1  12
ATOM     12  C   UNL     1      11.675   7.007  -2.402  1.00  0.00     0.025 A 
ATOM     13  C   UNL     1      10.455   6.616  -2.971  1.00  0.00     0.016 A 
ATOM     14  C   UNL     1      10.119   5.264  -3.066  1.00  0.00     0.051 A 
ATOM     15  C   UNL     1      11.000   4.276  -2.611  1.00  0.00     0.157 A 
ATOM     16  C   UNL     1      12.571   6.016  -1.963  1.00  0.00     0.062 A 
ATOM     17  C   UNL     1      12.245   4.657  -2.058  1.00  0.00     0.158 A 
BRANCH  15  18
ATOM     18  O   UNL     1      10.601   2.943  -2.729  1.00  0.00    -0.504 OA
ATOM     19  H   UNL     1      11.022   2.283  -3.365  1.00  0.00     0.293 HD
ENDBRANCH  15  18
BRANCH  17  20
ATOM     20  O   UNL     1      13.182   3.729  -1.602  1.00  0.00    -0.504 OA
ATOM     21  H   UNL     1      14.178   3.897  -1.575  1.00  0.00     0.293 HD
ENDBRANCH  17  20
ENDBRANCH   1  12
BRANCH   2  22
ATOM     22  O   UNL     1      14.281   8.048  -3.125  1.00  0.00    -0.502 OA
ATOM     23  H   UNL     1      15.178   7.988  -2.660  1.00  0.00     0.293 HD
ENDBRANCH   2  22
BRANCH   6  24
ATOM     24  O   UNL     1      13.728  13.322  -2.623  1.00  0.00    -0.507 OA
ATOM     25  H   UNL     1      14.006  13.349  -3.592  1.00  0.00     0.293 HD
ENDBRANCH   6  24
BRANCH   8  26
ATOM     26  O   UNL     1       9.416  13.547  -0.560  1.00  0.00    -0.508 OA
ATOM     27  H   UNL     1       8.474  13.536  -0.931  1.00  0.00     0.293 HD
ENDBRANCH   8  26
TORSDOF 6
ENDMDL
MODEL 5
REMARK VINA RESULT:    -3.979      2.436      4.261
REMARK INTER + INTRA:          -4.666
REMARK INTER:                  -4.420
REMARK INTRA:                  -0.246
REMARK UNBOUND:                 0.128
REMARK SMILES O=c1c(O)c(-c2ccc(O)c(O)c2)oc2cc(O)cc(O)c12
REMARK SMILES IDX 5 1 3 2 2 3 1 4 22 5 20 6 19 7 17 8 16 9 15 10 14 11 6 12
REMARK SMILES IDX 7 13 8 14 9 15 13 16 11 17 10 18 12 20 4 22 21 24 18 26
REMARK H PARENT 10 19 12 21 4 23 21 25 18 27
REMARK Flexibility Score: inf
ROOT
ATOM      1  C   UNL     1      10.425   9.415  -1.906  1.00  0.00     0.180 A 
ATOM      2  C   UNL     1       9.038   9.452  -2.130  1.00  0.00     0.208 A 
ATOM      3  C   UNL     1       8.362  10.677  -2.005  1.00  0.00     0.238 A 
ATOM      4  O   UNL     1       7.130  10.715  -2.261  1.00  0.00    -0.285 OA
ATOM      5  C   UNL     1       9.076  11.843  -1.641  1.00  0.00     0.111 A 
ATOM      6  C   UNL     1       8.485  13.128  -1.445  1.00  0.00     0.134 A 
ATOM      7  C   UNL     1       9.307  14.237  -1.214  1.00  0.00     0.093 A 
ATOM      8  C   UNL     1      10.690  14.099  -1.106  1.00  0.00     0.123 A 
ATOM      9  C   UNL     1      11.274  12.837  -1.235  1.00  0.00     0.094 A 
ATOM     10  C   UNL     1      10.484  11.717  -1.503  1.00  0.00     0.146 A 
ATOM     11  O   UNL     1      11.078  10.538  -1.630  1.00  0.00    -0.452 OA
ENDROOT
BRANCH   1  12
ATOM     12  C   UNL     1      11.204   8.158  -1.994  1.00  0.00     0.025 A 
ATOM     13  C   UNL     1      12.142   7.998  -3.023  1.00  0.00     0.016 A 
ATOM     14  C   UNL     1      12.900   6.829  -3.114  1.00  0.00     0.051 A 
ATOM     15  C   UNL     1      12.749   5.805  -2.172  1.00  0.00     0.157 A 
ATOM     16  C   UNL     1      11.065   7.141  -1.034  1.00  0.00     0.062 A 
ATOM     17  C   UNL     1      11.823   5.966  -1.114  1.00  0.00     0.158 A 
BRANCH  15  18
ATOM     18  O   UNL     1      13.532   4.659  -2.323  1.00  0.00    -0.504 OA
ATOM     19  H   UNL     1      13.930   4.143  -1.553  1.00  0.00     0.293 HD
ENDBRANCH  15  18
BRANCH  17  20
ATOM     20  O   UNL     1      11.632   4.998  -0.127  1.00  0.00    -0.504 OA
ATOM     21  H   UNL     1      10.860   4.347  -0.116  1.00  0.00     0.293 HD
ENDBRANCH  17  20
ENDBRANCH   1  12
BRANCH   2  22
ATOM     22  O   UNL     1       8.356   8.294  -2.511  1.00  0.00    -0.502 OA
ATOM     23  H   UNL     1       8.193   8.052  -3.481  1.00  0.00     0.293 HD
ENDBRANCH   2  22
BRANCH   6  24
ATOM     24  O   UNL     1       7.108  13.360  -1.442  1.00  0.00    -0.507 OA
ATOM     25  H   UNL     1       6.678  14.270  -1.372  1.00  0.00     0.293 HD
ENDBRANCH   6  24
BRANCH   8  26
ATOM     26  O   UNL     1      11.477  15.223  -0.859  1.00  0.00    -0.508 OA
ATOM     27  H   UNL     1      12.460  15.142  -0.630  1.00  0.00     0.293 HD
ENDBRANCH   8  26
TORSDOF 6
ENDMDL
MODEL 6
REMARK VINA RESULT:    -3.973      2.620      4.313
REMARK INTER + INTRA:          -4.659
REMARK INTER:                  -4.492
REMARK INTRA:                  -0.167
REMARK UNBOUND:                 0.128
REMARK SMILES O=c1c(O)c(-c2ccc(O)c(O)c2)oc2cc(O)cc(O)c12
REMARK SMILES IDX 5 1 3 2 2 3 1 4 22 5 20 6 19 7 17 8 16 9 15 10 14 11 6 12
REMARK SMILES IDX 7 13 8 14 9 15 13 16 11 17 10 18 12 20 4 22 21 24 18 26
REMARK H PARENT 10 19 12 21 4 23 21 25 18 27
REMARK Flexibility Score: inf
ROOT
ATOM      1  C   UNL     1      10.935   9.145  -2.020  1.00  0.00     0.180 A 
ATOM      2  C   UNL     1       9.874   9.995  -1.664  1.00  0.00     0.208 A 
ATOM      3  C   UNL     1      10.100  11.381  -1.616  1.00  0.00     0.238 A 
ATOM      4  O   UNL     1       9.133  12.142  -1.350  1.00  0.00    -0.285 OA
ATOM      5  C   UNL     1      11.386  11.896  -1.906  1.00  0.00     0.111 A 
ATOM      6  C   UNL     1      11.738  13.278  -1.847  1.00  0.00     0.134 A 
ATOM      7  C   UNL     1      13.005  13.687  -2.281  1.00  0.00     0.093 A 
ATOM      8  C   UNL     1      13.953  12.760  -2.710  1.00  0.00     0.123 A 
ATOM      9  C   UNL     1      13.641  11.399  -2.714  1.00  0.00     0.094 A 
ATOM     10  C   UNL     1      12.373  10.963  -2.321  1.00  0.00     0.146 A 
ATOM     11  O   UNL     1      12.112   9.663  -2.350  1.00  0.00    -0.452 OA
ENDROOT
BRANCH   1  12
ATOM     12  C   UNL     1      10.781   7.673  -2.069  1.00  0.00     0.025 A 
ATOM     13  C   UNL     1       9.958   7.096  -3.046  1.00  0.00     0.016 A 
ATOM     14  C   UNL     1       9.814   5.709  -3.121  1.00  0.00     0.051 A 
ATOM     15  C   UNL     1      10.501   4.871  -2.236  1.00  0.00     0.157 A 
ATOM     16  C   UNL     1      11.489   6.833  -1.192  1.00  0.00     0.062 A 
ATOM     17  C   UNL     1      11.355   5.440  -1.262  1.00  0.00     0.158 A 
BRANCH  15  18
ATOM     18  O   UNL     1      10.309   3.493  -2.361  1.00  0.00    -0.504 OA
ATOM     19  H   UNL     1       9.417   3.036  -2.245  1.00  0.00     0.293 HD
ENDBRANCH  15  18
BRANCH  17  20
ATOM     20  O   UNL     1      12.088   4.668  -0.359  1.00  0.00    -0.504 OA
ATOM     21  H   UNL     1      11.881   3.703  -0.143  1.00  0.00     0.293 HD
ENDBRANCH  17  20
ENDBRANCH   1  12
BRANCH   2  22
ATOM     22  O   UNL     1       8.607   9.468  -1.403  1.00  0.00    -0.502 OA
ATOM     23  H   UNL     1       7.761   9.867  -1.792  1.00  0.00     0.293 HD
ENDBRANCH   2  22
BRANCH   6  24
ATOM     24  O   UNL     1      10.896  14.277  -1.350  1.00  0.00    -0.507 OA
ATOM     25  H   UNL     1      11.093  14.843  -0.538  1.00  0.00     0.293 HD
ENDBRANCH   6  24
BRANCH   8  26
ATOM     26  O   UNL     1      15.210  13.200  -3.119  1.00  0.00    -0.508 OA
ATOM     27  H   UNL     1      15.365  13.574  -4.049  1.00  0.00     0.293 HD
ENDBRANCH   8  26
TORSDOF 6
ENDMDL
MODEL 7
REMARK VINA RESULT:    -3.862      1.868      6.489
REMARK INTER + INTRA:          -4.525
REMARK INTER:                  -4.900
REMARK INTRA:                   0.375
REMARK UNBOUND:                 0.128
REMARK SMILES O=c1c(O)c(-c2ccc(O)c(O)c2)oc2cc(O)cc(O)c12
REMARK SMILES IDX 5 1 3 2 2 3 1 4 22 5 20 6 19 7 17 8 16 9 15 10 14 11 6 12
REMARK SMILES IDX 7 13 8 14 9 15 13 16 11 17 10 18 12 20 4 22 21 24 18 26
REMARK H PARENT 10 19 12 21 4 23 21 25 18 27
REMARK Flexibility Score: inf
ROOT
ATOM      1  C   UNL     1      12.398   8.490  -2.420  1.00  0.00     0.180 A 
ATOM      2  C   UNL     1      11.056   8.591  -2.014  1.00  0.00     0.208 A 
ATOM      3  C   UNL     1      10.279   7.422  -1.938  1.00  0.00     0.238 A 
ATOM      4  O   UNL     1       9.095   7.511  -1.521  1.00  0.00    -0.285 OA
ATOM      5  C   UNL     1      10.848   6.174  -2.284  1.00  0.00     0.111 A 
ATOM      6  C   UNL     1      10.142   4.933  -2.283  1.00  0.00     0.134 A 
ATOM      7  C   UNL     1      10.840   3.742  -2.517  1.00  0.00     0.093 A 
ATOM      8  C   UNL     1      12.201   3.751  -2.817  1.00  0.00     0.123 A 
ATOM      9  C   UNL     1      12.889   4.965  -2.880  1.00  0.00     0.094 A 
ATOM     10  C   UNL     1      12.229   6.167  -2.616  1.00  0.00     0.146 A 
ATOM     11  O   UNL     1      12.921   7.297  -2.676  1.00  0.00    -0.452 OA
ENDROOT
BRANCH   1  12
ATOM     12  C   UNL     1      13.272   9.678  -2.549  1.00  0.00     0.025 A 
ATOM     13  C   UNL     1      14.661   9.508  -2.635  1.00  0.00     0.016 A 
ATOM     14  C   UNL     1      15.502  10.613  -2.776  1.00  0.00     0.051 A 
ATOM     15  C   UNL     1      14.975  11.907  -2.850  1.00  0.00     0.157 A 
ATOM     16  C   UNL     1      12.738  10.975  -2.644  1.00  0.00     0.062 A 
ATOM     17  C   UNL     1      13.573  12.090  -2.789  1.00  0.00     0.158 A 
BRANCH  15  18
ATOM     18  O   UNL     1      15.871  12.970  -2.983  1.00  0.00    -0.504 OA
ATOM     19  H   UNL     1      16.738  12.915  -3.495  1.00  0.00     0.293 HD
ENDBRANCH  15  18
BRANCH  17  20
ATOM     20  O   UNL     1      12.973  13.347  -2.876  1.00  0.00    -0.504 OA
ATOM     21  H   UNL     1      11.979  13.505  -2.798  1.00  0.00     0.293 HD
ENDBRANCH  17  20
ENDBRANCH   1  12
BRANCH   2  22
ATOM     22  O   UNL     1      10.520   9.830  -1.655  1.00  0.00    -0.502 OA
ATOM     23  H   UNL     1      10.828  10.698  -2.078  1.00  0.00     0.293 HD
ENDBRANCH   2  22
BRANCH   6  24
ATOM     24  O   UNL     1       8.764   4.820  -2.085  1.00  0.00    -0.507 OA
ATOM     25  H   UNL     1       8.305   4.019  -1.679  1.00  0.00     0.293 HD
ENDBRANCH   6  24
BRANCH   8  26
ATOM     26  O   UNL     1      12.861   2.548  -3.061  1.00  0.00    -0.508 OA
ATOM     27  H   UNL     1      12.542   1.677  -2.654  1.00  0.00     0.293 HD
ENDBRANCH   8  26
TORSDOF 6
ENDMDL
MODEL 8
REMARK VINA RESULT:    -3.786      4.143      9.180
REMARK INTER + INTRA:          -4.433
REMARK INTER:                  -4.384
REMARK INTRA:                  -0.049
REMARK UNBOUND:                 0.128
REMARK SMILES O=c1c(O)c(-c2ccc(O)c(O)c2)oc2cc(O)cc(O)c12
REMARK SMILES IDX 5 1 3 2 2 3 1 4 22 5 20 6 19 7 17 8 16 9 15 10 14 11 6 12
REMARK SMILES IDX 7 13 8 14 9 15 13 16 11 17 10 18 12 20 4 22 21 24 18 26
REMARK H PARENT 10 19 12 21 4 23 21 25 18 27
REMARK Flexibility Score: inf
ROOT
ATOM      1  C   UNL     1      12.043  13.491  -1.546  1.00  0.00     0.180 A 
ATOM      2  C   UNL     1      10.680  13.669  -1.254  1.00  0.00     0.208 A 
ATOM      3  C   UNL     1       9.827  12.554  -1.282  1.00  0.00     0.238 A 
ATOM      4  O   UNL     1       8.618  12.709  -0.966  1.00  0.00    -0.285 OA
ATOM      5  C   UNL     1      10.343  11.280  -1.619  1.00  0.00     0.111 A 
ATOM      6  C   UNL     1       9.562  10.089  -1.719  1.00  0.00     0.134 A 
ATOM      7  C   UNL     1      10.200   8.861  -1.931  1.00  0.00     0.093 A 
ATOM      8  C   UNL     1      11.581   8.788  -2.112  1.00  0.00     0.123 A 
ATOM      9  C   UNL     1      12.347   9.954  -2.077  1.00  0.00     0.094 A 
ATOM     10  C   UNL     1      11.745  11.190  -1.831  1.00  0.00     0.146 A 
ATOM     11  O   UNL     1      12.510  12.273  -1.794  1.00  0.00    -0.452 OA
ENDROOT
BRANCH   1  12
ATOM     12  C   UNL     1      13.000  14.622  -1.560  1.00  0.00     0.025 A 
ATOM     13  C   UNL     1      13.726  14.897  -2.727  1.00  0.00     0.016 A 
ATOM     14  C   UNL     1      14.619  15.970  -2.768  1.00  0.00     0.051 A 
ATOM     15  C   UNL     1      14.793  16.797  -1.653  1.00  0.00     0.157 A 
ATOM     16  C   UNL     1      13.156  15.463  -0.445  1.00  0.00     0.062 A 
ATOM     17  C   UNL     1      14.047  16.544  -0.477  1.00  0.00     0.158 A 
BRANCH  15  18
ATOM     18  O   UNL     1      15.707  17.848  -1.757  1.00  0.00    -0.504 OA
ATOM     19  H   UNL     1      15.619  18.608  -2.415  1.00  0.00     0.293 HD
ENDBRANCH  15  18
BRANCH  17  20
ATOM     20  O   UNL     1      14.152  17.336   0.667  1.00  0.00    -0.504 OA
ATOM     21  H   UNL     1      13.851  18.299   0.717  1.00  0.00     0.293 HD
ENDBRANCH  17  20
ENDBRANCH   1  12
BRANCH   2  22
ATOM     22  O   UNL     1      10.195  14.932  -0.902  1.00  0.00    -0.502 OA
ATOM     23  H   UNL     1      10.596  15.788  -1.264  1.00  0.00     0.293 HD
ENDBRANCH   2  22
BRANCH   6  24
ATOM     24  O   UNL     1       8.167  10.063  -1.644  1.00  0.00    -0.507 OA
ATOM     25  H   UNL     1       7.604   9.227  -1.691  1.00  0.00     0.293 HD
ENDBRANCH   6  24
BRANCH   8  26
ATOM     26  O   UNL     1      12.181   7.551  -2.338  1.00  0.00    -0.508 OA
ATOM     27  H   UNL     1      12.718   7.367  -3.177  1.00  0.00     0.293 HD
ENDBRANCH   8  26
TORSDOF 6
ENDMDL
