MODEL 1
REMARK VINA RESULT:    -5.598      0.000      0.000
REMARK INTER + INTRA:          -5.762
REMARK INTER:                  -5.762
REMARK INTRA:                   0.000
REMARK UNBOUND:                 0.000
REMARK SMILES O=c1ccc2cc(O)ccc2o1
REMARK SMILES IDX 9 1 10 2 11 3 5 4 4 5 3 6 2 7 1 8 12 9 6 10 7 11 8 12
REMARK H PARENT 8 13
REMARK Flexibility Score: inf
ROOT
ATOM      1  C   UNL     1      14.705 -15.639   7.867  1.00  0.00     0.050 A 
ATOM      2  C   UNL     1      13.759 -16.617   8.190  1.00  0.00     0.052 A 
ATOM      3  C   UNL     1      12.395 -16.341   8.065  1.00  0.00     0.138 A 
ATOM      4  C   UNL     1      11.974 -15.071   7.613  1.00  0.00     0.021 A 
ATOM      5  C   UNL     1      10.603 -14.824   7.498  1.00  0.00     0.019 A 
ATOM      6  C   UNL     1       9.696 -15.830   7.831  1.00  0.00     0.094 A 
ATOM      7  C   UNL     1      10.185 -17.064   8.273  1.00  0.00     0.336 A 
ATOM      8  O   UNL     1       9.383 -17.985   8.577  1.00  0.00    -0.246 OA
ATOM      9  O   UNL     1      11.496 -17.274   8.372  1.00  0.00    -0.423 OA
ATOM     10  C   UNL     1      12.926 -14.093   7.291  1.00  0.00     0.058 A 
ATOM     11  C   UNL     1      14.295 -14.378   7.418  1.00  0.00     0.116 A 
ENDROOT
BRANCH  11  12
ATOM     12  O   UNL     1      15.251 -13.417   7.102  1.00  0.00    -0.508 OA
ATOM     13  H   UNL     1      15.075 -12.428   7.241  1.00  0.00     0.293 HD
ENDBRANCH  11  12
TORSDOF 1
ENDMDL
MODEL 2
REMARK VINA RESULT:    -5.091      1.062      4.769
REMARK INTER + INTRA:          -5.240
REMARK INTER:                  -5.240
REMARK INTRA:                   0.000
REMARK UNBOUND:                 0.000
REMARK SMILES O=c1ccc2cc(O)ccc2o1
REMARK SMILES IDX 9 1 10 2 11 3 5 4 4 5 3 6 2 7 1 8 12 9 6 10 7 11 8 12
REMARK H PARENT 8 13
REMARK Flexibility Score: inf
ROOT
ATOM      1  C   UNL     1       9.491 -15.790   7.498  1.00  0.00     0.050 A 
ATOM      2  C   UNL     1      10.464 -14.785   7.493  1.00  0.00     0.052 A 
ATOM      3  C   UNL     1      11.821 -15.124   7.490  1.00  0.00     0.138 A 
ATOM      4  C   UNL     1      12.206 -16.483   7.495  1.00  0.00     0.021 A 
ATOM      5  C   UNL     1      13.569 -16.790   7.493  1.00  0.00     0.019 A 
ATOM      6  C   UNL     1      14.504 -15.755   7.487  1.00  0.00     0.094 A 
ATOM      7  C   UNL     1      14.050 -14.432   7.483  1.00  0.00     0.336 A 
ATOM      8  O   UNL     1      14.878 -13.484   7.478  1.00  0.00    -0.246 OA
ATOM      9  O   UNL     1      12.746 -14.166   7.485  1.00  0.00    -0.423 OA
ATOM     10  C   UNL     1      11.226 -17.486   7.501  1.00  0.00     0.058 A 
ATOM     11  C   UNL     1       9.866 -17.139   7.502  1.00  0.00     0.116 A 
ENDROOT
BRANCH  11  12
ATOM     12  O   UNL     1       8.883 -18.125   7.509  1.00  0.00    -0.508 OA
ATOM     13  H   UNL     1       8.710 -18.707   6.697  1.00  0.00     0.293 HD
ENDBRANCH  11  12
TORSDOF 1
ENDMDL
MODEL 3
REMARK VINA RESULT:    -5.086      1.659      2.376
REMARK INTER + INTRA:          -5.235
REMARK INTER:                  -5.235
REMARK INTRA:                   0.000
REMARK UNBOUND:                 0.000
REMARK SMILES O=c1ccc2cc(O)ccc2o1
REMARK SMILES IDX 9 1 10 2 11 3 5 4 4 5 3 6 2 7 1 8 12 9 6 10 7 11 8 12
REMARK H PARENT 8 13
REMARK Flexibility Score: inf
ROOT
ATOM      1  C   UNL     1      13.469 -14.460   7.901  1.00  0.00     0.050 A 
ATOM      2  C   UNL     1      12.119 -14.277   7.584  1.00  0.00     0.052 A 
ATOM      3  C   UNL     1      11.266 -15.381   7.491  1.00  0.00     0.138 A 
ATOM      4  C   UNL     1      11.771 -16.681   7.715  1.00  0.00     0.021 A 
ATOM      5  C   UNL     1      10.894 -17.765   7.614  1.00  0.00     0.019 A 
ATOM      6  C   UNL     1       9.556 -17.534   7.297  1.00  0.00     0.094 A 
ATOM      7  C   UNL     1       9.125 -16.220   7.087  1.00  0.00     0.336 A 
ATOM      8  O   UNL     1       7.921 -15.992   6.800  1.00  0.00    -0.246 OA
ATOM      9  O   UNL     1       9.980 -15.205   7.190  1.00  0.00    -0.423 OA
ATOM     10  C   UNL     1      13.126 -16.858   8.031  1.00  0.00     0.058 A 
ATOM     11  C   UNL     1      13.976 -15.746   8.124  1.00  0.00     0.116 A 
ENDROOT
BRANCH  11  12
ATOM     12  O   UNL     1      15.323 -15.907   8.437  1.00  0.00    -0.508 OA
ATOM     13  H   UNL     1      15.626 -16.544   9.166  1.00  0.00     0.293 HD
ENDBRANCH  11  12
TORSDOF 1
ENDMDL
MODEL 4
REMARK VINA RESULT:    -5.006      1.214      2.101
REMARK INTER + INTRA:          -5.153
REMARK INTER:                  -5.153
REMARK INTRA:                   0.000
REMARK UNBOUND:                 0.000
REMARK SMILES O=c1ccc2cc(O)ccc2o1
REMARK SMILES IDX 9 1 10 2 11 3 5 4 4 5 3 6 2 7 1 8 12 9 6 10 7 11 8 12
REMARK H PARENT 8 13
REMARK Flexibility Score: inf
ROOT
ATOM      1  C   UNL     1      12.890 -13.571   7.386  1.00  0.00     0.050 A 
ATOM      2  C   UNL     1      11.582 -14.054   7.498  1.00  0.00     0.052 A 
ATOM      3  C   UNL     1      11.331 -15.426   7.408  1.00  0.00     0.138 A 
ATOM      4  C   UNL     1      12.402 -16.323   7.201  1.00  0.00     0.021 A 
ATOM      5  C   UNL     1      12.120 -17.690   7.114  1.00  0.00     0.019 A 
ATOM      6  C   UNL     1      10.801 -18.125   7.233  1.00  0.00     0.094 A 
ATOM      7  C   UNL     1       9.790 -17.179   7.436  1.00  0.00     0.336 A 
ATOM      8  O   UNL     1       8.593 -17.552   7.546  1.00  0.00    -0.246 OA
ATOM      9  O   UNL     1      10.086 -15.884   7.516  1.00  0.00    -0.423 OA
ATOM     10  C   UNL     1      13.712 -15.835   7.088  1.00  0.00     0.058 A 
ATOM     11  C   UNL     1      13.956 -14.456   7.181  1.00  0.00     0.116 A 
ENDROOT
BRANCH  11  12
ATOM     12  O   UNL     1      15.251 -13.956   7.070  1.00  0.00    -0.508 OA
ATOM     13  H   UNL     1      15.985 -14.483   6.611  1.00  0.00     0.293 HD
ENDBRANCH  11  12
TORSDOF 1
ENDMDL
MODEL 5
REMARK VINA RESULT:    -4.665      1.495      4.280
REMARK INTER + INTRA:          -4.802
REMARK INTER:                  -4.802
REMARK INTRA:                   0.000
REMARK UNBOUND:                 0.000
REMARK SMILES O=c1ccc2cc(O)ccc2o1
REMARK SMILES IDX 9 1 10 2 11 3 5 4 4 5 3 6 2 7 1 8 12 9 6 10 7 11 8 12
REMARK H PARENT 8 13
REMARK Flexibility Score: inf
ROOT
ATOM      1  C   UNL     1       9.705 -17.581   7.410  1.00  0.00     0.050 A 
ATOM      2  C   UNL     1      11.065 -17.727   7.704  1.00  0.00     0.052 A 
ATOM      3  C   UNL     1      11.891 -16.602   7.772  1.00  0.00     0.138 A 
ATOM      4  C   UNL     1      11.350 -15.317   7.540  1.00  0.00     0.021 A 
ATOM      5  C   UNL     1      12.202 -14.211   7.613  1.00  0.00     0.019 A 
ATOM      6  C   UNL     1      13.550 -14.405   7.911  1.00  0.00     0.094 A 
ATOM      7  C   UNL     1      14.017 -15.706   8.129  1.00  0.00     0.336 A 
ATOM      8  O   UNL     1      15.230 -15.900   8.399  1.00  0.00    -0.246 OA
ATOM      9  O   UNL     1      13.185 -16.742   8.053  1.00  0.00    -0.423 OA
ATOM     10  C   UNL     1       9.987 -15.177   7.244  1.00  0.00     0.058 A 
ATOM     11  C   UNL     1       9.162 -16.311   7.179  1.00  0.00     0.116 A 
ENDROOT
BRANCH  11  12
ATOM     12  O   UNL     1       7.807 -16.187   6.886  1.00  0.00    -0.508 OA
ATOM     13  H   UNL     1       7.256 -15.414   7.241  1.00  0.00     0.293 HD
ENDBRANCH  11  12
TORSDOF 1
ENDMDL
MODEL 6
REMARK VINA RESULT:    -4.594      1.968      4.609
REMARK INTER + INTRA:          -4.728
REMARK INTER:                  -4.728
REMARK INTRA:                   0.000
REMARK UNBOUND:                 0.000
REMARK SMILES O=c1ccc2cc(O)ccc2o1
REMARK SMILES IDX 9 1 10 2 11 3 5 4 4 5 3 6 2 7 1 8 12 9 6 10 7 11 8 12
REMARK H PARENT 8 13
REMARK Flexibility Score: inf
ROOT
ATOM      1  C   UNL     1       8.442 -17.623   7.602  1.00  0.00     0.050 A 
ATOM      2  C   UNL     1       9.665 -18.089   7.109  1.00  0.00     0.052 A 
ATOM      3  C   UNL     1      10.813 -17.298   7.222  1.00  0.00     0.138 A 
ATOM      4  C   UNL     1      10.733 -16.027   7.833  1.00  0.00     0.021 A 
ATOM      5  C   UNL     1      11.897 -15.259   7.931  1.00  0.00     0.019 A 
ATOM      6  C   UNL     1      13.094 -15.765   7.427  1.00  0.00     0.094 A 
ATOM      7  C   UNL     1      13.099 -17.032   6.834  1.00  0.00     0.336 A 
ATOM      8  O   UNL     1      14.170 -17.506   6.373  1.00  0.00    -0.246 OA
ATOM      9  O   UNL     1      11.977 -17.743   6.754  1.00  0.00    -0.423 OA
ATOM     10  C   UNL     1       9.504 -15.564   8.324  1.00  0.00     0.058 A 
ATOM     11  C   UNL     1       8.356 -16.364   8.208  1.00  0.00     0.116 A 
ENDROOT
BRANCH  11  12
ATOM     12  O   UNL     1       7.129 -15.917   8.691  1.00  0.00    -0.508 OA
ATOM     13  H   UNL     1       6.328 -15.803   8.080  1.00  0.00     0.293 HD
ENDBRANCH  11  12
TORSDOF 1
ENDMDL
MODEL 7
REMARK VINA RESULT:    -4.564      1.684      4.807
REMARK INTER + INTRA:          -4.697
REMARK INTER:                  -4.697
REMARK INTRA:                   0.000
REMARK UNBOUND:                 0.000
REMARK SMILES O=c1ccc2cc(O)ccc2o1
REMARK SMILES IDX 9 1 10 2 11 3 5 4 4 5 3 6 2 7 1 8 12 9 6 10 7 11 8 12
REMARK H PARENT 8 13
REMARK Flexibility Score: inf
ROOT
ATOM      1  C   UNL     1       9.084 -15.936   7.485  1.00  0.00     0.050 A 
ATOM      2  C   UNL     1      10.318 -15.362   7.807  1.00  0.00     0.052 A 
ATOM      3  C   UNL     1      11.497 -16.095   7.637  1.00  0.00     0.138 A 
ATOM      4  C   UNL     1      11.437 -17.417   7.142  1.00  0.00     0.021 A 
ATOM      5  C   UNL     1      12.633 -18.125   6.984  1.00  0.00     0.019 A 
ATOM      6  C   UNL     1      13.840 -17.511   7.318  1.00  0.00     0.094 A 
ATOM      7  C   UNL     1      13.823 -16.199   7.803  1.00  0.00     0.336 A 
ATOM      8  O   UNL     1      14.902 -15.629   8.109  1.00  0.00    -0.246 OA
ATOM      9  O   UNL     1      12.671 -15.547   7.943  1.00  0.00    -0.423 OA
ATOM     10  C   UNL     1      10.197 -17.988   6.822  1.00  0.00     0.058 A 
ATOM     11  C   UNL     1       9.018 -17.246   6.993  1.00  0.00     0.116 A 
ENDROOT
BRANCH  11  12
ATOM     12  O   UNL     1       7.780 -17.800   6.680  1.00  0.00    -0.508 OA
ATOM     13  H   UNL     1       6.940 -17.233   6.642  1.00  0.00     0.293 HD
ENDBRANCH  11  12
TORSDOF 1
ENDMDL
MODEL 8
REMARK VINA RESULT:    -4.512      1.665      1.981
REMARK INTER + INTRA:          -4.644
REMARK INTER:                  -4.644
REMARK INTRA:                   0.000
REMARK UNBOUND:                 0.000
REMARK SMILES O=c1ccc2cc(O)ccc2o1
REMARK SMILES IDX 9 1 10 2 11 3 5 4 4 5 3 6 2 7 1 8 12 9 6 10 7 11 8 12
REMARK H PARENT 8 13
REMARK Flexibility Score: inf
ROOT
ATOM      1  C   UNL     1      13.566 -17.416   7.502  1.00  0.00     0.050 A 
ATOM      2  C   UNL     1      12.405 -18.075   7.084  1.00  0.00     0.052 A 
ATOM      3  C   UNL     1      11.173 -17.416   7.125  1.00  0.00     0.138 A 
ATOM      4  C   UNL     1      11.103 -16.085   7.593  1.00  0.00     0.021 A 
ATOM      5  C   UNL     1       9.857 -15.452   7.623  1.00  0.00     0.019 A 
ATOM      6  C   UNL     1       8.726 -16.148   7.195  1.00  0.00     0.094 A 
ATOM      7  C   UNL     1       8.870 -17.465   6.746  1.00  0.00     0.336 A 
ATOM      8  O   UNL     1       7.861 -18.109   6.356  1.00  0.00    -0.246 OA
ATOM      9  O   UNL     1      10.068 -18.044   6.726  1.00  0.00    -0.423 OA
ATOM     10  C   UNL     1      12.270 -15.429   8.011  1.00  0.00     0.058 A 
ATOM     11  C   UNL     1      13.504 -16.097   7.966  1.00  0.00     0.116 A 
ENDROOT
BRANCH  11  12
ATOM     12  O   UNL     1      14.671 -15.459   8.378  1.00  0.00    -0.508 OA
ATOM     13  H   UNL     1      15.304 -15.030   7.713  1.00  0.00     0.293 HD
ENDBRANCH  11  12
TORSDOF 1
ENDMDL
