MODEL 1
REMARK VINA RESULT:    -5.571      0.000      0.000
REMARK INTER + INTRA:          -6.945
REMARK INTER:                  -6.711
REMARK INTRA:                  -0.234
REMARK UNBOUND:                -0.234
REMARK SMILES O=c1c(O)c(-c2ccc(O)c(O)c2)oc2cc(O)cc(O)c12
REMARK SMILES IDX 5 1 3 2 2 3 1 4 22 5 20 6 19 7 17 8 16 9 15 10 14 11 6 12
REMARK SMILES IDX 7 13 8 14 9 15 13 16 11 17 10 18 12 20 4 22 21 24 18 26
REMARK H PARENT 10 19 12 21 4 23 21 25 18 27
REMARK Flexibility Score: inf
ROOT
ATOM      1  C   UNL     1       6.224  35.522  26.147  1.00  0.00     0.180 A 
ATOM      2  C   UNL     1       4.963  34.907  26.066  1.00  0.00     0.208 A 
ATOM      3  C   UNL     1       4.721  33.746  26.817  1.00  0.00     0.238 A 
ATOM      4  O   UNL     1       3.609  33.170  26.698  1.00  0.00    -0.285 OA
ATOM      5  C   UNL     1       5.739  33.221  27.651  1.00  0.00     0.111 A 
ATOM      6  C   UNL     1       5.591  32.074  28.485  1.00  0.00     0.134 A 
ATOM      7  C   UNL     1       6.704  31.569  29.169  1.00  0.00     0.093 A 
ATOM      8  C   UNL     1       7.942  32.207  29.100  1.00  0.00     0.123 A 
ATOM      9  C   UNL     1       8.083  33.365  28.335  1.00  0.00     0.094 A 
ATOM     10  C   UNL     1       6.999  33.872  27.612  1.00  0.00     0.146 A 
ATOM     11  O   UNL     1       7.178  34.971  26.887  1.00  0.00    -0.452 OA
ENDROOT
BRANCH   1  12
ATOM     12  C   UNL     1       6.545  36.763  25.404  1.00  0.00     0.025 A 
ATOM     13  C   UNL     1       6.719  36.755  24.009  1.00  0.00     0.016 A 
ATOM     14  C   UNL     1       6.998  37.943  23.326  1.00  0.00     0.051 A 
ATOM     15  C   UNL     1       7.092  39.153  24.025  1.00  0.00     0.157 A 
ATOM     16  C   UNL     1       6.619  37.983  26.097  1.00  0.00     0.062 A 
ATOM     17  C   UNL     1       6.899  39.174  25.412  1.00  0.00     0.158 A 
BRANCH  15  18
ATOM     18  O   UNL     1       7.370  40.340  23.348  1.00  0.00    -0.504 OA
ATOM     19  H   UNL     1       7.926  41.074  23.773  1.00  0.00     0.293 HD
ENDBRANCH  15  18
BRANCH  17  20
ATOM     20  O   UNL     1       6.986  40.381  26.103  1.00  0.00    -0.504 OA
ATOM     21  H   UNL     1       7.566  41.142  25.771  1.00  0.00     0.293 HD
ENDBRANCH  17  20
ENDBRANCH   1  12
BRANCH   2  22
ATOM     22  O   UNL     1       3.980  35.427  25.219  1.00  0.00    -0.502 OA
ATOM     23  H   UNL     1       4.099  35.481  24.215  1.00  0.00     0.293 HD
ENDBRANCH   2  22
BRANCH   6  24
ATOM     24  O   UNL     1       4.377  31.414  28.698  1.00  0.00    -0.507 OA
ATOM     25  H   UNL     1       3.783  31.053  27.967  1.00  0.00     0.293 HD
ENDBRANCH   6  24
BRANCH   8  26
ATOM     26  O   UNL     1       9.024  31.686  29.806  1.00  0.00    -0.508 OA
ATOM     27  H   UNL     1       9.491  30.837  29.509  1.00  0.00     0.293 HD
ENDBRANCH   8  26
TORSDOF 6
ENDMDL
MODEL 2
REMARK VINA RESULT:    -5.443      2.284      3.287
REMARK INTER + INTRA:          -6.791
REMARK INTER:                  -6.560
REMARK INTRA:                  -0.231
REMARK UNBOUND:                -0.234
REMARK SMILES O=c1c(O)c(-c2ccc(O)c(O)c2)oc2cc(O)cc(O)c12
REMARK SMILES IDX 5 1 3 2 2 3 1 4 22 5 20 6 19 7 17 8 16 9 15 10 14 11 6 12
REMARK SMILES IDX 7 13 8 14 9 15 13 16 11 17 10 18 12 20 4 22 21 24 18 26
REMARK H PARENT 10 19 12 21 4 23 21 25 18 27
REMARK Flexibility Score: inf
ROOT
ATOM      1  C   UNL     1       6.889  36.699  25.581  1.00  0.00     0.180 A 
ATOM      2  C   UNL     1       7.397  36.159  24.387  1.00  0.00     0.208 A 
ATOM      3  C   UNL     1       7.951  34.869  24.403  1.00  0.00     0.238 A 
ATOM      4  O   UNL     1       8.453  34.412  23.343  1.00  0.00    -0.285 OA
ATOM      5  C   UNL     1       7.977  34.129  25.611  1.00  0.00     0.111 A 
ATOM      6  C   UNL     1       8.478  32.798  25.734  1.00  0.00     0.134 A 
ATOM      7  C   UNL     1       8.574  32.212  27.003  1.00  0.00     0.093 A 
ATOM      8  C   UNL     1       8.128  32.882  28.141  1.00  0.00     0.123 A 
ATOM      9  C   UNL     1       7.580  34.160  28.024  1.00  0.00     0.094 A 
ATOM     10  C   UNL     1       7.505  34.785  26.777  1.00  0.00     0.146 A 
ATOM     11  O   UNL     1       6.987  36.006  26.709  1.00  0.00    -0.452 OA
ENDROOT
BRANCH   1  12
ATOM     12  C   UNL     1       6.267  38.042  25.637  1.00  0.00     0.025 A 
ATOM     13  C   UNL     1       7.040  39.211  25.516  1.00  0.00     0.016 A 
ATOM     14  C   UNL     1       6.428  40.467  25.546  1.00  0.00     0.051 A 
ATOM     15  C   UNL     1       5.038  40.572  25.684  1.00  0.00     0.157 A 
ATOM     16  C   UNL     1       4.872  38.153  25.753  1.00  0.00     0.062 A 
ATOM     17  C   UNL     1       4.258  39.413  25.785  1.00  0.00     0.158 A 
BRANCH  15  18
ATOM     18  O   UNL     1       4.424  41.824  25.717  1.00  0.00    -0.504 OA
ATOM     19  H   UNL     1       4.203  42.282  26.594  1.00  0.00     0.293 HD
ENDBRANCH  15  18
BRANCH  17  20
ATOM     20  O   UNL     1       2.875  39.521  25.914  1.00  0.00    -0.504 OA
ATOM     21  H   UNL     1       2.415  40.423  25.954  1.00  0.00     0.293 HD
ENDBRANCH  17  20
ENDBRANCH   1  12
BRANCH   2  22
ATOM     22  O   UNL     1       7.382  36.914  23.211  1.00  0.00    -0.502 OA
ATOM     23  H   UNL     1       6.952  36.583  22.356  1.00  0.00     0.293 HD
ENDBRANCH   2  22
BRANCH   6  24
ATOM     24  O   UNL     1       8.866  32.006  24.651  1.00  0.00    -0.507 OA
ATOM     25  H   UNL     1       9.582  32.253  23.984  1.00  0.00     0.293 HD
ENDBRANCH   6  24
BRANCH   8  26
ATOM     26  O   UNL     1       8.224  32.262  29.385  1.00  0.00    -0.508 OA
ATOM     27  H   UNL     1       7.528  31.596  29.701  1.00  0.00     0.293 HD
ENDBRANCH   8  26
TORSDOF 6
ENDMDL
MODEL 3
REMARK VINA RESULT:    -5.221      2.224      3.521
REMARK INTER + INTRA:          -6.522
REMARK INTER:                  -6.339
REMARK INTRA:                  -0.183
REMARK UNBOUND:                -0.234
REMARK SMILES O=c1c(O)c(-c2ccc(O)c(O)c2)oc2cc(O)cc(O)c12
REMARK SMILES IDX 5 1 3 2 2 3 1 4 22 5 20 6 19 7 17 8 16 9 15 10 14 11 6 12
REMARK SMILES IDX 7 13 8 14 9 15 13 16 11 17 10 18 12 20 4 22 21 24 18 26
REMARK H PARENT 10 19 12 21 4 23 21 25 18 27
REMARK Flexibility Score: inf
ROOT
ATOM      1  C   UNL     1       5.922  36.823  26.198  1.00  0.00     0.180 A 
ATOM      2  C   UNL     1       7.315  36.642  26.150  1.00  0.00     0.208 A 
ATOM      3  C   UNL     1       7.861  35.432  26.608  1.00  0.00     0.238 A 
ATOM      4  O   UNL     1       9.112  35.297  26.613  1.00  0.00    -0.285 OA
ATOM      5  C   UNL     1       7.006  34.413  27.094  1.00  0.00     0.111 A 
ATOM      6  C   UNL     1       7.447  33.133  27.544  1.00  0.00     0.134 A 
ATOM      7  C   UNL     1       6.527  32.251  28.125  1.00  0.00     0.093 A 
ATOM      8  C   UNL     1       5.174  32.575  28.211  1.00  0.00     0.123 A 
ATOM      9  C   UNL     1       4.721  33.800  27.719  1.00  0.00     0.094 A 
ATOM     10  C   UNL     1       5.622  34.716  27.167  1.00  0.00     0.146 A 
ATOM     11  O   UNL     1       5.153  35.875  26.719  1.00  0.00    -0.452 OA
ENDROOT
BRANCH   1  12
ATOM     12  C   UNL     1       5.271  38.062  25.711  1.00  0.00     0.025 A 
ATOM     13  C   UNL     1       5.464  39.294  26.361  1.00  0.00     0.016 A 
ATOM     14  C   UNL     1       4.860  40.454  25.869  1.00  0.00     0.051 A 
ATOM     15  C   UNL     1       4.068  40.401  24.714  1.00  0.00     0.157 A 
ATOM     16  C   UNL     1       4.494  38.020  24.542  1.00  0.00     0.062 A 
ATOM     17  C   UNL     1       3.887  39.183  24.048  1.00  0.00     0.158 A 
BRANCH  15  18
ATOM     18  O   UNL     1       3.462  41.557  24.221  1.00  0.00    -0.504 OA
ATOM     19  H   UNL     1       3.997  42.271  23.741  1.00  0.00     0.293 HD
ENDBRANCH  15  18
BRANCH  17  20
ATOM     20  O   UNL     1       3.104  39.136  22.896  1.00  0.00    -0.504 OA
ATOM     21  H   UNL     1       2.473  39.890  22.653  1.00  0.00     0.293 HD
ENDBRANCH  17  20
ENDBRANCH   1  12
BRANCH   2  22
ATOM     22  O   UNL     1       8.143  37.669  25.689  1.00  0.00    -0.502 OA
ATOM     23  H   UNL     1       8.952  37.990  26.205  1.00  0.00     0.293 HD
ENDBRANCH   2  22
BRANCH   6  24
ATOM     24  O   UNL     1       8.760  32.671  27.422  1.00  0.00    -0.507 OA
ATOM     25  H   UNL     1       9.376  32.477  28.197  1.00  0.00     0.293 HD
ENDBRANCH   6  24
BRANCH   8  26
ATOM     26  O   UNL     1       4.284  31.667  28.781  1.00  0.00    -0.508 OA
ATOM     27  H   UNL     1       4.539  31.110  29.588  1.00  0.00     0.293 HD
ENDBRANCH   8  26
TORSDOF 6
ENDMDL
MODEL 4
REMARK VINA RESULT:    -5.023      1.696      7.253
REMARK INTER + INTRA:          -6.285
REMARK INTER:                  -6.021
REMARK INTRA:                  -0.263
REMARK UNBOUND:                -0.234
REMARK SMILES O=c1c(O)c(-c2ccc(O)c(O)c2)oc2cc(O)cc(O)c12
REMARK SMILES IDX 5 1 3 2 2 3 1 4 22 5 20 6 19 7 17 8 16 9 15 10 14 11 6 12
REMARK SMILES IDX 7 13 8 14 9 15 13 16 11 17 10 18 12 20 4 22 21 24 18 26
REMARK H PARENT 10 19 12 21 4 23 21 25 18 27
REMARK Flexibility Score: inf
ROOT
ATOM      1  C   UNL     1       6.847  36.139  26.004  1.00  0.00     0.180 A 
ATOM      2  C   UNL     1       7.641  36.242  24.849  1.00  0.00     0.208 A 
ATOM      3  C   UNL     1       7.636  37.445  24.125  1.00  0.00     0.238 A 
ATOM      4  O   UNL     1       8.307  37.513  23.062  1.00  0.00    -0.285 OA
ATOM      5  C   UNL     1       6.849  38.534  24.572  1.00  0.00     0.111 A 
ATOM      6  C   UNL     1       6.800  39.812  23.939  1.00  0.00     0.134 A 
ATOM      7  C   UNL     1       5.888  40.773  24.393  1.00  0.00     0.093 A 
ATOM      8  C   UNL     1       5.072  40.526  25.496  1.00  0.00     0.123 A 
ATOM      9  C   UNL     1       5.155  39.302  26.161  1.00  0.00     0.094 A 
ATOM     10  C   UNL     1       6.030  38.310  25.708  1.00  0.00     0.146 A 
ATOM     11  O   UNL     1       6.071  37.154  26.362  1.00  0.00    -0.452 OA
ENDROOT
BRANCH   1  12
ATOM     12  C   UNL     1       6.819  34.912  26.834  1.00  0.00     0.025 A 
ATOM     13  C   UNL     1       7.903  34.562  27.658  1.00  0.00     0.016 A 
ATOM     14  C   UNL     1       7.845  33.412  28.452  1.00  0.00     0.051 A 
ATOM     15  C   UNL     1       6.699  32.606  28.442  1.00  0.00     0.157 A 
ATOM     16  C   UNL     1       5.665  34.111  26.845  1.00  0.00     0.062 A 
ATOM     17  C   UNL     1       5.607  32.957  27.639  1.00  0.00     0.158 A 
BRANCH  15  18
ATOM     18  O   UNL     1       6.638  31.457  29.230  1.00  0.00    -0.504 OA
ATOM     19  H   UNL     1       6.482  30.543  28.822  1.00  0.00     0.293 HD
ENDBRANCH  15  18
BRANCH  17  20
ATOM     20  O   UNL     1       4.466  32.157  27.638  1.00  0.00    -0.504 OA
ATOM     21  H   UNL     1       4.229  31.573  26.845  1.00  0.00     0.293 HD
ENDBRANCH  17  20
ENDBRANCH   1  12
BRANCH   2  22
ATOM     22  O   UNL     1       8.393  35.148  24.412  1.00  0.00    -0.502 OA
ATOM     23  H   UNL     1       9.151  34.756  24.956  1.00  0.00     0.293 HD
ENDBRANCH   2  22
BRANCH   6  24
ATOM     24  O   UNL     1       7.636  40.195  22.887  1.00  0.00    -0.507 OA
ATOM     25  H   UNL     1       8.139  41.069  22.841  1.00  0.00     0.293 HD
ENDBRANCH   6  24
BRANCH   8  26
ATOM     26  O   UNL     1       4.187  41.511  25.931  1.00  0.00    -0.508 OA
ATOM     27  H   UNL     1       4.405  42.496  25.840  1.00  0.00     0.293 HD
ENDBRANCH   8  26
TORSDOF 6
ENDMDL
MODEL 5
REMARK VINA RESULT:    -4.991      1.917      3.196
REMARK INTER + INTRA:          -6.246
REMARK INTER:                  -5.915
REMARK INTRA:                  -0.331
REMARK UNBOUND:                -0.234
REMARK SMILES O=c1c(O)c(-c2ccc(O)c(O)c2)oc2cc(O)cc(O)c12
REMARK SMILES IDX 5 1 3 2 2 3 1 4 22 5 20 6 19 7 17 8 16 9 15 10 14 11 6 12
REMARK SMILES IDX 7 13 8 14 9 15 13 16 11 17 10 18 12 20 4 22 21 24 18 26
REMARK H PARENT 10 19 12 21 4 23 21 25 18 27
REMARK Flexibility Score: inf
ROOT
ATOM      1  C   UNL     1       6.138  36.784  25.723  1.00  0.00     0.180 A 
ATOM      2  C   UNL     1       7.518  36.569  25.883  1.00  0.00     0.208 A 
ATOM      3  C   UNL     1       7.955  35.396  26.518  1.00  0.00     0.238 A 
ATOM      4  O   UNL     1       9.189  35.235  26.708  1.00  0.00    -0.285 OA
ATOM      5  C   UNL     1       7.009  34.445  26.972  1.00  0.00     0.111 A 
ATOM      6  C   UNL     1       7.341  33.204  27.592  1.00  0.00     0.134 A 
ATOM      7  C   UNL     1       6.321  32.401  28.118  1.00  0.00     0.093 A 
ATOM      8  C   UNL     1       4.981  32.761  27.988  1.00  0.00     0.123 A 
ATOM      9  C   UNL     1       4.641  33.944  27.330  1.00  0.00     0.094 A 
ATOM     10  C   UNL     1       5.638  34.784  26.827  1.00  0.00     0.146 A 
ATOM     11  O   UNL     1       5.274  35.906  26.216  1.00  0.00    -0.452 OA
ENDROOT
BRANCH   1  12
ATOM     12  C   UNL     1       5.602  37.985  25.042  1.00  0.00     0.025 A 
ATOM     13  C   UNL     1       5.448  38.025  23.644  1.00  0.00     0.016 A 
ATOM     14  C   UNL     1       4.916  39.160  23.025  1.00  0.00     0.051 A 
ATOM     15  C   UNL     1       4.520  40.263  23.793  1.00  0.00     0.157 A 
ATOM     16  C   UNL     1       5.182  39.085  25.808  1.00  0.00     0.062 A 
ATOM     17  C   UNL     1       4.650  40.224  25.187  1.00  0.00     0.158 A 
BRANCH  15  18
ATOM     18  O   UNL     1       3.991  41.397  23.179  1.00  0.00    -0.504 OA
ATOM     19  H   UNL     1       4.570  42.201  22.963  1.00  0.00     0.293 HD
ENDBRANCH  15  18
BRANCH  17  20
ATOM     20  O   UNL     1       4.248  41.320  25.948  1.00  0.00    -0.504 OA
ATOM     21  H   UNL     1       3.794  42.121  25.526  1.00  0.00     0.293 HD
ENDBRANCH  17  20
ENDBRANCH   1  12
BRANCH   2  22
ATOM     22  O   UNL     1       8.435  37.531  25.449  1.00  0.00    -0.502 OA
ATOM     23  H   UNL     1       9.075  37.996  26.080  1.00  0.00     0.293 HD
ENDBRANCH   2  22
BRANCH   6  24
ATOM     24  O   UNL     1       8.642  32.705  27.693  1.00  0.00    -0.507 OA
ATOM     25  H   UNL     1       9.478  33.270  27.675  1.00  0.00     0.293 HD
ENDBRANCH   6  24
BRANCH   8  26
ATOM     26  O   UNL     1       3.992  31.930  28.510  1.00  0.00    -0.508 OA
ATOM     27  H   UNL     1       3.698  31.998  29.478  1.00  0.00     0.293 HD
ENDBRANCH   8  26
TORSDOF 6
ENDMDL
MODEL 6
REMARK VINA RESULT:    -4.681      2.019      2.467
REMARK INTER + INTRA:          -5.872
REMARK INTER:                  -5.629
REMARK INTRA:                  -0.244
REMARK UNBOUND:                -0.234
REMARK SMILES O=c1c(O)c(-c2ccc(O)c(O)c2)oc2cc(O)cc(O)c12
REMARK SMILES IDX 5 1 3 2 2 3 1 4 22 5 20 6 19 7 17 8 16 9 15 10 14 11 6 12
REMARK SMILES IDX 7 13 8 14 9 15 13 16 11 17 10 18 12 20 4 22 21 24 18 26
REMARK H PARENT 10 19 12 21 4 23 21 25 18 27
REMARK Flexibility Score: inf
ROOT
ATOM      1  C   UNL     1       5.612  36.833  26.223  1.00  0.00     0.180 A 
ATOM      2  C   UNL     1       4.566  36.225  26.939  1.00  0.00     0.208 A 
ATOM      3  C   UNL     1       4.750  34.928  27.444  1.00  0.00     0.238 A 
ATOM      4  O   UNL     1       3.791  34.368  28.038  1.00  0.00    -0.285 OA
ATOM      5  C   UNL     1       5.982  34.260  27.240  1.00  0.00     0.111 A 
ATOM      6  C   UNL     1       6.292  32.961  27.742  1.00  0.00     0.134 A 
ATOM      7  C   UNL     1       7.494  32.346  27.369  1.00  0.00     0.093 A 
ATOM      8  C   UNL     1       8.423  33.007  26.568  1.00  0.00     0.123 A 
ATOM      9  C   UNL     1       8.157  34.302  26.121  1.00  0.00     0.094 A 
ATOM     10  C   UNL     1       6.951  34.928  26.447  1.00  0.00     0.146 A 
ATOM     11  O   UNL     1       6.731  36.157  25.993  1.00  0.00    -0.452 OA
ENDROOT
BRANCH   1  12
ATOM     12  C   UNL     1       5.502  38.207  25.682  1.00  0.00     0.025 A 
ATOM     13  C   UNL     1       6.217  39.276  26.250  1.00  0.00     0.016 A 
ATOM     14  C   UNL     1       6.116  40.561  25.707  1.00  0.00     0.051 A 
ATOM     15  C   UNL     1       5.312  40.790  24.583  1.00  0.00     0.157 A 
ATOM     16  C   UNL     1       4.714  38.439  24.542  1.00  0.00     0.062 A 
ATOM     17  C   UNL     1       4.612  39.728  23.998  1.00  0.00     0.158 A 
BRANCH  15  18
ATOM     18  O   UNL     1       5.208  42.070  24.039  1.00  0.00    -0.504 OA
ATOM     19  H   UNL     1       4.704  42.808  24.516  1.00  0.00     0.293 HD
ENDBRANCH  15  18
BRANCH  17  20
ATOM     20  O   UNL     1       3.819  39.958  22.875  1.00  0.00    -0.504 OA
ATOM     21  H   UNL     1       4.096  39.639  21.955  1.00  0.00     0.293 HD
ENDBRANCH  17  20
ENDBRANCH   1  12
BRANCH   2  22
ATOM     22  O   UNL     1       3.350  36.892  27.110  1.00  0.00    -0.502 OA
ATOM     23  H   UNL     1       2.824  37.272  26.333  1.00  0.00     0.293 HD
ENDBRANCH   2  22
BRANCH   6  24
ATOM     24  O   UNL     1       5.475  32.249  28.624  1.00  0.00    -0.507 OA
ATOM     25  H   UNL     1       4.718  32.649  29.157  1.00  0.00     0.293 HD
ENDBRANCH   6  24
BRANCH   8  26
ATOM     26  O   UNL     1       9.616  32.371  26.229  1.00  0.00    -0.508 OA
ATOM     27  H   UNL     1       9.917  31.524  26.699  1.00  0.00     0.293 HD
ENDBRANCH   8  26
TORSDOF 6
ENDMDL
MODEL 7
REMARK VINA RESULT:    -4.558      1.679      6.857
REMARK INTER + INTRA:          -5.724
REMARK INTER:                  -5.832
REMARK INTRA:                   0.108
REMARK UNBOUND:                -0.234
REMARK SMILES O=c1c(O)c(-c2ccc(O)c(O)c2)oc2cc(O)cc(O)c12
REMARK SMILES IDX 5 1 3 2 2 3 1 4 22 5 20 6 19 7 17 8 16 9 15 10 14 11 6 12
REMARK SMILES IDX 7 13 8 14 9 15 13 16 11 17 10 18 12 20 4 22 21 24 18 26
REMARK H PARENT 10 19 12 21 4 23 21 25 18 27
REMARK Flexibility Score: inf
ROOT
ATOM      1  C   UNL     1       5.962  35.817  26.838  1.00  0.00     0.180 A 
ATOM      2  C   UNL     1       4.690  36.374  27.058  1.00  0.00     0.208 A 
ATOM      3  C   UNL     1       4.312  37.516  26.336  1.00  0.00     0.238 A 
ATOM      4  O   UNL     1       3.194  38.041  26.577  1.00  0.00    -0.285 OA
ATOM      5  C   UNL     1       5.204  38.080  25.391  1.00  0.00     0.111 A 
ATOM      6  C   UNL     1       4.910  39.212  24.574  1.00  0.00     0.134 A 
ATOM      7  C   UNL     1       5.914  39.762  23.768  1.00  0.00     0.093 A 
ATOM      8  C   UNL     1       7.180  39.183  23.700  1.00  0.00     0.123 A 
ATOM      9  C   UNL     1       7.461  38.039  24.448  1.00  0.00     0.094 A 
ATOM     10  C   UNL     1       6.490  37.488  25.289  1.00  0.00     0.146 A 
ATOM     11  O   UNL     1       6.800  36.406  25.993  1.00  0.00    -0.452 OA
ENDROOT
BRANCH   1  12
ATOM     12  C   UNL     1       6.422  34.599  27.543  1.00  0.00     0.025 A 
ATOM     13  C   UNL     1       7.700  34.530  28.126  1.00  0.00     0.016 A 
ATOM     14  C   UNL     1       8.104  33.379  28.808  1.00  0.00     0.051 A 
ATOM     15  C   UNL     1       7.232  32.289  28.930  1.00  0.00     0.157 A 
ATOM     16  C   UNL     1       5.545  33.511  27.687  1.00  0.00     0.062 A 
ATOM     17  C   UNL     1       5.950  32.356  28.371  1.00  0.00     0.158 A 
BRANCH  15  18
ATOM     18  O   UNL     1       7.632  31.138  29.609  1.00  0.00    -0.504 OA
ATOM     19  H   UNL     1       6.984  30.610  30.183  1.00  0.00     0.293 HD
ENDBRANCH  15  18
BRANCH  17  20
ATOM     20  O   UNL     1       5.083  31.272  28.500  1.00  0.00    -0.504 OA
ATOM     21  H   UNL     1       4.622  30.863  27.697  1.00  0.00     0.293 HD
ENDBRANCH  17  20
ENDBRANCH   1  12
BRANCH   2  22
ATOM     22  O   UNL     1       3.834  35.816  28.012  1.00  0.00    -0.502 OA
ATOM     23  H   UNL     1       3.238  35.023  27.810  1.00  0.00     0.293 HD
ENDBRANCH   2  22
BRANCH   6  24
ATOM     24  O   UNL     1       3.650  39.814  24.497  1.00  0.00    -0.507 OA
ATOM     25  H   UNL     1       3.293  40.299  23.688  1.00  0.00     0.293 HD
ENDBRANCH   6  24
BRANCH   8  26
ATOM     26  O   UNL     1       8.151  39.747  22.875  1.00  0.00    -0.508 OA
ATOM     27  H   UNL     1       8.046  39.762  21.867  1.00  0.00     0.293 HD
ENDBRANCH   8  26
TORSDOF 6
ENDMDL
MODEL 8
REMARK VINA RESULT:    -4.526      2.839      3.488
REMARK INTER + INTRA:          -5.686
REMARK INTER:                  -5.532
REMARK INTRA:                  -0.154
REMARK UNBOUND:                -0.234
REMARK SMILES O=c1c(O)c(-c2ccc(O)c(O)c2)oc2cc(O)cc(O)c12
REMARK SMILES IDX 5 1 3 2 2 3 1 4 22 5 20 6 19 7 17 8 16 9 15 10 14 11 6 12
REMARK SMILES IDX 7 13 8 14 9 15 13 16 11 17 10 18 12 20 4 22 21 24 18 26
REMARK H PARENT 10 19 12 21 4 23 21 25 18 27
REMARK Flexibility Score: inf
ROOT
ATOM      1  C   UNL     1       6.504  35.510  25.658  1.00  0.00     0.180 A 
ATOM      2  C   UNL     1       5.896  35.985  26.833  1.00  0.00     0.208 A 
ATOM      3  C   UNL     1       4.872  35.228  27.424  1.00  0.00     0.238 A 
ATOM      4  O   UNL     1       4.295  35.684  28.446  1.00  0.00    -0.285 OA
ATOM      5  C   UNL     1       4.479  33.998  26.842  1.00  0.00     0.111 A 
ATOM      6  C   UNL     1       3.481  33.130  27.378  1.00  0.00     0.134 A 
ATOM      7  C   UNL     1       3.082  32.003  26.649  1.00  0.00     0.093 A 
ATOM      8  C   UNL     1       3.689  31.678  25.437  1.00  0.00     0.123 A 
ATOM      9  C   UNL     1       4.708  32.486  24.932  1.00  0.00     0.094 A 
ATOM     10  C   UNL     1       5.103  33.638  25.620  1.00  0.00     0.146 A 
ATOM     11  O   UNL     1       6.069  34.387  25.101  1.00  0.00    -0.452 OA
ENDROOT
BRANCH   1  12
ATOM     12  C   UNL     1       7.606  36.240  24.991  1.00  0.00     0.025 A 
ATOM     13  C   UNL     1       7.440  36.809  23.716  1.00  0.00     0.016 A 
ATOM     14  C   UNL     1       8.487  37.515  23.116  1.00  0.00     0.051 A 
ATOM     15  C   UNL     1       9.707  37.674  23.787  1.00  0.00     0.157 A 
ATOM     16  C   UNL     1       8.824  36.422  25.668  1.00  0.00     0.062 A 
ATOM     17  C   UNL     1       9.874  37.129  25.066  1.00  0.00     0.158 A 
BRANCH  15  18
ATOM     18  O   UNL     1      10.754  38.376  23.192  1.00  0.00    -0.504 OA
ATOM     19  H   UNL     1      11.686  37.984  23.130  1.00  0.00     0.293 HD
ENDBRANCH  15  18
BRANCH  17  20
ATOM     20  O   UNL     1      11.086  37.296  25.734  1.00  0.00    -0.504 OA
ATOM     21  H   UNL     1      11.277  36.827  26.611  1.00  0.00     0.293 HD
ENDBRANCH  17  20
ENDBRANCH   1  12
BRANCH   2  22
ATOM     22  O   UNL     1       6.283  37.212  27.379  1.00  0.00    -0.502 OA
ATOM     23  H   UNL     1       5.623  37.957  27.566  1.00  0.00     0.293 HD
ENDBRANCH   2  22
BRANCH   6  24
ATOM     24  O   UNL     1       2.875  33.312  28.624  1.00  0.00    -0.507 OA
ATOM     25  H   UNL     1       1.958  32.974  28.872  1.00  0.00     0.293 HD
ENDBRANCH   6  24
BRANCH   8  26
ATOM     26  O   UNL     1       3.278  30.540  24.746  1.00  0.00    -0.508 OA
ATOM     27  H   UNL     1       2.304  30.386  24.510  1.00  0.00     0.293 HD
ENDBRANCH   8  26
TORSDOF 6
ENDMDL
MODEL 9
REMARK VINA RESULT:    -4.424      2.410      6.984
REMARK INTER + INTRA:          -5.563
REMARK INTER:                  -5.363
REMARK INTRA:                  -0.200
REMARK UNBOUND:                -0.234
REMARK SMILES O=c1c(O)c(-c2ccc(O)c(O)c2)oc2cc(O)cc(O)c12
REMARK SMILES IDX 5 1 3 2 2 3 1 4 22 5 20 6 19 7 17 8 16 9 15 10 14 11 6 12
REMARK SMILES IDX 7 13 8 14 9 15 13 16 11 17 10 18 12 20 4 22 21 24 18 26
REMARK H PARENT 10 19 12 21 4 23 21 25 18 27
REMARK Flexibility Score: inf
ROOT
ATOM      1  C   UNL     1       6.155  36.686  25.799  1.00  0.00     0.180 A 
ATOM      2  C   UNL     1       4.919  36.937  26.420  1.00  0.00     0.208 A 
ATOM      3  C   UNL     1       4.264  38.153  26.168  1.00  0.00     0.238 A 
ATOM      4  O   UNL     1       3.185  38.395  26.769  1.00  0.00    -0.285 OA
ATOM      5  C   UNL     1       4.845  39.096  25.285  1.00  0.00     0.111 A 
ATOM      6  C   UNL     1       4.250  40.342  24.926  1.00  0.00     0.134 A 
ATOM      7  C   UNL     1       4.973  41.254  24.147  1.00  0.00     0.093 A 
ATOM      8  C   UNL     1       6.241  40.938  23.661  1.00  0.00     0.123 A 
ATOM      9  C   UNL     1       6.808  39.698  23.956  1.00  0.00     0.094 A 
ATOM     10  C   UNL     1       6.125  38.782  24.761  1.00  0.00     0.146 A 
ATOM     11  O   UNL     1       6.704  37.617  25.028  1.00  0.00    -0.452 OA
ENDROOT
BRANCH   1  12
ATOM     12  C   UNL     1       6.893  35.417  25.997  1.00  0.00     0.025 A 
ATOM     13  C   UNL     1       7.470  35.094  27.238  1.00  0.00     0.016 A 
ATOM     14  C   UNL     1       8.141  33.879  27.409  1.00  0.00     0.051 A 
ATOM     15  C   UNL     1       8.232  32.968  26.349  1.00  0.00     0.157 A 
ATOM     16  C   UNL     1       6.968  34.490  24.945  1.00  0.00     0.062 A 
ATOM     17  C   UNL     1       7.642  33.272  25.116  1.00  0.00     0.158 A 
BRANCH  15  18
ATOM     18  O   UNL     1       8.901  31.756  26.514  1.00  0.00    -0.504 OA
ATOM     19  H   UNL     1       8.600  30.915  26.036  1.00  0.00     0.293 HD
ENDBRANCH  15  18
BRANCH  17  20
ATOM     20  O   UNL     1       7.727  32.360  24.065  1.00  0.00    -0.504 OA
ATOM     21  H   UNL     1       8.393  32.480  23.312  1.00  0.00     0.293 HD
ENDBRANCH  17  20
ENDBRANCH   1  12
BRANCH   2  22
ATOM     22  O   UNL     1       4.374  36.003  27.306  1.00  0.00    -0.502 OA
ATOM     23  H   UNL     1       3.380  35.819  27.359  1.00  0.00     0.293 HD
ENDBRANCH   2  22
BRANCH   6  24
ATOM     24  O   UNL     1       2.952  40.719  25.281  1.00  0.00    -0.507 OA
ATOM     25  H   UNL     1       2.693  41.123  26.169  1.00  0.00     0.293 HD
ENDBRANCH   6  24
BRANCH   8  26
ATOM     26  O   UNL     1       6.926  41.862  22.875  1.00  0.00    -0.508 OA
ATOM     27  H   UNL     1       7.138  42.793  23.215  1.00  0.00     0.293 HD
ENDBRANCH   8  26
TORSDOF 6
ENDMDL
