MODEL 1
REMARK VINA RESULT:    -4.819      0.000      0.000
REMARK INTER + INTRA:         -16.581
REMARK INTER:                 -12.144
REMARK INTRA:                  -4.437
REMARK UNBOUND:                -4.437
REMARK SMILES CCCCCCCCCCCCCCCCCCCCCCCCCCCC(=O)[O-]
REMARK SMILES IDX 15 1 16 2 17 3 18 4 19 5 20 6 21 7 22 8 23 9 24 10 25 11
REMARK SMILES IDX 26 12 27 13 28 14 29 15 30 16 14 17 13 18 12 19 11 20 10 21
REMARK SMILES IDX 9 22 8 23 7 24 6 25 5 26 4 27 3 28 2 29 1 30
REMARK H PARENT
REMARK Flexibility Score: inf
ROOT
ATOM      1  C   UNL     1      32.417  55.756  33.749  1.00  0.00     0.000 C 
ENDROOT
BRANCH   1   2
ATOM      2  C   UNL     1      33.673  56.050  34.586  1.00  0.00     0.000 C 
BRANCH   2   3
ATOM      3  C   UNL     1      34.536  54.800  34.823  1.00  0.00     0.000 C 
BRANCH   3   4
ATOM      4  C   UNL     1      35.096  54.204  33.521  1.00  0.00     0.000 C 
BRANCH   4   5
ATOM      5  C   UNL     1      34.645  52.750  33.282  1.00  0.00     0.000 C 
BRANCH   5   6
ATOM      6  C   UNL     1      33.706  52.177  34.359  1.00  0.00     0.000 C 
BRANCH   6   7
ATOM      7  C   UNL     1      32.508  51.416  33.773  1.00  0.00     0.000 C 
BRANCH   7   8
ATOM      8  C   UNL     1      31.593  52.365  32.992  1.00  0.00     0.000 C 
BRANCH   8   9
ATOM      9  C   UNL     1      30.268  51.687  32.622  1.00  0.00     0.000 C 
BRANCH   9  10
ATOM     10  C   UNL     1      30.355  51.042  31.233  1.00  0.00     0.000 C 
BRANCH  10  11
ATOM     11  C   UNL     1      29.352  49.891  31.089  1.00  0.00     0.000 C 
BRANCH  11  12
ATOM     12  C   UNL     1      30.045  48.621  30.585  1.00  0.00     0.006 C 
BRANCH  12  13
ATOM     13  C   UNL     1      31.494  48.904  30.175  1.00  0.00     0.053 C 
BRANCH  13  14
ATOM     14  C   UNL     1      32.321  47.662  30.273  1.00  0.00     0.041 C 
ATOM     15  O   UNL     1      32.796  47.302  31.384  1.00  0.00    -0.550 OA
ATOM     16  O   UNL     1      32.601  46.920  29.132  1.00  0.00    -0.550 OA
ENDBRANCH  13  14
ENDBRANCH  12  13
ENDBRANCH  11  12
ENDBRANCH  10  11
ENDBRANCH   9  10
ENDBRANCH   8   9
ENDBRANCH   7   8
ENDBRANCH   6   7
ENDBRANCH   5   6
ENDBRANCH   4   5
ENDBRANCH   3   4
ENDBRANCH   2   3
ENDBRANCH   1   2
BRANCH   1  17
ATOM     17  C   UNL     1      32.328  56.619  32.473  1.00  0.00     0.000 C 
BRANCH  17  18
ATOM     18  C   UNL     1      32.660  55.863  31.171  1.00  0.00     0.000 C 
BRANCH  18  19
ATOM     19  C   UNL     1      34.138  55.894  30.741  1.00  0.00     0.000 C 
BRANCH  19  20
ATOM     20  C   UNL     1      34.856  57.240  30.948  1.00  0.00     0.000 C 
BRANCH  20  21
ATOM     21  C   UNL     1      35.333  57.877  29.634  1.00  0.00     0.000 C 
BRANCH  21  22
ATOM     22  C   UNL     1      36.345  56.971  28.921  1.00  0.00    -0.000 C 
BRANCH  22  23
ATOM     23  C   UNL     1      36.062  56.907  27.415  1.00  0.00    -0.000 C 
BRANCH  23  24
ATOM     24  C   UNL     1      34.605  57.276  27.112  1.00  0.00    -0.000 C 
BRANCH  24  25
ATOM     25  C   UNL     1      33.884  56.132  26.390  1.00  0.00    -0.000 C 
BRANCH  25  26
ATOM     26  C   UNL     1      32.370  56.184  26.649  1.00  0.00    -0.000 C 
BRANCH  26  27
ATOM     27  C   UNL     1      31.905  55.085  27.629  1.00  0.00    -0.000 C 
BRANCH  27  28
ATOM     28  C   UNL     1      32.936  53.958  27.832  1.00  0.00    -0.000 C 
BRANCH  28  29
ATOM     29  C   UNL     1      32.448  52.789  28.704  1.00  0.00    -0.003 C 
ATOM     30  C   UNL     1      33.477  52.358  29.750  1.00  0.00     0.004 C 
ENDBRANCH  28  29
ENDBRANCH  27  28
ENDBRANCH  26  27
ENDBRANCH  25  26
ENDBRANCH  24  25
ENDBRANCH  23  24
ENDBRANCH  22  23
ENDBRANCH  21  22
ENDBRANCH  20  21
ENDBRANCH  19  20
ENDBRANCH  18  19
ENDBRANCH  17  18
ENDBRANCH   1  17
TORSDOF 26
ENDMDL
MODEL 2
REMARK VINA RESULT:    -4.723      2.421      6.694
REMARK INTER + INTRA:         -16.338
REMARK INTER:                 -11.712
REMARK INTRA:                  -4.627
REMARK UNBOUND:                -4.437
REMARK SMILES CCCCCCCCCCCCCCCCCCCCCCCCCCCC(=O)[O-]
REMARK SMILES IDX 15 1 16 2 17 3 18 4 19 5 20 6 21 7 22 8 23 9 24 10 25 11
REMARK SMILES IDX 26 12 27 13 28 14 29 15 30 16 14 17 13 18 12 19 11 20 10 21
REMARK SMILES IDX 9 22 8 23 7 24 6 25 5 26 4 27 3 28 2 29 1 30
REMARK H PARENT
REMARK Flexibility Score: inf
ROOT
ATOM      1  C   UNL     1      34.836  55.605  35.229  1.00  0.00     0.000 C 
ENDROOT
BRANCH   1   2
ATOM      2  C   UNL     1      33.728  56.575  34.786  1.00  0.00     0.000 C 
BRANCH   2   3
ATOM      3  C   UNL     1      32.610  55.880  33.994  1.00  0.00     0.000 C 
BRANCH   3   4
ATOM      4  C   UNL     1      32.255  56.613  32.689  1.00  0.00     0.000 C 
BRANCH   4   5
ATOM      5  C   UNL     1      32.778  55.891  31.432  1.00  0.00     0.000 C 
BRANCH   5   6
ATOM      6  C   UNL     1      34.251  56.176  31.085  1.00  0.00     0.000 C 
BRANCH   6   7
ATOM      7  C   UNL     1      34.670  57.625  31.375  1.00  0.00     0.000 C 
BRANCH   7   8
ATOM      8  C   UNL     1      35.579  58.158  30.262  1.00  0.00     0.000 C 
BRANCH   8   9
ATOM      9  C   UNL     1      35.808  57.102  29.172  1.00  0.00     0.000 C 
BRANCH   9  10
ATOM     10  C   UNL     1      35.567  57.695  27.779  1.00  0.00     0.000 C 
BRANCH  10  11
ATOM     11  C   UNL     1      34.998  56.645  26.818  1.00  0.00     0.000 C 
BRANCH  11  12
ATOM     12  C   UNL     1      33.510  56.399  27.095  1.00  0.00     0.006 C 
BRANCH  12  13
ATOM     13  C   UNL     1      33.278  55.004  27.683  1.00  0.00     0.053 C 
BRANCH  13  14
ATOM     14  C   UNL     1      31.904  54.515  27.350  1.00  0.00     0.041 C 
ATOM     15  O   UNL     1      31.722  53.317  27.004  1.00  0.00    -0.550 OA
ATOM     16  O   UNL     1      30.827  55.393  27.385  1.00  0.00    -0.550 OA
ENDBRANCH  13  14
ENDBRANCH  12  13
ENDBRANCH  11  12
ENDBRANCH  10  11
ENDBRANCH   9  10
ENDBRANCH   8   9
ENDBRANCH   7   8
ENDBRANCH   6   7
ENDBRANCH   5   6
ENDBRANCH   4   5
ENDBRANCH   3   4
ENDBRANCH   2   3
ENDBRANCH   1   2
BRANCH   1  17
ATOM     17  C   UNL     1      36.121  55.730  34.384  1.00  0.00     0.000 C 
BRANCH  17  18
ATOM     18  C   UNL     1      36.373  54.544  33.434  1.00  0.00     0.000 C 
BRANCH  18  19
ATOM     19  C   UNL     1      35.596  53.253  33.755  1.00  0.00     0.000 C 
BRANCH  19  20
ATOM     20  C   UNL     1      34.700  52.725  32.619  1.00  0.00     0.000 C 
BRANCH  20  21
ATOM     21  C   UNL     1      33.276  52.386  33.084  1.00  0.00     0.000 C 
BRANCH  21  22
ATOM     22  C   UNL     1      32.277  52.505  31.926  1.00  0.00    -0.000 C 
BRANCH  22  23
ATOM     23  C   UNL     1      32.843  51.889  30.642  1.00  0.00    -0.000 C 
BRANCH  23  24
ATOM     24  C   UNL     1      31.735  51.224  29.816  1.00  0.00    -0.000 C 
BRANCH  24  25
ATOM     25  C   UNL     1      31.121  50.038  30.570  1.00  0.00    -0.000 C 
BRANCH  25  26
ATOM     26  C   UNL     1      31.740  48.710  30.105  1.00  0.00    -0.000 C 
BRANCH  26  27
ATOM     27  C   UNL     1      32.801  48.181  31.093  1.00  0.00    -0.000 C 
BRANCH  27  28
ATOM     28  C   UNL     1      32.701  48.798  32.502  1.00  0.00    -0.000 C 
BRANCH  28  29
ATOM     29  C   UNL     1      31.744  48.066  33.458  1.00  0.00    -0.003 C 
ATOM     30  C   UNL     1      30.755  49.009  34.146  1.00  0.00     0.004 C 
ENDBRANCH  28  29
ENDBRANCH  27  28
ENDBRANCH  26  27
ENDBRANCH  25  26
ENDBRANCH  24  25
ENDBRANCH  23  24
ENDBRANCH  22  23
ENDBRANCH  21  22
ENDBRANCH  20  21
ENDBRANCH  19  20
ENDBRANCH  18  19
ENDBRANCH  17  18
ENDBRANCH   1  17
TORSDOF 26
ENDMDL
MODEL 3
REMARK VINA RESULT:    -4.701      2.135      6.646
REMARK INTER + INTRA:         -16.283
REMARK INTER:                 -11.868
REMARK INTRA:                  -4.416
REMARK UNBOUND:                -4.437
REMARK SMILES CCCCCCCCCCCCCCCCCCCCCCCCCCCC(=O)[O-]
REMARK SMILES IDX 15 1 16 2 17 3 18 4 19 5 20 6 21 7 22 8 23 9 24 10 25 11
REMARK SMILES IDX 26 12 27 13 28 14 29 15 30 16 14 17 13 18 12 19 11 20 10 21
REMARK SMILES IDX 9 22 8 23 7 24 6 25 5 26 4 27 3 28 2 29 1 30
REMARK H PARENT
REMARK Flexibility Score: inf
ROOT
ATOM      1  C   UNL     1      32.196  54.065  33.641  1.00  0.00     0.000 C 
ENDROOT
BRANCH   1   2
ATOM      2  C   UNL     1      32.166  55.554  34.026  1.00  0.00     0.000 C 
BRANCH   2   3
ATOM      3  C   UNL     1      32.573  56.477  32.866  1.00  0.00     0.000 C 
BRANCH   3   4
ATOM      4  C   UNL     1      33.917  57.186  33.108  1.00  0.00     0.000 C 
BRANCH   4   5
ATOM      5  C   UNL     1      35.048  56.654  32.208  1.00  0.00     0.000 C 
BRANCH   5   6
ATOM      6  C   UNL     1      34.759  56.717  30.697  1.00  0.00     0.000 C 
BRANCH   6   7
ATOM      7  C   UNL     1      35.227  58.027  30.047  1.00  0.00     0.000 C 
BRANCH   7   8
ATOM      8  C   UNL     1      36.213  57.744  28.907  1.00  0.00     0.000 C 
BRANCH   8   9
ATOM      9  C   UNL     1      35.696  56.634  27.983  1.00  0.00     0.000 C 
BRANCH   9  10
ATOM     10  C   UNL     1      34.622  57.175  27.031  1.00  0.00     0.000 C 
BRANCH  10  11
ATOM     11  C   UNL     1      33.811  56.035  26.401  1.00  0.00     0.000 C 
BRANCH  11  12
ATOM     12  C   UNL     1      32.394  55.986  26.983  1.00  0.00     0.006 C 
BRANCH  12  13
ATOM     13  C   UNL     1      32.343  55.124  28.249  1.00  0.00     0.053 C 
BRANCH  13  14
ATOM     14  C   UNL     1      32.512  53.677  27.907  1.00  0.00     0.041 C 
ATOM     15  O   UNL     1      33.543  53.054  28.278  1.00  0.00    -0.550 OA
ATOM     16  O   UNL     1      31.549  53.025  27.146  1.00  0.00    -0.550 OA
ENDBRANCH  13  14
ENDBRANCH  12  13
ENDBRANCH  11  12
ENDBRANCH  10  11
ENDBRANCH   9  10
ENDBRANCH   8   9
ENDBRANCH   7   8
ENDBRANCH   6   7
ENDBRANCH   5   6
ENDBRANCH   4   5
ENDBRANCH   3   4
ENDBRANCH   2   3
ENDBRANCH   1   2
BRANCH   1  17
ATOM     17  C   UNL     1      32.395  53.837  32.129  1.00  0.00     0.000 C 
BRANCH  17  18
ATOM     18  C   UNL     1      33.759  53.226  31.753  1.00  0.00     0.000 C 
BRANCH  18  19
ATOM     19  C   UNL     1      34.780  53.116  32.902  1.00  0.00     0.000 C 
BRANCH  19  20
ATOM     20  C   UNL     1      35.349  51.706  33.143  1.00  0.00     0.000 C 
BRANCH  20  21
ATOM     21  C   UNL     1      34.941  51.117  34.502  1.00  0.00     0.000 C 
BRANCH  21  22
ATOM     22  C   UNL     1      33.479  50.653  34.483  1.00  0.00    -0.000 C 
BRANCH  22  23
ATOM     23  C   UNL     1      33.279  49.494  33.499  1.00  0.00    -0.000 C 
BRANCH  23  24
ATOM     24  C   UNL     1      32.089  49.761  32.569  1.00  0.00    -0.000 C 
BRANCH  24  25
ATOM     25  C   UNL     1      32.523  49.747  31.099  1.00  0.00    -0.000 C 
BRANCH  25  26
ATOM     26  C   UNL     1      31.636  50.676  30.254  1.00  0.00    -0.000 C 
BRANCH  26  27
ATOM     27  C   UNL     1      31.126  49.990  28.969  1.00  0.00    -0.000 C 
BRANCH  27  28
ATOM     28  C   UNL     1      29.681  49.463  29.078  1.00  0.00    -0.000 C 
BRANCH  28  29
ATOM     29  C   UNL     1      28.929  49.907  30.344  1.00  0.00    -0.003 C 
ATOM     30  C   UNL     1      27.916  48.868  30.827  1.00  0.00     0.004 C 
ENDBRANCH  28  29
ENDBRANCH  27  28
ENDBRANCH  26  27
ENDBRANCH  25  26
ENDBRANCH  24  25
ENDBRANCH  23  24
ENDBRANCH  22  23
ENDBRANCH  21  22
ENDBRANCH  20  21
ENDBRANCH  19  20
ENDBRANCH  18  19
ENDBRANCH  17  18
ENDBRANCH   1  17
TORSDOF 26
ENDMDL
MODEL 4
REMARK VINA RESULT:    -4.685      1.707      4.659
REMARK INTER + INTRA:         -16.243
REMARK INTER:                 -12.276
REMARK INTRA:                  -3.968
REMARK UNBOUND:                -4.437
REMARK SMILES CCCCCCCCCCCCCCCCCCCCCCCCCCCC(=O)[O-]
REMARK SMILES IDX 15 1 16 2 17 3 18 4 19 5 20 6 21 7 22 8 23 9 24 10 25 11
REMARK SMILES IDX 26 12 27 13 28 14 29 15 30 16 14 17 13 18 12 19 11 20 10 21
REMARK SMILES IDX 9 22 8 23 7 24 6 25 5 26 4 27 3 28 2 29 1 30
REMARK H PARENT
REMARK Flexibility Score: inf
ROOT
ATOM      1  C   UNL     1      31.880  55.198  27.737  1.00  0.00     0.000 C 
ENDROOT
BRANCH   1   2
ATOM      2  C   UNL     1      32.511  53.819  27.485  1.00  0.00     0.000 C 
BRANCH   2   3
ATOM      3  C   UNL     1      33.351  53.322  28.673  1.00  0.00     0.000 C 
BRANCH   3   4
ATOM      4  C   UNL     1      32.594  52.326  29.567  1.00  0.00     0.000 C 
BRANCH   4   5
ATOM      5  C   UNL     1      33.218  52.182  30.969  1.00  0.00     0.000 C 
BRANCH   5   6
ATOM      6  C   UNL     1      32.328  52.666  32.128  1.00  0.00     0.000 C 
BRANCH   6   7
ATOM      7  C   UNL     1      31.568  51.527  32.823  1.00  0.00     0.000 C 
BRANCH   7   8
ATOM      8  C   UNL     1      30.091  51.534  32.416  1.00  0.00     0.000 C 
BRANCH   8   9
ATOM      9  C   UNL     1      29.754  50.342  31.509  1.00  0.00     0.000 C 
BRANCH   9  10
ATOM     10  C   UNL     1      30.791  49.224  31.673  1.00  0.00     0.000 C 
BRANCH  10  11
ATOM     11  C   UNL     1      31.412  48.839  30.324  1.00  0.00     0.000 C 
BRANCH  11  12
ATOM     12  C   UNL     1      30.800  49.664  29.186  1.00  0.00     0.006 C 
BRANCH  12  13
ATOM     13  C   UNL     1      29.790  48.839  28.383  1.00  0.00     0.053 C 
BRANCH  13  14
ATOM     14  C   UNL     1      29.804  49.245  26.943  1.00  0.00     0.041 C 
ATOM     15  O   UNL     1      29.546  50.435  26.617  1.00  0.00    -0.550 OA
ATOM     16  O   UNL     1      30.067  48.302  25.957  1.00  0.00    -0.550 OA
ENDBRANCH  13  14
ENDBRANCH  12  13
ENDBRANCH  11  12
ENDBRANCH  10  11
ENDBRANCH   9  10
ENDBRANCH   8   9
ENDBRANCH   7   8
ENDBRANCH   6   7
ENDBRANCH   5   6
ENDBRANCH   4   5
ENDBRANCH   3   4
ENDBRANCH   2   3
ENDBRANCH   1   2
BRANCH   1  17
ATOM     17  C   UNL     1      32.184  56.214  26.617  1.00  0.00     0.000 C 
BRANCH  17  18
ATOM     18  C   UNL     1      33.573  56.051  25.971  1.00  0.00     0.000 C 
BRANCH  18  19
ATOM     19  C   UNL     1      34.517  57.262  26.102  1.00  0.00     0.000 C 
BRANCH  19  20
ATOM     20  C   UNL     1      35.714  57.063  27.050  1.00  0.00     0.000 C 
BRANCH  20  21
ATOM     21  C   UNL     1      35.301  56.585  28.450  1.00  0.00     0.000 C 
BRANCH  21  22
ATOM     22  C   UNL     1      35.582  57.664  29.504  1.00  0.00    -0.000 C 
BRANCH  22  23
ATOM     23  C   UNL     1      34.729  57.446  30.759  1.00  0.00    -0.000 C 
BRANCH  23  24
ATOM     24  C   UNL     1      34.111  56.042  30.767  1.00  0.00    -0.000 C 
BRANCH  24  25
ATOM     25  C   UNL     1      32.660  56.079  31.262  1.00  0.00    -0.000 C 
BRANCH  25  26
ATOM     26  C   UNL     1      32.552  56.837  32.595  1.00  0.00    -0.000 C 
BRANCH  26  27
ATOM     27  C   UNL     1      32.259  55.895  33.782  1.00  0.00    -0.000 C 
BRANCH  27  28
ATOM     28  C   UNL     1      33.361  55.892  34.860  1.00  0.00    -0.000 C 
BRANCH  28  29
ATOM     29  C   UNL     1      34.760  56.272  34.349  1.00  0.00    -0.003 C 
ATOM     30  C   UNL     1      35.614  55.054  33.992  1.00  0.00     0.004 C 
ENDBRANCH  28  29
ENDBRANCH  27  28
ENDBRANCH  26  27
ENDBRANCH  25  26
ENDBRANCH  24  25
ENDBRANCH  23  24
ENDBRANCH  22  23
ENDBRANCH  21  22
ENDBRANCH  20  21
ENDBRANCH  19  20
ENDBRANCH  18  19
ENDBRANCH  17  18
ENDBRANCH   1  17
TORSDOF 26
ENDMDL
MODEL 5
REMARK VINA RESULT:    -4.623      2.005      2.994
REMARK INTER + INTRA:         -16.088
REMARK INTER:                 -11.515
REMARK INTRA:                  -4.573
REMARK UNBOUND:                -4.437
REMARK SMILES CCCCCCCCCCCCCCCCCCCCCCCCCCCC(=O)[O-]
REMARK SMILES IDX 15 1 16 2 17 3 18 4 19 5 20 6 21 7 22 8 23 9 24 10 25 11
REMARK SMILES IDX 26 12 27 13 28 14 29 15 30 16 14 17 13 18 12 19 11 20 10 21
REMARK SMILES IDX 9 22 8 23 7 24 6 25 5 26 4 27 3 28 2 29 1 30
REMARK H PARENT
REMARK Flexibility Score: inf
ROOT
ATOM      1  C   UNL     1      32.298  54.411  32.839  1.00  0.00     0.000 C 
ENDROOT
BRANCH   1   2
ATOM      2  C   UNL     1      33.267  53.484  33.593  1.00  0.00     0.000 C 
BRANCH   2   3
ATOM      3  C   UNL     1      34.609  53.309  32.865  1.00  0.00     0.000 C 
BRANCH   3   4
ATOM      4  C   UNL     1      35.762  54.070  33.543  1.00  0.00     0.000 C 
BRANCH   4   5
ATOM      5  C   UNL     1      37.004  53.190  33.783  1.00  0.00     0.000 C 
BRANCH   5   6
ATOM      6  C   UNL     1      36.743  51.907  34.593  1.00  0.00     0.000 C 
BRANCH   6   7
ATOM      7  C   UNL     1      36.986  50.623  33.787  1.00  0.00     0.000 C 
BRANCH   7   8
ATOM      8  C   UNL     1      35.748  49.720  33.821  1.00  0.00     0.000 C 
BRANCH   8   9
ATOM      9  C   UNL     1      34.762  50.163  34.910  1.00  0.00     0.000 C 
BRANCH   9  10
ATOM     10  C   UNL     1      33.316  49.897  34.476  1.00  0.00     0.000 C 
BRANCH  10  11
ATOM     11  C   UNL     1      33.240  49.527  32.990  1.00  0.00     0.000 C 
BRANCH  11  12
ATOM     12  C   UNL     1      31.991  50.132  32.339  1.00  0.00     0.006 C 
BRANCH  12  13
ATOM     13  C   UNL     1      31.083  50.788  33.383  1.00  0.00     0.053 C 
BRANCH  13  14
ATOM     14  C   UNL     1      29.643  50.601  33.020  1.00  0.00     0.041 C 
ATOM     15  O   UNL     1      28.949  51.585  32.646  1.00  0.00    -0.550 OA
ATOM     16  O   UNL     1      29.056  49.347  33.132  1.00  0.00    -0.550 OA
ENDBRANCH  13  14
ENDBRANCH  12  13
ENDBRANCH  11  12
ENDBRANCH  10  11
ENDBRANCH   9  10
ENDBRANCH   8   9
ENDBRANCH   7   8
ENDBRANCH   6   7
ENDBRANCH   5   6
ENDBRANCH   4   5
ENDBRANCH   3   4
ENDBRANCH   2   3
ENDBRANCH   1   2
BRANCH   1  17
ATOM     17  C   UNL     1      32.352  55.871  33.334  1.00  0.00     0.000 C 
BRANCH  17  18
ATOM     18  C   UNL     1      32.915  56.870  32.303  1.00  0.00     0.000 C 
BRANCH  18  19
ATOM     19  C   UNL     1      33.535  56.245  31.038  1.00  0.00     0.000 C 
BRANCH  19  20
ATOM     20  C   UNL     1      35.033  56.531  30.831  1.00  0.00     0.000 C 
BRANCH  20  21
ATOM     21  C   UNL     1      35.295  57.744  29.926  1.00  0.00     0.000 C 
BRANCH  21  22
ATOM     22  C   UNL     1      36.428  57.456  28.933  1.00  0.00    -0.000 C 
BRANCH  22  23
ATOM     23  C   UNL     1      35.918  56.649  27.733  1.00  0.00    -0.000 C 
BRANCH  23  24
ATOM     24  C   UNL     1      34.682  57.309  27.111  1.00  0.00    -0.000 C 
BRANCH  24  25
ATOM     25  C   UNL     1      33.908  56.318  26.233  1.00  0.00    -0.000 C 
BRANCH  25  26
ATOM     26  C   UNL     1      32.426  56.268  26.634  1.00  0.00    -0.000 C 
BRANCH  26  27
ATOM     27  C   UNL     1      32.163  55.277  27.788  1.00  0.00    -0.000 C 
BRANCH  27  28
ATOM     28  C   UNL     1      33.003  53.987  27.703  1.00  0.00    -0.000 C 
BRANCH  28  29
ATOM     29  C   UNL     1      33.395  53.383  29.061  1.00  0.00    -0.003 C 
ATOM     30  C   UNL     1      32.428  52.293  29.528  1.00  0.00     0.004 C 
ENDBRANCH  28  29
ENDBRANCH  27  28
ENDBRANCH  26  27
ENDBRANCH  25  26
ENDBRANCH  24  25
ENDBRANCH  23  24
ENDBRANCH  22  23
ENDBRANCH  21  22
ENDBRANCH  20  21
ENDBRANCH  19  20
ENDBRANCH  18  19
ENDBRANCH  17  18
ENDBRANCH   1  17
TORSDOF 26
ENDMDL
MODEL 6
REMARK VINA RESULT:    -4.576      1.544      3.701
REMARK INTER + INTRA:         -15.969
REMARK INTER:                 -11.788
REMARK INTRA:                  -4.181
REMARK UNBOUND:                -4.437
REMARK SMILES CCCCCCCCCCCCCCCCCCCCCCCCCCCC(=O)[O-]
REMARK SMILES IDX 15 1 16 2 17 3 18 4 19 5 20 6 21 7 22 8 23 9 24 10 25 11
REMARK SMILES IDX 26 12 27 13 28 14 29 15 30 16 14 17 13 18 12 19 11 20 10 21
REMARK SMILES IDX 9 22 8 23 7 24 6 25 5 26 4 27 3 28 2 29 1 30
REMARK H PARENT
REMARK Flexibility Score: inf
ROOT
ATOM      1  C   UNL     1      32.637  56.112  31.185  1.00  0.00     0.000 C 
ENDROOT
BRANCH   1   2
ATOM      2  C   UNL     1      32.366  56.658  32.597  1.00  0.00     0.000 C 
BRANCH   2   3
ATOM      3  C   UNL     1      32.165  55.545  33.637  1.00  0.00     0.000 C 
BRANCH   3   4
ATOM      4  C   UNL     1      33.090  55.692  34.858  1.00  0.00     0.000 C 
BRANCH   4   5
ATOM      5  C   UNL     1      34.479  56.252  34.496  1.00  0.00     0.000 C 
BRANCH   5   6
ATOM      6  C   UNL     1      35.656  55.299  34.772  1.00  0.00     0.000 C 
BRANCH   6   7
ATOM      7  C   UNL     1      35.947  54.346  33.604  1.00  0.00     0.000 C 
BRANCH   7   8
ATOM      8  C   UNL     1      35.029  53.120  33.663  1.00  0.00     0.000 C 
BRANCH   8   9
ATOM      9  C   UNL     1      35.730  51.869  33.115  1.00  0.00     0.000 C 
BRANCH   9  10
ATOM     10  C   UNL     1      35.437  50.650  33.999  1.00  0.00     0.000 C 
BRANCH  10  11
ATOM     11  C   UNL     1      33.941  50.541  34.318  1.00  0.00     0.000 C 
BRANCH  11  12
ATOM     12  C   UNL     1      33.347  49.259  33.723  1.00  0.00     0.006 C 
BRANCH  12  13
ATOM     13  C   UNL     1      34.024  48.013  34.300  1.00  0.00     0.053 C 
BRANCH  13  14
ATOM     14  C   UNL     1      34.472  47.101  33.201  1.00  0.00     0.041 C 
ATOM     15  O   UNL     1      35.009  47.573  32.163  1.00  0.00    -0.550 OA
ATOM     16  O   UNL     1      34.261  45.731  33.306  1.00  0.00    -0.550 OA
ENDBRANCH  13  14
ENDBRANCH  12  13
ENDBRANCH  11  12
ENDBRANCH  10  11
ENDBRANCH   9  10
ENDBRANCH   8   9
ENDBRANCH   7   8
ENDBRANCH   6   7
ENDBRANCH   5   6
ENDBRANCH   4   5
ENDBRANCH   3   4
ENDBRANCH   2   3
ENDBRANCH   1   2
BRANCH   1  17
ATOM     17  C   UNL     1      34.137  55.886  30.904  1.00  0.00     0.000 C 
BRANCH  17  18
ATOM     18  C   UNL     1      34.979  57.176  30.877  1.00  0.00     0.000 C 
BRANCH  18  19
ATOM     19  C   UNL     1      35.335  57.712  29.477  1.00  0.00     0.000 C 
BRANCH  19  20
ATOM     20  C   UNL     1      35.223  56.687  28.333  1.00  0.00     0.000 C 
BRANCH  20  21
ATOM     21  C   UNL     1      34.845  57.326  26.988  1.00  0.00     0.000 C 
BRANCH  21  22
ATOM     22  C   UNL     1      33.694  56.563  26.322  1.00  0.00    -0.000 C 
BRANCH  22  23
ATOM     23  C   UNL     1      32.824  55.853  27.366  1.00  0.00    -0.000 C 
BRANCH  23  24
ATOM     24  C   UNL     1      31.848  54.877  26.697  1.00  0.00    -0.000 C 
BRANCH  24  25
ATOM     25  C   UNL     1      32.139  53.431  27.115  1.00  0.00    -0.000 C 
BRANCH  25  26
ATOM     26  C   UNL     1      32.978  53.387  28.402  1.00  0.00    -0.000 C 
BRANCH  26  27
ATOM     27  C   UNL     1      32.570  52.221  29.328  1.00  0.00    -0.000 C 
BRANCH  27  28
ATOM     28  C   UNL     1      32.730  52.535  30.828  1.00  0.00    -0.000 C 
BRANCH  28  29
ATOM     29  C   UNL     1      31.706  51.844  31.743  1.00  0.00    -0.003 C 
ATOM     30  C   UNL     1      30.692  50.999  30.968  1.00  0.00     0.004 C 
ENDBRANCH  28  29
ENDBRANCH  27  28
ENDBRANCH  26  27
ENDBRANCH  25  26
ENDBRANCH  24  25
ENDBRANCH  23  24
ENDBRANCH  22  23
ENDBRANCH  21  22
ENDBRANCH  20  21
ENDBRANCH  19  20
ENDBRANCH  18  19
ENDBRANCH  17  18
ENDBRANCH   1  17
TORSDOF 26
ENDMDL
MODEL 7
REMARK VINA RESULT:    -4.569      2.608      7.422
REMARK INTER + INTRA:         -15.950
REMARK INTER:                 -11.439
REMARK INTRA:                  -4.511
REMARK UNBOUND:                -4.437
REMARK SMILES CCCCCCCCCCCCCCCCCCCCCCCCCCCC(=O)[O-]
REMARK SMILES IDX 15 1 16 2 17 3 18 4 19 5 20 6 21 7 22 8 23 9 24 10 25 11
REMARK SMILES IDX 26 12 27 13 28 14 29 15 30 16 14 17 13 18 12 19 11 20 10 21
REMARK SMILES IDX 9 22 8 23 7 24 6 25 5 26 4 27 3 28 2 29 1 30
REMARK H PARENT
REMARK Flexibility Score: inf
ROOT
ATOM      1  C   UNL     1      32.047  53.592  33.296  1.00  0.00     0.000 C 
ENDROOT
BRANCH   1   2
ATOM      2  C   UNL     1      31.979  54.884  34.127  1.00  0.00     0.000 C 
BRANCH   2   3
ATOM      3  C   UNL     1      32.840  56.014  33.541  1.00  0.00     0.000 C 
BRANCH   3   4
ATOM      4  C   UNL     1      32.253  56.605  32.247  1.00  0.00     0.000 C 
BRANCH   4   5
ATOM      5  C   UNL     1      33.159  56.385  31.021  1.00  0.00     0.000 C 
BRANCH   5   6
ATOM      6  C   UNL     1      34.669  56.483  31.304  1.00  0.00     0.000 C 
BRANCH   6   7
ATOM      7  C   UNL     1      35.254  57.868  30.993  1.00  0.00     0.000 C 
BRANCH   7   8
ATOM      8  C   UNL     1      35.425  58.057  29.482  1.00  0.00     0.000 C 
BRANCH   8   9
ATOM      9  C   UNL     1      36.396  57.023  28.895  1.00  0.00     0.000 C 
BRANCH   9  10
ATOM     10  C   UNL     1      35.942  56.580  27.500  1.00  0.00     0.000 C 
BRANCH  10  11
ATOM     11  C   UNL     1      34.531  57.092  27.185  1.00  0.00     0.000 C 
BRANCH  11  12
ATOM     12  C   UNL     1      33.757  56.076  26.337  1.00  0.00     0.006 C 
BRANCH  12  13
ATOM     13  C   UNL     1      33.355  54.852  27.166  1.00  0.00     0.053 C 
BRANCH  13  14
ATOM     14  C   UNL     1      31.866  54.747  27.261  1.00  0.00     0.041 C 
ATOM     15  O   UNL     1      31.276  53.706  26.862  1.00  0.00    -0.550 OA
ATOM     16  O   UNL     1      31.123  55.813  27.754  1.00  0.00    -0.550 OA
ENDBRANCH  13  14
ENDBRANCH  12  13
ENDBRANCH  11  12
ENDBRANCH  10  11
ENDBRANCH   9  10
ENDBRANCH   8   9
ENDBRANCH   7   8
ENDBRANCH   6   7
ENDBRANCH   5   6
ENDBRANCH   4   5
ENDBRANCH   3   4
ENDBRANCH   2   3
ENDBRANCH   1   2
BRANCH   1  17
ATOM     17  C   UNL     1      33.491  53.114  33.041  1.00  0.00     0.000 C 
BRANCH  17  18
ATOM     18  C   UNL     1      33.757  52.642  31.598  1.00  0.00     0.000 C 
BRANCH  18  19
ATOM     19  C   UNL     1      32.629  52.919  30.586  1.00  0.00     0.000 C 
BRANCH  19  20
ATOM     20  C   UNL     1      32.227  51.721  29.706  1.00  0.00     0.000 C 
BRANCH  20  21
ATOM     21  C   UNL     1      31.362  50.692  30.449  1.00  0.00     0.000 C 
BRANCH  21  22
ATOM     22  C   UNL     1      31.980  49.291  30.365  1.00  0.00    -0.000 C 
BRANCH  22  23
ATOM     23  C   UNL     1      32.678  48.916  31.678  1.00  0.00    -0.000 C 
BRANCH  23  24
ATOM     24  C   UNL     1      32.148  49.760  32.843  1.00  0.00    -0.000 C 
BRANCH  24  25
ATOM     25  C   UNL     1      32.570  49.165  34.192  1.00  0.00    -0.000 C 
BRANCH  25  26
ATOM     26  C   UNL     1      33.623  50.050  34.879  1.00  0.00    -0.000 C 
BRANCH  26  27
ATOM     27  C   UNL     1      35.060  49.533  34.655  1.00  0.00    -0.000 C 
BRANCH  27  28
ATOM     28  C   UNL     1      35.877  50.381  33.661  1.00  0.00    -0.000 C 
BRANCH  28  29
ATOM     29  C   UNL     1      37.125  51.050  34.261  1.00  0.00    -0.003 C 
ATOM     30  C   UNL     1      37.118  52.571  34.101  1.00  0.00     0.004 C 
ENDBRANCH  28  29
ENDBRANCH  27  28
ENDBRANCH  26  27
ENDBRANCH  25  26
ENDBRANCH  24  25
ENDBRANCH  23  24
ENDBRANCH  22  23
ENDBRANCH  21  22
ENDBRANCH  20  21
ENDBRANCH  19  20
ENDBRANCH  18  19
ENDBRANCH  17  18
ENDBRANCH   1  17
TORSDOF 26
ENDMDL
MODEL 8
REMARK VINA RESULT:    -4.569      1.716      3.620
REMARK INTER + INTRA:         -15.950
REMARK INTER:                 -11.282
REMARK INTRA:                  -4.667
REMARK UNBOUND:                -4.437
REMARK SMILES CCCCCCCCCCCCCCCCCCCCCCCCCCCC(=O)[O-]
REMARK SMILES IDX 15 1 16 2 17 3 18 4 19 5 20 6 21 7 22 8 23 9 24 10 25 11
REMARK SMILES IDX 26 12 27 13 28 14 29 15 30 16 14 17 13 18 12 19 11 20 10 21
REMARK SMILES IDX 9 22 8 23 7 24 6 25 5 26 4 27 3 28 2 29 1 30
REMARK H PARENT
REMARK Flexibility Score: inf
ROOT
ATOM      1  C   UNL     1      33.046  56.560  33.157  1.00  0.00     0.000 C 
ENDROOT
BRANCH   1   2
ATOM      2  C   UNL     1      34.083  57.203  34.093  1.00  0.00     0.000 C 
BRANCH   2   3
ATOM      3  C   UNL     1      35.520  57.085  33.560  1.00  0.00     0.000 C 
BRANCH   3   4
ATOM      4  C   UNL     1      36.056  55.643  33.596  1.00  0.00     0.000 C 
BRANCH   4   5
ATOM      5  C   UNL     1      35.861  54.963  34.964  1.00  0.00     0.000 C 
BRANCH   5   6
ATOM      6  C   UNL     1      35.679  53.435  34.910  1.00  0.00     0.000 C 
BRANCH   6   7
ATOM      7  C   UNL     1      35.601  52.887  33.478  1.00  0.00     0.000 C 
BRANCH   7   8
ATOM      8  C   UNL     1      35.061  51.452  33.477  1.00  0.00     0.000 C 
BRANCH   8   9
ATOM      9  C   UNL     1      33.886  51.296  34.450  1.00  0.00     0.000 C 
BRANCH   9  10
ATOM     10  C   UNL     1      32.724  50.547  33.785  1.00  0.00     0.000 C 
BRANCH  10  11
ATOM     11  C   UNL     1      33.224  49.624  32.667  1.00  0.00     0.000 C 
BRANCH  11  12
ATOM     12  C   UNL     1      32.136  49.407  31.610  1.00  0.00     0.006 C 
BRANCH  12  13
ATOM     13  C   UNL     1      30.840  50.131  31.989  1.00  0.00     0.053 C 
BRANCH  13  14
ATOM     14  C   UNL     1      29.976  50.330  30.784  1.00  0.00     0.041 C 
ATOM     15  O   UNL     1      28.733  50.137  30.855  1.00  0.00    -0.550 OA
ATOM     16  O   UNL     1      30.549  50.692  29.571  1.00  0.00    -0.550 OA
ENDBRANCH  13  14
ENDBRANCH  12  13
ENDBRANCH  11  12
ENDBRANCH  10  11
ENDBRANCH   9  10
ENDBRANCH   8   9
ENDBRANCH   7   8
ENDBRANCH   6   7
ENDBRANCH   5   6
ENDBRANCH   4   5
ENDBRANCH   3   4
ENDBRANCH   2   3
ENDBRANCH   1   2
BRANCH   1  17
ATOM     17  C   UNL     1      32.309  55.367  33.802  1.00  0.00     0.000 C 
BRANCH  17  18
ATOM     18  C   UNL     1      32.150  54.144  32.877  1.00  0.00     0.000 C 
BRANCH  18  19
ATOM     19  C   UNL     1      32.896  54.223  31.532  1.00  0.00     0.000 C 
BRANCH  19  20
ATOM     20  C   UNL     1      33.063  52.882  30.793  1.00  0.00     0.000 C 
BRANCH  20  21
ATOM     21  C   UNL     1      33.133  53.041  29.267  1.00  0.00     0.000 C 
BRANCH  21  22
ATOM     22  C   UNL     1      32.909  54.501  28.855  1.00  0.00    -0.000 C 
BRANCH  22  23
ATOM     23  C   UNL     1      32.799  54.636  27.332  1.00  0.00    -0.000 C 
BRANCH  23  24
ATOM     24  C   UNL     1      32.711  56.109  26.914  1.00  0.00    -0.000 C 
BRANCH  24  25
ATOM     25  C   UNL     1      33.808  56.463  25.903  1.00  0.00    -0.000 C 
BRANCH  25  26
ATOM     26  C   UNL     1      34.824  57.441  26.512  1.00  0.00    -0.000 C 
BRANCH  26  27
ATOM     27  C   UNL     1      35.899  56.721  27.354  1.00  0.00    -0.000 C 
BRANCH  27  28
ATOM     28  C   UNL     1      36.731  57.668  28.241  1.00  0.00    -0.000 C 
BRANCH  28  29
ATOM     29  C   UNL     1      36.048  58.085  29.554  1.00  0.00    -0.003 C 
ATOM     30  C   UNL     1      34.943  57.118  29.982  1.00  0.00     0.004 C 
ENDBRANCH  28  29
ENDBRANCH  27  28
ENDBRANCH  26  27
ENDBRANCH  25  26
ENDBRANCH  24  25
ENDBRANCH  23  24
ENDBRANCH  22  23
ENDBRANCH  21  22
ENDBRANCH  20  21
ENDBRANCH  19  20
ENDBRANCH  18  19
ENDBRANCH  17  18
ENDBRANCH   1  17
TORSDOF 26
ENDMDL
MODEL 9
REMARK VINA RESULT:    -4.541      1.862      6.198
REMARK INTER + INTRA:         -15.881
REMARK INTER:                 -11.195
REMARK INTRA:                  -4.686
REMARK UNBOUND:                -4.437
REMARK SMILES CCCCCCCCCCCCCCCCCCCCCCCCCCCC(=O)[O-]
REMARK SMILES IDX 15 1 16 2 17 3 18 4 19 5 20 6 21 7 22 8 23 9 24 10 25 11
REMARK SMILES IDX 26 12 27 13 28 14 29 15 30 16 14 17 13 18 12 19 11 20 10 21
REMARK SMILES IDX 9 22 8 23 7 24 6 25 5 26 4 27 3 28 2 29 1 30
REMARK H PARENT
REMARK Flexibility Score: inf
ROOT
ATOM      1  C   UNL     1      32.803  56.362  31.445  1.00  0.00     0.000 C 
ENDROOT
BRANCH   1   2
ATOM      2  C   UNL     1      34.105  56.270  30.631  1.00  0.00     0.000 C 
BRANCH   2   3
ATOM      3  C   UNL     1      34.897  57.587  30.624  1.00  0.00     0.000 C 
BRANCH   3   4
ATOM      4  C   UNL     1      35.699  57.797  29.328  1.00  0.00     0.000 C 
BRANCH   4   5
ATOM      5  C   UNL     1      35.481  56.673  28.297  1.00  0.00     0.000 C 
BRANCH   5   6
ATOM      6  C   UNL     1      34.686  57.087  27.045  1.00  0.00     0.000 C 
BRANCH   6   7
ATOM      7  C   UNL     1      33.803  55.961  26.490  1.00  0.00     0.000 C 
BRANCH   7   8
ATOM      8  C   UNL     1      32.369  56.088  27.016  1.00  0.00     0.000 C 
BRANCH   8   9
ATOM      9  C   UNL     1      31.972  54.870  27.860  1.00  0.00     0.000 C 
BRANCH   9  10
ATOM     10  C   UNL     1      33.055  53.786  27.794  1.00  0.00     0.000 C 
BRANCH  10  11
ATOM     11  C   UNL     1      33.319  53.178  29.177  1.00  0.00     0.000 C 
BRANCH  11  12
ATOM     12  C   UNL     1      32.400  51.978  29.432  1.00  0.00     0.006 C 
BRANCH  12  13
ATOM     13  C   UNL     1      31.881  51.971  30.873  1.00  0.00     0.053 C 
BRANCH  13  14
ATOM     14  C   UNL     1      32.617  50.959  31.693  1.00  0.00     0.041 C 
ATOM     15  O   UNL     1      33.444  50.180  31.147  1.00  0.00    -0.550 OA
ATOM     16  O   UNL     1      32.363  50.850  33.054  1.00  0.00    -0.550 OA
ENDBRANCH  13  14
ENDBRANCH  12  13
ENDBRANCH  11  12
ENDBRANCH  10  11
ENDBRANCH   9  10
ENDBRANCH   8   9
ENDBRANCH   7   8
ENDBRANCH   6   7
ENDBRANCH   5   6
ENDBRANCH   4   5
ENDBRANCH   3   4
ENDBRANCH   2   3
ENDBRANCH   1   2
BRANCH   1  17
ATOM     17  C   UNL     1      32.615  55.180  32.417  1.00  0.00     0.000 C 
BRANCH  17  18
ATOM     18  C   UNL     1      32.170  55.588  33.835  1.00  0.00     0.000 C 
BRANCH  18  19
ATOM     19  C   UNL     1      33.300  55.739  34.872  1.00  0.00     0.000 C 
BRANCH  19  20
ATOM     20  C   UNL     1      34.331  56.840  34.564  1.00  0.00     0.000 C 
BRANCH  20  21
ATOM     21  C   UNL     1      35.783  56.345  34.645  1.00  0.00     0.000 C 
BRANCH  21  22
ATOM     22  C   UNL     1      36.124  55.447  33.449  1.00  0.00    -0.000 C 
BRANCH  22  23
ATOM     23  C   UNL     1      36.429  54.015  33.903  1.00  0.00    -0.000 C 
BRANCH  23  24
ATOM     24  C   UNL     1      35.384  53.032  33.361  1.00  0.00    -0.000 C 
BRANCH  24  25
ATOM     25  C   UNL     1      36.000  51.648  33.121  1.00  0.00    -0.000 C 
BRANCH  25  26
ATOM     26  C   UNL     1      37.091  51.343  34.159  1.00  0.00    -0.000 C 
BRANCH  26  27
ATOM     27  C   UNL     1      36.698  50.184  35.100  1.00  0.00    -0.000 C 
BRANCH  27  28
ATOM     28  C   UNL     1      35.355  49.519  34.739  1.00  0.00    -0.000 C 
BRANCH  28  29
ATOM     29  C   UNL     1      34.278  49.611  35.832  1.00  0.00    -0.003 C 
ATOM     30  C   UNL     1      33.961  51.053  36.234  1.00  0.00     0.004 C 
ENDBRANCH  28  29
ENDBRANCH  27  28
ENDBRANCH  26  27
ENDBRANCH  25  26
ENDBRANCH  24  25
ENDBRANCH  23  24
ENDBRANCH  22  23
ENDBRANCH  21  22
ENDBRANCH  20  21
ENDBRANCH  19  20
ENDBRANCH  18  19
ENDBRANCH  17  18
ENDBRANCH   1  17
TORSDOF 26
ENDMDL
