MODEL 1
REMARK VINA RESULT:    -6.989      0.000      0.000
REMARK INTER + INTRA:          -8.740
REMARK INTER:                  -8.419
REMARK INTRA:                  -0.321
REMARK UNBOUND:                -0.321
REMARK SMILES O=c1c(O)c(-c2ccc(O)c(O)c2)oc2cc(O)cc(O)c12
REMARK SMILES IDX 5 1 3 2 2 3 1 4 22 5 20 6 19 7 17 8 16 9 15 10 14 11 6 12
REMARK SMILES IDX 7 13 8 14 9 15 13 16 11 17 10 18 12 20 4 22 21 24 18 26
REMARK H PARENT 10 19 12 21 4 23 21 25 18 27
REMARK Flexibility Score: inf
ROOT
ATOM      1  C   UNL     1       9.375  10.297 -20.226  1.00  0.00     0.180 A 
ATOM      2  C   UNL     1      10.026  11.437 -19.714  1.00  0.00     0.208 A 
ATOM      3  C   UNL     1      10.222  12.541 -20.558  1.00  0.00     0.238 A 
ATOM      4  O   UNL     1      10.812  13.564 -20.113  1.00  0.00    -0.285 OA
ATOM      5  C   UNL     1       9.751  12.497 -21.886  1.00  0.00     0.111 A 
ATOM      6  C   UNL     1       9.904  13.568 -22.798  1.00  0.00     0.134 A 
ATOM      7  C   UNL     1       9.399  13.450 -24.101  1.00  0.00     0.093 A 
ATOM      8  C   UNL     1       8.744  12.286 -24.509  1.00  0.00     0.123 A 
ATOM      9  C   UNL     1       8.589  11.224 -23.612  1.00  0.00     0.094 A 
ATOM     10  C   UNL     1       9.087  11.322 -22.309  1.00  0.00     0.146 A 
ATOM     11  O   UNL     1       8.931  10.296 -21.480  1.00  0.00    -0.452 OA
ENDROOT
BRANCH   1  12
ATOM     12  C   UNL     1       9.148   9.086 -19.405  1.00  0.00     0.025 A 
ATOM     13  C   UNL     1      10.107   8.059 -19.409  1.00  0.00     0.016 A 
ATOM     14  C   UNL     1       9.923   6.917 -18.627  1.00  0.00     0.051 A 
ATOM     15  C   UNL     1       8.788   6.789 -17.817  1.00  0.00     0.157 A 
ATOM     16  C   UNL     1       8.019   8.962 -18.576  1.00  0.00     0.062 A 
ATOM     17  C   UNL     1       7.833   7.820 -17.790  1.00  0.00     0.158 A 
BRANCH  15  18
ATOM     18  O   UNL     1       8.606   5.646 -17.040  1.00  0.00    -0.504 OA
ATOM     19  H   UNL     1       8.245   4.786 -17.436  1.00  0.00     0.293 HD
ENDBRANCH  15  18
BRANCH  17  20
ATOM     20  O   UNL     1       6.699   7.729 -16.984  1.00  0.00    -0.504 OA
ATOM     21  H   UNL     1       6.588   8.288 -16.146  1.00  0.00     0.293 HD
ENDBRANCH  17  20
ENDBRANCH   1  12
BRANCH   2  22
ATOM     22  O   UNL     1      10.439  11.474 -18.380  1.00  0.00    -0.502 OA
ATOM     23  H   UNL     1      10.182  10.757 -17.712  1.00  0.00     0.293 HD
ENDBRANCH   2  22
BRANCH   6  24
ATOM     24  O   UNL     1      10.554  14.745 -22.422  1.00  0.00    -0.507 OA
ATOM     25  H   UNL     1      11.565  14.813 -22.402  1.00  0.00     0.293 HD
ENDBRANCH   6  24
BRANCH   8  26
ATOM     26  O   UNL     1       8.251  12.195 -25.808  1.00  0.00    -0.508 OA
ATOM     27  H   UNL     1       7.895  11.322 -26.180  1.00  0.00     0.293 HD
ENDBRANCH   8  26
TORSDOF 6
ENDMDL
MODEL 2
REMARK VINA RESULT:    -6.981      1.777      7.369
REMARK INTER + INTRA:          -8.730
REMARK INTER:                  -8.416
REMARK INTRA:                  -0.314
REMARK UNBOUND:                -0.321
REMARK SMILES O=c1c(O)c(-c2ccc(O)c(O)c2)oc2cc(O)cc(O)c12
REMARK SMILES IDX 5 1 3 2 2 3 1 4 22 5 20 6 19 7 17 8 16 9 15 10 14 11 6 12
REMARK SMILES IDX 7 13 8 14 9 15 13 16 11 17 10 18 12 20 4 22 21 24 18 26
REMARK H PARENT 10 19 12 21 4 23 21 25 18 27
REMARK Flexibility Score: inf
ROOT
ATOM      1  C   UNL     1       8.935   9.666 -18.937  1.00  0.00     0.180 A 
ATOM      2  C   UNL     1       9.487   8.383 -19.129  1.00  0.00     0.208 A 
ATOM      3  C   UNL     1       9.006   7.316 -18.355  1.00  0.00     0.238 A 
ATOM      4  O   UNL     1       9.500   6.165 -18.512  1.00  0.00    -0.285 OA
ATOM      5  C   UNL     1       7.975   7.541 -17.421  1.00  0.00     0.111 A 
ATOM      6  C   UNL     1       7.433   6.519 -16.605  1.00  0.00     0.134 A 
ATOM      7  C   UNL     1       6.401   6.821 -15.705  1.00  0.00     0.093 A 
ATOM      8  C   UNL     1       5.901   8.121 -15.604  1.00  0.00     0.123 A 
ATOM      9  C   UNL     1       6.433   9.135 -16.407  1.00  0.00     0.094 A 
ATOM     10  C   UNL     1       7.463   8.854 -17.309  1.00  0.00     0.146 A 
ATOM     11  O   UNL     1       7.953   9.837 -18.056  1.00  0.00    -0.452 OA
ENDROOT
BRANCH   1  12
ATOM     12  C   UNL     1       9.402  10.845 -19.700  1.00  0.00     0.025 A 
ATOM     13  C   UNL     1      10.405  11.665 -19.158  1.00  0.00     0.016 A 
ATOM     14  C   UNL     1      10.875  12.772 -19.869  1.00  0.00     0.051 A 
ATOM     15  C   UNL     1      10.361  13.067 -21.139  1.00  0.00     0.157 A 
ATOM     16  C   UNL     1       8.903  11.134 -20.983  1.00  0.00     0.062 A 
ATOM     17  C   UNL     1       9.373  12.240 -21.699  1.00  0.00     0.158 A 
BRANCH  15  18
ATOM     18  O   UNL     1      10.830  14.174 -21.845  1.00  0.00    -0.504 OA
ATOM     19  H   UNL     1      11.665  14.671 -21.558  1.00  0.00     0.293 HD
ENDBRANCH  15  18
BRANCH  17  20
ATOM     20  O   UNL     1       8.851  12.498 -22.966  1.00  0.00    -0.504 OA
ATOM     21  H   UNL     1       7.978  12.092 -23.282  1.00  0.00     0.293 HD
ENDBRANCH  17  20
ENDBRANCH   1  12
BRANCH   2  22
ATOM     22  O   UNL     1      10.473   8.178 -20.097  1.00  0.00    -0.502 OA
ATOM     23  H   UNL     1      10.708   8.878 -20.789  1.00  0.00     0.293 HD
ENDBRANCH   2  22
BRANCH   6  24
ATOM     24  O   UNL     1       7.910   5.209 -16.682  1.00  0.00    -0.507 OA
ATOM     25  H   UNL     1       7.294   4.411 -16.584  1.00  0.00     0.293 HD
ENDBRANCH   6  24
BRANCH   8  26
ATOM     26  O   UNL     1       4.875   8.395 -14.703  1.00  0.00    -0.508 OA
ATOM     27  H   UNL     1       5.061   8.551 -13.719  1.00  0.00     0.293 HD
ENDBRANCH   8  26
TORSDOF 6
ENDMDL
MODEL 3
REMARK VINA RESULT:    -6.563      3.330      6.060
REMARK INTER + INTRA:          -8.227
REMARK INTER:                  -8.037
REMARK INTRA:                  -0.190
REMARK UNBOUND:                -0.321
REMARK SMILES O=c1c(O)c(-c2ccc(O)c(O)c2)oc2cc(O)cc(O)c12
REMARK SMILES IDX 5 1 3 2 2 3 1 4 22 5 20 6 19 7 17 8 16 9 15 10 14 11 6 12
REMARK SMILES IDX 7 13 8 14 9 15 13 16 11 17 10 18 12 20 4 22 21 24 18 26
REMARK H PARENT 10 19 12 21 4 23 21 25 18 27
REMARK Flexibility Score: inf
ROOT
ATOM      1  C   UNL     1       6.640   6.690 -17.922  1.00  0.00     0.180 A 
ATOM      2  C   UNL     1       6.190   7.218 -16.696  1.00  0.00     0.208 A 
ATOM      3  C   UNL     1       6.588   8.513 -16.328  1.00  0.00     0.238 A 
ATOM      4  O   UNL     1       6.199   8.991 -15.227  1.00  0.00    -0.285 OA
ATOM      5  C   UNL     1       7.409   9.263 -17.194  1.00  0.00     0.111 A 
ATOM      6  C   UNL     1       7.850  10.574 -16.900  1.00  0.00     0.134 A 
ATOM      7  C   UNL     1       8.659  11.259 -17.819  1.00  0.00     0.093 A 
ATOM      8  C   UNL     1       9.033  10.660 -19.024  1.00  0.00     0.123 A 
ATOM      9  C   UNL     1       8.599   9.364 -19.321  1.00  0.00     0.094 A 
ATOM     10  C   UNL     1       7.795   8.664 -18.417  1.00  0.00     0.146 A 
ATOM     11  O   UNL     1       7.401   7.433 -18.721  1.00  0.00    -0.452 OA
ENDROOT
BRANCH   1  12
ATOM     12  C   UNL     1       6.280   5.326 -18.371  1.00  0.00     0.025 A 
ATOM     13  C   UNL     1       5.539   5.162 -19.552  1.00  0.00     0.016 A 
ATOM     14  C   UNL     1       5.205   3.883 -20.006  1.00  0.00     0.051 A 
ATOM     15  C   UNL     1       5.621   2.750 -19.295  1.00  0.00     0.157 A 
ATOM     16  C   UNL     1       6.711   4.186 -17.671  1.00  0.00     0.062 A 
ATOM     17  C   UNL     1       6.381   2.903 -18.123  1.00  0.00     0.158 A 
BRANCH  15  18
ATOM     18  O   UNL     1       5.284   1.476 -19.749  1.00  0.00    -0.504 OA
ATOM     19  H   UNL     1       5.691   0.642 -19.341  1.00  0.00     0.293 HD
ENDBRANCH  15  18
BRANCH  17  20
ATOM     20  O   UNL     1       6.821   1.795 -17.400  1.00  0.00    -0.504 OA
ATOM     21  H   UNL     1       7.104   0.935 -17.854  1.00  0.00     0.293 HD
ENDBRANCH  17  20
ENDBRANCH   1  12
BRANCH   2  22
ATOM     22  O   UNL     1       5.336   6.473 -15.878  1.00  0.00    -0.502 OA
ATOM     23  H   UNL     1       5.193   6.693 -14.900  1.00  0.00     0.293 HD
ENDBRANCH   2  22
BRANCH   6  24
ATOM     24  O   UNL     1       7.494  11.202 -15.705  1.00  0.00    -0.507 OA
ATOM     25  H   UNL     1       7.552  10.723 -14.814  1.00  0.00     0.293 HD
ENDBRANCH   6  24
BRANCH   8  26
ATOM     26  O   UNL     1       9.835  11.362 -19.920  1.00  0.00    -0.508 OA
ATOM     27  H   UNL     1       9.793  12.372 -19.990  1.00  0.00     0.293 HD
ENDBRANCH   8  26
TORSDOF 6
ENDMDL
MODEL 4
REMARK VINA RESULT:    -6.422      1.288      3.202
REMARK INTER + INTRA:          -8.058
REMARK INTER:                  -7.737
REMARK INTRA:                  -0.321
REMARK UNBOUND:                -0.321
REMARK SMILES O=c1c(O)c(-c2ccc(O)c(O)c2)oc2cc(O)cc(O)c12
REMARK SMILES IDX 5 1 3 2 2 3 1 4 22 5 20 6 19 7 17 8 16 9 15 10 14 11 6 12
REMARK SMILES IDX 7 13 8 14 9 15 13 16 11 17 10 18 12 20 4 22 21 24 18 26
REMARK H PARENT 10 19 12 21 4 23 21 25 18 27
REMARK Flexibility Score: inf
ROOT
ATOM      1  C   UNL     1       8.496   9.883 -20.819  1.00  0.00     0.180 A 
ATOM      2  C   UNL     1       7.966   9.525 -22.074  1.00  0.00     0.208 A 
ATOM      3  C   UNL     1       8.023  10.454 -23.125  1.00  0.00     0.238 A 
ATOM      4  O   UNL     1       7.542  10.146 -24.250  1.00  0.00    -0.285 OA
ATOM      5  C   UNL     1       8.624  11.711 -22.912  1.00  0.00     0.111 A 
ATOM      6  C   UNL     1       8.726  12.701 -23.918  1.00  0.00     0.134 A 
ATOM      7  C   UNL     1       9.346  13.925 -23.631  1.00  0.00     0.093 A 
ATOM      8  C   UNL     1       9.867  14.178 -22.360  1.00  0.00     0.123 A 
ATOM      9  C   UNL     1       9.769  13.204 -21.361  1.00  0.00     0.094 A 
ATOM     10  C   UNL     1       9.153  11.978 -21.628  1.00  0.00     0.146 A 
ATOM     11  O   UNL     1       9.069  11.073 -20.660  1.00  0.00    -0.452 OA
ENDROOT
BRANCH   1  12
ATOM     12  C   UNL     1       8.456   8.967 -19.657  1.00  0.00     0.025 A 
ATOM     13  C   UNL     1       7.309   8.926 -18.849  1.00  0.00     0.016 A 
ATOM     14  C   UNL     1       7.240   8.055 -17.760  1.00  0.00     0.051 A 
ATOM     15  C   UNL     1       8.311   7.200 -17.470  1.00  0.00     0.157 A 
ATOM     16  C   UNL     1       9.521   8.093 -19.375  1.00  0.00     0.062 A 
ATOM     17  C   UNL     1       9.456   7.217 -18.286  1.00  0.00     0.158 A 
BRANCH  15  18
ATOM     18  O   UNL     1       8.242   6.333 -16.380  1.00  0.00    -0.504 OA
ATOM     19  H   UNL     1       9.073   6.043 -15.879  1.00  0.00     0.293 HD
ENDBRANCH  15  18
BRANCH  17  20
ATOM     20  O   UNL     1      10.533   6.369 -18.033  1.00  0.00    -0.504 OA
ATOM     21  H   UNL     1      11.236   6.585 -17.336  1.00  0.00     0.293 HD
ENDBRANCH  17  20
ENDBRANCH   1  12
BRANCH   2  22
ATOM     22  O   UNL     1       7.420   8.253 -22.273  1.00  0.00    -0.502 OA
ATOM     23  H   UNL     1       7.504   7.758 -23.152  1.00  0.00     0.293 HD
ENDBRANCH   2  22
BRANCH   6  24
ATOM     24  O   UNL     1       8.215  12.479 -25.199  1.00  0.00    -0.507 OA
ATOM     25  H   UNL     1       8.769  12.037 -25.924  1.00  0.00     0.293 HD
ENDBRANCH   6  24
BRANCH   8  26
ATOM     26  O   UNL     1      10.480  15.401 -22.100  1.00  0.00    -0.508 OA
ATOM     27  H   UNL     1      11.481  15.525 -22.200  1.00  0.00     0.293 HD
ENDBRANCH   8  26
TORSDOF 6
ENDMDL
MODEL 5
REMARK VINA RESULT:    -6.422      2.605      7.353
REMARK INTER + INTRA:          -8.058
REMARK INTER:                  -7.729
REMARK INTRA:                  -0.329
REMARK UNBOUND:                -0.321
REMARK SMILES O=c1c(O)c(-c2ccc(O)c(O)c2)oc2cc(O)cc(O)c12
REMARK SMILES IDX 5 1 3 2 2 3 1 4 22 5 20 6 19 7 17 8 16 9 15 10 14 11 6 12
REMARK SMILES IDX 7 13 8 14 9 15 13 16 11 17 10 18 12 20 4 22 21 24 18 26
REMARK H PARENT 10 19 12 21 4 23 21 25 18 27
REMARK Flexibility Score: inf
ROOT
ATOM      1  C   UNL     1       6.839   9.715 -19.961  1.00  0.00     0.180 A 
ATOM      2  C   UNL     1       6.122  10.419 -18.972  1.00  0.00     0.208 A 
ATOM      3  C   UNL     1       5.817   9.771 -17.765  1.00  0.00     0.238 A 
ATOM      4  O   UNL     1       5.168  10.389 -16.877  1.00  0.00    -0.285 OA
ATOM      5  C   UNL     1       6.247   8.445 -17.558  1.00  0.00     0.111 A 
ATOM      6  C   UNL     1       5.985   7.722 -16.370  1.00  0.00     0.134 A 
ATOM      7  C   UNL     1       6.454   6.408 -16.236  1.00  0.00     0.093 A 
ATOM      8  C   UNL     1       7.180   5.802 -17.264  1.00  0.00     0.123 A 
ATOM      9  C   UNL     1       7.443   6.511 -18.441  1.00  0.00     0.094 A 
ATOM     10  C   UNL     1       6.982   7.821 -18.594  1.00  0.00     0.146 A 
ATOM     11  O   UNL     1       7.241   8.470 -19.724  1.00  0.00    -0.452 OA
ENDROOT
BRANCH   1  12
ATOM     12  C   UNL     1       7.181  10.322 -21.266  1.00  0.00     0.025 A 
ATOM     13  C   UNL     1       8.460  10.869 -21.459  1.00  0.00     0.016 A 
ATOM     14  C   UNL     1       8.812  11.429 -22.690  1.00  0.00     0.051 A 
ATOM     15  C   UNL     1       7.897  11.437 -23.751  1.00  0.00     0.157 A 
ATOM     16  C   UNL     1       6.272  10.315 -22.340  1.00  0.00     0.062 A 
ATOM     17  C   UNL     1       6.622  10.873 -23.575  1.00  0.00     0.158 A 
BRANCH  15  18
ATOM     18  O   UNL     1       8.251  11.999 -24.976  1.00  0.00    -0.504 OA
ATOM     19  H   UNL     1       8.966  11.586 -25.563  1.00  0.00     0.293 HD
ENDBRANCH  15  18
BRANCH  17  20
ATOM     20  O   UNL     1       5.694  10.853 -24.614  1.00  0.00    -0.504 OA
ATOM     21  H   UNL     1       5.571  11.639 -25.241  1.00  0.00     0.293 HD
ENDBRANCH  17  20
ENDBRANCH   1  12
BRANCH   2  22
ATOM     22  O   UNL     1       5.751  11.750 -19.183  1.00  0.00    -0.502 OA
ATOM     23  H   UNL     1       4.814  12.086 -19.003  1.00  0.00     0.293 HD
ENDBRANCH   2  22
BRANCH   6  24
ATOM     24  O   UNL     1       5.262   8.299 -15.323  1.00  0.00    -0.507 OA
ATOM     25  H   UNL     1       5.719   8.646 -14.488  1.00  0.00     0.293 HD
ENDBRANCH   6  24
BRANCH   8  26
ATOM     26  O   UNL     1       7.637   4.496 -17.106  1.00  0.00    -0.508 OA
ATOM     27  H   UNL     1       6.996   3.712 -17.062  1.00  0.00     0.293 HD
ENDBRANCH   8  26
TORSDOF 6
ENDMDL
MODEL 6
REMARK VINA RESULT:    -6.293      2.109      7.168
REMARK INTER + INTRA:          -7.903
REMARK INTER:                  -7.794
REMARK INTRA:                  -0.109
REMARK UNBOUND:                -0.321
REMARK SMILES O=c1c(O)c(-c2ccc(O)c(O)c2)oc2cc(O)cc(O)c12
REMARK SMILES IDX 5 1 3 2 2 3 1 4 22 5 20 6 19 7 17 8 16 9 15 10 14 11 6 12
REMARK SMILES IDX 7 13 8 14 9 15 13 16 11 17 10 18 12 20 4 22 21 24 18 26
REMARK H PARENT 10 19 12 21 4 23 21 25 18 27
REMARK Flexibility Score: inf
ROOT
ATOM      1  C   UNL     1       8.218   9.897 -18.658  1.00  0.00     0.180 A 
ATOM      2  C   UNL     1       7.760  10.305 -17.389  1.00  0.00     0.208 A 
ATOM      3  C   UNL     1       7.128   9.364 -16.562  1.00  0.00     0.238 A 
ATOM      4  O   UNL     1       6.706   9.721 -15.428  1.00  0.00    -0.285 OA
ATOM      5  C   UNL     1       6.982   8.034 -17.003  1.00  0.00     0.111 A 
ATOM      6  C   UNL     1       6.362   7.024 -16.229  1.00  0.00     0.134 A 
ATOM      7  C   UNL     1       6.263   5.720 -16.736  1.00  0.00     0.093 A 
ATOM      8  C   UNL     1       6.771   5.406 -17.998  1.00  0.00     0.123 A 
ATOM      9  C   UNL     1       7.386   6.399 -18.768  1.00  0.00     0.094 A 
ATOM     10  C   UNL     1       7.492   7.705 -18.281  1.00  0.00     0.146 A 
ATOM     11  O   UNL     1       8.075   8.630 -19.035  1.00  0.00    -0.452 OA
ENDROOT
BRANCH   1  12
ATOM     12  C   UNL     1       8.875  10.835 -19.596  1.00  0.00     0.025 A 
ATOM     13  C   UNL     1       8.278  11.101 -20.838  1.00  0.00     0.016 A 
ATOM     14  C   UNL     1       8.870  11.997 -21.731  1.00  0.00     0.051 A 
ATOM     15  C   UNL     1      10.060  12.653 -21.389  1.00  0.00     0.157 A 
ATOM     16  C   UNL     1      10.059  11.510 -19.249  1.00  0.00     0.062 A 
ATOM     17  C   UNL     1      10.655  12.410 -20.140  1.00  0.00     0.158 A 
BRANCH  15  18
ATOM     18  O   UNL     1      10.650  13.545 -22.284  1.00  0.00    -0.504 OA
ATOM     19  H   UNL     1      10.486  14.543 -22.224  1.00  0.00     0.293 HD
ENDBRANCH  15  18
BRANCH  17  20
ATOM     20  O   UNL     1      11.831  13.057 -19.764  1.00  0.00    -0.504 OA
ATOM     21  H   UNL     1      12.746  12.683 -19.987  1.00  0.00     0.293 HD
ENDBRANCH  17  20
ENDBRANCH   1  12
BRANCH   2  22
ATOM     22  O   UNL     1       7.962  11.618 -16.955  1.00  0.00    -0.502 OA
ATOM     23  H   UNL     1       8.112  11.850 -15.981  1.00  0.00     0.293 HD
ENDBRANCH   2  22
BRANCH   6  24
ATOM     24  O   UNL     1       5.844   7.306 -14.963  1.00  0.00    -0.507 OA
ATOM     25  H   UNL     1       5.485   8.223 -14.726  1.00  0.00     0.293 HD
ENDBRANCH   6  24
BRANCH   8  26
ATOM     26  O   UNL     1       6.662   4.103 -18.478  1.00  0.00    -0.508 OA
ATOM     27  H   UNL     1       5.892   3.820 -19.074  1.00  0.00     0.293 HD
ENDBRANCH   8  26
TORSDOF 6
ENDMDL
MODEL 7
REMARK VINA RESULT:    -6.293      2.005      7.174
REMARK INTER + INTRA:          -7.901
REMARK INTER:                  -7.574
REMARK INTRA:                  -0.328
REMARK UNBOUND:                -0.321
REMARK SMILES O=c1c(O)c(-c2ccc(O)c(O)c2)oc2cc(O)cc(O)c12
REMARK SMILES IDX 5 1 3 2 2 3 1 4 22 5 20 6 19 7 17 8 16 9 15 10 14 11 6 12
REMARK SMILES IDX 7 13 8 14 9 15 13 16 11 17 10 18 12 20 4 22 21 24 18 26
REMARK H PARENT 10 19 12 21 4 23 21 25 18 27
REMARK Flexibility Score: inf
ROOT
ATOM      1  C   UNL     1       7.919  10.783 -19.091  1.00  0.00     0.180 A 
ATOM      2  C   UNL     1       6.891  11.310 -18.284  1.00  0.00     0.208 A 
ATOM      3  C   UNL     1       6.281  10.476 -17.334  1.00  0.00     0.238 A 
ATOM      4  O   UNL     1       5.354  10.935 -16.612  1.00  0.00    -0.285 OA
ATOM      5  C   UNL     1       6.718   9.144 -17.192  1.00  0.00     0.111 A 
ATOM      6  C   UNL     1       6.159   8.241 -16.256  1.00  0.00     0.134 A 
ATOM      7  C   UNL     1       6.655   6.932 -16.170  1.00  0.00     0.093 A 
ATOM      8  C   UNL     1       7.697   6.509 -16.998  1.00  0.00     0.123 A 
ATOM      9  C   UNL     1       8.253   7.396 -17.925  1.00  0.00     0.094 A 
ATOM     10  C   UNL     1       7.771   8.704 -18.027  1.00  0.00     0.146 A 
ATOM     11  O   UNL     1       8.315   9.525 -18.919  1.00  0.00    -0.452 OA
ENDROOT
BRANCH   1  12
ATOM     12  C   UNL     1       8.597  11.592 -20.129  1.00  0.00     0.025 A 
ATOM     13  C   UNL     1       9.738  12.336 -19.788  1.00  0.00     0.016 A 
ATOM     14  C   UNL     1      10.407  13.090 -20.755  1.00  0.00     0.051 A 
ATOM     15  C   UNL     1       9.954  13.100 -22.081  1.00  0.00     0.157 A 
ATOM     16  C   UNL     1       8.158  11.590 -21.465  1.00  0.00     0.062 A 
ATOM     17  C   UNL     1       8.826  12.342 -22.437  1.00  0.00     0.158 A 
BRANCH  15  18
ATOM     18  O   UNL     1      10.622  13.857 -23.043  1.00  0.00    -0.504 OA
ATOM     19  H   UNL     1      10.509  13.674 -24.034  1.00  0.00     0.293 HD
ENDBRANCH  15  18
BRANCH  17  20
ATOM     20  O   UNL     1       8.358  12.320 -23.750  1.00  0.00    -0.504 OA
ATOM     21  H   UNL     1       8.842  12.798 -24.502  1.00  0.00     0.293 HD
ENDBRANCH  17  20
ENDBRANCH   1  12
BRANCH   2  22
ATOM     22  O   UNL     1       6.511  12.649 -18.410  1.00  0.00    -0.502 OA
ATOM     23  H   UNL     1       7.147  13.413 -18.218  1.00  0.00     0.293 HD
ENDBRANCH   2  22
BRANCH   6  24
ATOM     24  O   UNL     1       5.117   8.633 -15.414  1.00  0.00    -0.507 OA
ATOM     25  H   UNL     1       4.492   9.392 -15.657  1.00  0.00     0.293 HD
ENDBRANCH   6  24
BRANCH   8  26
ATOM     26  O   UNL     1       8.172   5.204 -16.892  1.00  0.00    -0.508 OA
ATOM     27  H   UNL     1       7.993   4.514 -17.612  1.00  0.00     0.293 HD
ENDBRANCH   8  26
TORSDOF 6
ENDMDL
MODEL 8
REMARK VINA RESULT:    -6.250      2.078      2.876
REMARK INTER + INTRA:          -7.850
REMARK INTER:                  -7.519
REMARK INTRA:                  -0.332
REMARK UNBOUND:                -0.321
REMARK SMILES O=c1c(O)c(-c2ccc(O)c(O)c2)oc2cc(O)cc(O)c12
REMARK SMILES IDX 5 1 3 2 2 3 1 4 22 5 20 6 19 7 17 8 16 9 15 10 14 11 6 12
REMARK SMILES IDX 7 13 8 14 9 15 13 16 11 17 10 18 12 20 4 22 21 24 18 26
REMARK H PARENT 10 19 12 21 4 23 21 25 18 27
REMARK Flexibility Score: inf
ROOT
ATOM      1  C   UNL     1       7.420   9.766 -19.144  1.00  0.00     0.180 A 
ATOM      2  C   UNL     1       8.598  10.539 -19.157  1.00  0.00     0.208 A 
ATOM      3  C   UNL     1       8.956  11.209 -20.337  1.00  0.00     0.238 A 
ATOM      4  O   UNL     1      10.014  11.896 -20.363  1.00  0.00    -0.285 OA
ATOM      5  C   UNL     1       8.127  11.113 -21.473  1.00  0.00     0.111 A 
ATOM      6  C   UNL     1       8.414  11.760 -22.698  1.00  0.00     0.134 A 
ATOM      7  C   UNL     1       7.534  11.622 -23.781  1.00  0.00     0.093 A 
ATOM      8  C   UNL     1       6.374  10.852 -23.663  1.00  0.00     0.123 A 
ATOM      9  C   UNL     1       6.084  10.210 -22.455  1.00  0.00     0.094 A 
ATOM     10  C   UNL     1       6.951  10.334 -21.365  1.00  0.00     0.146 A 
ATOM     11  O   UNL     1       6.655   9.710 -20.230  1.00  0.00    -0.452 OA
ENDROOT
BRANCH   1  12
ATOM     12  C   UNL     1       6.986   9.014 -17.945  1.00  0.00     0.025 A 
ATOM     13  C   UNL     1       6.110   9.620 -17.030  1.00  0.00     0.016 A 
ATOM     14  C   UNL     1       5.670   8.923 -15.902  1.00  0.00     0.051 A 
ATOM     15  C   UNL     1       6.087   7.604 -15.680  1.00  0.00     0.157 A 
ATOM     16  C   UNL     1       7.386   7.683 -17.728  1.00  0.00     0.062 A 
ATOM     17  C   UNL     1       6.946   6.981 -16.601  1.00  0.00     0.158 A 
BRANCH  15  18
ATOM     18  O   UNL     1       5.649   6.911 -14.552  1.00  0.00    -0.504 OA
ATOM     19  H   UNL     1       4.731   6.483 -14.515  1.00  0.00     0.293 HD
ENDBRANCH  15  18
BRANCH  17  20
ATOM     20  O   UNL     1       7.368   5.665 -16.416  1.00  0.00    -0.504 OA
ATOM     21  H   UNL     1       7.477   5.020 -17.190  1.00  0.00     0.293 HD
ENDBRANCH  17  20
ENDBRANCH   1  12
BRANCH   2  22
ATOM     22  O   UNL     1       9.376  10.658 -18.002  1.00  0.00    -0.502 OA
ATOM     23  H   UNL     1      10.375  10.491 -18.002  1.00  0.00     0.293 HD
ENDBRANCH   2  22
BRANCH   6  24
ATOM     24  O   UNL     1       9.564  12.536 -22.849  1.00  0.00    -0.507 OA
ATOM     25  H   UNL     1      10.456  12.248 -22.464  1.00  0.00     0.293 HD
ENDBRANCH   6  24
BRANCH   8  26
ATOM     26  O   UNL     1       5.515  10.733 -24.753  1.00  0.00    -0.508 OA
ATOM     27  H   UNL     1       5.664  10.034 -25.472  1.00  0.00     0.293 HD
ENDBRANCH   8  26
TORSDOF 6
ENDMDL
MODEL 9
REMARK VINA RESULT:    -4.171      2.897      7.373
REMARK INTER + INTRA:          -5.345
REMARK INTER:                  -5.132
REMARK INTRA:                  -0.213
REMARK UNBOUND:                -0.321
REMARK SMILES O=c1c(O)c(-c2ccc(O)c(O)c2)oc2cc(O)cc(O)c12
REMARK SMILES IDX 5 1 3 2 2 3 1 4 22 5 20 6 19 7 17 8 16 9 15 10 14 11 6 12
REMARK SMILES IDX 7 13 8 14 9 15 13 16 11 17 10 18 12 20 4 22 21 24 18 26
REMARK H PARENT 10 19 12 21 4 23 21 25 18 27
REMARK Flexibility Score: inf
ROOT
ATOM      1  C   UNL     1       8.471  13.663 -22.073  1.00  0.00     0.180 A 
ATOM      2  C   UNL     1       8.610  13.171 -23.386  1.00  0.00     0.208 A 
ATOM      3  C   UNL     1       8.884  11.807 -23.573  1.00  0.00     0.238 A 
ATOM      4  O   UNL     1       9.020  11.358 -24.745  1.00  0.00    -0.285 OA
ATOM      5  C   UNL     1       8.994  10.957 -22.454  1.00  0.00     0.111 A 
ATOM      6  C   UNL     1       9.263   9.572 -22.557  1.00  0.00     0.134 A 
ATOM      7  C   UNL     1       9.349   8.791 -21.396  1.00  0.00     0.093 A 
ATOM      8  C   UNL     1       9.170   9.366 -20.136  1.00  0.00     0.123 A 
ATOM      9  C   UNL     1       8.903  10.735 -20.027  1.00  0.00     0.094 A 
ATOM     10  C   UNL     1       8.816  11.530 -21.173  1.00  0.00     0.146 A 
ATOM     11  O   UNL     1       8.566  12.828 -21.041  1.00  0.00    -0.452 OA
ENDROOT
BRANCH   1  12
ATOM     12  C   UNL     1       8.201  15.091 -21.792  1.00  0.00     0.025 A 
ATOM     13  C   UNL     1       6.996  15.457 -21.173  1.00  0.00     0.016 A 
ATOM     14  C   UNL     1       6.729  16.797 -20.880  1.00  0.00     0.051 A 
ATOM     15  C   UNL     1       7.670  17.789 -21.187  1.00  0.00     0.157 A 
ATOM     16  C   UNL     1       9.151  16.087 -22.081  1.00  0.00     0.062 A 
ATOM     17  C   UNL     1       8.888  17.430 -21.787  1.00  0.00     0.158 A 
BRANCH  15  18
ATOM     18  O   UNL     1       7.399  19.125 -20.896  1.00  0.00    -0.504 OA
ATOM     19  H   UNL     1       7.472  19.488 -19.953  1.00  0.00     0.293 HD
ENDBRANCH  15  18
BRANCH  17  20
ATOM     20  O   UNL     1       9.851  18.391 -22.093  1.00  0.00    -0.504 OA
ATOM     21  H   UNL     1       9.822  18.927 -22.951  1.00  0.00     0.293 HD
ENDBRANCH  17  20
ENDBRANCH   1  12
BRANCH   2  22
ATOM     22  O   UNL     1       8.447  14.025 -24.480  1.00  0.00    -0.502 OA
ATOM     23  H   UNL     1       8.540  15.030 -24.402  1.00  0.00     0.293 HD
ENDBRANCH   2  22
BRANCH   6  24
ATOM     24  O   UNL     1       9.448   8.966 -23.802  1.00  0.00    -0.507 OA
ATOM     25  H   UNL     1      10.261   8.397 -24.002  1.00  0.00     0.293 HD
ENDBRANCH   6  24
BRANCH   8  26
ATOM     26  O   UNL     1       9.258   8.569 -18.997  1.00  0.00    -0.508 OA
ATOM     27  H   UNL     1       9.595   8.938 -18.116  1.00  0.00     0.293 HD
ENDBRANCH   8  26
TORSDOF 6
ENDMDL
