MODEL 1
REMARK VINA RESULT:    -6.871      0.000      0.000
REMARK INTER + INTRA:          -8.340
REMARK INTER:                  -8.076
REMARK INTRA:                  -0.264
REMARK UNBOUND:                -0.264
REMARK SMILES O=c1c(O)c(-c2ccc(O)cc2)oc2cc(O)cc(O)c12
REMARK SMILES IDX 5 1 3 2 2 3 1 4 21 5 19 6 18 7 16 8 15 9 14 10 13 11 6 12
REMARK SMILES IDX 7 13 8 14 9 15 12 16 11 17 10 18 4 20 20 22 17 24
REMARK H PARENT 10 19 4 21 20 23 17 25
REMARK Flexibility Score: inf
ROOT
ATOM      1  C   UNL     1      13.272   9.604  12.991  1.00  0.00     0.180 A 
ATOM      2  C   UNL     1      13.353  10.263  14.229  1.00  0.00     0.208 A 
ATOM      3  C   UNL     1      12.168  10.555  14.924  1.00  0.00     0.238 A 
ATOM      4  O   UNL     1      12.243  11.213  15.994  1.00  0.00    -0.285 OA
ATOM      5  C   UNL     1      10.922  10.135  14.400  1.00  0.00     0.111 A 
ATOM      6  C   UNL     1       9.661  10.337  15.041  1.00  0.00     0.134 A 
ATOM      7  C   UNL     1       8.483   9.972  14.377  1.00  0.00     0.093 A 
ATOM      8  C   UNL     1       8.523   9.354  13.125  1.00  0.00     0.123 A 
ATOM      9  C   UNL     1       9.749   9.103  12.517  1.00  0.00     0.094 A 
ATOM     10  C   UNL     1      10.941   9.490  13.135  1.00  0.00     0.146 A 
ATOM     11  O   UNL     1      12.086   9.250  12.510  1.00  0.00    -0.452 OA
ENDROOT
BRANCH   1  12
ATOM     12  C   UNL     1      14.475   9.274  12.192  1.00  0.00     0.021 A 
ATOM     13  C   UNL     1      14.934   7.948  12.151  1.00  0.00     0.016 A 
ATOM     14  C   UNL     1      16.054   7.609  11.385  1.00  0.00     0.047 A 
ATOM     15  C   UNL     1      16.721   8.592  10.640  1.00  0.00     0.115 A 
ATOM     16  C   UNL     1      15.137  10.251  11.427  1.00  0.00     0.016 A 
ATOM     17  C   UNL     1      16.257   9.910  10.661  1.00  0.00     0.047 A 
BRANCH  15  18
ATOM     18  O   UNL     1      17.838   8.267   9.875  1.00  0.00    -0.508 OA
ATOM     19  H   UNL     1      18.389   8.981   9.414  1.00  0.00     0.293 HD
ENDBRANCH  15  18
ENDBRANCH   1  12
BRANCH   2  20
ATOM     20  O   UNL     1      14.598  10.602  14.766  1.00  0.00    -0.502 OA
ATOM     21  H   UNL     1      14.697  11.218  15.564  1.00  0.00     0.293 HD
ENDBRANCH   2  20
BRANCH   6  22
ATOM     22  O   UNL     1       9.513  10.864  16.327  1.00  0.00    -0.507 OA
ATOM     23  H   UNL     1       8.708  11.374  16.654  1.00  0.00     0.293 HD
ENDBRANCH   6  22
BRANCH   8  24
ATOM     24  O   UNL     1       7.346   8.979  12.481  1.00  0.00    -0.508 OA
ATOM     25  H   UNL     1       7.155   9.250  11.524  1.00  0.00     0.293 HD
ENDBRANCH   8  24
TORSDOF 5
ENDMDL
MODEL 2
REMARK VINA RESULT:    -6.406      1.780      3.206
REMARK INTER + INTRA:          -7.794
REMARK INTER:                  -7.689
REMARK INTRA:                  -0.104
REMARK UNBOUND:                -0.264
REMARK SMILES O=c1c(O)c(-c2ccc(O)cc2)oc2cc(O)cc(O)c12
REMARK SMILES IDX 5 1 3 2 2 3 1 4 21 5 19 6 18 7 16 8 15 9 14 10 13 11 6 12
REMARK SMILES IDX 7 13 8 14 9 15 12 16 11 17 10 18 4 20 20 22 17 24
REMARK H PARENT 10 19 4 21 20 23 17 25
REMARK Flexibility Score: inf
ROOT
ATOM      1  C   UNL     1      12.820  10.444  12.529  1.00  0.00     0.180 A 
ATOM      2  C   UNL     1      11.837  10.013  11.623  1.00  0.00     0.208 A 
ATOM      3  C   UNL     1      10.579   9.629  12.114  1.00  0.00     0.238 A 
ATOM      4  O   UNL     1       9.729   9.172  11.306  1.00  0.00    -0.285 OA
ATOM      5  C   UNL     1      10.301   9.733  13.499  1.00  0.00     0.111 A 
ATOM      6  C   UNL     1       9.045   9.415  14.102  1.00  0.00     0.134 A 
ATOM      7  C   UNL     1       8.920   9.456  15.497  1.00  0.00     0.093 A 
ATOM      8  C   UNL     1       9.983   9.866  16.304  1.00  0.00     0.123 A 
ATOM      9  C   UNL     1      11.192  10.231  15.722  1.00  0.00     0.094 A 
ATOM     10  C   UNL     1      11.363  10.164  14.337  1.00  0.00     0.146 A 
ATOM     11  O   UNL     1      12.540  10.502  13.826  1.00  0.00    -0.452 OA
ENDROOT
BRANCH   1  12
ATOM     12  C   UNL     1      14.174  10.852  12.090  1.00  0.00     0.021 A 
ATOM     13  C   UNL     1      15.288  10.103  12.502  1.00  0.00     0.016 A 
ATOM     14  C   UNL     1      16.574  10.456  12.080  1.00  0.00     0.047 A 
ATOM     15  C   UNL     1      16.759  11.554  11.229  1.00  0.00     0.115 A 
ATOM     16  C   UNL     1      14.365  11.940  11.220  1.00  0.00     0.016 A 
ATOM     17  C   UNL     1      15.652  12.291  10.799  1.00  0.00     0.047 A 
BRANCH  15  18
ATOM     18  O   UNL     1      18.035  11.916  10.804  1.00  0.00    -0.508 OA
ATOM     19  H   UNL     1      18.254  12.022   9.820  1.00  0.00     0.293 HD
ENDBRANCH  15  18
ENDBRANCH   1  12
BRANCH   2  20
ATOM     20  O   UNL     1      12.105   9.989  10.252  1.00  0.00    -0.502 OA
ATOM     21  H   UNL     1      11.879  10.763   9.639  1.00  0.00     0.293 HD
ENDBRANCH   2  20
BRANCH   6  22
ATOM     22  O   UNL     1       7.895   9.079  13.383  1.00  0.00    -0.507 OA
ATOM     23  H   UNL     1       7.093   8.602  13.764  1.00  0.00     0.293 HD
ENDBRANCH   6  22
BRANCH   8  24
ATOM     24  O   UNL     1       9.842   9.920  17.689  1.00  0.00    -0.508 OA
ATOM     25  H   UNL     1       9.567  10.773  18.162  1.00  0.00     0.293 HD
ENDBRANCH   8  24
TORSDOF 5
ENDMDL
MODEL 3
REMARK VINA RESULT:    -6.371      1.833      6.743
REMARK INTER + INTRA:          -7.752
REMARK INTER:                  -7.541
REMARK INTRA:                  -0.211
REMARK UNBOUND:                -0.264
REMARK SMILES O=c1c(O)c(-c2ccc(O)cc2)oc2cc(O)cc(O)c12
REMARK SMILES IDX 5 1 3 2 2 3 1 4 21 5 19 6 18 7 16 8 15 9 14 10 13 11 6 12
REMARK SMILES IDX 7 13 8 14 9 15 12 16 11 17 10 18 4 20 20 22 17 24
REMARK H PARENT 10 19 4 21 20 23 17 25
REMARK Flexibility Score: inf
ROOT
ATOM      1  C   UNL     1      12.050  10.357  12.576  1.00  0.00     0.180 A 
ATOM      2  C   UNL     1      12.485  11.627  12.158  1.00  0.00     0.208 A 
ATOM      3  C   UNL     1      13.782  11.766  11.639  1.00  0.00     0.238 A 
ATOM      4  O   UNL     1      14.191  12.917  11.338  1.00  0.00    -0.285 OA
ATOM      5  C   UNL     1      14.609  10.626  11.493  1.00  0.00     0.111 A 
ATOM      6  C   UNL     1      15.925  10.642  10.936  1.00  0.00     0.134 A 
ATOM      7  C   UNL     1      16.690   9.469  10.939  1.00  0.00     0.093 A 
ATOM      8  C   UNL     1      16.164   8.266  11.417  1.00  0.00     0.123 A 
ATOM      9  C   UNL     1      14.863   8.229  11.911  1.00  0.00     0.094 A 
ATOM     10  C   UNL     1      14.087   9.390  11.958  1.00  0.00     0.146 A 
ATOM     11  O   UNL     1      12.860   9.312  12.456  1.00  0.00    -0.452 OA
ENDROOT
BRANCH   1  12
ATOM     12  C   UNL     1      10.703  10.133  13.147  1.00  0.00     0.021 A 
ATOM     13  C   UNL     1       9.764   9.379  12.425  1.00  0.00     0.016 A 
ATOM     14  C   UNL     1       8.493   9.135  12.954  1.00  0.00     0.047 A 
ATOM     15  C   UNL     1       8.150   9.632  14.220  1.00  0.00     0.115 A 
ATOM     16  C   UNL     1      10.359  10.612  14.424  1.00  0.00     0.016 A 
ATOM     17  C   UNL     1       9.087  10.366  14.952  1.00  0.00     0.047 A 
BRANCH  15  18
ATOM     18  O   UNL     1       6.887   9.396  14.757  1.00  0.00    -0.508 OA
ATOM     19  H   UNL     1       6.492  10.004  15.465  1.00  0.00     0.293 HD
ENDBRANCH  15  18
ENDBRANCH   1  12
BRANCH   2  20
ATOM     20  O   UNL     1      11.627  12.727  12.241  1.00  0.00    -0.502 OA
ATOM     21  H   UNL     1      10.635  12.632  12.418  1.00  0.00     0.293 HD
ENDBRANCH   2  20
BRANCH   6  22
ATOM     22  O   UNL     1      16.513  11.767  10.351  1.00  0.00    -0.507 OA
ATOM     23  H   UNL     1      16.124  12.289   9.581  1.00  0.00     0.293 HD
ENDBRANCH   6  22
BRANCH   8  24
ATOM     24  O   UNL     1      16.927   7.101  11.399  1.00  0.00    -0.508 OA
ATOM     25  H   UNL     1      17.722   6.996  10.780  1.00  0.00     0.293 HD
ENDBRANCH   8  24
TORSDOF 5
ENDMDL
MODEL 4
REMARK VINA RESULT:    -5.910      3.143      5.661
REMARK INTER + INTRA:          -7.211
REMARK INTER:                  -6.922
REMARK INTRA:                  -0.289
REMARK UNBOUND:                -0.264
REMARK SMILES O=c1c(O)c(-c2ccc(O)cc2)oc2cc(O)cc(O)c12
REMARK SMILES IDX 5 1 3 2 2 3 1 4 21 5 19 6 18 7 16 8 15 9 14 10 13 11 6 12
REMARK SMILES IDX 7 13 8 14 9 15 12 16 11 17 10 18 4 20 20 22 17 24
REMARK H PARENT 10 19 4 21 20 23 17 25
REMARK Flexibility Score: inf
ROOT
ATOM      1  C   UNL     1      15.499   7.124  12.275  1.00  0.00     0.180 A 
ATOM      2  C   UNL     1      16.325   7.645  11.265  1.00  0.00     0.208 A 
ATOM      3  C   UNL     1      16.121   8.965  10.832  1.00  0.00     0.238 A 
ATOM      4  O   UNL     1      16.813   9.400   9.875  1.00  0.00    -0.285 OA
ATOM      5  C   UNL     1      15.132   9.766  11.453  1.00  0.00     0.111 A 
ATOM      6  C   UNL     1      14.870  11.132  11.126  1.00  0.00     0.134 A 
ATOM      7  C   UNL     1      13.795  11.793  11.735  1.00  0.00     0.093 A 
ATOM      8  C   UNL     1      13.015  11.159  12.705  1.00  0.00     0.123 A 
ATOM      9  C   UNL     1      13.298   9.846  13.069  1.00  0.00     0.094 A 
ATOM     10  C   UNL     1      14.338   9.146  12.454  1.00  0.00     0.146 A 
ATOM     11  O   UNL     1      14.559   7.889  12.817  1.00  0.00    -0.452 OA
ENDROOT
BRANCH   1  12
ATOM     12  C   UNL     1      15.643   5.737  12.775  1.00  0.00     0.021 A 
ATOM     13  C   UNL     1      16.346   5.502  13.967  1.00  0.00     0.016 A 
ATOM     14  C   UNL     1      16.475   4.203  14.469  1.00  0.00     0.047 A 
ATOM     15  C   UNL     1      15.889   3.125  13.792  1.00  0.00     0.115 A 
ATOM     16  C   UNL     1      15.040   4.653  12.111  1.00  0.00     0.016 A 
ATOM     17  C   UNL     1      15.170   3.355  12.615  1.00  0.00     0.047 A 
BRANCH  15  18
ATOM     18  O   UNL     1      16.011   1.827  14.282  1.00  0.00    -0.508 OA
ATOM     19  H   UNL     1      16.888   1.324  14.232  1.00  0.00     0.293 HD
ENDBRANCH  15  18
ENDBRANCH   1  12
BRANCH   2  20
ATOM     20  O   UNL     1      17.345   6.863  10.717  1.00  0.00    -0.502 OA
ATOM     21  H   UNL     1      17.573   5.941  11.067  1.00  0.00     0.293 HD
ENDBRANCH   2  20
BRANCH   6  22
ATOM     22  O   UNL     1      15.642  11.886  10.238  1.00  0.00    -0.507 OA
ATOM     23  H   UNL     1      16.527  11.599   9.852  1.00  0.00     0.293 HD
ENDBRANCH   6  22
BRANCH   8  24
ATOM     24  O   UNL     1      11.959  11.830  13.316  1.00  0.00    -0.508 OA
ATOM     25  H   UNL     1      12.117  12.520  14.041  1.00  0.00     0.293 HD
ENDBRANCH   8  24
TORSDOF 5
ENDMDL
MODEL 5
REMARK VINA RESULT:    -5.773      3.524      5.868
REMARK INTER + INTRA:          -7.049
REMARK INTER:                  -6.785
REMARK INTRA:                  -0.264
REMARK UNBOUND:                -0.264
REMARK SMILES O=c1c(O)c(-c2ccc(O)cc2)oc2cc(O)cc(O)c12
REMARK SMILES IDX 5 1 3 2 2 3 1 4 21 5 19 6 18 7 16 8 15 9 14 10 13 11 6 12
REMARK SMILES IDX 7 13 8 14 9 15 12 16 11 17 10 18 4 20 20 22 17 24
REMARK H PARENT 10 19 4 21 20 23 17 25
REMARK Flexibility Score: inf
ROOT
ATOM      1  C   UNL     1      15.790   6.168  12.690  1.00  0.00     0.180 A 
ATOM      2  C   UNL     1      15.553   6.524  11.352  1.00  0.00     0.208 A 
ATOM      3  C   UNL     1      14.907   7.740  11.075  1.00  0.00     0.238 A 
ATOM      4  O   UNL     1      14.630   8.017   9.879  1.00  0.00    -0.285 OA
ATOM      5  C   UNL     1      14.558   8.610  12.136  1.00  0.00     0.111 A 
ATOM      6  C   UNL     1      13.941   9.888  11.968  1.00  0.00     0.134 A 
ATOM      7  C   UNL     1      13.545  10.616  13.098  1.00  0.00     0.093 A 
ATOM      8  C   UNL     1      13.801  10.143  14.387  1.00  0.00     0.123 A 
ATOM      9  C   UNL     1      14.450   8.924  14.559  1.00  0.00     0.094 A 
ATOM     10  C   UNL     1      14.824   8.156  13.454  1.00  0.00     0.146 A 
ATOM     11  O   UNL     1      15.422   6.990  13.665  1.00  0.00    -0.452 OA
ENDROOT
BRANCH   1  12
ATOM     12  C   UNL     1      16.451   4.896  13.063  1.00  0.00     0.021 A 
ATOM     13  C   UNL     1      15.667   3.793  13.436  1.00  0.00     0.016 A 
ATOM     14  C   UNL     1      16.268   2.576  13.770  1.00  0.00     0.047 A 
ATOM     15  C   UNL     1      17.663   2.443  13.720  1.00  0.00     0.115 A 
ATOM     16  C   UNL     1      17.849   4.750  12.995  1.00  0.00     0.016 A 
ATOM     17  C   UNL     1      18.449   3.531  13.329  1.00  0.00     0.047 A 
BRANCH  15  18
ATOM     18  O   UNL     1      18.274   1.236  14.051  1.00  0.00    -0.508 OA
ATOM     19  H   UNL     1      17.732   0.396  14.212  1.00  0.00     0.293 HD
ENDBRANCH  15  18
ENDBRANCH   1  12
BRANCH   2  20
ATOM     20  O   UNL     1      15.973   5.687  10.315  1.00  0.00    -0.502 OA
ATOM     21  H   UNL     1      15.451   5.583   9.453  1.00  0.00     0.293 HD
ENDBRANCH   2  20
BRANCH   6  22
ATOM     22  O   UNL     1      13.720  10.494  10.728  1.00  0.00    -0.507 OA
ATOM     23  H   UNL     1      12.948  11.105  10.512  1.00  0.00     0.293 HD
ENDBRANCH   6  22
BRANCH   8  24
ATOM     24  O   UNL     1      13.418  10.882  15.503  1.00  0.00    -0.508 OA
ATOM     25  H   UNL     1      13.856  11.767  15.730  1.00  0.00     0.293 HD
ENDBRANCH   8  24
TORSDOF 5
ENDMDL
MODEL 6
REMARK VINA RESULT:    -5.704      1.740      6.796
REMARK INTER + INTRA:          -6.968
REMARK INTER:                  -6.932
REMARK INTRA:                  -0.036
REMARK UNBOUND:                -0.264
REMARK SMILES O=c1c(O)c(-c2ccc(O)cc2)oc2cc(O)cc(O)c12
REMARK SMILES IDX 5 1 3 2 2 3 1 4 21 5 19 6 18 7 16 8 15 9 14 10 13 11 6 12
REMARK SMILES IDX 7 13 8 14 9 15 12 16 11 17 10 18 4 20 20 22 17 24
REMARK H PARENT 10 19 4 21 20 23 17 25
REMARK Flexibility Score: inf
ROOT
ATOM      1  C   UNL     1      13.472   9.907  12.911  1.00  0.00     0.180 A 
ATOM      2  C   UNL     1      14.194  10.772  12.071  1.00  0.00     0.208 A 
ATOM      3  C   UNL     1      15.322  10.280  11.394  1.00  0.00     0.238 A 
ATOM      4  O   UNL     1      16.007  11.078  10.704  1.00  0.00    -0.285 OA
ATOM      5  C   UNL     1      15.681   8.916  11.521  1.00  0.00     0.111 A 
ATOM      6  C   UNL     1      16.777   8.299  10.844  1.00  0.00     0.134 A 
ATOM      7  C   UNL     1      17.102   6.966  11.129  1.00  0.00     0.093 A 
ATOM      8  C   UNL     1      16.330   6.210  12.015  1.00  0.00     0.123 A 
ATOM      9  C   UNL     1      15.227   6.787  12.637  1.00  0.00     0.094 A 
ATOM     10  C   UNL     1      14.900   8.125  12.404  1.00  0.00     0.146 A 
ATOM     11  O   UNL     1      13.852   8.641  13.034  1.00  0.00    -0.452 OA
ENDROOT
BRANCH   1  12
ATOM     12  C   UNL     1      12.282  10.355  13.669  1.00  0.00     0.021 A 
ATOM     13  C   UNL     1      11.090   9.617  13.581  1.00  0.00     0.016 A 
ATOM     14  C   UNL     1       9.960  10.009  14.306  1.00  0.00     0.047 A 
ATOM     15  C   UNL     1      10.013  11.134  15.139  1.00  0.00     0.115 A 
ATOM     16  C   UNL     1      12.334  11.471  14.522  1.00  0.00     0.016 A 
ATOM     17  C   UNL     1      11.202  11.861  15.247  1.00  0.00     0.047 A 
BRANCH  15  18
ATOM     18  O   UNL     1       8.894  11.535  15.865  1.00  0.00    -0.508 OA
ATOM     19  H   UNL     1       8.977  12.132  16.679  1.00  0.00     0.293 HD
ENDBRANCH  15  18
ENDBRANCH   1  12
BRANCH   2  20
ATOM     20  O   UNL     1      13.779  12.095  11.900  1.00  0.00    -0.502 OA
ATOM     21  H   UNL     1      14.328  12.776  11.389  1.00  0.00     0.293 HD
ENDBRANCH   2  20
BRANCH   6  22
ATOM     22  O   UNL     1      17.558   8.935   9.875  1.00  0.00    -0.507 OA
ATOM     23  H   UNL     1      17.871   9.892   9.921  1.00  0.00     0.293 HD
ENDBRANCH   6  22
BRANCH   8  24
ATOM     24  O   UNL     1      16.651   4.880  12.279  1.00  0.00    -0.508 OA
ATOM     25  H   UNL     1      16.094   4.117  11.912  1.00  0.00     0.293 HD
ENDBRANCH   8  24
TORSDOF 5
ENDMDL
MODEL 7
REMARK VINA RESULT:    -5.579      1.974      6.974
REMARK INTER + INTRA:          -6.821
REMARK INTER:                  -6.527
REMARK INTRA:                  -0.294
REMARK UNBOUND:                -0.264
REMARK SMILES O=c1c(O)c(-c2ccc(O)cc2)oc2cc(O)cc(O)c12
REMARK SMILES IDX 5 1 3 2 2 3 1 4 21 5 19 6 18 7 16 8 15 9 14 10 13 11 6 12
REMARK SMILES IDX 7 13 8 14 9 15 12 16 11 17 10 18 4 20 20 22 17 24
REMARK H PARENT 10 19 4 21 20 23 17 25
REMARK Flexibility Score: inf
ROOT
ATOM      1  C   UNL     1      14.213   9.200  12.852  1.00  0.00     0.180 A 
ATOM      2  C   UNL     1      14.996   9.856  11.888  1.00  0.00     0.208 A 
ATOM      3  C   UNL     1      16.032   9.149  11.256  1.00  0.00     0.238 A 
ATOM      4  O   UNL     1      16.777   9.763  10.450  1.00  0.00    -0.285 OA
ATOM      5  C   UNL     1      16.236   7.780  11.556  1.00  0.00     0.111 A 
ATOM      6  C   UNL     1      17.227   6.953  10.942  1.00  0.00     0.134 A 
ATOM      7  C   UNL     1      17.406   5.639  11.395  1.00  0.00     0.093 A 
ATOM      8  C   UNL     1      16.587   5.103  12.392  1.00  0.00     0.123 A 
ATOM      9  C   UNL     1      15.583   5.884  12.957  1.00  0.00     0.094 A 
ATOM     10  C   UNL     1      15.404   7.209  12.555  1.00  0.00     0.146 A 
ATOM     11  O   UNL     1      14.448   7.924  13.135  1.00  0.00    -0.452 OA
ENDROOT
BRANCH   1  12
ATOM     12  C   UNL     1      13.113   9.882  13.572  1.00  0.00     0.021 A 
ATOM     13  C   UNL     1      11.792   9.727  13.119  1.00  0.00     0.016 A 
ATOM     14  C   UNL     1      10.735  10.344  13.796  1.00  0.00     0.047 A 
ATOM     15  C   UNL     1      10.984  11.110  14.943  1.00  0.00     0.115 A 
ATOM     16  C   UNL     1      13.354  10.636  14.734  1.00  0.00     0.016 A 
ATOM     17  C   UNL     1      12.295  11.251  15.410  1.00  0.00     0.047 A 
BRANCH  15  18
ATOM     18  O   UNL     1       9.940  11.729  15.625  1.00  0.00    -0.508 OA
ATOM     19  H   UNL     1       9.816  11.610  16.623  1.00  0.00     0.293 HD
ENDBRANCH  15  18
ENDBRANCH   1  12
BRANCH   2  20
ATOM     20  O   UNL     1      14.731  11.186  11.551  1.00  0.00    -0.502 OA
ATOM     21  H   UNL     1      14.081  11.760  12.072  1.00  0.00     0.293 HD
ENDBRANCH   2  20
BRANCH   6  22
ATOM     22  O   UNL     1      18.037   7.360   9.879  1.00  0.00    -0.507 OA
ATOM     23  H   UNL     1      18.329   6.771   9.115  1.00  0.00     0.293 HD
ENDBRANCH   6  22
BRANCH   8  24
ATOM     24  O   UNL     1      16.762   3.790  12.823  1.00  0.00    -0.508 OA
ATOM     25  H   UNL     1      17.592   3.502  13.327  1.00  0.00     0.293 HD
ENDBRANCH   8  24
TORSDOF 5
ENDMDL
MODEL 8
REMARK VINA RESULT:    -5.483      2.673      4.239
REMARK INTER + INTRA:          -6.708
REMARK INTER:                  -6.549
REMARK INTRA:                  -0.158
REMARK UNBOUND:                -0.264
REMARK SMILES O=c1c(O)c(-c2ccc(O)cc2)oc2cc(O)cc(O)c12
REMARK SMILES IDX 5 1 3 2 2 3 1 4 21 5 19 6 18 7 16 8 15 9 14 10 13 11 6 12
REMARK SMILES IDX 7 13 8 14 9 15 12 16 11 17 10 18 4 20 20 22 17 24
REMARK H PARENT 10 19 4 21 20 23 17 25
REMARK Flexibility Score: inf
ROOT
ATOM      1  C   UNL     1      14.851   8.168  12.595  1.00  0.00     0.180 A 
ATOM      2  C   UNL     1      15.454   9.117  11.752  1.00  0.00     0.208 A 
ATOM      3  C   UNL     1      14.878  10.394  11.643  1.00  0.00     0.238 A 
ATOM      4  O   UNL     1      15.378  11.213  10.830  1.00  0.00    -0.285 OA
ATOM      5  C   UNL     1      13.741  10.723  12.420  1.00  0.00     0.111 A 
ATOM      6  C   UNL     1      13.102  12.001  12.423  1.00  0.00     0.134 A 
ATOM      7  C   UNL     1      11.919  12.179  13.153  1.00  0.00     0.093 A 
ATOM      8  C   UNL     1      11.389  11.146  13.930  1.00  0.00     0.123 A 
ATOM      9  C   UNL     1      12.035   9.915  13.975  1.00  0.00     0.094 A 
ATOM     10  C   UNL     1      13.195   9.692  13.229  1.00  0.00     0.146 A 
ATOM     11  O   UNL     1      13.766   8.496  13.286  1.00  0.00    -0.452 OA
ENDROOT
BRANCH   1  12
ATOM     12  C   UNL     1      15.389   6.798  12.751  1.00  0.00     0.021 A 
ATOM     13  C   UNL     1      15.346   5.910  11.663  1.00  0.00     0.016 A 
ATOM     14  C   UNL     1      15.869   4.619  11.781  1.00  0.00     0.047 A 
ATOM     15  C   UNL     1      16.456   4.204  12.985  1.00  0.00     0.115 A 
ATOM     16  C   UNL     1      15.997   6.381  13.949  1.00  0.00     0.016 A 
ATOM     17  C   UNL     1      16.521   5.089  14.065  1.00  0.00     0.047 A 
BRANCH  15  18
ATOM     18  O   UNL     1      16.979   2.920  13.115  1.00  0.00    -0.508 OA
ATOM     19  H   UNL     1      16.944   2.421  13.995  1.00  0.00     0.293 HD
ENDBRANCH  15  18
ENDBRANCH   1  12
BRANCH   2  20
ATOM     20  O   UNL     1      16.619   8.798  11.051  1.00  0.00    -0.502 OA
ATOM     21  H   UNL     1      16.630   8.137  10.284  1.00  0.00     0.293 HD
ENDBRANCH   2  20
BRANCH   6  22
ATOM     22  O   UNL     1      13.596  13.125  11.754  1.00  0.00    -0.507 OA
ATOM     23  H   UNL     1      14.559  13.267  11.494  1.00  0.00     0.293 HD
ENDBRANCH   6  22
BRANCH   8  24
ATOM     24  O   UNL     1      10.222  11.339  14.665  1.00  0.00    -0.508 OA
ATOM     25  H   UNL     1       9.553  12.060  14.421  1.00  0.00     0.293 HD
ENDBRANCH   8  24
TORSDOF 5
ENDMDL
MODEL 9
REMARK VINA RESULT:    -5.481      2.983      3.892
REMARK INTER + INTRA:          -6.706
REMARK INTER:                  -6.434
REMARK INTRA:                  -0.272
REMARK UNBOUND:                -0.264
REMARK SMILES O=c1c(O)c(-c2ccc(O)cc2)oc2cc(O)cc(O)c12
REMARK SMILES IDX 5 1 3 2 2 3 1 4 21 5 19 6 18 7 16 8 15 9 14 10 13 11 6 12
REMARK SMILES IDX 7 13 8 14 9 15 12 16 11 17 10 18 4 20 20 22 17 24
REMARK H PARENT 10 19 4 21 20 23 17 25
REMARK Flexibility Score: inf
ROOT
ATOM      1  C   UNL     1      14.908   7.852  12.056  1.00  0.00     0.180 A 
ATOM      2  C   UNL     1      14.987   8.202  13.415  1.00  0.00     0.208 A 
ATOM      3  C   UNL     1      14.355   9.377  13.853  1.00  0.00     0.238 A 
ATOM      4  O   UNL     1      14.494   9.725  15.054  1.00  0.00    -0.285 OA
ATOM      5  C   UNL     1      13.604  10.157  12.940  1.00  0.00     0.111 A 
ATOM      6  C   UNL     1      12.884  11.342  13.283  1.00  0.00     0.134 A 
ATOM      7  C   UNL     1      12.264  12.090  12.274  1.00  0.00     0.093 A 
ATOM      8  C   UNL     1      12.283  11.661  10.945  1.00  0.00     0.123 A 
ATOM      9  C   UNL     1      12.935  10.479  10.609  1.00  0.00     0.094 A 
ATOM     10  C   UNL     1      13.596   9.730  11.586  1.00  0.00     0.146 A 
ATOM     11  O   UNL     1      14.223   8.620  11.217  1.00  0.00    -0.452 OA
ENDROOT
BRANCH   1  12
ATOM     12  C   UNL     1      15.559   6.637  11.516  1.00  0.00     0.021 A 
ATOM     13  C   UNL     1      16.828   6.741  10.922  1.00  0.00     0.016 A 
ATOM     14  C   UNL     1      17.473   5.603  10.425  1.00  0.00     0.047 A 
ATOM     15  C   UNL     1      16.862   4.346  10.529  1.00  0.00     0.115 A 
ATOM     16  C   UNL     1      14.961   5.370  11.634  1.00  0.00     0.016 A 
ATOM     17  C   UNL     1      15.608   4.233  11.137  1.00  0.00     0.047 A 
BRANCH  15  18
ATOM     18  O   UNL     1      17.493   3.206  10.037  1.00  0.00    -0.508 OA
ATOM     19  H   UNL     1      17.343   2.296  10.455  1.00  0.00     0.293 HD
ENDBRANCH  15  18
ENDBRANCH   1  12
BRANCH   2  20
ATOM     20  O   UNL     1      15.669   7.380  14.315  1.00  0.00    -0.502 OA
ATOM     21  H   UNL     1      15.231   7.003  15.147  1.00  0.00     0.293 HD
ENDBRANCH   2  20
BRANCH   6  22
ATOM     22  O   UNL     1      12.728  11.811  14.591  1.00  0.00    -0.507 OA
ATOM     23  H   UNL     1      12.037  11.481  15.245  1.00  0.00     0.293 HD
ENDBRANCH   6  22
BRANCH   8  24
ATOM     24  O   UNL     1      11.648  12.403   9.951  1.00  0.00    -0.508 OA
ATOM     25  H   UNL     1      10.640  12.491   9.916  1.00  0.00     0.293 HD
ENDBRANCH   8  24
TORSDOF 5
ENDMDL
