MODEL 1
REMARK VINA RESULT:    -5.960      0.000      0.000
REMARK INTER + INTRA:         -12.275
REMARK INTER:                 -10.489
REMARK INTRA:                  -1.786
REMARK UNBOUND:                -1.786
REMARK SMILES COc1cc(-c2[o+]c3cc(O)cc(O[C@H]4O[C@H](CO)[C@@H](O)[C@@H](O)[C@@H]4O)c3cc2O[C@H]2O[C@H](CO)[C@@H](O)[C@H](O)[C@H]2O)ccc1O
REMARK SMILES IDX 6 1 28 2 27 3 26 4 13 5 12 6 10 7 9 8 8 9 7 10 5 11 3 12
REMARK SMILES IDX 43 13 4 14 42 15 41 16 2 17 1 18 44 19 29 21 30 22 39 23
REMARK SMILES IDX 31 24 37 25 32 26 35 27 40 28 38 30 33 32 34 33 36 35 14 37
REMARK SMILES IDX 15 38 24 39 16 40 22 41 17 42 20 43 25 44 23 46 18 48 19 49
REMARK SMILES IDX 21 51 11 53
REMARK H PARENT 44 20 40 29 38 31 34 34 36 36 25 45 23 47 19 50 21 52 11 54
REMARK Flexibility Score: inf
ROOT
ATOM      1  C   UNL     1      -4.211   4.357  15.474  1.00  0.00     0.402 A 
ATOM      2  C   UNL     1      -5.508   3.847  15.670  1.00  0.00     0.229 A 
ATOM      3  C   UNL     1      -5.675   2.784  16.572  1.00  0.00     0.079 A 
ATOM      4  C   UNL     1      -4.568   2.270  17.259  1.00  0.00     0.126 A 
ATOM      5  C   UNL     1      -4.676   1.147  18.100  1.00  0.00     0.143 A 
ATOM      6  C   UNL     1      -3.535   0.680  18.778  1.00  0.00     0.094 A 
ATOM      7  C   UNL     1      -2.295   1.304  18.592  1.00  0.00     0.128 A 
ATOM      8  C   UNL     1      -2.183   2.388  17.716  1.00  0.00     0.162 A 
ATOM      9  C   UNL     1      -3.310   2.864  17.034  1.00  0.00     0.368 A 
ATOM     10  O   UNL     1      -3.184   3.856  16.156  1.00  0.00    -0.202 OA
ENDROOT
BRANCH   1  11
ATOM     11  C   UNL     1      -3.953   5.431  14.490  1.00  0.00     0.087 A 
ATOM     12  C   UNL     1      -4.452   6.477  12.337  1.00  0.00     0.161 A 
ATOM     13  C   UNL     1      -3.534   7.498  12.630  1.00  0.00     0.157 A 
ATOM     14  C   UNL     1      -4.647   5.436  13.269  1.00  0.00     0.068 A 
ATOM     15  C   UNL     1      -2.822   7.477  13.838  1.00  0.00     0.051 A 
ATOM     16  C   UNL     1      -3.028   6.450  14.761  1.00  0.00     0.022 A 
BRANCH  12  17
ATOM     17  O   UNL     1      -5.152   6.537  11.123  1.00  0.00    -0.493 OA
ATOM     18  C   UNL     1      -6.171   5.621  10.740  1.00  0.00     0.278 C 
ENDBRANCH  12  17
BRANCH  13  19
ATOM     19  O   UNL     1      -3.337   8.532  11.716  1.00  0.00    -0.504 OA
ATOM     20  H   UNL     1      -4.048   9.235  11.550  1.00  0.00     0.293 HD
ENDBRANCH  13  19
ENDBRANCH   1  11
BRANCH   2  21
ATOM     21  O   UNL     1      -6.574   4.382  14.926  1.00  0.00    -0.452 OA
BRANCH  21  22
ATOM     22  C   UNL     1      -7.746   5.014  15.458  1.00  0.00     0.339 C 
ATOM     23  C   UNL     1      -8.695   5.512  14.344  1.00  0.00     0.214 C 
ATOM     24  O   UNL     1      -7.375   6.087  16.309  1.00  0.00    -0.332 OA
ATOM     25  C   UNL     1      -8.058   6.686  13.568  1.00  0.00     0.180 C 
ATOM     26  C   UNL     1      -6.647   7.090  15.611  1.00  0.00     0.179 C 
ATOM     27  C   UNL     1      -7.545   7.758  14.543  1.00  0.00     0.177 C 
BRANCH  23  28
ATOM     28  O   UNL     1      -9.080   4.469  13.485  1.00  0.00    -0.384 OA
ATOM     29  H   UNL     1      -9.309   3.680  14.046  1.00  0.00     0.211 HD
ENDBRANCH  23  28
BRANCH  25  30
ATOM     30  O   UNL     1      -8.974   7.241  12.656  1.00  0.00    -0.387 OA
ATOM     31  H   UNL     1      -9.044   6.622  11.882  1.00  0.00     0.211 HD
ENDBRANCH  25  30
BRANCH  26  32
ATOM     32  C   UNL     1      -6.133   8.103  16.644  1.00  0.00     0.191 C 
BRANCH  32  33
ATOM     33  O   UNL     1      -6.629   7.798  17.920  1.00  0.00    -0.394 OA
ATOM     34  H   UNL     1      -6.197   8.438  18.539  1.00  0.00     0.210 HD
ENDBRANCH  32  33
ENDBRANCH  26  32
BRANCH  27  35
ATOM     35  O   UNL     1      -6.817   8.717  13.817  1.00  0.00    -0.387 OA
ATOM     36  H   UNL     1      -6.615   9.466  14.439  1.00  0.00     0.211 HD
ENDBRANCH  27  35
ENDBRANCH  21  22
ENDBRANCH   2  21
BRANCH   5  37
ATOM     37  O   UNL     1      -5.911   0.485  18.202  1.00  0.00    -0.461 OA
BRANCH  37  38
ATOM     38  C   UNL     1      -6.098  -0.933  18.196  1.00  0.00     0.339 C 
ATOM     39  C   UNL     1      -7.367  -1.282  17.355  1.00  0.00     0.214 C 
ATOM     40  O   UNL     1      -6.183  -1.332  19.557  1.00  0.00    -0.332 OA
ATOM     41  C   UNL     1      -8.543  -1.634  18.268  1.00  0.00     0.180 C 
ATOM     42  C   UNL     1      -6.737  -2.623  19.781  1.00  0.00     0.179 C 
ATOM     43  C   UNL     1      -8.152  -2.826  19.151  1.00  0.00     0.177 C 
BRANCH  39  44
ATOM     44  O   UNL     1      -7.113  -2.359  16.490  1.00  0.00    -0.384 OA
ATOM     45  H   UNL     1      -7.579  -3.153  16.863  1.00  0.00     0.211 HD
ENDBRANCH  39  44
BRANCH  41  46
ATOM     46  O   UNL     1      -8.891  -0.533  19.076  1.00  0.00    -0.387 OA
ATOM     47  H   UNL     1      -8.546  -0.720  19.989  1.00  0.00     0.211 HD
ENDBRANCH  41  46
BRANCH  42  48
ATOM     48  C   UNL     1      -5.736  -3.759  19.490  1.00  0.00     0.191 C 
BRANCH  48  49
ATOM     49  O   UNL     1      -6.114  -4.526  18.377  1.00  0.00    -0.394 OA
ATOM     50  H   UNL     1      -6.047  -5.480  18.640  1.00  0.00     0.210 HD
ENDBRANCH  48  49
ENDBRANCH  42  48
BRANCH  43  51
ATOM     51  O   UNL     1      -9.125  -2.982  20.154  1.00  0.00    -0.387 OA
ATOM     52  H   UNL     1      -9.313  -3.958  20.232  1.00  0.00     0.211 HD
ENDBRANCH  43  51
ENDBRANCH  37  38
ENDBRANCH   5  37
BRANCH   7  53
ATOM     53  O   UNL     1      -1.160   0.839  19.258  1.00  0.00    -0.507 OA
ATOM     54  H   UNL     1      -1.159   0.693  20.261  1.00  0.00     0.293 HD
ENDBRANCH   7  53
TORSDOF 18
ENDMDL
MODEL 2
REMARK VINA RESULT:    -4.674     10.346     15.098
REMARK INTER + INTRA:         -10.013
REMARK INTER:                  -8.761
REMARK INTRA:                  -1.252
REMARK UNBOUND:                -1.786
REMARK SMILES COc1cc(-c2[o+]c3cc(O)cc(O[C@H]4O[C@H](CO)[C@@H](O)[C@@H](O)[C@@H]4O)c3cc2O[C@H]2O[C@H](CO)[C@@H](O)[C@H](O)[C@H]2O)ccc1O
REMARK SMILES IDX 6 1 28 2 27 3 26 4 13 5 12 6 10 7 9 8 8 9 7 10 5 11 3 12
REMARK SMILES IDX 43 13 4 14 42 15 41 16 2 17 1 18 44 19 29 21 30 22 39 23
REMARK SMILES IDX 31 24 37 25 32 26 35 27 40 28 38 30 33 32 34 33 36 35 14 37
REMARK SMILES IDX 15 38 24 39 16 40 22 41 17 42 20 43 25 44 23 46 18 48 19 49
REMARK SMILES IDX 21 51 11 53
REMARK H PARENT 44 20 40 29 38 31 34 34 36 36 25 45 23 47 19 50 21 52 11 54
REMARK Flexibility Score: inf
ROOT
ATOM      1  C   UNL     1      -5.261  -8.206  24.480  1.00  0.00     0.402 A 
ATOM      2  C   UNL     1      -4.139  -7.363  24.379  1.00  0.00     0.229 A 
ATOM      3  C   UNL     1      -3.305  -7.228  25.502  1.00  0.00     0.079 A 
ATOM      4  C   UNL     1      -3.595  -7.934  26.676  1.00  0.00     0.126 A 
ATOM      5  C   UNL     1      -2.841  -7.757  27.851  1.00  0.00     0.143 A 
ATOM      6  C   UNL     1      -3.166  -8.502  28.999  1.00  0.00     0.094 A 
ATOM      7  C   UNL     1      -4.251  -9.388  28.986  1.00  0.00     0.128 A 
ATOM      8  C   UNL     1      -5.028  -9.523  27.831  1.00  0.00     0.162 A 
ATOM      9  C   UNL     1      -4.717  -8.787  26.680  1.00  0.00     0.368 A 
ATOM     10  O   UNL     1      -5.497  -8.876  25.606  1.00  0.00    -0.202 OA
ENDROOT
BRANCH   1  11
ATOM     11  C   UNL     1      -6.217  -8.343  23.360  1.00  0.00     0.087 A 
ATOM     12  C   UNL     1      -6.671  -9.009  21.051  1.00  0.00     0.161 A 
ATOM     13  C   UNL     1      -8.024  -8.680  21.232  1.00  0.00     0.157 A 
ATOM     14  C   UNL     1      -5.768  -8.824  22.119  1.00  0.00     0.068 A 
ATOM     15  C   UNL     1      -8.466  -8.174  22.463  1.00  0.00     0.051 A 
ATOM     16  C   UNL     1      -7.569  -8.004  23.519  1.00  0.00     0.022 A 
BRANCH  12  17
ATOM     17  O   UNL     1      -6.270  -9.521  19.809  1.00  0.00    -0.493 OA
ATOM     18  C   UNL     1      -4.980 -10.060  19.544  1.00  0.00     0.278 C 
ENDBRANCH  12  17
BRANCH  13  19
ATOM     19  O   UNL     1      -8.925  -8.862  20.183  1.00  0.00    -0.504 OA
ATOM     20  H   UNL     1      -9.664  -9.553  20.233  1.00  0.00     0.293 HD
ENDBRANCH  13  19
ENDBRANCH   1  11
BRANCH   2  21
ATOM     21  O   UNL     1      -3.919  -6.654  23.186  1.00  0.00    -0.452 OA
BRANCH  21  22
ATOM     22  C   UNL     1      -4.018  -5.235  23.011  1.00  0.00     0.339 C 
ATOM     23  C   UNL     1      -5.474  -4.778  22.763  1.00  0.00     0.214 C 
ATOM     24  O   UNL     1      -3.180  -4.818  21.944  1.00  0.00    -0.332 OA
ATOM     25  C   UNL     1      -5.976  -5.277  21.390  1.00  0.00     0.180 C 
ATOM     26  C   UNL     1      -3.559  -5.412  20.709  1.00  0.00     0.179 C 
ATOM     27  C   UNL     1      -4.965  -4.923  20.287  1.00  0.00     0.177 C 
BRANCH  23  28
ATOM     28  O   UNL     1      -6.328  -5.177  23.805  1.00  0.00    -0.384 OA
ATOM     29  H   UNL     1      -7.259  -5.179  23.454  1.00  0.00     0.211 HD
ENDBRANCH  23  28
BRANCH  25  30
ATOM     30  O   UNL     1      -7.243  -4.740  21.094  1.00  0.00    -0.387 OA
ATOM     31  H   UNL     1      -7.688  -5.350  20.449  1.00  0.00     0.211 HD
ENDBRANCH  25  30
BRANCH  26  32
ATOM     32  C   UNL     1      -2.491  -5.054  19.666  1.00  0.00     0.191 C 
BRANCH  32  33
ATOM     33  O   UNL     1      -1.423  -5.962  19.726  1.00  0.00    -0.394 OA
ATOM     34  H   UNL     1      -1.737  -6.780  19.266  1.00  0.00     0.210 HD
ENDBRANCH  32  33
ENDBRANCH  26  32
BRANCH  27  35
ATOM     35  O   UNL     1      -5.366  -5.545  19.092  1.00  0.00    -0.387 OA
ATOM     36  H   UNL     1      -5.366  -4.847  18.384  1.00  0.00     0.211 HD
ENDBRANCH  27  35
ENDBRANCH  21  22
ENDBRANCH   2  21
BRANCH   5  37
ATOM     37  O   UNL     1      -1.814  -6.799  27.865  1.00  0.00    -0.461 OA
BRANCH  37  38
ATOM     38  C   UNL     1      -0.482  -6.999  27.382  1.00  0.00     0.339 C 
ATOM     39  C   UNL     1      -0.276  -8.512  27.053  1.00  0.00     0.214 C 
ATOM     40  O   UNL     1       0.389  -6.507  28.391  1.00  0.00    -0.332 OA
ATOM     41  C   UNL     1       0.552  -9.196  28.143  1.00  0.00     0.180 C 
ATOM     42  C   UNL     1       1.741  -6.940  28.294  1.00  0.00     0.179 C 
ATOM     43  C   UNL     1       1.910  -8.492  28.255  1.00  0.00     0.177 C 
BRANCH  39  44
ATOM     44  O   UNL     1       0.365  -8.671  25.814  1.00  0.00    -0.384 OA
ATOM     45  H   UNL     1      -0.119  -9.386  25.321  1.00  0.00     0.211 HD
ENDBRANCH  39  44
BRANCH  41  46
ATOM     46  O   UNL     1      -0.118  -9.146  29.381  1.00  0.00    -0.387 OA
ATOM     47  H   UNL     1      -0.269  -8.187  29.592  1.00  0.00     0.211 HD
ENDBRANCH  41  46
BRANCH  42  48
ATOM     48  C   UNL     1       2.533  -6.181  27.211  1.00  0.00     0.191 C 
BRANCH  48  49
ATOM     49  O   UNL     1       3.223  -7.050  26.352  1.00  0.00    -0.394 OA
ATOM     50  H   UNL     1       4.185  -6.994  26.586  1.00  0.00     0.210 HD
ENDBRANCH  48  49
ENDBRANCH  42  48
BRANCH  43  51
ATOM     51  O   UNL     1       2.560  -8.951  29.415  1.00  0.00    -0.387 OA
ATOM     52  H   UNL     1       2.882  -9.876  29.226  1.00  0.00     0.211 HD
ENDBRANCH  43  51
ENDBRANCH  37  38
ENDBRANCH   5  37
BRANCH   7  53
ATOM     53  O   UNL     1      -4.579 -10.124  30.125  1.00  0.00    -0.507 OA
ATOM     54  H   UNL     1      -5.471 -10.005  30.592  1.00  0.00     0.293 HD
ENDBRANCH   7  53
TORSDOF 18
ENDMDL
MODEL 3
REMARK VINA RESULT:    -4.669      1.196      2.211
REMARK INTER + INTRA:         -10.003
REMARK INTER:                  -9.048
REMARK INTRA:                  -0.955
REMARK UNBOUND:                -1.786
REMARK SMILES COc1cc(-c2[o+]c3cc(O)cc(O[C@H]4O[C@H](CO)[C@@H](O)[C@@H](O)[C@@H]4O)c3cc2O[C@H]2O[C@H](CO)[C@@H](O)[C@H](O)[C@H]2O)ccc1O
REMARK SMILES IDX 6 1 28 2 27 3 26 4 13 5 12 6 10 7 9 8 8 9 7 10 5 11 3 12
REMARK SMILES IDX 43 13 4 14 42 15 41 16 2 17 1 18 44 19 29 21 30 22 39 23
REMARK SMILES IDX 31 24 37 25 32 26 35 27 40 28 38 30 33 32 34 33 36 35 14 37
REMARK SMILES IDX 15 38 24 39 16 40 22 41 17 42 20 43 25 44 23 46 18 48 19 49
REMARK SMILES IDX 21 51 11 53
REMARK H PARENT 44 20 40 29 38 31 34 34 36 36 25 45 23 47 19 50 21 52 11 54
REMARK Flexibility Score: inf
ROOT
ATOM      1  C   UNL     1      -4.549   4.664  14.838  1.00  0.00     0.402 A 
ATOM      2  C   UNL     1      -5.808   4.041  14.926  1.00  0.00     0.229 A 
ATOM      3  C   UNL     1      -5.959   2.967  15.818  1.00  0.00     0.079 A 
ATOM      4  C   UNL     1      -4.874   2.552  16.601  1.00  0.00     0.126 A 
ATOM      5  C   UNL     1      -4.955   1.424  17.438  1.00  0.00     0.143 A 
ATOM      6  C   UNL     1      -3.841   1.059  18.215  1.00  0.00     0.094 A 
ATOM      7  C   UNL     1      -2.648   1.789  18.132  1.00  0.00     0.128 A 
ATOM      8  C   UNL     1      -2.557   2.880  17.260  1.00  0.00     0.162 A 
ATOM      9  C   UNL     1      -3.659   3.255  16.480  1.00  0.00     0.368 A 
ATOM     10  O   UNL     1      -3.545   4.254  15.610  1.00  0.00    -0.202 OA
ENDROOT
BRANCH   1  11
ATOM     11  C   UNL     1      -4.303   5.756  13.873  1.00  0.00     0.087 A 
ATOM     12  C   UNL     1      -3.280   7.916  13.355  1.00  0.00     0.161 A 
ATOM     13  C   UNL     1      -3.758   7.818  12.039  1.00  0.00     0.157 A 
ATOM     14  C   UNL     1      -3.569   6.885  14.274  1.00  0.00     0.068 A 
ATOM     15  C   UNL     1      -4.514   6.702  11.648  1.00  0.00     0.051 A 
ATOM     16  C   UNL     1      -4.786   5.680  12.558  1.00  0.00     0.022 A 
BRANCH  12  17
ATOM     17  O   UNL     1      -2.521   9.042  13.706  1.00  0.00    -0.493 OA
ATOM     18  C   UNL     1      -1.108   9.131  13.564  1.00  0.00     0.278 C 
ENDBRANCH  12  17
BRANCH  13  19
ATOM     19  O   UNL     1      -3.476   8.832  11.124  1.00  0.00    -0.504 OA
ATOM     20  H   UNL     1      -3.243   8.625  10.160  1.00  0.00     0.293 HD
ENDBRANCH  13  19
ENDBRANCH   1  11
BRANCH   2  21
ATOM     21  O   UNL     1      -6.849   4.480  14.090  1.00  0.00    -0.452 OA
BRANCH  21  22
ATOM     22  C   UNL     1      -8.126   4.975  14.513  1.00  0.00     0.339 C 
ATOM     23  C   UNL     1      -8.800   5.851  13.432  1.00  0.00     0.214 C 
ATOM     24  O   UNL     1      -7.988   5.702  15.724  1.00  0.00    -0.332 OA
ATOM     25  C   UNL     1      -8.025   7.173  13.240  1.00  0.00     0.180 C 
ATOM     26  C   UNL     1      -7.139   6.832  15.569  1.00  0.00     0.179 C 
ATOM     27  C   UNL     1      -7.777   7.852  14.596  1.00  0.00     0.177 C 
BRANCH  23  28
ATOM     28  O   UNL     1      -8.951   5.155  12.220  1.00  0.00    -0.384 OA
ATOM     29  H   UNL     1      -9.918   4.953  12.103  1.00  0.00     0.211 HD
ENDBRANCH  23  28
BRANCH  25  30
ATOM     30  O   UNL     1      -8.714   8.037  12.369  1.00  0.00    -0.387 OA
ATOM     31  H   UNL     1      -8.504   7.760  11.438  1.00  0.00     0.211 HD
ENDBRANCH  25  30
BRANCH  26  32
ATOM     32  C   UNL     1      -6.902   7.438  16.960  1.00  0.00     0.191 C 
BRANCH  32  33
ATOM     33  O   UNL     1      -7.916   7.044  17.845  1.00  0.00    -0.394 OA
ATOM     34  H   UNL     1      -8.459   6.376  17.356  1.00  0.00     0.210 HD
ENDBRANCH  32  33
ENDBRANCH  26  32
BRANCH  27  35
ATOM     35  O   UNL     1      -6.921   8.950  14.400  1.00  0.00    -0.387 OA
ATOM     36  H   UNL     1      -7.198   9.657  15.043  1.00  0.00     0.211 HD
ENDBRANCH  27  35
ENDBRANCH  21  22
ENDBRANCH   2  21
BRANCH   5  37
ATOM     37  O   UNL     1      -6.132   0.655  17.438  1.00  0.00    -0.461 OA
BRANCH  37  38
ATOM     38  C   UNL     1      -6.523  -0.266  18.460  1.00  0.00     0.339 C 
ATOM     39  C   UNL     1      -5.661  -1.562  18.343  1.00  0.00     0.214 C 
ATOM     40  O   UNL     1      -7.917  -0.486  18.289  1.00  0.00    -0.332 OA
ATOM     41  C   UNL     1      -6.468  -2.696  17.708  1.00  0.00     0.180 C 
ATOM     42  C   UNL     1      -8.438  -1.636  18.943  1.00  0.00     0.179 C 
ATOM     43  C   UNL     1      -7.711  -2.966  18.566  1.00  0.00     0.177 C 
BRANCH  39  44
ATOM     44  O   UNL     1      -5.199  -1.971  19.604  1.00  0.00    -0.384 OA
ATOM     45  H   UNL     1      -5.798  -1.562  20.284  1.00  0.00     0.211 HD
ENDBRANCH  39  44
BRANCH  41  46
ATOM     46  O   UNL     1      -6.856  -2.356  16.397  1.00  0.00    -0.387 OA
ATOM     47  H   UNL     1      -7.228  -1.437  16.432  1.00  0.00     0.211 HD
ENDBRANCH  41  46
BRANCH  42  48
ATOM     48  C   UNL     1      -8.638  -1.421  20.457  1.00  0.00     0.191 C 
BRANCH  48  49
ATOM     49  O   UNL     1      -9.046  -0.112  20.757  1.00  0.00    -0.394 OA
ATOM     50  H   UNL     1      -9.980  -0.162  21.084  1.00  0.00     0.210 HD
ENDBRANCH  48  49
ENDBRANCH  42  48
BRANCH  43  51
ATOM     51  O   UNL     1      -8.573  -3.820  17.855  1.00  0.00    -0.387 OA
ATOM     52  H   UNL     1      -9.414  -3.897  18.385  1.00  0.00     0.211 HD
ENDBRANCH  43  51
ENDBRANCH  37  38
ENDBRANCH   5  37
BRANCH   7  53
ATOM     53  O   UNL     1      -1.539   1.426  18.896  1.00  0.00    -0.507 OA
ATOM     54  H   UNL     1      -0.613   1.777  18.683  1.00  0.00     0.293 HD
ENDBRANCH   7  53
TORSDOF 18
ENDMDL
MODEL 4
REMARK VINA RESULT:    -4.002      6.771     14.784
REMARK INTER + INTRA:          -8.829
REMARK INTER:                  -8.166
REMARK INTRA:                  -0.663
REMARK UNBOUND:                -1.786
REMARK SMILES COc1cc(-c2[o+]c3cc(O)cc(O[C@H]4O[C@H](CO)[C@@H](O)[C@@H](O)[C@@H]4O)c3cc2O[C@H]2O[C@H](CO)[C@@H](O)[C@H](O)[C@H]2O)ccc1O
REMARK SMILES IDX 6 1 28 2 27 3 26 4 13 5 12 6 10 7 9 8 8 9 7 10 5 11 3 12
REMARK SMILES IDX 43 13 4 14 42 15 41 16 2 17 1 18 44 19 29 21 30 22 39 23
REMARK SMILES IDX 31 24 37 25 32 26 35 27 40 28 38 30 33 32 34 33 36 35 14 37
REMARK SMILES IDX 15 38 24 39 16 40 22 41 17 42 20 43 25 44 23 46 18 48 19 49
REMARK SMILES IDX 21 51 11 53
REMARK H PARENT 44 20 40 29 38 31 34 34 36 36 25 45 23 47 19 50 21 52 11 54
REMARK Flexibility Score: inf
ROOT
ATOM      1  C   UNL     1      -4.547  -6.563  24.819  1.00  0.00     0.402 A 
ATOM      2  C   UNL     1      -5.871  -6.119  24.635  1.00  0.00     0.229 A 
ATOM      3  C   UNL     1      -6.215  -5.548  23.400  1.00  0.00     0.079 A 
ATOM      4  C   UNL     1      -5.255  -5.444  22.385  1.00  0.00     0.126 A 
ATOM      5  C   UNL     1      -5.532  -4.796  21.168  1.00  0.00     0.143 A 
ATOM      6  C   UNL     1      -4.537  -4.732  20.177  1.00  0.00     0.094 A 
ATOM      7  C   UNL     1      -3.268  -5.278  20.410  1.00  0.00     0.128 A 
ATOM      8  C   UNL     1      -2.981  -5.877  21.641  1.00  0.00     0.162 A 
ATOM      9  C   UNL     1      -3.963  -5.948  22.638  1.00  0.00     0.368 A 
ATOM     10  O   UNL     1      -3.665  -6.464  23.827  1.00  0.00    -0.202 OA
ENDROOT
BRANCH   1  11
ATOM     11  C   UNL     1      -4.099  -7.113  26.115  1.00  0.00     0.087 A 
ATOM     12  C   UNL     1      -2.749  -6.892  28.142  1.00  0.00     0.161 A 
ATOM     13  C   UNL     1      -3.279  -8.101  28.618  1.00  0.00     0.157 A 
ATOM     14  C   UNL     1      -3.153  -6.409  26.880  1.00  0.00     0.068 A 
ATOM     15  C   UNL     1      -4.203  -8.816  27.841  1.00  0.00     0.051 A 
ATOM     16  C   UNL     1      -4.608  -8.328  26.598  1.00  0.00     0.022 A 
BRANCH  12  17
ATOM     17  O   UNL     1      -1.835  -6.200  28.951  1.00  0.00    -0.493 OA
ATOM     18  C   UNL     1      -0.452  -6.518  29.049  1.00  0.00     0.278 C 
ENDBRANCH  12  17
BRANCH  13  19
ATOM     19  O   UNL     1      -2.886  -8.584  29.866  1.00  0.00    -0.504 OA
ATOM     20  H   UNL     1      -1.997  -8.326  30.277  1.00  0.00     0.293 HD
ENDBRANCH  13  19
ENDBRANCH   1  11
BRANCH   2  21
ATOM     21  O   UNL     1      -6.780  -6.219  25.702  1.00  0.00    -0.452 OA
BRANCH  21  22
ATOM     22  C   UNL     1      -8.165  -6.579  25.605  1.00  0.00     0.339 C 
ATOM     23  C   UNL     1      -8.849  -6.639  26.990  1.00  0.00     0.214 C 
ATOM     24  O   UNL     1      -8.298  -7.821  24.933  1.00  0.00    -0.332 OA
ATOM     25  C   UNL     1      -8.299  -7.819  27.820  1.00  0.00     0.180 C 
ATOM     26  C   UNL     1      -7.647  -8.875  25.632  1.00  0.00     0.179 C 
ATOM     27  C   UNL     1      -8.335  -9.117  26.997  1.00  0.00     0.177 C 
BRANCH  23  28
ATOM     28  O   UNL     1      -8.734  -5.420  27.679  1.00  0.00    -0.384 OA
ATOM     29  H   UNL     1      -8.549  -5.626  28.635  1.00  0.00     0.211 HD
ENDBRANCH  23  28
BRANCH  25  30
ATOM     30  O   UNL     1      -9.022  -7.971  29.018  1.00  0.00    -0.387 OA
ATOM     31  H   UNL     1      -8.683  -7.297  29.664  1.00  0.00     0.211 HD
ENDBRANCH  25  30
BRANCH  26  32
ATOM     32  C   UNL     1      -7.683 -10.125  24.741  1.00  0.00     0.191 C 
BRANCH  32  33
ATOM     33  O   UNL     1      -6.790  -9.989  23.669  1.00  0.00    -0.394 OA
ATOM     34  H   UNL     1      -6.001 -10.540  23.901  1.00  0.00     0.210 HD
ENDBRANCH  32  33
ENDBRANCH  26  32
BRANCH  27  35
ATOM     35  O   UNL     1      -7.666 -10.124  27.714  1.00  0.00    -0.387 OA
ATOM     36  H   UNL     1      -7.479  -9.763  28.622  1.00  0.00     0.211 HD
ENDBRANCH  27  35
ENDBRANCH  21  22
ENDBRANCH   2  21
BRANCH   5  37
ATOM     37  O   UNL     1      -6.782  -4.179  20.991  1.00  0.00    -0.461 OA
BRANCH  37  38
ATOM     38  C   UNL     1      -7.017  -2.967  20.268  1.00  0.00     0.339 C 
ATOM     39  C   UNL     1      -8.461  -2.994  19.673  1.00  0.00     0.214 C 
ATOM     40  O   UNL     1      -5.993  -2.882  19.286  1.00  0.00    -0.332 OA
ATOM     41  C   UNL     1      -8.424  -3.294  18.173  1.00  0.00     0.180 C 
ATOM     42  C   UNL     1      -6.240  -1.968  18.224  1.00  0.00     0.179 C 
ATOM     43  C   UNL     1      -7.584  -2.222  17.468  1.00  0.00     0.177 C 
BRANCH  39  44
ATOM     44  O   UNL     1      -9.111  -1.768  19.885  1.00  0.00    -0.384 OA
ATOM     45  H   UNL     1      -9.652  -1.577  19.073  1.00  0.00     0.211 HD
ENDBRANCH  39  44
BRANCH  41  46
ATOM     46  O   UNL     1      -7.872  -4.568  17.935  1.00  0.00    -0.387 OA
ATOM     47  H   UNL     1      -7.450  -4.867  18.783  1.00  0.00     0.211 HD
ENDBRANCH  41  46
BRANCH  42  48
ATOM     48  C   UNL     1      -6.000  -0.501  18.631  1.00  0.00     0.191 C 
BRANCH  48  49
ATOM     49  O   UNL     1      -6.214   0.387  17.566  1.00  0.00    -0.394 OA
ATOM     50  H   UNL     1      -7.016   0.926  17.788  1.00  0.00     0.210 HD
ENDBRANCH  48  49
ENDBRANCH  42  48
BRANCH  43  51
ATOM     51  O   UNL     1      -7.341  -2.636  16.147  1.00  0.00    -0.387 OA
ATOM     52  H   UNL     1      -7.797  -1.985  15.545  1.00  0.00     0.211 HD
ENDBRANCH  43  51
ENDBRANCH  37  38
ENDBRANCH   5  37
BRANCH   7  53
ATOM     53  O   UNL     1      -2.276  -5.211  19.431  1.00  0.00    -0.507 OA
ATOM     54  H   UNL     1      -1.357  -5.610  19.582  1.00  0.00     0.293 HD
ENDBRANCH   7  53
TORSDOF 18
ENDMDL
MODEL 5
REMARK VINA RESULT:    -3.984      9.288     14.176
REMARK INTER + INTRA:          -8.798
REMARK INTER:                  -7.827
REMARK INTRA:                  -0.972
REMARK UNBOUND:                -1.786
REMARK SMILES COc1cc(-c2[o+]c3cc(O)cc(O[C@H]4O[C@H](CO)[C@@H](O)[C@@H](O)[C@@H]4O)c3cc2O[C@H]2O[C@H](CO)[C@@H](O)[C@H](O)[C@H]2O)ccc1O
REMARK SMILES IDX 6 1 28 2 27 3 26 4 13 5 12 6 10 7 9 8 8 9 7 10 5 11 3 12
REMARK SMILES IDX 43 13 4 14 42 15 41 16 2 17 1 18 44 19 29 21 30 22 39 23
REMARK SMILES IDX 31 24 37 25 32 26 35 27 40 28 38 30 33 32 34 33 36 35 14 37
REMARK SMILES IDX 15 38 24 39 16 40 22 41 17 42 20 43 25 44 23 46 18 48 19 49
REMARK SMILES IDX 21 51 11 53
REMARK H PARENT 44 20 40 29 38 31 34 34 36 36 25 45 23 47 19 50 21 52 11 54
REMARK Flexibility Score: inf
ROOT
ATOM      1  C   UNL     1      -7.103  -7.277  23.551  1.00  0.00     0.402 A 
ATOM      2  C   UNL     1      -5.718  -7.499  23.667  1.00  0.00     0.229 A 
ATOM      3  C   UNL     1      -5.247  -8.190  24.796  1.00  0.00     0.079 A 
ATOM      4  C   UNL     1      -6.152  -8.648  25.762  1.00  0.00     0.126 A 
ATOM      5  C   UNL     1      -5.717  -9.261  26.951  1.00  0.00     0.143 A 
ATOM      6  C   UNL     1      -6.668  -9.717  27.882  1.00  0.00     0.094 A 
ATOM      7  C   UNL     1      -8.036  -9.532  27.646  1.00  0.00     0.128 A 
ATOM      8  C   UNL     1      -8.462  -8.877  26.485  1.00  0.00     0.162 A 
ATOM      9  C   UNL     1      -7.526  -8.418  25.550  1.00  0.00     0.368 A 
ATOM     10  O   UNL     1      -7.936  -7.742  24.479  1.00  0.00    -0.202 OA
ENDROOT
BRANCH   1  11
ATOM     11  C   UNL     1      -7.660  -6.501  22.423  1.00  0.00     0.087 A 
ATOM     12  C   UNL     1      -8.188  -4.337  21.415  1.00  0.00     0.161 A 
ATOM     13  C   UNL     1      -8.649  -4.994  20.264  1.00  0.00     0.157 A 
ATOM     14  C   UNL     1      -7.706  -5.099  22.500  1.00  0.00     0.068 A 
ATOM     15  C   UNL     1      -8.627  -6.395  20.199  1.00  0.00     0.051 A 
ATOM     16  C   UNL     1      -8.138  -7.144  21.271  1.00  0.00     0.022 A 
BRANCH  12  17
ATOM     17  O   UNL     1      -8.217  -2.935  21.439  1.00  0.00    -0.493 OA
ATOM     18  C   UNL     1      -9.116  -2.165  22.229  1.00  0.00     0.278 C 
ENDBRANCH  12  17
BRANCH  13  19
ATOM     19  O   UNL     1      -9.125  -4.248  19.186  1.00  0.00    -0.504 OA
ATOM     20  H   UNL     1      -9.563  -4.692  18.388  1.00  0.00     0.293 HD
ENDBRANCH  13  19
ENDBRANCH   1  11
BRANCH   2  21
ATOM     21  O   UNL     1      -4.857  -6.986  22.683  1.00  0.00    -0.452 OA
BRANCH  21  22
ATOM     22  C   UNL     1      -4.899  -7.281  21.280  1.00  0.00     0.339 C 
ATOM     23  C   UNL     1      -3.536  -7.776  20.747  1.00  0.00     0.214 C 
ATOM     24  O   UNL     1      -5.328  -6.137  20.557  1.00  0.00    -0.332 OA
ATOM     25  C   UNL     1      -2.492  -6.638  20.774  1.00  0.00     0.180 C 
ATOM     26  C   UNL     1      -4.435  -5.042  20.721  1.00  0.00     0.179 C 
ATOM     27  C   UNL     1      -3.057  -5.376  20.102  1.00  0.00     0.177 C 
BRANCH  23  28
ATOM     28  O   UNL     1      -3.087  -8.910  21.445  1.00  0.00    -0.384 OA
ATOM     29  H   UNL     1      -2.114  -9.014  21.265  1.00  0.00     0.211 HD
ENDBRANCH  23  28
BRANCH  25  30
ATOM     30  O   UNL     1      -1.296  -7.040  20.152  1.00  0.00    -0.387 OA
ATOM     31  H   UNL     1      -1.018  -7.903  20.557  1.00  0.00     0.211 HD
ENDBRANCH  25  30
BRANCH  26  32
ATOM     32  C   UNL     1      -5.075  -3.810  20.064  1.00  0.00     0.191 C 
BRANCH  32  33
ATOM     33  O   UNL     1      -5.843  -4.191  18.953  1.00  0.00    -0.394 OA
ATOM     34  H   UNL     1      -6.786  -4.027  19.207  1.00  0.00     0.210 HD
ENDBRANCH  32  33
ENDBRANCH  26  32
BRANCH  27  35
ATOM     35  O   UNL     1      -2.155  -4.317  20.303  1.00  0.00    -0.387 OA
ATOM     36  H   UNL     1      -2.673  -3.559  20.686  1.00  0.00     0.211 HD
ENDBRANCH  27  35
ENDBRANCH  21  22
ENDBRANCH   2  21
BRANCH   5  37
ATOM     37  O   UNL     1      -4.338  -9.356  27.207  1.00  0.00    -0.461 OA
BRANCH  37  38
ATOM     38  C   UNL     1      -3.555  -8.389  27.913  1.00  0.00     0.339 C 
ATOM     39  C   UNL     1      -3.292  -7.161  26.985  1.00  0.00     0.214 C 
ATOM     40  O   UNL     1      -2.372  -9.058  28.329  1.00  0.00    -0.332 OA
ATOM     41  C   UNL     1      -1.861  -7.187  26.443  1.00  0.00     0.180 C 
ATOM     42  C   UNL     1      -1.295  -8.212  28.714  1.00  0.00     0.179 C 
ATOM     43  C   UNL     1      -0.880  -7.176  27.621  1.00  0.00     0.177 C 
BRANCH  39  44
ATOM     44  O   UNL     1      -3.505  -5.958  27.676  1.00  0.00    -0.384 OA
ATOM     45  H   UNL     1      -4.024  -5.361  27.075  1.00  0.00     0.211 HD
ENDBRANCH  39  44
BRANCH  41  46
ATOM     46  O   UNL     1      -1.650  -8.335  25.654  1.00  0.00    -0.387 OA
ATOM     47  H   UNL     1      -0.735  -8.663  25.856  1.00  0.00     0.211 HD
ENDBRANCH  41  46
BRANCH  42  48
ATOM     48  C   UNL     1      -1.480  -7.618  30.125  1.00  0.00     0.191 C 
BRANCH  48  49
ATOM     49  O   UNL     1      -1.607  -6.221  30.099  1.00  0.00    -0.394 OA
ATOM     50  H   UNL     1      -0.701  -5.844  29.958  1.00  0.00     0.210 HD
ENDBRANCH  48  49
ENDBRANCH  42  48
BRANCH  43  51
ATOM     51  O   UNL     1       0.410  -7.456  27.136  1.00  0.00    -0.387 OA
ATOM     52  H   UNL     1       0.312  -8.134  26.411  1.00  0.00     0.211 HD
ENDBRANCH  43  51
ENDBRANCH  37  38
ENDBRANCH   5  37
BRANCH   7  53
ATOM     53  O   UNL     1      -8.982  -9.977  28.570  1.00  0.00    -0.507 OA
ATOM     54  H   UNL     1      -9.931 -10.199  28.290  1.00  0.00     0.293 HD
ENDBRANCH   7  53
TORSDOF 18
ENDMDL
MODEL 6
REMARK VINA RESULT:    -3.965      4.293      7.840
REMARK INTER + INTRA:          -8.764
REMARK INTER:                  -7.536
REMARK INTRA:                  -1.229
REMARK UNBOUND:                -1.786
REMARK SMILES COc1cc(-c2[o+]c3cc(O)cc(O[C@H]4O[C@H](CO)[C@@H](O)[C@@H](O)[C@@H]4O)c3cc2O[C@H]2O[C@H](CO)[C@@H](O)[C@H](O)[C@H]2O)ccc1O
REMARK SMILES IDX 6 1 28 2 27 3 26 4 13 5 12 6 10 7 9 8 8 9 7 10 5 11 3 12
REMARK SMILES IDX 43 13 4 14 42 15 41 16 2 17 1 18 44 19 29 21 30 22 39 23
REMARK SMILES IDX 31 24 37 25 32 26 35 27 40 28 38 30 33 32 34 33 36 35 14 37
REMARK SMILES IDX 15 38 24 39 16 40 22 41 17 42 20 43 25 44 23 46 18 48 19 49
REMARK SMILES IDX 21 51 11 53
REMARK H PARENT 44 20 40 29 38 31 34 34 36 36 25 45 23 47 19 50 21 52 11 54
REMARK Flexibility Score: inf
ROOT
ATOM      1  C   UNL     1      -4.567   5.289  14.324  1.00  0.00     0.402 A 
ATOM      2  C   UNL     1      -4.003   6.517  14.718  1.00  0.00     0.229 A 
ATOM      3  C   UNL     1      -2.899   6.493  15.586  1.00  0.00     0.079 A 
ATOM      4  C   UNL     1      -2.380   5.268  16.024  1.00  0.00     0.126 A 
ATOM      5  C   UNL     1      -1.336   5.201  16.965  1.00  0.00     0.143 A 
ATOM      6  C   UNL     1      -0.842   3.944  17.360  1.00  0.00     0.094 A 
ATOM      7  C   UNL     1      -1.407   2.768  16.849  1.00  0.00     0.128 A 
ATOM      8  C   UNL     1      -2.478   2.840  15.953  1.00  0.00     0.162 A 
ATOM      9  C   UNL     1      -2.980   4.084  15.550  1.00  0.00     0.368 A 
ATOM     10  O   UNL     1      -4.038   4.143  14.745  1.00  0.00    -0.202 OA
ENDROOT
BRANCH   1  11
ATOM     11  C   UNL     1      -5.770   5.242  13.466  1.00  0.00     0.087 A 
ATOM     12  C   UNL     1      -6.921   5.918  11.417  1.00  0.00     0.161 A 
ATOM     13  C   UNL     1      -8.017   5.118  11.779  1.00  0.00     0.157 A 
ATOM     14  C   UNL     1      -5.803   5.986  12.275  1.00  0.00     0.068 A 
ATOM     15  C   UNL     1      -7.993   4.397  12.982  1.00  0.00     0.051 A 
ATOM     16  C   UNL     1      -6.879   4.460  13.821  1.00  0.00     0.022 A 
BRANCH  12  17
ATOM     17  O   UNL     1      -6.978   6.616  10.202  1.00  0.00    -0.493 OA
ATOM     18  C   UNL     1      -6.147   7.724   9.875  1.00  0.00     0.278 C 
ENDBRANCH  12  17
BRANCH  13  19
ATOM     19  O   UNL     1      -9.125   5.043  10.936  1.00  0.00    -0.504 OA
ATOM     20  H   UNL     1      -9.053   4.662  10.000  1.00  0.00     0.293 HD
ENDBRANCH  13  19
ENDBRANCH   1  11
BRANCH   2  21
ATOM     21  O   UNL     1      -4.588   7.714  14.273  1.00  0.00    -0.452 OA
BRANCH  21  22
ATOM     22  C   UNL     1      -5.224   8.704  15.092  1.00  0.00     0.339 C 
ATOM     23  C   UNL     1      -6.170   8.074  16.139  1.00  0.00     0.214 C 
ATOM     24  O   UNL     1      -5.931   9.627  14.277  1.00  0.00    -0.332 OA
ATOM     25  C   UNL     1      -7.396   7.433  15.452  1.00  0.00     0.180 C 
ATOM     26  C   UNL     1      -6.958   8.991  13.527  1.00  0.00     0.179 C 
ATOM     27  C   UNL     1      -8.044   8.427  14.474  1.00  0.00     0.177 C 
BRANCH  23  28
ATOM     28  O   UNL     1      -5.496   7.156  16.962  1.00  0.00    -0.384 OA
ATOM     29  H   UNL     1      -4.564   7.070  16.624  1.00  0.00     0.211 HD
ENDBRANCH  23  28
BRANCH  25  30
ATOM     30  O   UNL     1      -8.332   6.992  16.405  1.00  0.00    -0.387 OA
ATOM     31  H   UNL     1      -9.086   6.569  15.917  1.00  0.00     0.211 HD
ENDBRANCH  25  30
BRANCH  26  32
ATOM     32  C   UNL     1      -7.533  10.024  12.546  1.00  0.00     0.191 C 
BRANCH  32  33
ATOM     33  O   UNL     1      -8.249   9.383  11.524  1.00  0.00    -0.394 OA
ATOM     34  H   UNL     1      -9.204   9.451  11.778  1.00  0.00     0.210 HD
ENDBRANCH  32  33
ENDBRANCH  26  32
BRANCH  27  35
ATOM     35  O   UNL     1      -9.038   7.755  13.741  1.00  0.00    -0.387 OA
ATOM     36  H   UNL     1      -8.757   6.803  13.671  1.00  0.00     0.211 HD
ENDBRANCH  27  35
ENDBRANCH  21  22
ENDBRANCH   2  21
BRANCH   5  37
ATOM     37  O   UNL     1      -0.846   6.391  17.528  1.00  0.00    -0.461 OA
BRANCH  37  38
ATOM     38  C   UNL     1       0.533   6.757  17.631  1.00  0.00     0.339 C 
ATOM     39  C   UNL     1       0.659   8.059  18.483  1.00  0.00     0.214 C 
ATOM     40  O   UNL     1       1.012   6.892  16.300  1.00  0.00    -0.332 OA
ATOM     41  C   UNL     1       0.921   9.271  17.586  1.00  0.00     0.180 C 
ATOM     42  C   UNL     1       2.235   7.606  16.161  1.00  0.00     0.179 C 
ATOM     43  C   UNL     1       2.211   9.035  16.791  1.00  0.00     0.177 C 
BRANCH  39  44
ATOM     44  O   UNL     1       1.696   7.944  19.422  1.00  0.00    -0.384 OA
ATOM     45  H   UNL     1       1.589   7.065  19.873  1.00  0.00     0.211 HD
ENDBRANCH  39  44
BRANCH  41  46
ATOM     46  O   UNL     1      -0.156   9.476  16.701  1.00  0.00    -0.387 OA
ATOM     47  H   UNL     1       0.225   9.532  15.786  1.00  0.00     0.211 HD
ENDBRANCH  41  46
BRANCH  42  48
ATOM     48  C   UNL     1       3.466   6.758  16.538  1.00  0.00     0.191 C 
BRANCH  48  49
ATOM     49  O   UNL     1       3.958   6.023  15.449  1.00  0.00    -0.394 OA
ATOM     50  H   UNL     1       4.547   5.314  15.814  1.00  0.00     0.210 HD
ENDBRANCH  48  49
ENDBRANCH  42  48
BRANCH  43  51
ATOM     51  O   UNL     1       2.312  10.021  15.793  1.00  0.00    -0.387 OA
ATOM     52  H   UNL     1       1.452  10.527  15.791  1.00  0.00     0.211 HD
ENDBRANCH  43  51
ENDBRANCH  37  38
ENDBRANCH   5  37
BRANCH   7  53
ATOM     53  O   UNL     1      -0.923   1.520  17.244  1.00  0.00    -0.507 OA
ATOM     54  H   UNL     1      -1.084   1.163  18.178  1.00  0.00     0.293 HD
ENDBRANCH   7  53
TORSDOF 18
ENDMDL
MODEL 7
REMARK VINA RESULT:    -3.573      4.227      8.019
REMARK INTER + INTRA:          -8.074
REMARK INTER:                  -5.989
REMARK INTRA:                  -2.085
REMARK UNBOUND:                -1.786
REMARK SMILES COc1cc(-c2[o+]c3cc(O)cc(O[C@H]4O[C@H](CO)[C@@H](O)[C@@H](O)[C@@H]4O)c3cc2O[C@H]2O[C@H](CO)[C@@H](O)[C@H](O)[C@H]2O)ccc1O
REMARK SMILES IDX 6 1 28 2 27 3 26 4 13 5 12 6 10 7 9 8 8 9 7 10 5 11 3 12
REMARK SMILES IDX 43 13 4 14 42 15 41 16 2 17 1 18 44 19 29 21 30 22 39 23
REMARK SMILES IDX 31 24 37 25 32 26 35 27 40 28 38 30 33 32 34 33 36 35 14 37
REMARK SMILES IDX 15 38 24 39 16 40 22 41 17 42 20 43 25 44 23 46 18 48 19 49
REMARK SMILES IDX 21 51 11 53
REMARK H PARENT 44 20 40 29 38 31 34 34 36 36 25 45 23 47 19 50 21 52 11 54
REMARK Flexibility Score: inf
ROOT
ATOM      1  C   UNL     1      -4.223   5.208  14.187  1.00  0.00     0.402 A 
ATOM      2  C   UNL     1      -3.334   6.296  14.101  1.00  0.00     0.229 A 
ATOM      3  C   UNL     1      -2.168   6.266  14.884  1.00  0.00     0.079 A 
ATOM      4  C   UNL     1      -1.910   5.166  15.711  1.00  0.00     0.126 A 
ATOM      5  C   UNL     1      -0.803   5.137  16.580  1.00  0.00     0.143 A 
ATOM      6  C   UNL     1      -0.582   4.001  17.379  1.00  0.00     0.094 A 
ATOM      7  C   UNL     1      -1.473   2.921  17.339  1.00  0.00     0.128 A 
ATOM      8  C   UNL     1      -2.599   2.976  16.511  1.00  0.00     0.162 A 
ATOM      9  C   UNL     1      -2.833   4.101  15.709  1.00  0.00     0.368 A 
ATOM     10  O   UNL     1      -3.937   4.171  14.971  1.00  0.00    -0.202 OA
ENDROOT
BRANCH   1  11
ATOM     11  C   UNL     1      -5.499   5.204  13.442  1.00  0.00     0.087 A 
ATOM     12  C   UNL     1      -7.874   5.776  13.333  1.00  0.00     0.161 A 
ATOM     13  C   UNL     1      -7.926   5.274  12.023  1.00  0.00     0.157 A 
ATOM     14  C   UNL     1      -6.657   5.725  14.044  1.00  0.00     0.068 A 
ATOM     15  C   UNL     1      -6.776   4.729  11.433  1.00  0.00     0.051 A 
ATOM     16  C   UNL     1      -5.571   4.692  12.137  1.00  0.00     0.022 A 
BRANCH  12  17
ATOM     17  O   UNL     1      -9.043   6.321  13.885  1.00  0.00    -0.493 OA
ATOM     18  C   UNL     1      -9.066   7.424  14.782  1.00  0.00     0.278 C 
ENDBRANCH  12  17
BRANCH  13  19
ATOM     19  O   UNL     1      -9.125   5.322  11.312  1.00  0.00    -0.504 OA
ATOM     20  H   UNL     1      -9.470   6.188  10.914  1.00  0.00     0.293 HD
ENDBRANCH  13  19
ENDBRANCH   1  11
BRANCH   2  21
ATOM     21  O   UNL     1      -3.663   7.387  13.279  1.00  0.00    -0.452 OA
BRANCH  21  22
ATOM     22  C   UNL     1      -3.568   8.774  13.629  1.00  0.00     0.339 C 
ATOM     23  C   UNL     1      -4.903   9.332  14.171  1.00  0.00     0.214 C 
ATOM     24  O   UNL     1      -3.134   9.528  12.508  1.00  0.00    -0.332 OA
ATOM     25  C   UNL     1      -5.966   9.387  13.052  1.00  0.00     0.180 C 
ATOM     26  C   UNL     1      -4.050   9.440  11.424  1.00  0.00     0.179 C 
ATOM     27  C   UNL     1      -5.400  10.091  11.808  1.00  0.00     0.177 C 
BRANCH  23  28
ATOM     28  O   UNL     1      -5.357   8.603  15.284  1.00  0.00    -0.384 OA
ATOM     29  H   UNL     1      -4.760   8.814  16.051  1.00  0.00     0.211 HD
ENDBRANCH  23  28
BRANCH  25  30
ATOM     30  O   UNL     1      -7.134  10.032  13.500  1.00  0.00    -0.387 OA
ATOM     31  H   UNL     1      -7.118  10.032  14.493  1.00  0.00     0.211 HD
ENDBRANCH  25  30
BRANCH  26  32
ATOM     32  C   UNL     1      -3.409  10.125  10.208  1.00  0.00     0.191 C 
BRANCH  32  33
ATOM     33  O   UNL     1      -2.187   9.515   9.890  1.00  0.00    -0.394 OA
ATOM     34  H   UNL     1      -2.208   8.623  10.320  1.00  0.00     0.210 HD
ENDBRANCH  32  33
ENDBRANCH  26  32
BRANCH  27  35
ATOM     35  O   UNL     1      -6.326   9.963  10.758  1.00  0.00    -0.387 OA
ATOM     36  H   UNL     1      -5.998  10.527  10.008  1.00  0.00     0.211 HD
ENDBRANCH  27  35
ENDBRANCH  21  22
ENDBRANCH   2  21
BRANCH   5  37
ATOM     37  O   UNL     1       0.026   6.268  16.668  1.00  0.00    -0.461 OA
BRANCH  37  38
ATOM     38  C   UNL     1      -0.043   7.274  17.684  1.00  0.00     0.339 C 
ATOM     39  C   UNL     1       0.562   8.604  17.133  1.00  0.00     0.214 C 
ATOM     40  O   UNL     1       0.647   6.752  18.811  1.00  0.00    -0.332 OA
ATOM     41  C   UNL     1       1.964   8.838  17.699  1.00  0.00     0.180 C 
ATOM     42  C   UNL     1       1.026   7.711  19.792  1.00  0.00     0.179 C 
ATOM     43  C   UNL     1       1.883   8.890  19.230  1.00  0.00     0.177 C 
BRANCH  39  44
ATOM     44  O   UNL     1      -0.258   9.697  17.458  1.00  0.00    -0.384 OA
ATOM     45  H   UNL     1      -0.950   9.369  18.090  1.00  0.00     0.211 HD
ENDBRANCH  39  44
BRANCH  41  46
ATOM     46  O   UNL     1       2.839   7.808  17.300  1.00  0.00    -0.387 OA
ATOM     47  H   UNL     1       2.581   6.993  17.806  1.00  0.00     0.211 HD
ENDBRANCH  41  46
BRANCH  42  48
ATOM     48  C   UNL     1      -0.152   8.144  20.687  1.00  0.00     0.191 C 
BRANCH  48  49
ATOM     49  O   UNL     1      -0.340   7.276  21.773  1.00  0.00    -0.394 OA
ATOM     50  H   UNL     1      -1.256   6.904  21.698  1.00  0.00     0.210 HD
ENDBRANCH  48  49
ENDBRANCH  42  48
BRANCH  43  51
ATOM     51  O   UNL     1       3.189   8.847  19.751  1.00  0.00    -0.387 OA
ATOM     52  H   UNL     1       3.118   8.547  20.700  1.00  0.00     0.211 HD
ENDBRANCH  43  51
ENDBRANCH  37  38
ENDBRANCH   5  37
BRANCH   7  53
ATOM     53  O   UNL     1      -1.260   1.796  18.135  1.00  0.00    -0.507 OA
ATOM     54  H   UNL     1      -1.082   1.878  19.130  1.00  0.00     0.293 HD
ENDBRANCH   7  53
TORSDOF 18
ENDMDL
MODEL 8
REMARK VINA RESULT:    -3.388     12.039     16.804
REMARK INTER + INTRA:          -7.748
REMARK INTER:                  -7.454
REMARK INTRA:                  -0.294
REMARK UNBOUND:                -1.786
REMARK SMILES COc1cc(-c2[o+]c3cc(O)cc(O[C@H]4O[C@H](CO)[C@@H](O)[C@@H](O)[C@@H]4O)c3cc2O[C@H]2O[C@H](CO)[C@@H](O)[C@H](O)[C@H]2O)ccc1O
REMARK SMILES IDX 6 1 28 2 27 3 26 4 13 5 12 6 10 7 9 8 8 9 7 10 5 11 3 12
REMARK SMILES IDX 43 13 4 14 42 15 41 16 2 17 1 18 44 19 29 21 30 22 39 23
REMARK SMILES IDX 31 24 37 25 32 26 35 27 40 28 38 30 33 32 34 33 36 35 14 37
REMARK SMILES IDX 15 38 24 39 16 40 22 41 17 42 20 43 25 44 23 46 18 48 19 49
REMARK SMILES IDX 21 51 11 53
REMARK H PARENT 44 20 40 29 38 31 34 34 36 36 25 45 23 47 19 50 21 52 11 54
REMARK Flexibility Score: inf
ROOT
ATOM      1  C   UNL     1      -3.519  -8.956  26.162  1.00  0.00     0.402 A 
ATOM      2  C   UNL     1      -2.826  -8.087  25.298  1.00  0.00     0.229 A 
ATOM      3  C   UNL     1      -1.489  -7.780  25.596  1.00  0.00     0.079 A 
ATOM      4  C   UNL     1      -0.876  -8.345  26.722  1.00  0.00     0.126 A 
ATOM      5  C   UNL     1       0.430  -7.992  27.109  1.00  0.00     0.143 A 
ATOM      6  C   UNL     1       1.004  -8.600  28.240  1.00  0.00     0.094 A 
ATOM      7  C   UNL     1       0.271  -9.525  28.996  1.00  0.00     0.128 A 
ATOM      8  C   UNL     1      -1.045  -9.834  28.636  1.00  0.00     0.162 A 
ATOM      9  C   UNL     1      -1.629  -9.236  27.513  1.00  0.00     0.368 A 
ATOM     10  O   UNL     1      -2.900  -9.489  27.213  1.00  0.00    -0.202 OA
ENDROOT
BRANCH   1  11
ATOM     11  C   UNL     1      -4.947  -9.271  25.944  1.00  0.00     0.087 A 
ATOM     12  C   UNL     1      -7.252  -9.261  26.760  1.00  0.00     0.161 A 
ATOM     13  C   UNL     1      -7.680  -9.794  25.534  1.00  0.00     0.157 A 
ATOM     14  C   UNL     1      -5.878  -9.014  26.964  1.00  0.00     0.068 A 
ATOM     15  C   UNL     1      -6.745 -10.075  24.526  1.00  0.00     0.051 A 
ATOM     16  C   UNL     1      -5.389  -9.818  24.730  1.00  0.00     0.022 A 
BRANCH  12  17
ATOM     17  O   UNL     1      -8.217  -8.985  27.739  1.00  0.00    -0.493 OA
ATOM     18  C   UNL     1      -8.055  -9.264  29.125  1.00  0.00     0.278 C 
ENDBRANCH  12  17
BRANCH  13  19
ATOM     19  O   UNL     1      -9.036 -10.039  25.323  1.00  0.00    -0.504 OA
ATOM     20  H   UNL     1      -9.391 -10.305  24.412  1.00  0.00     0.293 HD
ENDBRANCH  13  19
ENDBRANCH   1  11
BRANCH   2  21
ATOM     21  O   UNL     1      -3.504  -7.525  24.203  1.00  0.00    -0.452 OA
BRANCH  21  22
ATOM     22  C   UNL     1      -3.829  -6.140  24.026  1.00  0.00     0.339 C 
ATOM     23  C   UNL     1      -4.913  -5.664  25.021  1.00  0.00     0.214 C 
ATOM     24  O   UNL     1      -4.247  -5.906  22.691  1.00  0.00    -0.332 OA
ATOM     25  C   UNL     1      -6.272  -6.324  24.705  1.00  0.00     0.180 C 
ATOM     26  C   UNL     1      -5.415  -6.648  22.363  1.00  0.00     0.179 C 
ATOM     27  C   UNL     1      -6.613  -6.166  23.214  1.00  0.00     0.177 C 
BRANCH  23  28
ATOM     28  O   UNL     1      -4.525  -5.882  26.354  1.00  0.00    -0.384 OA
ATOM     29  H   UNL     1      -4.094  -6.778  26.404  1.00  0.00     0.211 HD
ENDBRANCH  23  28
BRANCH  25  30
ATOM     30  O   UNL     1      -7.292  -5.783  25.509  1.00  0.00    -0.387 OA
ATOM     31  H   UNL     1      -7.311  -6.294  26.361  1.00  0.00     0.211 HD
ENDBRANCH  25  30
BRANCH  26  32
ATOM     32  C   UNL     1      -5.675  -6.479  20.859  1.00  0.00     0.191 C 
BRANCH  32  33
ATOM     33  O   UNL     1      -5.146  -7.564  20.145  1.00  0.00    -0.394 OA
ATOM     34  H   UNL     1      -4.244  -7.722  20.521  1.00  0.00     0.210 HD
ENDBRANCH  32  33
ENDBRANCH  26  32
BRANCH  27  35
ATOM     35  O   UNL     1      -7.760  -6.928  22.931  1.00  0.00    -0.387 OA
ATOM     36  H   UNL     1      -8.337  -6.901  23.740  1.00  0.00     0.211 HD
ENDBRANCH  27  35
ENDBRANCH  21  22
ENDBRANCH   2  21
BRANCH   5  37
ATOM     37  O   UNL     1       1.112  -6.998  26.386  1.00  0.00    -0.461 OA
BRANCH  37  38
ATOM     38  C   UNL     1       2.518  -6.741  26.450  1.00  0.00     0.339 C 
ATOM     39  C   UNL     1       3.043  -7.096  27.877  1.00  0.00     0.214 C 
ATOM     40  O   UNL     1       2.691  -5.375  26.097  1.00  0.00    -0.332 OA
ATOM     41  C   UNL     1       3.280  -5.827  28.699  1.00  0.00     0.180 C 
ATOM     42  C   UNL     1       3.947  -4.808  26.452  1.00  0.00     0.179 C 
ATOM     43  C   UNL     1       4.298  -4.942  27.969  1.00  0.00     0.177 C 
BRANCH  39  44
ATOM     44  O   UNL     1       4.237  -7.830  27.802  1.00  0.00    -0.384 OA
ATOM     45  H   UNL     1       4.034  -8.672  27.314  1.00  0.00     0.211 HD
ENDBRANCH  39  44
BRANCH  41  46
ATOM     46  O   UNL     1       2.075  -5.121  28.882  1.00  0.00    -0.387 OA
ATOM     47  H   UNL     1       2.242  -4.434  29.579  1.00  0.00     0.211 HD
ENDBRANCH  41  46
BRANCH  42  48
ATOM     48  C   UNL     1       5.080  -5.221  25.492  1.00  0.00     0.191 C 
BRANCH  48  49
ATOM     49  O   UNL     1       4.623  -5.400  24.178  1.00  0.00    -0.394 OA
ATOM     50  H   UNL     1       4.755  -4.541  23.700  1.00  0.00     0.210 HD
ENDBRANCH  48  49
ENDBRANCH  42  48
BRANCH  43  51
ATOM     51  O   UNL     1       4.321  -3.679  28.587  1.00  0.00    -0.387 OA
ATOM     52  H   UNL     1       3.452  -3.568  29.064  1.00  0.00     0.211 HD
ENDBRANCH  43  51
ENDBRANCH  37  38
ENDBRANCH   5  37
BRANCH   7  53
ATOM     53  O   UNL     1       0.835 -10.125  30.122  1.00  0.00    -0.507 OA
ATOM     54  H   UNL     1       1.767 -10.522  30.099  1.00  0.00     0.293 HD
ENDBRANCH   7  53
TORSDOF 18
ENDMDL
MODEL 9
REMARK VINA RESULT:    -3.084      3.266      7.610
REMARK INTER + INTRA:          -7.213
REMARK INTER:                  -5.721
REMARK INTRA:                  -1.492
REMARK UNBOUND:                -1.786
REMARK SMILES COc1cc(-c2[o+]c3cc(O)cc(O[C@H]4O[C@H](CO)[C@@H](O)[C@@H](O)[C@@H]4O)c3cc2O[C@H]2O[C@H](CO)[C@@H](O)[C@H](O)[C@H]2O)ccc1O
REMARK SMILES IDX 6 1 28 2 27 3 26 4 13 5 12 6 10 7 9 8 8 9 7 10 5 11 3 12
REMARK SMILES IDX 43 13 4 14 42 15 41 16 2 17 1 18 44 19 29 21 30 22 39 23
REMARK SMILES IDX 31 24 37 25 32 26 35 27 40 28 38 30 33 32 34 33 36 35 14 37
REMARK SMILES IDX 15 38 24 39 16 40 22 41 17 42 20 43 25 44 23 46 18 48 19 49
REMARK SMILES IDX 21 51 11 53
REMARK H PARENT 44 20 40 29 38 31 34 34 36 36 25 45 23 47 19 50 21 52 11 54
REMARK Flexibility Score: inf
ROOT
ATOM      1  C   UNL     1      -1.742   6.155  16.150  1.00  0.00     0.402 A 
ATOM      2  C   UNL     1      -2.331   6.434  14.902  1.00  0.00     0.229 A 
ATOM      3  C   UNL     1      -3.399   5.627  14.476  1.00  0.00     0.079 A 
ATOM      4  C   UNL     1      -3.858   4.587  15.293  1.00  0.00     0.126 A 
ATOM      5  C   UNL     1      -4.862   3.699  14.865  1.00  0.00     0.143 A 
ATOM      6  C   UNL     1      -5.297   2.679  15.731  1.00  0.00     0.094 A 
ATOM      7  C   UNL     1      -4.714   2.526  16.996  1.00  0.00     0.128 A 
ATOM      8  C   UNL     1      -3.681   3.380  17.396  1.00  0.00     0.162 A 
ATOM      9  C   UNL     1      -3.237   4.400  16.545  1.00  0.00     0.368 A 
ATOM     10  O   UNL     1      -2.215   5.169  16.908  1.00  0.00    -0.202 OA
ENDROOT
BRANCH   1  11
ATOM     11  C   UNL     1      -0.572   6.921  16.630  1.00  0.00     0.087 A 
ATOM     12  C   UNL     1       0.768   7.769  18.492  1.00  0.00     0.161 A 
ATOM     13  C   UNL     1       1.681   8.314  17.575  1.00  0.00     0.157 A 
ATOM     14  C   UNL     1      -0.367   7.083  18.011  1.00  0.00     0.068 A 
ATOM     15  C   UNL     1       1.461   8.174  16.197  1.00  0.00     0.051 A 
ATOM     16  C   UNL     1       0.342   7.485  15.727  1.00  0.00     0.022 A 
BRANCH  12  17
ATOM     17  O   UNL     1       1.027   7.921  19.861  1.00  0.00    -0.493 OA
ATOM     18  C   UNL     1       0.500   7.074  20.876  1.00  0.00     0.278 C 
ENDBRANCH  12  17
BRANCH  13  19
ATOM     19  O   UNL     1       2.807   8.991  18.042  1.00  0.00    -0.504 OA
ATOM     20  H   UNL     1       3.510   9.351  17.407  1.00  0.00     0.293 HD
ENDBRANCH  13  19
ENDBRANCH   1  11
BRANCH   2  21
ATOM     21  O   UNL     1      -1.804   7.470  14.112  1.00  0.00    -0.452 OA
BRANCH  21  22
ATOM     22  C   UNL     1      -2.206   8.846  14.140  1.00  0.00     0.339 C 
ATOM     23  C   UNL     1      -3.568   9.070  13.444  1.00  0.00     0.214 C 
ATOM     24  O   UNL     1      -1.206   9.655  13.541  1.00  0.00    -0.332 OA
ATOM     25  C   UNL     1      -3.450   8.831  11.923  1.00  0.00     0.180 C 
ATOM     26  C   UNL     1      -0.995   9.314  12.177  1.00  0.00     0.179 C 
ATOM     27  C   UNL     1      -2.264   9.620  11.346  1.00  0.00     0.177 C 
BRANCH  23  28
ATOM     28  O   UNL     1      -4.580   8.281  14.017  1.00  0.00    -0.384 OA
ATOM     29  H   UNL     1      -5.410   8.414  13.485  1.00  0.00     0.211 HD
ENDBRANCH  23  28
BRANCH  25  30
ATOM     30  O   UNL     1      -4.645   9.178  11.266  1.00  0.00    -0.387 OA
ATOM     31  H   UNL     1      -5.398   8.993  11.887  1.00  0.00     0.211 HD
ENDBRANCH  25  30
BRANCH  26  32
ATOM     32  C   UNL     1       0.222  10.105  11.676  1.00  0.00     0.191 C 
BRANCH  32  33
ATOM     33  O   UNL     1       0.867   9.409  10.642  1.00  0.00    -0.394 OA
ATOM     34  H   UNL     1       1.816   9.337  10.914  1.00  0.00     0.210 HD
ENDBRANCH  32  33
ENDBRANCH  26  32
BRANCH  27  35
ATOM     35  O   UNL     1      -2.080   9.240  10.005  1.00  0.00    -0.387 OA
ATOM     36  H   UNL     1      -1.853   8.272  10.003  1.00  0.00     0.211 HD
ENDBRANCH  27  35
ENDBRANCH  21  22
ENDBRANCH   2  21
BRANCH   5  37
ATOM     37  O   UNL     1      -5.369   3.818  13.560  1.00  0.00    -0.461 OA
BRANCH  37  38
ATOM     38  C   UNL     1      -6.624   4.407  13.206  1.00  0.00     0.339 C 
ATOM     39  C   UNL     1      -6.733   4.493  11.651  1.00  0.00     0.214 C 
ATOM     40  O   UNL     1      -6.671   5.670  13.856  1.00  0.00    -0.332 OA
ATOM     41  C   UNL     1      -6.492   5.925  11.168  1.00  0.00     0.180 C 
ATOM     42  C   UNL     1      -7.644   6.579  13.354  1.00  0.00     0.179 C 
ATOM     43  C   UNL     1      -7.525   6.852  11.820  1.00  0.00     0.177 C 
BRANCH  39  44
ATOM     44  O   UNL     1      -7.995   4.062  11.213  1.00  0.00    -0.384 OA
ATOM     45  H   UNL     1      -8.074   3.098  11.444  1.00  0.00     0.211 HD
ENDBRANCH  39  44
BRANCH  41  46
ATOM     46  O   UNL     1      -5.190   6.349  11.501  1.00  0.00    -0.387 OA
ATOM     47  H   UNL     1      -4.620   6.196  10.703  1.00  0.00     0.211 HD
ENDBRANCH  41  46
BRANCH  42  48
ATOM     48  C   UNL     1      -9.071   6.253  13.839  1.00  0.00     0.191 C 
BRANCH  48  49
ATOM     49  O   UNL     1      -9.125   6.048  15.226  1.00  0.00    -0.394 OA
ATOM     50  H   UNL     1      -9.491   5.139  15.375  1.00  0.00     0.210 HD
ENDBRANCH  48  49
ENDBRANCH  42  48
BRANCH  43  51
ATOM     51  O   UNL     1      -7.148   8.186  11.581  1.00  0.00    -0.387 OA
ATOM     52  H   UNL     1      -7.565   8.460  10.717  1.00  0.00     0.211 HD
ENDBRANCH  43  51
ENDBRANCH  37  38
ENDBRANCH   5  37
BRANCH   7  53
ATOM     53  O   UNL     1      -5.139   1.511  17.854  1.00  0.00    -0.507 OA
ATOM     54  H   UNL     1      -4.614   1.268  18.686  1.00  0.00     0.293 HD
ENDBRANCH   7  53
TORSDOF 18
ENDMDL
