MODEL 1
REMARK VINA RESULT:    -3.978      0.000      0.000
REMARK INTER + INTRA:          -6.018
REMARK INTER:                  -5.374
REMARK INTRA:                  -0.644
REMARK UNBOUND:                -0.644
REMARK SMILES C=C[C@@](C)(CCC=C(C)C)OC(C)=O
REMARK SMILES IDX 3 1 4 2 5 3 6 4 7 5 9 6 8 7 10 8 2 9 1 10 11 11 12 12 14 13
REMARK SMILES IDX 13 14
REMARK H PARENT
REMARK Flexibility Score: inf
ROOT
ATOM      1  C   UNL     1       1.766   6.542 -10.198  1.00  0.00     0.127 C 
ATOM      2  C   UNL     1       0.375   6.987  -9.709  1.00  0.00     0.061 C 
ENDROOT
BRANCH   1   3
ATOM      3  C   UNL     1       2.124   7.269 -11.525  1.00  0.00     0.057 C 
BRANCH   3   4
ATOM      4  C   UNL     1       0.930   7.982 -12.184  1.00  0.00     0.032 C 
BRANCH   4   5
ATOM      5  C   UNL     1       0.500   7.263 -13.438  1.00  0.00    -0.028 C 
ATOM      6  C   UNL     1       1.197   9.139 -14.945  1.00  0.00     0.039 C 
ATOM      7  C   UNL     1       0.595   7.778 -14.684  1.00  0.00    -0.080 C 
ATOM      8  C   UNL     1       0.095   6.952 -15.842  1.00  0.00     0.039 C 
ENDBRANCH   4   5
ENDBRANCH   3   4
ENDBRANCH   1   3
BRANCH   1   9
ATOM      9  C   UNL     1       2.788   6.903  -9.131  1.00  0.00     0.013 C 
ATOM     10  C   UNL     1       2.486   7.691  -8.091  1.00  0.00     0.008 C 
ENDBRANCH   1   9
BRANCH   1  11
ATOM     11  O   UNL     1       1.731   5.120 -10.400  1.00  0.00    -0.455 OA
BRANCH  11  12
ATOM     12  C   UNL     1       2.537   4.410 -11.303  1.00  0.00     0.303 C 
ATOM     13  O   UNL     1       3.699   4.040 -10.988  1.00  0.00    -0.253 OA
ATOM     14  C   UNL     1       1.985   4.041 -12.637  1.00  0.00     0.139 C 
ENDBRANCH  11  12
ENDBRANCH   1  11
TORSDOF 6
ENDMDL
MODEL 2
REMARK VINA RESULT:    -3.661      1.291      3.016
REMARK INTER + INTRA:          -5.588
REMARK INTER:                  -4.925
REMARK INTRA:                  -0.663
REMARK UNBOUND:                -0.644
REMARK SMILES C=C[C@@](C)(CCC=C(C)C)OC(C)=O
REMARK SMILES IDX 3 1 4 2 5 3 6 4 7 5 9 6 8 7 10 8 2 9 1 10 11 11 12 12 14 13
REMARK SMILES IDX 13 14
REMARK H PARENT
REMARK Flexibility Score: inf
ROOT
ATOM      1  C   UNL     1       1.805   5.811 -11.052  1.00  0.00     0.127 C 
ATOM      2  C   UNL     1       2.955   5.124 -11.811  1.00  0.00     0.061 C 
ENDROOT
BRANCH   1   3
ATOM      3  C   UNL     1       1.716   7.310 -11.458  1.00  0.00     0.057 C 
BRANCH   3   4
ATOM      4  C   UNL     1       0.385   7.694 -12.129  1.00  0.00     0.032 C 
BRANCH   4   5
ATOM      5  C   UNL     1       0.629   8.405 -13.436  1.00  0.00    -0.028 C 
ATOM      6  C   UNL     1       0.125   6.378 -14.819  1.00  0.00     0.039 C 
ATOM      7  C   UNL     1       0.535   7.823 -14.652  1.00  0.00    -0.080 C 
ATOM      8  C   UNL     1       0.839   8.654 -15.871  1.00  0.00     0.039 C 
ENDBRANCH   4   5
ENDBRANCH   3   4
ENDBRANCH   1   3
BRANCH   1   9
ATOM      9  C   UNL     1       0.504   5.111 -11.415  1.00  0.00     0.013 C 
ATOM     10  C   UNL     1       0.481   3.900 -11.987  1.00  0.00     0.008 C 
ENDBRANCH   1   9
BRANCH   1  11
ATOM     11  O   UNL     1       2.066   5.688  -9.645  1.00  0.00    -0.455 OA
BRANCH  11  12
ATOM     12  C   UNL     1       3.141   6.282  -8.965  1.00  0.00     0.303 C 
ATOM     13  O   UNL     1       4.285   5.754  -8.968  1.00  0.00    -0.253 OA
ATOM     14  C   UNL     1       2.936   7.588  -8.277  1.00  0.00     0.139 C 
ENDBRANCH  11  12
ENDBRANCH   1  11
TORSDOF 6
ENDMDL
MODEL 3
REMARK VINA RESULT:    -3.531      6.496      9.870
REMARK INTER + INTRA:          -5.413
REMARK INTER:                  -4.898
REMARK INTRA:                  -0.515
REMARK UNBOUND:                -0.644
REMARK SMILES C=C[C@@](C)(CCC=C(C)C)OC(C)=O
REMARK SMILES IDX 3 1 4 2 5 3 6 4 7 5 9 6 8 7 10 8 2 9 1 10 11 11 12 12 14 13
REMARK SMILES IDX 13 14
REMARK H PARENT
REMARK Flexibility Score: inf
ROOT
ATOM      1  C   UNL     1       1.046   9.071 -21.484  1.00  0.00     0.127 C 
ATOM      2  C   UNL     1       2.310   9.780 -22.007  1.00  0.00     0.061 C 
ENDROOT
BRANCH   1   3
ATOM      3  C   UNL     1       0.498   9.811 -20.230  1.00  0.00     0.057 C 
BRANCH   3   4
ATOM      4  C   UNL     1       0.505   8.954 -18.952  1.00  0.00     0.032 C 
BRANCH   4   5
ATOM      5  C   UNL     1       1.496   9.492 -17.950  1.00  0.00    -0.028 C 
ATOM      6  C   UNL     1       0.116   8.809 -15.975  1.00  0.00     0.039 C 
ATOM      7  C   UNL     1       1.326   9.452 -16.610  1.00  0.00    -0.080 C 
ATOM      8  C   UNL     1       2.390  10.060 -15.733  1.00  0.00     0.039 C 
ENDBRANCH   4   5
ENDBRANCH   3   4
ENDBRANCH   1   3
BRANCH   1   9
ATOM      9  C   UNL     1      -0.005   9.091 -22.583  1.00  0.00     0.013 C 
ATOM     10  C   UNL     1       0.219   8.568 -23.795  1.00  0.00     0.008 C 
ENDBRANCH   1   9
BRANCH   1  11
ATOM     11  O   UNL     1       1.401   7.720 -21.152  1.00  0.00    -0.455 OA
BRANCH  11  12
ATOM     12  C   UNL     1       2.674   7.152 -21.318  1.00  0.00     0.303 C 
ATOM     13  O   UNL     1       2.995   6.574 -22.390  1.00  0.00    -0.253 OA
ATOM     14  C   UNL     1       3.679   7.285 -20.225  1.00  0.00     0.139 C 
ENDBRANCH  11  12
ENDBRANCH   1  11
TORSDOF 6
ENDMDL
MODEL 4
REMARK VINA RESULT:    -3.239      9.288     11.528
REMARK INTER + INTRA:          -5.019
REMARK INTER:                  -4.483
REMARK INTRA:                  -0.537
REMARK UNBOUND:                -0.644
REMARK SMILES C=C[C@@](C)(CCC=C(C)C)OC(C)=O
REMARK SMILES IDX 3 1 4 2 5 3 6 4 7 5 9 6 8 7 10 8 2 9 1 10 11 11 12 12 14 13
REMARK SMILES IDX 13 14
REMARK H PARENT
REMARK Flexibility Score: inf
ROOT
ATOM      1  C   UNL     1       9.257   1.911 -17.299  1.00  0.00     0.127 C 
ATOM      2  C   UNL     1      10.717   1.426 -17.370  1.00  0.00     0.061 C 
ENDROOT
BRANCH   1   3
ATOM      3  C   UNL     1       8.499   1.162 -16.166  1.00  0.00     0.057 C 
BRANCH   3   4
ATOM      4  C   UNL     1       9.229  -0.093 -15.655  1.00  0.00     0.032 C 
BRANCH   4   5
ATOM      5  C   UNL     1       8.248  -1.096 -15.102  1.00  0.00    -0.028 C 
ATOM      6  C   UNL     1       9.768  -1.798 -13.240  1.00  0.00     0.039 C 
ATOM      7  C   UNL     1       8.483  -1.884 -14.030  1.00  0.00    -0.080 C 
ATOM      8  C   UNL     1       7.418  -2.864 -13.611  1.00  0.00     0.039 C 
ENDBRANCH   4   5
ENDBRANCH   3   4
ENDBRANCH   1   3
BRANCH   1   9
ATOM      9  C   UNL     1       9.260   3.404 -17.006  1.00  0.00     0.013 C 
ATOM     10  C   UNL     1       8.570   3.933 -15.988  1.00  0.00     0.008 C 
ENDBRANCH   1   9
BRANCH   1  11
ATOM     11  O   UNL     1       8.640   1.650 -18.570  1.00  0.00    -0.455 OA
BRANCH  11  12
ATOM     12  C   UNL     1       7.879   0.513 -18.883  1.00  0.00     0.303 C 
ATOM     13  O   UNL     1       6.621   0.563 -18.928  1.00  0.00    -0.253 OA
ATOM     14  C   UNL     1       8.576  -0.760 -19.221  1.00  0.00     0.139 C 
ENDBRANCH  11  12
ENDBRANCH   1  11
TORSDOF 6
ENDMDL
MODEL 5
REMARK VINA RESULT:    -3.208      1.989      5.275
REMARK INTER + INTRA:          -4.977
REMARK INTER:                  -4.279
REMARK INTRA:                  -0.698
REMARK UNBOUND:                -0.644
REMARK SMILES C=C[C@@](C)(CCC=C(C)C)OC(C)=O
REMARK SMILES IDX 3 1 4 2 5 3 6 4 7 5 9 6 8 7 10 8 2 9 1 10 11 11 12 12 14 13
REMARK SMILES IDX 13 14
REMARK H PARENT
REMARK Flexibility Score: inf
ROOT
ATOM      1  C   UNL     1       0.741   5.368 -13.015  1.00  0.00     0.127 C 
ATOM      2  C   UNL     1      -0.125   4.580 -12.015  1.00  0.00     0.061 C 
ENDROOT
BRANCH   1   3
ATOM      3  C   UNL     1       2.167   5.584 -12.433  1.00  0.00     0.057 C 
BRANCH   3   4
ATOM      4  C   UNL     1       2.338   5.056 -10.998  1.00  0.00     0.032 C 
BRANCH   4   5
ATOM      5  C   UNL     1       2.881   6.133 -10.091  1.00  0.00    -0.028 C 
ATOM      6  C   UNL     1       0.794   6.248  -8.711  1.00  0.00     0.039 C 
ATOM      7  C   UNL     1       2.192   6.693  -9.072  1.00  0.00    -0.080 C 
ATOM      8  C   UNL     1       2.855   7.783  -8.271  1.00  0.00     0.039 C 
ENDBRANCH   4   5
ENDBRANCH   3   4
ENDBRANCH   1   3
BRANCH   1   9
ATOM      9  C   UNL     1       0.836   4.566 -14.304  1.00  0.00     0.013 C 
ATOM     10  C   UNL     1       0.422   5.053 -15.481  1.00  0.00     0.008 C 
ENDBRANCH   1   9
BRANCH   1  11
ATOM     11  O   UNL     1       0.102   6.632 -13.256  1.00  0.00    -0.455 OA
BRANCH  11  12
ATOM     12  C   UNL     1       0.717   7.887 -13.129  1.00  0.00     0.303 C 
ATOM     13  O   UNL     1       0.929   8.397 -11.996  1.00  0.00    -0.253 OA
ATOM     14  C   UNL     1       1.174   8.602 -14.354  1.00  0.00     0.139 C 
ENDBRANCH  11  12
ENDBRANCH   1  11
TORSDOF 6
ENDMDL
MODEL 6
REMARK VINA RESULT:    -2.441      1.456      2.925
REMARK INTER + INTRA:          -3.941
REMARK INTER:                  -3.333
REMARK INTRA:                  -0.608
REMARK UNBOUND:                -0.644
REMARK SMILES C=C[C@@](C)(CCC=C(C)C)OC(C)=O
REMARK SMILES IDX 3 1 4 2 5 3 6 4 7 5 9 6 8 7 10 8 2 9 1 10 11 11 12 12 14 13
REMARK SMILES IDX 13 14
REMARK H PARENT
REMARK Flexibility Score: inf
ROOT
ATOM      1  C   UNL     1       2.007   5.948 -10.849  1.00  0.00     0.127 C 
ATOM      2  C   UNL     1       3.088   6.077  -9.760  1.00  0.00     0.061 C 
ENDROOT
BRANCH   1   3
ATOM      3  C   UNL     1       2.355   6.860 -12.060  1.00  0.00     0.057 C 
BRANCH   3   4
ATOM      4  C   UNL     1       1.168   7.699 -12.567  1.00  0.00     0.032 C 
BRANCH   4   5
ATOM      5  C   UNL     1       0.664   7.171 -13.886  1.00  0.00    -0.028 C 
ATOM      6  C   UNL     1       0.673   9.427 -14.975  1.00  0.00     0.039 C 
ATOM      7  C   UNL     1       0.417   7.938 -14.972  1.00  0.00    -0.080 C 
ATOM      8  C   UNL     1      -0.116   7.273 -16.214  1.00  0.00     0.039 C 
ENDBRANCH   4   5
ENDBRANCH   3   4
ENDBRANCH   1   3
BRANCH   1   9
ATOM      9  C   UNL     1       1.958   4.497 -11.306  1.00  0.00     0.013 C 
ATOM     10  C   UNL     1       0.930   4.005 -12.009  1.00  0.00     0.008 C 
ENDBRANCH   1   9
BRANCH   1  11
ATOM     11  O   UNL     1       0.750   6.337 -10.275  1.00  0.00    -0.455 OA
BRANCH  11  12
ATOM     12  C   UNL     1       0.379   6.150  -8.934  1.00  0.00     0.303 C 
ATOM     13  O   UNL     1       0.421   7.100  -8.107  1.00  0.00    -0.253 OA
ATOM     14  C   UNL     1      -0.125   4.818  -8.497  1.00  0.00     0.139 C 
ENDBRANCH  11  12
ENDBRANCH   1  11
TORSDOF 6
ENDMDL
MODEL 7
REMARK VINA RESULT:    -2.008      1.745      2.249
REMARK INTER + INTRA:          -3.357
REMARK INTER:                  -3.583
REMARK INTRA:                   0.227
REMARK UNBOUND:                -0.644
REMARK SMILES C=C[C@@](C)(CCC=C(C)C)OC(C)=O
REMARK SMILES IDX 3 1 4 2 5 3 6 4 7 5 9 6 8 7 10 8 2 9 1 10 11 11 12 12 14 13
REMARK SMILES IDX 13 14
REMARK H PARENT
REMARK Flexibility Score: inf
ROOT
ATOM      1  C   UNL     1       1.511   6.220 -11.801  1.00  0.00     0.127 C 
ATOM      2  C   UNL     1      -0.028   6.170 -11.846  1.00  0.00     0.061 C 
ENDROOT
BRANCH   1   3
ATOM      3  C   UNL     1       2.029   7.460 -12.583  1.00  0.00     0.057 C 
BRANCH   3   4
ATOM      4  C   UNL     1       0.923   8.236 -13.320  1.00  0.00     0.032 C 
BRANCH   4   5
ATOM      5  C   UNL     1       1.396   8.684 -14.680  1.00  0.00    -0.028 C 
ATOM      6  C   UNL     1      -0.125  10.673 -14.732  1.00  0.00     0.039 C 
ATOM      7  C   UNL     1       0.921   9.766 -15.336  1.00  0.00    -0.080 C 
ATOM      8  C   UNL     1       1.469  10.073 -16.706  1.00  0.00     0.039 C 
ENDBRANCH   4   5
ENDBRANCH   3   4
ENDBRANCH   1   3
BRANCH   1   9
ATOM      9  C   UNL     1       1.945   6.321 -10.346  1.00  0.00     0.013 C 
ATOM     10  C   UNL     1       1.353   7.155  -9.481  1.00  0.00     0.008 C 
ENDBRANCH   1   9
BRANCH   1  11
ATOM     11  O   UNL     1       2.012   5.010 -12.392  1.00  0.00    -0.455 OA
BRANCH  11  12
ATOM     12  C   UNL     1       1.241   4.073 -13.097  1.00  0.00     0.303 C 
ATOM     13  O   UNL     1       1.527   3.753 -14.282  1.00  0.00    -0.253 OA
ATOM     14  C   UNL     1       0.098   3.407 -12.412  1.00  0.00     0.139 C 
ENDBRANCH  11  12
ENDBRANCH   1  11
TORSDOF 6
ENDMDL
MODEL 8
REMARK VINA RESULT:    -1.977     11.449     13.797
REMARK INTER + INTRA:          -3.314
REMARK INTER:                  -3.314
REMARK INTRA:                  -0.001
REMARK UNBOUND:                -0.644
REMARK SMILES C=C[C@@](C)(CCC=C(C)C)OC(C)=O
REMARK SMILES IDX 3 1 4 2 5 3 6 4 7 5 9 6 8 7 10 8 2 9 1 10 11 11 12 12 14 13
REMARK SMILES IDX 13 14
REMARK H PARENT
REMARK Flexibility Score: inf
ROOT
ATOM      1  C   UNL     1       3.545  -7.696 -10.520  1.00  0.00     0.127 C 
ATOM      2  C   UNL     1       3.948  -7.118  -9.151  1.00  0.00     0.061 C 
ENDROOT
BRANCH   1   3
ATOM      3  C   UNL     1       3.110  -6.549 -11.477  1.00  0.00     0.057 C 
BRANCH   3   4
ATOM      4  C   UNL     1       3.950  -6.463 -12.764  1.00  0.00     0.032 C 
BRANCH   4   5
ATOM      5  C   UNL     1       3.162  -5.820 -13.878  1.00  0.00    -0.028 C 
ATOM      6  C   UNL     1       4.200  -3.567 -13.528  1.00  0.00     0.039 C 
ATOM      7  C   UNL     1       3.248  -4.515 -14.220  1.00  0.00    -0.080 C 
ATOM      8  C   UNL     1       2.373  -4.006 -15.336  1.00  0.00     0.039 C 
ENDBRANCH   4   5
ENDBRANCH   3   4
ENDBRANCH   1   3
BRANCH   1   9
ATOM      9  C   UNL     1       4.747  -8.418 -11.109  1.00  0.00     0.013 C 
ATOM     10  C   UNL     1       5.997  -7.962 -10.960  1.00  0.00     0.008 C 
ENDBRANCH   1   9
BRANCH   1  11
ATOM     11  O   UNL     1       2.459  -8.612 -10.313  1.00  0.00    -0.455 OA
BRANCH  11  12
ATOM     12  C   UNL     1       1.306  -8.346  -9.559  1.00  0.00     0.303 C 
ATOM     13  O   UNL     1       0.440  -7.522  -9.959  1.00  0.00    -0.253 OA
ATOM     14  C   UNL     1       1.077  -9.091  -8.289  1.00  0.00     0.139 C 
ENDBRANCH  11  12
ENDBRANCH   1  11
TORSDOF 6
ENDMDL
