MODEL 1
REMARK VINA RESULT:    -3.649      0.000      0.000
REMARK INTER + INTRA:          -4.003
REMARK INTER:                  -3.969
REMARK INTRA:                  -0.034
REMARK UNBOUND:                -0.034
REMARK SMILES O=C([O-])c1ccc(O)cc1
REMARK SMILES IDX 4 1 5 2 10 3 6 4 9 5 7 6 2 7 1 8 3 9 8 10
REMARK H PARENT 8 11
REMARK Flexibility Score: inf
ROOT
ATOM      1  C   UNL     1      -4.400   1.789  17.644  1.00  0.00    -0.003 A 
ATOM      2  C   UNL     1      -5.257   1.223  16.683  1.00  0.00     0.014 A 
ATOM      3  C   UNL     1      -4.540   3.152  17.964  1.00  0.00     0.014 A 
ATOM      4  C   UNL     1      -6.233   2.004  16.057  1.00  0.00     0.047 A 
ATOM      5  C   UNL     1      -5.518   3.930  17.336  1.00  0.00     0.047 A 
ATOM      6  C   UNL     1      -6.367   3.357  16.380  1.00  0.00     0.115 A 
ENDROOT
BRANCH   1   7
ATOM      7  C   UNL     1      -3.365   0.968  18.310  1.00  0.00     0.071 C 
ATOM      8  O   UNL     1      -2.915  -0.069  17.755  1.00  0.00    -0.545 OA
ATOM      9  O   UNL     1      -2.875   1.330  19.560  1.00  0.00    -0.545 OA
ENDBRANCH   1   7
BRANCH   6  10
ATOM     10  O   UNL     1      -7.343   4.123  15.749  1.00  0.00    -0.508 OA
ATOM     11  H   UNL     1      -7.105   4.951  15.215  1.00  0.00     0.293 HD
ENDBRANCH   6  10
TORSDOF 2
ENDMDL
MODEL 2
REMARK VINA RESULT:    -3.609      0.203      1.846
REMARK INTER + INTRA:          -3.960
REMARK INTER:                  -3.925
REMARK INTRA:                  -0.035
REMARK UNBOUND:                -0.034
REMARK SMILES O=C([O-])c1ccc(O)cc1
REMARK SMILES IDX 4 1 5 2 10 3 6 4 9 5 7 6 2 7 1 8 3 9 8 10
REMARK H PARENT 8 11
REMARK Flexibility Score: inf
ROOT
ATOM      1  C   UNL     1      -4.423   1.965  17.722  1.00  0.00    -0.003 A 
ATOM      2  C   UNL     1      -4.581   3.348  17.928  1.00  0.00     0.014 A 
ATOM      3  C   UNL     1      -5.269   1.311  16.809  1.00  0.00     0.014 A 
ATOM      4  C   UNL     1      -5.564   4.059  17.233  1.00  0.00     0.047 A 
ATOM      5  C   UNL     1      -6.251   2.025  16.116  1.00  0.00     0.047 A 
ATOM      6  C   UNL     1      -6.401   3.403  16.327  1.00  0.00     0.115 A 
ENDROOT
BRANCH   1   7
ATOM      7  C   UNL     1      -3.385   1.207  18.455  1.00  0.00     0.071 C 
ATOM      8  O   UNL     1      -2.875   1.672  19.508  1.00  0.00    -0.545 OA
ATOM      9  O   UNL     1      -2.957  -0.031  17.989  1.00  0.00    -0.545 OA
ENDBRANCH   1   7
BRANCH   6  10
ATOM     10  O   UNL     1      -7.375   4.124  15.642  1.00  0.00    -0.508 OA
ATOM     11  H   UNL     1      -7.294   5.125  15.503  1.00  0.00     0.293 HD
ENDBRANCH   6  10
TORSDOF 2
ENDMDL
MODEL 3
REMARK VINA RESULT:    -3.603      1.132      4.417
REMARK INTER + INTRA:          -3.953
REMARK INTER:                  -3.919
REMARK INTRA:                  -0.034
REMARK UNBOUND:                -0.034
REMARK SMILES O=C([O-])c1ccc(O)cc1
REMARK SMILES IDX 4 1 5 2 10 3 6 4 9 5 7 6 2 7 1 8 3 9 8 10
REMARK H PARENT 8 11
REMARK Flexibility Score: inf
ROOT
ATOM      1  C   UNL     1      -5.310   2.777  16.628  1.00  0.00    -0.003 A 
ATOM      2  C   UNL     1      -5.041   3.668  17.683  1.00  0.00     0.014 A 
ATOM      3  C   UNL     1      -4.751   1.487  16.665  1.00  0.00     0.014 A 
ATOM      4  C   UNL     1      -4.231   3.274  18.753  1.00  0.00     0.047 A 
ATOM      5  C   UNL     1      -3.942   1.096  17.736  1.00  0.00     0.047 A 
ATOM      6  C   UNL     1      -3.679   1.990  18.783  1.00  0.00     0.115 A 
ENDROOT
BRANCH   1   7
ATOM      7  C   UNL     1      -6.166   3.187  15.493  1.00  0.00     0.071 C 
ATOM      8  O   UNL     1      -7.024   4.099  15.635  1.00  0.00    -0.545 OA
ATOM      9  O   UNL     1      -6.037   2.571  14.254  1.00  0.00    -0.545 OA
ENDBRANCH   1   7
BRANCH   6  10
ATOM     10  O   UNL     1      -2.875   1.611  19.855  1.00  0.00    -0.508 OA
ATOM     11  H   UNL     1      -2.882   2.123  20.730  1.00  0.00     0.293 HD
ENDBRANCH   6  10
TORSDOF 2
ENDMDL
MODEL 4
REMARK VINA RESULT:    -3.600      1.099      4.181
REMARK INTER + INTRA:          -3.950
REMARK INTER:                  -3.915
REMARK INTRA:                  -0.034
REMARK UNBOUND:                -0.034
REMARK SMILES O=C([O-])c1ccc(O)cc1
REMARK SMILES IDX 4 1 5 2 10 3 6 4 9 5 7 6 2 7 1 8 3 9 8 10
REMARK H PARENT 8 11
REMARK Flexibility Score: inf
ROOT
ATOM      1  C   UNL     1      -5.397   2.749  16.579  1.00  0.00    -0.003 A 
ATOM      2  C   UNL     1      -4.728   1.512  16.547  1.00  0.00     0.014 A 
ATOM      3  C   UNL     1      -5.212   3.596  17.687  1.00  0.00     0.014 A 
ATOM      4  C   UNL     1      -3.892   1.132  17.601  1.00  0.00     0.047 A 
ATOM      5  C   UNL     1      -4.375   3.213  18.739  1.00  0.00     0.047 A 
ATOM      6  C   UNL     1      -3.712   1.979  18.699  1.00  0.00     0.115 A 
ENDROOT
BRANCH   1   7
ATOM      7  C   UNL     1      -6.283   3.157  15.467  1.00  0.00     0.071 C 
ATOM      8  O   UNL     1      -7.204   3.996  15.656  1.00  0.00    -0.545 OA
ATOM      9  O   UNL     1      -6.113   2.619  14.197  1.00  0.00    -0.545 OA
ENDBRANCH   1   7
BRANCH   6  10
ATOM     10  O   UNL     1      -2.876   1.587  19.741  1.00  0.00    -0.508 OA
ATOM     11  H   UNL     1      -2.660   0.612  19.910  1.00  0.00     0.293 HD
ENDBRANCH   6  10
TORSDOF 2
ENDMDL
MODEL 5
REMARK VINA RESULT:    -3.506      2.082      3.801
REMARK INTER + INTRA:          -3.848
REMARK INTER:                  -3.820
REMARK INTRA:                  -0.027
REMARK UNBOUND:                -0.034
REMARK SMILES O=C([O-])c1ccc(O)cc1
REMARK SMILES IDX 4 1 5 2 10 3 6 4 9 5 7 6 2 7 1 8 3 9 8 10
REMARK H PARENT 8 11
REMARK Flexibility Score: inf
ROOT
ATOM      1  C   UNL     1      -4.398   2.223  16.335  1.00  0.00    -0.003 A 
ATOM      2  C   UNL     1      -3.499   1.361  16.989  1.00  0.00     0.014 A 
ATOM      3  C   UNL     1      -4.977   3.281  17.059  1.00  0.00     0.014 A 
ATOM      4  C   UNL     1      -3.186   1.555  18.338  1.00  0.00     0.047 A 
ATOM      5  C   UNL     1      -4.662   3.473  18.408  1.00  0.00     0.047 A 
ATOM      6  C   UNL     1      -3.765   2.609  19.051  1.00  0.00     0.115 A 
ENDROOT
BRANCH   1   7
ATOM      7  C   UNL     1      -4.734   2.023  14.908  1.00  0.00     0.071 C 
ATOM      8  O   UNL     1      -5.490   1.080  14.554  1.00  0.00    -0.545 OA
ATOM      9  O   UNL     1      -4.218   2.873  13.937  1.00  0.00    -0.545 OA
ENDBRANCH   1   7
BRANCH   6  10
ATOM     10  O   UNL     1      -3.444   2.791  20.393  1.00  0.00    -0.508 OA
ATOM     11  H   UNL     1      -3.129   2.021  20.972  1.00  0.00     0.293 HD
ENDBRANCH   6  10
TORSDOF 2
ENDMDL
MODEL 6
REMARK VINA RESULT:    -3.211      1.347      1.518
REMARK INTER + INTRA:          -3.527
REMARK INTER:                  -3.497
REMARK INTRA:                  -0.030
REMARK UNBOUND:                -0.034
REMARK SMILES O=C([O-])c1ccc(O)cc1
REMARK SMILES IDX 4 1 5 2 10 3 6 4 9 5 7 6 2 7 1 8 3 9 8 10
REMARK H PARENT 8 11
REMARK Flexibility Score: inf
ROOT
ATOM      1  C   UNL     1      -4.544   2.737  17.529  1.00  0.00    -0.003 A 
ATOM      2  C   UNL     1      -5.586   1.868  17.153  1.00  0.00     0.014 A 
ATOM      3  C   UNL     1      -4.278   3.866  16.734  1.00  0.00     0.014 A 
ATOM      4  C   UNL     1      -6.343   2.127  16.007  1.00  0.00     0.047 A 
ATOM      5  C   UNL     1      -5.038   4.121  15.588  1.00  0.00     0.047 A 
ATOM      6  C   UNL     1      -6.073   3.251  15.222  1.00  0.00     0.115 A 
ENDROOT
BRANCH   1   7
ATOM      7  C   UNL     1      -3.739   2.470  18.741  1.00  0.00     0.071 C 
ATOM      8  O   UNL     1      -3.208   1.342  18.921  1.00  0.00    -0.545 OA
ATOM      9  O   UNL     1      -3.556   3.461  19.698  1.00  0.00    -0.545 OA
ENDBRANCH   1   7
BRANCH   6  10
ATOM     10  O   UNL     1      -6.836   3.495  14.083  1.00  0.00    -0.508 OA
ATOM     11  H   UNL     1      -7.816   3.745  14.145  1.00  0.00     0.293 HD
ENDBRANCH   6  10
TORSDOF 2
ENDMDL
MODEL 7
REMARK VINA RESULT:    -2.886      1.904      4.472
REMARK INTER + INTRA:          -3.174
REMARK INTER:                  -3.147
REMARK INTRA:                  -0.027
REMARK UNBOUND:                -0.034
REMARK SMILES O=C([O-])c1ccc(O)cc1
REMARK SMILES IDX 4 1 5 2 10 3 6 4 9 5 7 6 2 7 1 8 3 9 8 10
REMARK H PARENT 8 11
REMARK Flexibility Score: inf
ROOT
ATOM      1  C   UNL     1      -3.869   2.537  16.974  1.00  0.00    -0.003 A 
ATOM      2  C   UNL     1      -3.314   2.840  18.231  1.00  0.00     0.014 A 
ATOM      3  C   UNL     1      -4.117   1.193  16.643  1.00  0.00     0.014 A 
ATOM      4  C   UNL     1      -3.014   1.817  19.137  1.00  0.00     0.047 A 
ATOM      5  C   UNL     1      -3.816   0.173  17.551  1.00  0.00     0.047 A 
ATOM      6  C   UNL     1      -3.263   0.483  18.801  1.00  0.00     0.115 A 
ENDROOT
BRANCH   1   7
ATOM      7  C   UNL     1      -4.188   3.615  16.011  1.00  0.00     0.071 C 
ATOM      8  O   UNL     1      -5.340   4.124  15.979  1.00  0.00    -0.545 OA
ATOM      9  O   UNL     1      -3.220   4.081  15.129  1.00  0.00    -0.545 OA
ENDBRANCH   1   7
BRANCH   6  10
ATOM     10  O   UNL     1      -2.961  -0.525  19.712  1.00  0.00    -0.508 OA
ATOM     11  H   UNL     1      -2.580  -0.315  20.628  1.00  0.00     0.293 HD
ENDBRANCH   6  10
TORSDOF 2
ENDMDL
MODEL 8
REMARK VINA RESULT:    -2.583      1.729      2.566
REMARK INTER + INTRA:          -2.843
REMARK INTER:                  -2.807
REMARK INTRA:                  -0.036
REMARK UNBOUND:                -0.034
REMARK SMILES O=C([O-])c1ccc(O)cc1
REMARK SMILES IDX 4 1 5 2 10 3 6 4 9 5 7 6 2 7 1 8 3 9 8 10
REMARK H PARENT 8 11
REMARK Flexibility Score: inf
ROOT
ATOM      1  C   UNL     1      -3.463   1.356  18.421  1.00  0.00    -0.003 A 
ATOM      2  C   UNL     1      -3.737   2.734  18.499  1.00  0.00     0.014 A 
ATOM      3  C   UNL     1      -3.579   0.707  17.178  1.00  0.00     0.014 A 
ATOM      4  C   UNL     1      -4.119   3.445  17.357  1.00  0.00     0.047 A 
ATOM      5  C   UNL     1      -3.961   1.422  16.039  1.00  0.00     0.047 A 
ATOM      6  C   UNL     1      -4.232   2.794  16.126  1.00  0.00     0.115 A 
ENDROOT
BRANCH   1   7
ATOM      7  C   UNL     1      -3.059   0.597  19.625  1.00  0.00     0.071 C 
ATOM      8  O   UNL     1      -2.876   1.188  20.722  1.00  0.00    -0.545 OA
ATOM      9  O   UNL     1      -2.876  -0.779  19.562  1.00  0.00    -0.545 OA
ENDBRANCH   1   7
BRANCH   6  10
ATOM     10  O   UNL     1      -4.613   3.515  14.998  1.00  0.00    -0.508 OA
ATOM     11  H   UNL     1      -4.050   4.280  14.643  1.00  0.00     0.293 HD
ENDBRANCH   6  10
TORSDOF 2
ENDMDL
MODEL 9
REMARK VINA RESULT:    -1.666      3.050      3.949
REMARK INTER + INTRA:          -1.846
REMARK INTER:                  -1.810
REMARK INTRA:                  -0.036
REMARK UNBOUND:                -0.034
REMARK SMILES O=C([O-])c1ccc(O)cc1
REMARK SMILES IDX 4 1 5 2 10 3 6 4 9 5 7 6 2 7 1 8 3 9 8 10
REMARK H PARENT 8 11
REMARK Flexibility Score: inf
ROOT
ATOM      1  C   UNL     1      -2.977   0.379  19.918  1.00  0.00    -0.003 A 
ATOM      2  C   UNL     1      -3.044   1.777  20.067  1.00  0.00     0.014 A 
ATOM      3  C   UNL     1      -2.895  -0.166  18.624  1.00  0.00     0.014 A 
ATOM      4  C   UNL     1      -3.028   2.609  18.943  1.00  0.00     0.047 A 
ATOM      5  C   UNL     1      -2.879   0.670  17.503  1.00  0.00     0.047 A 
ATOM      6  C   UNL     1      -2.946   2.061  17.661  1.00  0.00     0.115 A 
ENDROOT
BRANCH   1   7
ATOM      7  C   UNL     1      -2.993  -0.508  21.102  1.00  0.00     0.071 C 
ATOM      8  O   UNL     1      -3.000  -0.023  22.265  1.00  0.00    -0.545 OA
ATOM      9  O   UNL     1      -3.001  -1.889  20.948  1.00  0.00    -0.545 OA
ENDBRANCH   1   7
BRANCH   6  10
ATOM     10  O   UNL     1      -2.931   2.902  16.551  1.00  0.00    -0.508 OA
ATOM     11  H   UNL     1      -2.739   2.549  15.621  1.00  0.00     0.293 HD
ENDBRANCH   6  10
TORSDOF 2
ENDMDL
