MODEL 1
REMARK VINA RESULT:    -3.717      0.000      0.000
REMARK INTER + INTRA:          -4.113
REMARK INTER:                  -3.935
REMARK INTRA:                  -0.178
REMARK UNBOUND:                -0.178
REMARK SMILES CC(C)[C@@H]1CC[C@H](C)CC1=O
REMARK SMILES IDX 8 1 7 2 6 3 5 4 4 5 10 6 11 7 9 8 2 9 1 10 3 11
REMARK H PARENT
REMARK Flexibility Score: inf
ROOT
ATOM      1  C   UNL     1     169.697 167.374 167.924  1.00  0.00     0.008 C 
ATOM      2  C   UNL     1     169.405 166.949 169.371  1.00  0.00    -0.007 C 
ATOM      3  C   UNL     1     168.458 167.944 170.082  1.00  0.00     0.004 C 
ATOM      4  C   UNL     1     167.004 167.863 169.573  1.00  0.00     0.012 C 
ATOM      5  C   UNL     1     166.436 166.426 169.672  1.00  0.00     0.058 C 
ATOM      6  C   UNL     1     167.419 165.497 168.982  1.00  0.00     0.136 C 
ATOM      7  O   UNL     1     167.098 164.814 168.020  1.00  0.00    -0.299 OA
ATOM      8  C   UNL     1     168.849 165.515 169.439  1.00  0.00     0.079 C 
ENDROOT
BRANCH   5   9
ATOM      9  C   UNL     1     164.981 166.298 169.111  1.00  0.00    -0.007 C 
ATOM     10  C   UNL     1     163.950 166.287 170.256  1.00  0.00     0.008 C 
ATOM     11  C   UNL     1     164.617 167.435 168.139  1.00  0.00     0.008 C 
ENDBRANCH   5   9
TORSDOF 1
ENDMDL
MODEL 2
REMARK VINA RESULT:    -3.667      2.163      3.011
REMARK INTER + INTRA:          -4.060
REMARK INTER:                  -3.885
REMARK INTRA:                  -0.174
REMARK UNBOUND:                -0.178
REMARK SMILES CC(C)[C@@H]1CC[C@H](C)CC1=O
REMARK SMILES IDX 8 1 7 2 6 3 5 4 4 5 10 6 11 7 9 8 2 9 1 10 3 11
REMARK H PARENT
REMARK Flexibility Score: inf
ROOT
ATOM      1  C   UNL     1     170.580 168.664 169.766  1.00  0.00     0.008 C 
ATOM      2  C   UNL     1     170.053 168.386 168.349  1.00  0.00    -0.007 C 
ATOM      3  C   UNL     1     169.424 166.978 168.236  1.00  0.00     0.004 C 
ATOM      4  C   UNL     1     168.066 166.862 168.961  1.00  0.00     0.012 C 
ATOM      5  C   UNL     1     167.059 167.934 168.477  1.00  0.00     0.058 C 
ATOM      6  C   UNL     1     167.743 169.286 168.587  1.00  0.00     0.136 C 
ATOM      7  O   UNL     1     167.296 170.181 169.290  1.00  0.00    -0.299 OA
ATOM      8  C   UNL     1     169.061 169.471 167.893  1.00  0.00     0.079 C 
ENDROOT
BRANCH   5   9
ATOM      9  C   UNL     1     165.690 167.880 169.232  1.00  0.00    -0.007 C 
ATOM     10  C   UNL     1     164.574 167.355 168.309  1.00  0.00     0.008 C 
ATOM     11  C   UNL     1     165.740 166.994 170.490  1.00  0.00     0.008 C 
ENDBRANCH   5   9
TORSDOF 1
ENDMDL
MODEL 3
REMARK VINA RESULT:    -3.665      1.268      4.106
REMARK INTER + INTRA:          -4.057
REMARK INTER:                  -3.882
REMARK INTRA:                  -0.175
REMARK UNBOUND:                -0.178
REMARK SMILES CC(C)[C@@H]1CC[C@H](C)CC1=O
REMARK SMILES IDX 8 1 7 2 6 3 5 4 4 5 10 6 11 7 9 8 2 9 1 10 3 11
REMARK H PARENT
REMARK Flexibility Score: inf
ROOT
ATOM      1  C   UNL     1     164.969 166.660 169.751  1.00  0.00     0.008 C 
ATOM      2  C   UNL     1     165.480 166.912 168.324  1.00  0.00    -0.007 C 
ATOM      3  C   UNL     1     166.109 168.317 168.179  1.00  0.00     0.004 C 
ATOM      4  C   UNL     1     167.474 168.445 168.885  1.00  0.00     0.012 C 
ATOM      5  C   UNL     1     168.475 167.365 168.408  1.00  0.00     0.058 C 
ATOM      6  C   UNL     1     167.793 166.015 168.551  1.00  0.00     0.136 C 
ATOM      7  O   UNL     1     168.248 165.132 169.264  1.00  0.00    -0.299 OA
ATOM      8  C   UNL     1     166.467 165.818 167.875  1.00  0.00     0.079 C 
ENDROOT
BRANCH   5   9
ATOM      9  C   UNL     1     169.853 167.431 169.147  1.00  0.00    -0.007 C 
ATOM     10  C   UNL     1     170.956 167.953 168.205  1.00  0.00     0.008 C 
ATOM     11  C   UNL     1     169.814 168.328 170.397  1.00  0.00     0.008 C 
ENDBRANCH   5   9
TORSDOF 1
ENDMDL
MODEL 4
REMARK VINA RESULT:    -3.664      1.991      3.679
REMARK INTER + INTRA:          -4.057
REMARK INTER:                  -3.884
REMARK INTRA:                  -0.173
REMARK UNBOUND:                -0.178
REMARK SMILES CC(C)[C@@H]1CC[C@H](C)CC1=O
REMARK SMILES IDX 8 1 7 2 6 3 5 4 4 5 10 6 11 7 9 8 2 9 1 10 3 11
REMARK H PARENT
REMARK Flexibility Score: inf
ROOT
ATOM      1  C   UNL     1     166.847 170.604 169.786  1.00  0.00     0.008 C 
ATOM      2  C   UNL     1     167.181 170.103 168.372  1.00  0.00    -0.007 C 
ATOM      3  C   UNL     1     168.612 169.523 168.291  1.00  0.00     0.004 C 
ATOM      4  C   UNL     1     168.756 168.163 169.005  1.00  0.00     0.012 C 
ATOM      5  C   UNL     1     167.734 167.125 168.482  1.00  0.00     0.058 C 
ATOM      6  C   UNL     1     166.356 167.760 168.562  1.00  0.00     0.136 C 
ATOM      7  O   UNL     1     165.458 167.275 169.236  1.00  0.00    -0.299 OA
ATOM      8  C   UNL     1     166.144 169.078 167.876  1.00  0.00     0.079 C 
ENDROOT
BRANCH   5   9
ATOM      9  C   UNL     1     167.815 165.751 169.225  1.00  0.00    -0.007 C 
ATOM     10  C   UNL     1     168.332 164.646 168.282  1.00  0.00     0.008 C 
ATOM     11  C   UNL     1     168.726 165.798 170.465  1.00  0.00     0.008 C 
ENDBRANCH   5   9
TORSDOF 1
ENDMDL
MODEL 5
REMARK VINA RESULT:    -3.663      2.129      3.522
REMARK INTER + INTRA:          -4.055
REMARK INTER:                  -3.881
REMARK INTRA:                  -0.174
REMARK UNBOUND:                -0.178
REMARK SMILES CC(C)[C@@H]1CC[C@H](C)CC1=O
REMARK SMILES IDX 8 1 7 2 6 3 5 4 4 5 10 6 11 7 9 8 2 9 1 10 3 11
REMARK H PARENT
REMARK Flexibility Score: inf
ROOT
ATOM      1  C   UNL     1     168.619 164.664 169.805  1.00  0.00     0.008 C 
ATOM      2  C   UNL     1     168.334 165.191 168.390  1.00  0.00    -0.007 C 
ATOM      3  C   UNL     1     166.936 165.845 168.291  1.00  0.00     0.004 C 
ATOM      4  C   UNL     1     166.852 167.206 169.012  1.00  0.00     0.012 C 
ATOM      5  C   UNL     1     167.935 168.193 168.512  1.00  0.00     0.058 C 
ATOM      6  C   UNL     1     169.277 167.487 168.609  1.00  0.00     0.136 C 
ATOM      7  O   UNL     1     170.187 167.920 169.301  1.00  0.00    -0.299 OA
ATOM      8  C   UNL     1     169.431 166.164 167.917  1.00  0.00     0.079 C 
ENDROOT
BRANCH   5   9
ATOM      9  C   UNL     1     167.914 169.565 169.264  1.00  0.00    -0.007 C 
ATOM     10  C   UNL     1     167.425 170.693 168.334  1.00  0.00     0.008 C 
ATOM     11  C   UNL     1     167.018 169.543 170.515  1.00  0.00     0.008 C 
ENDBRANCH   5   9
TORSDOF 1
ENDMDL
MODEL 6
REMARK VINA RESULT:    -3.569      1.872      4.395
REMARK INTER + INTRA:          -3.956
REMARK INTER:                  -3.807
REMARK INTRA:                  -0.149
REMARK UNBOUND:                -0.178
REMARK SMILES CC(C)[C@@H]1CC[C@H](C)CC1=O
REMARK SMILES IDX 8 1 7 2 6 3 5 4 4 5 10 6 11 7 9 8 2 9 1 10 3 11
REMARK H PARENT
REMARK Flexibility Score: inf
ROOT
ATOM      1  C   UNL     1     164.915 167.277 167.879  1.00  0.00     0.008 C 
ATOM      2  C   UNL     1     165.580 166.488 169.017  1.00  0.00    -0.007 C 
ATOM      3  C   UNL     1     166.808 165.689 168.521  1.00  0.00     0.004 C 
ATOM      4  C   UNL     1     168.019 166.584 168.189  1.00  0.00     0.012 C 
ATOM      5  C   UNL     1     168.419 167.483 169.385  1.00  0.00     0.058 C 
ATOM      6  C   UNL     1     167.171 168.219 169.841  1.00  0.00     0.136 C 
ATOM      7  O   UNL     1     167.104 169.439 169.841  1.00  0.00    -0.299 OA
ATOM      8  C   UNL     1     165.960 167.405 170.194  1.00  0.00     0.079 C 
ENDROOT
BRANCH   5   9
ATOM      9  C   UNL     1     169.610 168.445 169.062  1.00  0.00    -0.007 C 
ATOM     10  C   UNL     1     170.516 168.630 170.295  1.00  0.00     0.008 C 
ATOM     11  C   UNL     1     170.476 167.948 167.891  1.00  0.00     0.008 C 
ENDBRANCH   5   9
TORSDOF 1
ENDMDL
MODEL 7
REMARK VINA RESULT:    -3.567      1.617      2.244
REMARK INTER + INTRA:          -3.954
REMARK INTER:                  -3.779
REMARK INTRA:                  -0.175
REMARK UNBOUND:                -0.178
REMARK SMILES CC(C)[C@@H]1CC[C@H](C)CC1=O
REMARK SMILES IDX 8 1 7 2 6 3 5 4 4 5 10 6 11 7 9 8 2 9 1 10 3 11
REMARK H PARENT
REMARK Flexibility Score: inf
ROOT
ATOM      1  C   UNL     1     170.909 167.906 168.307  1.00  0.00     0.008 C 
ATOM      2  C   UNL     1     169.941 168.908 168.955  1.00  0.00    -0.007 C 
ATOM      3  C   UNL     1     168.738 169.221 168.037  1.00  0.00     0.004 C 
ATOM      4  C   UNL     1     167.739 168.050 167.926  1.00  0.00     0.012 C 
ATOM      5  C   UNL     1     167.239 167.584 169.315  1.00  0.00     0.058 C 
ATOM      6  C   UNL     1     168.462 167.318 170.176  1.00  0.00     0.136 C 
ATOM      7  O   UNL     1     168.687 166.216 170.657  1.00  0.00    -0.299 OA
ATOM      8  C   UNL     1     169.466 168.421 170.337  1.00  0.00     0.079 C 
ENDROOT
BRANCH   5   9
ATOM      9  C   UNL     1     166.268 166.359 169.241  1.00  0.00    -0.007 C 
ATOM     10  C   UNL     1     164.798 166.822 169.259  1.00  0.00     0.008 C 
ATOM     11  C   UNL     1     166.492 165.497 167.985  1.00  0.00     0.008 C 
ENDBRANCH   5   9
TORSDOF 1
ENDMDL
MODEL 8
REMARK VINA RESULT:    -3.476      2.272      3.770
REMARK INTER + INTRA:          -3.857
REMARK INTER:                  -3.702
REMARK INTRA:                  -0.155
REMARK UNBOUND:                -0.178
REMARK SMILES CC(C)[C@@H]1CC[C@H](C)CC1=O
REMARK SMILES IDX 8 1 7 2 6 3 5 4 4 5 10 6 11 7 9 8 2 9 1 10 3 11
REMARK H PARENT
REMARK Flexibility Score: inf
ROOT
ATOM      1  C   UNL     1     167.396 170.640 167.875  1.00  0.00     0.008 C 
ATOM      2  C   UNL     1     166.439 169.904 168.827  1.00  0.00    -0.007 C 
ATOM      3  C   UNL     1     165.818 168.654 168.163  1.00  0.00     0.004 C 
ATOM      4  C   UNL     1     166.824 167.498 167.988  1.00  0.00     0.012 C 
ATOM      5  C   UNL     1     167.496 167.108 169.327  1.00  0.00     0.058 C 
ATOM      6  C   UNL     1     168.063 168.377 169.940  1.00  0.00     0.136 C 
ATOM      7  O   UNL     1     169.256 168.505 170.177  1.00  0.00    -0.299 OA
ATOM      8  C   UNL     1     167.133 169.537 170.152  1.00  0.00     0.079 C 
ENDROOT
BRANCH   5   9
ATOM      9  C   UNL     1     168.565 165.976 169.174  1.00  0.00    -0.007 C 
ATOM     10  C   UNL     1     168.505 165.001 170.366  1.00  0.00     0.008 C 
ATOM     11  C   UNL     1     168.394 165.169 167.875  1.00  0.00     0.008 C 
ENDBRANCH   5   9
TORSDOF 1
ENDMDL
MODEL 9
REMARK VINA RESULT:    -3.409      2.666      5.153
REMARK INTER + INTRA:          -3.787
REMARK INTER:                  -3.639
REMARK INTRA:                  -0.148
REMARK UNBOUND:                -0.178
REMARK SMILES CC(C)[C@@H]1CC[C@H](C)CC1=O
REMARK SMILES IDX 8 1 7 2 6 3 5 4 4 5 10 6 11 7 9 8 2 9 1 10 3 11
REMARK H PARENT
REMARK Flexibility Score: inf
ROOT
ATOM      1  C   UNL     1     167.710 166.218 169.101  1.00  0.00     0.008 C 
ATOM      2  C   UNL     1     167.724 167.721 168.782  1.00  0.00    -0.007 C 
ATOM      3  C   UNL     1     167.717 168.581 170.067  1.00  0.00     0.004 C 
ATOM      4  C   UNL     1     169.059 168.545 170.827  1.00  0.00     0.012 C 
ATOM      5  C   UNL     1     170.247 168.953 169.922  1.00  0.00     0.058 C 
ATOM      6  C   UNL     1     170.184 168.095 168.670  1.00  0.00     0.136 C 
ATOM      7  O   UNL     1     171.098 167.348 168.352  1.00  0.00    -0.299 OA
ATOM      8  C   UNL     1     168.911 168.096 167.875  1.00  0.00     0.079 C 
ENDROOT
BRANCH   5   9
ATOM      9  C   UNL     1     171.631 168.872 170.647  1.00  0.00    -0.007 C 
ATOM     10  C   UNL     1     172.568 169.998 170.168  1.00  0.00     0.008 C 
ATOM     11  C   UNL     1     171.506 168.961 172.178  1.00  0.00     0.008 C 
ENDBRANCH   5   9
TORSDOF 1
ENDMDL
