MODEL 1
REMARK VINA RESULT:    -4.413      0.000      0.000
REMARK INTER + INTRA:          -6.671
REMARK INTER:                  -6.476
REMARK INTRA:                  -0.195
REMARK UNBOUND:                -0.195
REMARK SMILES O=c1c(O[C@@H]2O[C@H](CO)[C@H](O)[C@H](O)[C@@H]2O)c(-c2ccc(O)c(O)c2)oc2cc(O)cc(O)c12
REMARK SMILES IDX 4 1 3 2 16 3 25 4 2 5 26 6 1 7 33 8 27 9 31 10 28 11 30 12
REMARK SMILES IDX 17 13 18 14 19 15 20 16 24 17 22 18 21 19 23 21 32 23 29 25
REMARK SMILES IDX 5 27 14 28 6 29 12 30 7 31 10 32 15 33 13 35 8 37 9 38 11 40
REMARK H PARENT 21 20 23 22 32 24 29 26 15 34 13 36 9 39 11 41
REMARK Flexibility Score: inf
ROOT
ATOM      1  O   UNL     1      43.568  10.068  19.854  1.00  0.00    -0.454 OA
ENDROOT
BRANCH   1   2
ATOM      2  C   UNL     1      44.260   9.800  21.037  1.00  0.00     0.214 A 
ATOM      3  C   UNL     1      44.482  10.472  22.292  1.00  0.00     0.180 A 
ATOM      4  O   UNL     1      45.566  10.177  22.924  1.00  0.00    -0.452 OA
ATOM      5  C   UNL     1      44.710   8.535  20.861  1.00  0.00     0.239 A 
ATOM      6  C   UNL     1      46.353   9.172  22.616  1.00  0.00     0.146 A 
ATOM      7  O   UNL     1      43.921   7.767  20.177  1.00  0.00    -0.285 OA
ATOM      8  C   UNL     1      45.959   8.257  21.515  1.00  0.00     0.111 A 
ATOM      9  C   UNL     1      47.430   8.980  23.387  1.00  0.00     0.094 A 
ATOM     10  C   UNL     1      46.953   7.371  21.051  1.00  0.00     0.134 A 
ATOM     11  C   UNL     1      48.463   8.218  22.856  1.00  0.00     0.123 A 
ATOM     12  C   UNL     1      48.249   7.430  21.753  1.00  0.00     0.093 A 
BRANCH   3  13
ATOM     13  C   UNL     1      43.379  10.588  23.249  1.00  0.00     0.025 A 
ATOM     14  C   UNL     1      43.743  10.403  24.570  1.00  0.00     0.016 A 
ATOM     15  C   UNL     1      42.739  10.199  25.468  1.00  0.00     0.051 A 
ATOM     16  C   UNL     1      41.363  10.248  25.138  1.00  0.00     0.157 A 
ATOM     17  C   UNL     1      42.086  11.097  23.001  1.00  0.00     0.062 A 
ATOM     18  C   UNL     1      41.063  10.869  23.958  1.00  0.00     0.158 A 
BRANCH  16  19
ATOM     19  O   UNL     1      40.377   9.679  25.966  1.00  0.00    -0.504 OA
ATOM     20  H   UNL     1      39.835  10.293  26.617  1.00  0.00     0.293 HD
ENDBRANCH  16  19
BRANCH  18  21
ATOM     21  O   UNL     1      39.745  11.124  23.632  1.00  0.00    -0.504 OA
ATOM     22  H   UNL     1      39.589  11.904  22.978  1.00  0.00     0.293 HD
ENDBRANCH  18  21
ENDBRANCH   3  13
BRANCH  10  23
ATOM     23  O   UNL     1      46.881   6.735  19.812  1.00  0.00    -0.507 OA
ATOM     24  H   UNL     1      46.120   6.125  19.541  1.00  0.00     0.293 HD
ENDBRANCH  10  23
BRANCH  11  25
ATOM     25  O   UNL     1      49.751   8.483  23.332  1.00  0.00    -0.508 OA
ATOM     26  H   UNL     1      49.936   8.486  24.345  1.00  0.00     0.293 HD
ENDBRANCH  11  25
ENDBRANCH   1   2
BRANCH   1  27
ATOM     27  C   UNL     1      44.061  10.255  18.508  1.00  0.00     0.339 C 
ATOM     28  C   UNL     1      45.556  11.057  18.442  1.00  0.00     0.214 C 
ATOM     29  O   UNL     1      44.079   8.949  17.809  1.00  0.00    -0.332 OA
ATOM     30  C   UNL     1      46.384  10.313  17.288  1.00  0.00     0.180 C 
ATOM     31  C   UNL     1      44.470   8.971  16.417  1.00  0.00     0.179 C 
ATOM     32  C   UNL     1      45.192  10.294  16.181  1.00  0.00     0.177 C 
BRANCH  28  33
ATOM     33  O   UNL     1      46.293  11.113  19.602  1.00  0.00    -0.384 OA
ATOM     34  H   UNL     1      46.561  12.099  19.613  1.00  0.00     0.211 HD
ENDBRANCH  28  33
BRANCH  30  35
ATOM     35  O   UNL     1      46.700   9.068  17.919  1.00  0.00    -0.387 OA
ATOM     36  H   UNL     1      47.714   8.864  17.968  1.00  0.00     0.211 HD
ENDBRANCH  30  35
BRANCH  31  37
ATOM     37  C   UNL     1      45.281   7.611  15.991  1.00  0.00     0.191 C 
BRANCH  37  38
ATOM     38  O   UNL     1      45.768   6.651  16.960  1.00  0.00    -0.394 OA
ATOM     39  H   UNL     1      45.417   5.643  16.901  1.00  0.00     0.210 HD
ENDBRANCH  37  38
ENDBRANCH  31  37
BRANCH  32  40
ATOM     40  O   UNL     1      45.641  10.392  14.842  1.00  0.00    -0.387 OA
ATOM     41  H   UNL     1      44.883  10.665  14.253  1.00  0.00     0.211 HD
ENDBRANCH  32  40
ENDBRANCH   1  27
TORSDOF 12
ENDMDL
MODEL 2
REMARK VINA RESULT:    -3.406      1.028      1.684
REMARK INTER + INTRA:          -5.194
REMARK INTER:                  -4.658
REMARK INTRA:                  -0.536
REMARK UNBOUND:                -0.195
REMARK SMILES O=c1c(O[C@@H]2O[C@H](CO)[C@H](O)[C@H](O)[C@@H]2O)c(-c2ccc(O)c(O)c2)oc2cc(O)cc(O)c12
REMARK SMILES IDX 4 1 3 2 16 3 25 4 2 5 26 6 1 7 33 8 27 9 31 10 28 11 30 12
REMARK SMILES IDX 17 13 18 14 19 15 20 16 24 17 22 18 21 19 23 21 32 23 29 25
REMARK SMILES IDX 5 27 14 28 6 29 12 30 7 31 10 32 15 33 13 35 8 37 9 38 11 40
REMARK H PARENT 21 20 23 22 32 24 29 26 15 34 13 36 9 39 11 41
REMARK Flexibility Score: inf
ROOT
ATOM      1  O   UNL     1      43.775   9.765  19.917  1.00  0.00    -0.454 OA
ENDROOT
BRANCH   1   2
ATOM      2  C   UNL     1      44.485   9.689  21.117  1.00  0.00     0.214 A 
ATOM      3  C   UNL     1      44.708  10.546  22.255  1.00  0.00     0.180 A 
ATOM      4  O   UNL     1      45.805  10.368  22.908  1.00  0.00    -0.452 OA
ATOM      5  C   UNL     1      44.959   8.421  21.126  1.00  0.00     0.239 A 
ATOM      6  C   UNL     1      46.609   9.343  22.743  1.00  0.00     0.146 A 
ATOM      7  O   UNL     1      44.177   7.545  20.576  1.00  0.00    -0.285 OA
ATOM      8  C   UNL     1      46.221   8.267  21.796  1.00  0.00     0.111 A 
ATOM      9  C   UNL     1      47.698   9.288  23.518  1.00  0.00     0.094 A 
ATOM     10  C   UNL     1      47.226   7.340  21.455  1.00  0.00     0.134 A 
ATOM     11  C   UNL     1      48.740   8.474  23.093  1.00  0.00     0.123 A 
ATOM     12  C   UNL     1      48.529   7.526  22.123  1.00  0.00     0.093 A 
BRANCH   3  13
ATOM     13  C   UNL     1      43.614  10.783  23.199  1.00  0.00     0.025 A 
ATOM     14  C   UNL     1      44.012  10.921  24.517  1.00  0.00     0.016 A 
ATOM     15  C   UNL     1      43.042  10.842  25.469  1.00  0.00     0.051 A 
ATOM     16  C   UNL     1      41.661  10.713  25.181  1.00  0.00     0.157 A 
ATOM     17  C   UNL     1      42.281  11.125  22.889  1.00  0.00     0.062 A 
ATOM     18  C   UNL     1      41.294  11.034  23.906  1.00  0.00     0.158 A 
BRANCH  16  19
ATOM     19  O   UNL     1      40.738  10.264  26.146  1.00  0.00    -0.504 OA
ATOM     20  H   UNL     1      41.085   9.757  26.992  1.00  0.00     0.293 HD
ENDBRANCH  16  19
BRANCH  18  21
ATOM     21  O   UNL     1      39.954  11.110  23.575  1.00  0.00    -0.504 OA
ATOM     22  H   UNL     1      39.298  10.755  24.285  1.00  0.00     0.293 HD
ENDBRANCH  18  21
ENDBRANCH   3  13
BRANCH  10  23
ATOM     23  O   UNL     1      47.153   6.524  20.327  1.00  0.00    -0.507 OA
ATOM     24  H   UNL     1      47.957   6.073  19.911  1.00  0.00     0.293 HD
ENDBRANCH  10  23
BRANCH  11  25
ATOM     25  O   UNL     1      50.027   8.831  23.505  1.00  0.00    -0.508 OA
ATOM     26  H   UNL     1      50.847   8.348  23.113  1.00  0.00     0.293 HD
ENDBRANCH  11  25
ENDBRANCH   1   2
BRANCH   1  27
ATOM     27  C   UNL     1      44.070   9.196  18.623  1.00  0.00     0.339 C 
ATOM     28  C   UNL     1      43.019   9.723  17.398  1.00  0.00     0.214 C 
ATOM     29  O   UNL     1      45.496   9.435  18.298  1.00  0.00    -0.332 OA
ATOM     30  C   UNL     1      43.947   9.939  16.108  1.00  0.00     0.180 C 
ATOM     31  C   UNL     1      45.980   8.855  17.065  1.00  0.00     0.179 C 
ATOM     32  C   UNL     1      44.754   8.531  16.217  1.00  0.00     0.177 C 
BRANCH  28  33
ATOM     33  O   UNL     1      42.276  10.854  17.649  1.00  0.00    -0.384 OA
ATOM     34  H   UNL     1      42.649  11.130  18.559  1.00  0.00     0.211 HD
ENDBRANCH  28  33
BRANCH  30  35
ATOM     35  O   UNL     1      44.665  11.125  16.466  1.00  0.00    -0.387 OA
ATOM     36  H   UNL     1      45.332  10.996  17.248  1.00  0.00     0.211 HD
ENDBRANCH  30  35
BRANCH  31  37
ATOM     37  C   UNL     1      47.128   9.791  16.361  1.00  0.00     0.191 C 
BRANCH  37  38
ATOM     38  O   UNL     1      47.110  10.128  14.952  1.00  0.00    -0.394 OA
ATOM     39  H   UNL     1      46.236   9.895  14.382  1.00  0.00     0.210 HD
ENDBRANCH  37  38
ENDBRANCH  31  37
BRANCH  32  40
ATOM     40  O   UNL     1      45.135   7.981  14.969  1.00  0.00    -0.387 OA
ATOM     41  H   UNL     1      45.444   7.041  15.096  1.00  0.00     0.211 HD
ENDBRANCH  32  40
ENDBRANCH   1  27
TORSDOF 12
ENDMDL
MODEL 3
REMARK VINA RESULT:    -2.673      2.964      6.205
REMARK INTER + INTRA:          -4.118
REMARK INTER:                  -3.987
REMARK INTRA:                  -0.131
REMARK UNBOUND:                -0.195
REMARK SMILES O=c1c(O[C@@H]2O[C@H](CO)[C@H](O)[C@H](O)[C@@H]2O)c(-c2ccc(O)c(O)c2)oc2cc(O)cc(O)c12
REMARK SMILES IDX 4 1 3 2 16 3 25 4 2 5 26 6 1 7 33 8 27 9 31 10 28 11 30 12
REMARK SMILES IDX 17 13 18 14 19 15 20 16 24 17 22 18 21 19 23 21 32 23 29 25
REMARK SMILES IDX 5 27 14 28 6 29 12 30 7 31 10 32 15 33 13 35 8 37 9 38 11 40
REMARK H PARENT 21 20 23 22 32 24 29 26 15 34 13 36 9 39 11 41
REMARK Flexibility Score: inf
ROOT
ATOM      1  O   UNL     1      46.953   6.809  17.671  1.00  0.00    -0.454 OA
ENDROOT
BRANCH   1   2
ATOM      2  C   UNL     1      46.204   7.706  18.434  1.00  0.00     0.214 A 
ATOM      3  C   UNL     1      45.569   7.701  19.728  1.00  0.00     0.180 A 
ATOM      4  O   UNL     1      44.554   8.481  19.880  1.00  0.00    -0.452 OA
ATOM      5  C   UNL     1      46.232   8.845  17.703  1.00  0.00     0.239 A 
ATOM      6  C   UNL     1      44.205   9.417  19.027  1.00  0.00     0.146 A 
ATOM      7  O   UNL     1      47.332   9.042  17.046  1.00  0.00    -0.285 OA
ATOM      8  C   UNL     1      45.055   9.660  17.833  1.00  0.00     0.111 A 
ATOM      9  C   UNL     1      43.141  10.164  19.340  1.00  0.00     0.094 A 
ATOM     10  C   UNL     1      44.500  10.473  16.824  1.00  0.00     0.134 A 
ATOM     11  C   UNL     1      42.520  10.851  18.305  1.00  0.00     0.123 A 
ATOM     12  C   UNL     1      43.161  11.025  17.104  1.00  0.00     0.093 A 
BRANCH   3  13
ATOM     13  C   UNL     1      46.398   7.743  20.935  1.00  0.00     0.025 A 
ATOM     14  C   UNL     1      46.246   8.887  21.697  1.00  0.00     0.016 A 
ATOM     15  C   UNL     1      47.187   9.127  22.651  1.00  0.00     0.051 A 
ATOM     16  C   UNL     1      48.249   8.239  22.954  1.00  0.00     0.157 A 
ATOM     17  C   UNL     1      47.117   6.674  21.511  1.00  0.00     0.062 A 
ATOM     18  C   UNL     1      48.090   6.958  22.505  1.00  0.00     0.158 A 
BRANCH  16  19
ATOM     19  O   UNL     1      49.395   8.660  23.655  1.00  0.00    -0.504 OA
ATOM     20  H   UNL     1      50.300   8.155  23.511  1.00  0.00     0.293 HD
ENDBRANCH  16  19
BRANCH  18  21
ATOM     21  O   UNL     1      48.981   5.978  22.898  1.00  0.00    -0.504 OA
ATOM     22  H   UNL     1      48.656   5.353  23.649  1.00  0.00     0.293 HD
ENDBRANCH  18  21
ENDBRANCH   3  13
BRANCH  10  23
ATOM     23  O   UNL     1      44.981  10.490  15.516  1.00  0.00    -0.507 OA
ATOM     24  H   UNL     1      44.419  10.753  14.717  1.00  0.00     0.293 HD
ENDBRANCH  10  23
BRANCH  11  25
ATOM     25  O   UNL     1      41.157  11.124  18.458  1.00  0.00    -0.508 OA
ATOM     26  H   UNL     1      40.803  12.080  18.318  1.00  0.00     0.293 HD
ENDBRANCH  11  25
ENDBRANCH   1   2
BRANCH   1  27
ATOM     27  C   UNL     1      46.522   5.795  16.736  1.00  0.00     0.339 C 
ATOM     28  C   UNL     1      45.409   6.363  15.588  1.00  0.00     0.214 C 
ATOM     29  O   UNL     1      47.712   5.164  16.118  1.00  0.00    -0.332 OA
ATOM     30  C   UNL     1      45.828   5.661  14.209  1.00  0.00     0.180 C 
ATOM     31  C   UNL     1      47.460   4.064  15.214  1.00  0.00     0.179 C 
ATOM     32  C   UNL     1      45.993   4.156  14.804  1.00  0.00     0.177 C 
BRANCH  28  33
ATOM     33  O   UNL     1      45.314   7.726  15.422  1.00  0.00    -0.384 OA
ATOM     34  H   UNL     1      46.291   8.002  15.537  1.00  0.00     0.211 HD
ENDBRANCH  28  33
BRANCH  30  35
ATOM     35  O   UNL     1      47.032   6.363  13.883  1.00  0.00    -0.387 OA
ATOM     36  H   UNL     1      47.383   6.975  14.641  1.00  0.00     0.211 HD
ENDBRANCH  30  35
BRANCH  31  37
ATOM     37  C   UNL     1      48.555   4.013  13.996  1.00  0.00     0.191 C 
BRANCH  37  38
ATOM     38  O   UNL     1      49.736   4.852  13.966  1.00  0.00    -0.394 OA
ATOM     39  H   UNL     1      49.610   5.913  13.987  1.00  0.00     0.210 HD
ENDBRANCH  37  38
ENDBRANCH  31  37
BRANCH  32  40
ATOM     40  O   UNL     1      45.659   3.129  13.889  1.00  0.00    -0.387 OA
ATOM     41  H   UNL     1      45.108   2.435  14.349  1.00  0.00     0.211 HD
ENDBRANCH  32  40
ENDBRANCH   1  27
TORSDOF 12
ENDMDL
