MODEL 1
REMARK VINA RESULT:    -4.915      0.000      0.000
REMARK INTER + INTRA:          -7.828
REMARK INTER:                  -6.638
REMARK INTRA:                  -1.189
REMARK UNBOUND:                -1.189
REMARK SMILES C=CC(C)=CCC=C(C)CCC=C(C)C
REMARK SMILES IDX 8 1 7 2 9 3 10 4 11 5 12 6 14 7 13 8 15 9 6 10 5 11 3 12
REMARK SMILES IDX 4 13 2 14 1 15
REMARK H PARENT
REMARK Flexibility Score: inf
ROOT
ATOM      1  C   UNL     1      -2.117   4.151  11.423  1.00  0.00    -0.077 C 
ATOM      2  C   UNL     1      -1.331   3.118  11.043  1.00  0.00    -0.024 C 
ATOM      3  C   UNL     1      -2.136   4.651  12.849  1.00  0.00     0.039 C 
ENDROOT
BRANCH   1   4
ATOM      4  C   UNL     1      -2.981   4.841  10.389  1.00  0.00     0.034 C 
BRANCH   4   5
ATOM      5  C   UNL     1      -2.592   6.314  10.215  1.00  0.00     0.032 C 
BRANCH   5   6
ATOM      6  C   UNL     1      -1.432   6.462   9.259  1.00  0.00    -0.028 C 
ATOM      7  C   UNL     1       0.238   6.945  11.063  1.00  0.00     0.039 C 
ATOM      8  C   UNL     1      -0.166   6.766   9.621  1.00  0.00    -0.080 C 
ATOM      9  C   UNL     1       0.893   6.947   8.566  1.00  0.00     0.039 C 
ENDBRANCH   5   6
ENDBRANCH   4   5
ENDBRANCH   1   4
BRANCH   2  10
ATOM     10  C   UNL     1      -0.419   2.362  11.975  1.00  0.00     0.055 C 
BRANCH  10  11
ATOM     11  C   UNL     1      -1.077   1.104  12.484  1.00  0.00    -0.020 C 
ATOM     12  C   UNL     1      -1.388   0.892  13.777  1.00  0.00    -0.055 C 
ATOM     13  C   UNL     1      -1.083   1.917  14.847  1.00  0.00     0.044 C 
BRANCH  12  14
ATOM     14  C   UNL     1      -1.982  -0.420  14.144  1.00  0.00    -0.005 C 
ATOM     15  C   UNL     1      -1.421  -1.592  13.847  1.00  0.00     0.009 C 
ENDBRANCH  12  14
ENDBRANCH  10  11
ENDBRANCH   2  10
TORSDOF 6
ENDMDL
MODEL 2
REMARK VINA RESULT:    -4.900      1.496      2.925
REMARK INTER + INTRA:          -7.808
REMARK INTER:                  -6.144
REMARK INTRA:                  -1.664
REMARK UNBOUND:                -1.189
REMARK SMILES C=CC(C)=CCC=C(C)CCC=C(C)C
REMARK SMILES IDX 8 1 7 2 9 3 10 4 11 5 12 6 14 7 13 8 15 9 6 10 5 11 3 12
REMARK SMILES IDX 4 13 2 14 1 15
REMARK H PARENT
REMARK Flexibility Score: inf
ROOT
ATOM      1  C   UNL     1      -0.213   5.609  13.333  1.00  0.00    -0.077 C 
ATOM      2  C   UNL     1       0.509   4.465  13.353  1.00  0.00    -0.024 C 
ATOM      3  C   UNL     1      -1.221   5.931  14.412  1.00  0.00     0.039 C 
ENDROOT
BRANCH   1   4
ATOM      4  C   UNL     1       0.014   6.605  12.216  1.00  0.00     0.034 C 
BRANCH   4   5
ATOM      5  C   UNL     1      -0.345   6.014  10.847  1.00  0.00     0.032 C 
BRANCH   5   6
ATOM      6  C   UNL     1      -1.842   5.897  10.680  1.00  0.00    -0.028 C 
ATOM      7  C   UNL     1      -1.842   3.392  10.743  1.00  0.00     0.039 C 
ATOM      8  C   UNL     1      -2.523   4.731  10.609  1.00  0.00    -0.080 C 
ATOM      9  C   UNL     1      -4.011   4.745  10.379  1.00  0.00     0.039 C 
ENDBRANCH   5   6
ENDBRANCH   4   5
ENDBRANCH   1   4
BRANCH   2  10
ATOM     10  C   UNL     1       0.383   3.405  14.417  1.00  0.00     0.055 C 
BRANCH  10  11
ATOM     11  C   UNL     1      -0.122   2.106  13.841  1.00  0.00    -0.020 C 
ATOM     12  C   UNL     1      -1.374   1.643  14.022  1.00  0.00    -0.055 C 
ATOM     13  C   UNL     1      -2.390   2.400  14.849  1.00  0.00     0.044 C 
BRANCH  12  14
ATOM     14  C   UNL     1      -1.716   0.318  13.442  1.00  0.00    -0.005 C 
ATOM     15  C   UNL     1      -1.333  -0.076  12.228  1.00  0.00     0.009 C 
ENDBRANCH  12  14
ENDBRANCH  10  11
ENDBRANCH   2  10
TORSDOF 6
ENDMDL
MODEL 3
REMARK VINA RESULT:    -4.842      1.565      3.192
REMARK INTER + INTRA:          -7.730
REMARK INTER:                  -6.125
REMARK INTRA:                  -1.605
REMARK UNBOUND:                -1.189
REMARK SMILES C=CC(C)=CCC=C(C)CCC=C(C)C
REMARK SMILES IDX 8 1 7 2 9 3 10 4 11 5 12 6 14 7 13 8 15 9 6 10 5 11 3 12
REMARK SMILES IDX 4 13 2 14 1 15
REMARK H PARENT
REMARK Flexibility Score: inf
ROOT
ATOM      1  C   UNL     1      -0.453   5.825  13.319  1.00  0.00    -0.077 C 
ATOM      2  C   UNL     1       0.176   4.827  13.981  1.00  0.00    -0.024 C 
ATOM      3  C   UNL     1      -1.780   6.375  13.788  1.00  0.00     0.039 C 
ENDROOT
BRANCH   1   4
ATOM      4  C   UNL     1       0.201   6.424  12.092  1.00  0.00     0.034 C 
BRANCH   4   5
ATOM      5  C   UNL     1      -0.459   5.930  10.799  1.00  0.00     0.032 C 
BRANCH   5   6
ATOM      6  C   UNL     1      -0.495   4.421  10.749  1.00  0.00    -0.028 C 
ATOM      7  C   UNL     1      -2.996   4.290  10.828  1.00  0.00     0.039 C 
ATOM      8  C   UNL     1      -1.621   3.672  10.784  1.00  0.00    -0.080 C 
ATOM      9  C   UNL     1      -1.523   2.170  10.790  1.00  0.00     0.039 C 
ENDBRANCH   5   6
ENDBRANCH   4   5
ENDBRANCH   1   4
BRANCH   2  10
ATOM     10  C   UNL     1      -0.366   4.161  15.220  1.00  0.00     0.055 C 
BRANCH  10  11
ATOM     11  C   UNL     1      -0.449   2.666  15.046  1.00  0.00    -0.020 C 
ATOM     12  C   UNL     1      -1.583   2.011  14.727  1.00  0.00    -0.055 C 
ATOM     13  C   UNL     1      -2.894   2.739  14.528  1.00  0.00     0.044 C 
BRANCH  12  14
ATOM     14  C   UNL     1      -1.530   0.528  14.645  1.00  0.00    -0.005 C 
ATOM     15  C   UNL     1      -2.454  -0.211  14.031  1.00  0.00     0.009 C 
ENDBRANCH  12  14
ENDBRANCH  10  11
ENDBRANCH   2  10
TORSDOF 6
ENDMDL
MODEL 4
REMARK VINA RESULT:    -4.830      2.053      4.880
REMARK INTER + INTRA:          -7.713
REMARK INTER:                  -6.206
REMARK INTRA:                  -1.508
REMARK UNBOUND:                -1.189
REMARK SMILES C=CC(C)=CCC=C(C)CCC=C(C)C
REMARK SMILES IDX 8 1 7 2 9 3 10 4 11 5 12 6 14 7 13 8 15 9 6 10 5 11 3 12
REMARK SMILES IDX 4 13 2 14 1 15
REMARK H PARENT
REMARK Flexibility Score: inf
ROOT
ATOM      1  C   UNL     1      -1.382   1.008  13.603  1.00  0.00    -0.077 C 
ATOM      2  C   UNL     1      -0.491   1.964  13.954  1.00  0.00    -0.024 C 
ATOM      3  C   UNL     1      -2.569   0.670  14.476  1.00  0.00     0.039 C 
ENDROOT
BRANCH   1   4
ATOM      4  C   UNL     1      -1.199   0.274  12.292  1.00  0.00     0.034 C 
BRANCH   4   5
ATOM      5  C   UNL     1      -0.772   1.223  11.165  1.00  0.00     0.032 C 
BRANCH   5   6
ATOM      6  C   UNL     1      -1.886   2.180  10.810  1.00  0.00    -0.028 C 
ATOM      7  C   UNL     1      -0.475   4.229  11.112  1.00  0.00     0.039 C 
ATOM      8  C   UNL     1      -1.774   3.528  10.804  1.00  0.00    -0.080 C 
ATOM      9  C   UNL     1      -2.977   4.379  10.492  1.00  0.00     0.039 C 
ENDBRANCH   5   6
ENDBRANCH   4   5
ENDBRANCH   1   4
BRANCH   2  10
ATOM     10  C   UNL     1      -0.573   2.770  15.224  1.00  0.00     0.055 C 
BRANCH  10  11
ATOM     11  C   UNL     1      -1.214   4.113  14.981  1.00  0.00    -0.020 C 
ATOM     12  C   UNL     1      -0.527   5.217  14.628  1.00  0.00    -0.055 C 
ATOM     13  C   UNL     1       0.976   5.199  14.459  1.00  0.00     0.044 C 
BRANCH  12  14
ATOM     14  C   UNL     1      -1.283   6.488  14.478  1.00  0.00    -0.005 C 
ATOM     15  C   UNL     1      -1.390   7.151  13.326  1.00  0.00     0.009 C 
ENDBRANCH  12  14
ENDBRANCH  10  11
ENDBRANCH   2  10
TORSDOF 6
ENDMDL
MODEL 5
REMARK VINA RESULT:    -4.794      1.582      2.947
REMARK INTER + INTRA:          -7.665
REMARK INTER:                  -6.559
REMARK INTRA:                  -1.106
REMARK UNBOUND:                -1.189
REMARK SMILES C=CC(C)=CCC=C(C)CCC=C(C)C
REMARK SMILES IDX 8 1 7 2 9 3 10 4 11 5 12 6 14 7 13 8 15 9 6 10 5 11 3 12
REMARK SMILES IDX 4 13 2 14 1 15
REMARK H PARENT
REMARK Flexibility Score: inf
ROOT
ATOM      1  C   UNL     1      -1.132   4.726  11.841  1.00  0.00    -0.077 C 
ATOM      2  C   UNL     1      -0.546   3.507  11.846  1.00  0.00    -0.024 C 
ATOM      3  C   UNL     1      -1.350   5.508  13.116  1.00  0.00     0.039 C 
ENDROOT
BRANCH   1   4
ATOM      4  C   UNL     1      -1.557   5.335  10.522  1.00  0.00     0.034 C 
BRANCH   4   5
ATOM      5  C   UNL     1      -2.606   6.437  10.716  1.00  0.00     0.032 C 
BRANCH   5   6
ATOM      6  C   UNL     1      -3.899   6.085  10.018  1.00  0.00    -0.028 C 
ATOM      7  C   UNL     1      -4.961   5.116  12.071  1.00  0.00     0.039 C 
ATOM      8  C   UNL     1      -4.953   5.473  10.605  1.00  0.00    -0.080 C 
ATOM      9  C   UNL     1      -6.165   5.119   9.786  1.00  0.00     0.039 C 
ENDBRANCH   5   6
ENDBRANCH   4   5
ENDBRANCH   1   4
BRANCH   2  10
ATOM     10  C   UNL     1      -0.069   2.804  13.091  1.00  0.00     0.055 C 
BRANCH  10  11
ATOM     11  C   UNL     1      -0.729   1.457  13.247  1.00  0.00    -0.020 C 
ATOM     12  C   UNL     1      -1.787   1.231  14.050  1.00  0.00    -0.055 C 
ATOM     13  C   UNL     1      -2.401   2.331  14.887  1.00  0.00     0.044 C 
BRANCH  12  14
ATOM     14  C   UNL     1      -2.299  -0.161  14.149  1.00  0.00    -0.005 C 
ATOM     15  C   UNL     1      -1.522  -1.241  14.061  1.00  0.00     0.009 C 
ENDBRANCH  12  14
ENDBRANCH  10  11
ENDBRANCH   2  10
TORSDOF 6
ENDMDL
MODEL 6
REMARK VINA RESULT:    -4.788      1.802      6.264
REMARK INTER + INTRA:          -7.657
REMARK INTER:                  -6.837
REMARK INTRA:                  -0.820
REMARK UNBOUND:                -1.189
REMARK SMILES C=CC(C)=CCC=C(C)CCC=C(C)C
REMARK SMILES IDX 8 1 7 2 9 3 10 4 11 5 12 6 14 7 13 8 15 9 6 10 5 11 3 12
REMARK SMILES IDX 4 13 2 14 1 15
REMARK H PARENT
REMARK Flexibility Score: inf
ROOT
ATOM      1  C   UNL     1      -0.777   3.637  11.721  1.00  0.00    -0.077 C 
ATOM      2  C   UNL     1      -1.654   3.966  10.745  1.00  0.00    -0.024 C 
ATOM      3  C   UNL     1      -0.305   4.649  12.739  1.00  0.00     0.039 C 
ENDROOT
BRANCH   1   4
ATOM      4  C   UNL     1      -0.276   2.211  11.811  1.00  0.00     0.034 C 
BRANCH   4   5
ATOM      5  C   UNL     1      -1.348   1.203  11.377  1.00  0.00     0.032 C 
BRANCH   5   6
ATOM      6  C   UNL     1      -1.214  -0.094  12.139  1.00  0.00    -0.028 C 
ATOM      7  C   UNL     1      -2.313   0.792  14.210  1.00  0.00     0.039 C 
ATOM      8  C   UNL     1      -1.620  -0.286  13.415  1.00  0.00    -0.080 C 
ATOM      9  C   UNL     1      -1.375  -1.611  14.088  1.00  0.00     0.039 C 
ENDBRANCH   5   6
ENDBRANCH   4   5
ENDBRANCH   1   4
BRANCH   2  10
ATOM     10  C   UNL     1      -2.233   5.345  10.560  1.00  0.00     0.055 C 
BRANCH  10  11
ATOM     11  C   UNL     1      -3.705   5.283  10.238  1.00  0.00    -0.020 C 
ATOM     12  C   UNL     1      -4.674   5.227  11.173  1.00  0.00    -0.055 C 
ATOM     13  C   UNL     1      -4.353   5.206  12.651  1.00  0.00     0.044 C 
BRANCH  12  14
ATOM     14  C   UNL     1      -6.081   5.111  10.709  1.00  0.00    -0.005 C 
ATOM     15  C   UNL     1      -6.444   5.177   9.428  1.00  0.00     0.009 C 
ENDBRANCH  12  14
ENDBRANCH  10  11
ENDBRANCH   2  10
TORSDOF 6
ENDMDL
MODEL 7
REMARK VINA RESULT:    -4.757      2.228      5.790
REMARK INTER + INTRA:          -7.615
REMARK INTER:                  -6.659
REMARK INTRA:                  -0.955
REMARK UNBOUND:                -1.189
REMARK SMILES C=CC(C)=CCC=C(C)CCC=C(C)C
REMARK SMILES IDX 8 1 7 2 9 3 10 4 11 5 12 6 14 7 13 8 15 9 6 10 5 11 3 12
REMARK SMILES IDX 4 13 2 14 1 15
REMARK H PARENT
REMARK Flexibility Score: inf
ROOT
ATOM      1  C   UNL     1      -1.731   3.932  11.133  1.00  0.00    -0.077 C 
ATOM      2  C   UNL     1      -0.632   4.521  11.658  1.00  0.00    -0.024 C 
ATOM      3  C   UNL     1      -3.014   4.699  10.913  1.00  0.00     0.039 C 
ENDROOT
BRANCH   1   4
ATOM      4  C   UNL     1      -1.665   2.474  10.731  1.00  0.00     0.034 C 
BRANCH   4   5
ATOM      5  C   UNL     1      -0.574   1.721  11.502  1.00  0.00     0.032 C 
BRANCH   5   6
ATOM      6  C   UNL     1      -1.139   0.502  12.193  1.00  0.00    -0.028 C 
ATOM      7  C   UNL     1      -1.378   1.639  14.413  1.00  0.00     0.039 C 
ATOM      8  C   UNL     1      -1.482   0.444  13.500  1.00  0.00    -0.080 C 
ATOM      9  C   UNL     1      -1.978  -0.851  14.088  1.00  0.00     0.039 C 
ENDBRANCH   5   6
ENDBRANCH   4   5
ENDBRANCH   1   4
BRANCH   2  10
ATOM     10  C   UNL     1      -0.570   5.966  12.083  1.00  0.00     0.055 C 
BRANCH  10  11
ATOM     11  C   UNL     1       0.591   6.214  13.014  1.00  0.00    -0.020 C 
ATOM     12  C   UNL     1       0.562   5.945  14.334  1.00  0.00    -0.055 C 
ATOM     13  C   UNL     1      -0.669   5.375  15.004  1.00  0.00     0.044 C 
BRANCH  12  14
ATOM     14  C   UNL     1       1.761   6.295  15.141  1.00  0.00    -0.005 C 
ATOM     15  C   UNL     1       2.961   5.746  14.954  1.00  0.00     0.009 C 
ENDBRANCH  12  14
ENDBRANCH  10  11
ENDBRANCH   2  10
TORSDOF 6
ENDMDL
MODEL 8
REMARK VINA RESULT:    -4.648      2.536      6.637
REMARK INTER + INTRA:          -7.468
REMARK INTER:                  -6.736
REMARK INTRA:                  -0.732
REMARK UNBOUND:                -1.189
REMARK SMILES C=CC(C)=CCC=C(C)CCC=C(C)C
REMARK SMILES IDX 8 1 7 2 9 3 10 4 11 5 12 6 14 7 13 8 15 9 6 10 5 11 3 12
REMARK SMILES IDX 4 13 2 14 1 15
REMARK H PARENT
REMARK Flexibility Score: inf
ROOT
ATOM      1  C   UNL     1      -1.438   3.735  14.487  1.00  0.00    -0.077 C 
ATOM      2  C   UNL     1      -2.466   3.972  13.641  1.00  0.00    -0.024 C 
ATOM      3  C   UNL     1      -0.442   4.814  14.847  1.00  0.00     0.039 C 
ENDROOT
BRANCH   1   4
ATOM      4  C   UNL     1      -1.295   2.363  15.110  1.00  0.00     0.034 C 
BRANCH   4   5
ATOM      5  C   UNL     1      -2.432   1.425  14.685  1.00  0.00     0.032 C 
BRANCH   5   6
ATOM      6  C   UNL     1      -1.949  -0.003  14.586  1.00  0.00    -0.028 C 
ATOM      7  C   UNL     1      -1.346   0.172  12.159  1.00  0.00     0.039 C 
ATOM      8  C   UNL     1      -1.483  -0.585  13.457  1.00  0.00    -0.080 C 
ATOM      9  C   UNL     1      -1.089  -2.038  13.470  1.00  0.00     0.039 C 
ENDBRANCH   5   6
ENDBRANCH   4   5
ENDBRANCH   1   4
BRANCH   2  10
ATOM     10  C   UNL     1      -2.722   5.297  12.970  1.00  0.00     0.055 C 
BRANCH  10  11
ATOM     11  C   UNL     1      -4.144   5.399  12.480  1.00  0.00    -0.020 C 
ATOM     12  C   UNL     1      -4.538   5.032  11.245  1.00  0.00    -0.055 C 
ATOM     13  C   UNL     1      -3.560   4.491  10.225  1.00  0.00     0.044 C 
BRANCH  12  14
ATOM     14  C   UNL     1      -5.963   5.242  10.879  1.00  0.00    -0.005 C 
ATOM     15  C   UNL     1      -6.383   5.432   9.628  1.00  0.00     0.009 C 
ENDBRANCH  12  14
ENDBRANCH  10  11
ENDBRANCH   2  10
TORSDOF 6
ENDMDL
MODEL 9
REMARK VINA RESULT:    -4.633      1.319      6.606
REMARK INTER + INTRA:          -7.448
REMARK INTER:                  -6.487
REMARK INTRA:                  -0.961
REMARK UNBOUND:                -1.189
REMARK SMILES C=CC(C)=CCC=C(C)CCC=C(C)C
REMARK SMILES IDX 8 1 7 2 9 3 10 4 11 5 12 6 14 7 13 8 15 9 6 10 5 11 3 12
REMARK SMILES IDX 4 13 2 14 1 15
REMARK H PARENT
REMARK Flexibility Score: inf
ROOT
ATOM      1  C   UNL     1      -1.457   3.927  14.533  1.00  0.00    -0.077 C 
ATOM      2  C   UNL     1      -2.216   4.140  13.434  1.00  0.00    -0.024 C 
ATOM      3  C   UNL     1      -0.664   5.040  15.178  1.00  0.00     0.039 C 
ENDROOT
BRANCH   1   4
ATOM      4  C   UNL     1      -1.421   2.544  15.148  1.00  0.00     0.034 C 
BRANCH   4   5
ATOM      5  C   UNL     1      -2.517   1.638  14.573  1.00  0.00     0.032 C 
BRANCH   5   6
ATOM      6  C   UNL     1      -2.083   0.191  14.576  1.00  0.00    -0.028 C 
ATOM      7  C   UNL     1      -1.275   0.235  12.203  1.00  0.00     0.039 C 
ATOM      8  C   UNL     1      -1.547  -0.457  13.516  1.00  0.00    -0.080 C 
ATOM      9  C   UNL     1      -1.211  -1.921  13.624  1.00  0.00     0.039 C 
ENDBRANCH   5   6
ENDBRANCH   4   5
ENDBRANCH   1   4
BRANCH   2  10
ATOM     10  C   UNL     1      -2.344   5.472  12.741  1.00  0.00     0.055 C 
BRANCH  10  11
ATOM     11  C   UNL     1      -1.805   5.412  11.334  1.00  0.00    -0.020 C 
ATOM     12  C   UNL     1      -0.629   5.952  10.958  1.00  0.00    -0.055 C 
ATOM     13  C   UNL     1       0.255   6.691  11.938  1.00  0.00     0.044 C 
BRANCH  12  14
ATOM     14  C   UNL     1      -0.251   5.866   9.524  1.00  0.00    -0.005 C 
ATOM     15  C   UNL     1       0.514   6.767   8.907  1.00  0.00     0.009 C 
ENDBRANCH  12  14
ENDBRANCH  10  11
ENDBRANCH   2  10
TORSDOF 6
ENDMDL
