MODEL 1
REMARK VINA RESULT:    -3.350      0.000      0.000
REMARK INTER + INTRA:          -3.270
REMARK INTER:                  -4.133
REMARK INTRA:                   0.863
REMARK UNBOUND:                 0.863
REMARK SMILES CC1=CC=CC(C)(C)CC1=O
REMARK SMILES IDX 1 1 2 2 3 3 10 4 11 5 9 6 4 8 5 9 6 10 7 11 8 12
REMARK H PARENT
REMARK Flexibility Score: 80.00
ROOT
ATOM      1  C   UNL     1       9.899 117.641  16.677  1.00  0.00     0.048 C 
ATOM      2  C   UNL     1       9.293 117.619  18.061  1.00  0.00    -0.008 C 
ATOM      3  C   UNL     1       7.985 117.932  18.180  1.00  0.00     0.007 C 
ENDROOT
BRANCH   2   4
ATOM      4  C   UNL     1      10.185 117.199  19.174  1.00  0.00     0.159 C 
ATOM      5  O   UNL     1      11.408 117.006  18.928  1.00  0.00    -0.295 OA
BRANCH   4   6
ATOM      6  C   UNL     1       9.718 116.950  20.577  1.00  0.00     0.091 CG0
ATOM      7  G   UNL     1       8.940 118.132  21.199  1.00  0.00     0.000 G0
ENDBRANCH   4   6
ENDBRANCH   2   4
BRANCH   3   8
ATOM      8  C   UNL     1       7.136 118.003  19.391  1.00  0.00    -0.003 C 
ATOM      9  C   UNL     1       7.514 118.122  20.669  1.00  0.00    -0.020 C 
BRANCH   9  10
ATOM     10  C   UNL     1       8.935 118.139  21.180  1.00  0.00    -0.010 CG0
ATOM     11  C   UNL     1       9.597 119.503  20.876  1.00  0.00     0.016 C 
ATOM     12  C   UNL     1       8.899 117.961  22.715  1.00  0.00     0.016 C 
ATOM     13  G   UNL     1       9.713 116.949  20.576  1.00  0.00     0.000 G0
ENDBRANCH   9  10
ENDBRANCH   3   8
TORSDOF 0
ENDMDL
MODEL 2
REMARK VINA RESULT:    -3.269      1.596      3.533
REMARK INTER + INTRA:          -3.171
REMARK INTER:                  -4.036
REMARK INTRA:                   0.865
REMARK UNBOUND:                 0.863
REMARK SMILES CC1=CC=CC(C)(C)CC1=O
REMARK SMILES IDX 1 1 2 2 3 3 10 4 11 5 9 6 4 8 5 9 6 10 7 11 8 12
REMARK H PARENT
REMARK Flexibility Score: 80.00
ROOT
ATOM      1  C   UNL     1       7.830 118.587  22.650  1.00  0.00     0.048 C 
ATOM      2  C   UNL     1       8.097 118.524  21.164  1.00  0.00    -0.008 C 
ATOM      3  C   UNL     1       7.135 118.002  20.373  1.00  0.00     0.007 C 
ENDROOT
BRANCH   2   4
ATOM      4  C   UNL     1       9.386 119.097  20.692  1.00  0.00     0.159 C 
ATOM      5  O   UNL     1      10.201 119.537  21.549  1.00  0.00    -0.295 OA
BRANCH   4   6
ATOM      6  C   UNL     1       9.770 119.224  19.248  1.00  0.00     0.091 CG0
ATOM      7  G   UNL     1       9.601 117.920  18.437  1.00  0.00     0.000 G0
ENDBRANCH   4   6
ENDBRANCH   2   4
BRANCH   3   8
ATOM      8  C   UNL     1       7.120 117.806  18.905  1.00  0.00    -0.003 C 
ATOM      9  C   UNL     1       8.157 117.741  18.062  1.00  0.00    -0.020 C 
BRANCH   9  10
ATOM     10  C   UNL     1       9.611 117.929  18.422  1.00  0.00    -0.010 CG0
ATOM     11  C   UNL     1      10.146 116.682  19.163  1.00  0.00     0.016 C 
ATOM     12  C   UNL     1      10.417 118.084  17.112  1.00  0.00     0.016 C 
ATOM     13  G   UNL     1       9.774 119.228  19.243  1.00  0.00     0.000 G0
ENDBRANCH   9  10
ENDBRANCH   3   8
TORSDOF 0
ENDMDL
MODEL 3
REMARK VINA RESULT:    -3.248      7.694      9.297
REMARK INTER + INTRA:          -3.144
REMARK INTER:                  -3.978
REMARK INTRA:                   0.834
REMARK UNBOUND:                 0.863
REMARK SMILES CC1=CC=CC(C)(C)CC1=O
REMARK SMILES IDX 1 1 2 2 3 3 10 4 11 5 9 6 4 8 5 9 6 10 7 11 8 12
REMARK H PARENT
REMARK Flexibility Score: 80.00
ROOT
ATOM      1  C   UNL     1      12.326 110.412  22.739  1.00  0.00     0.048 C 
ATOM      2  C   UNL     1      12.896 110.205  21.355  1.00  0.00    -0.008 C 
ATOM      3  C   UNL     1      13.469 109.014  21.081  1.00  0.00     0.007 C 
ENDROOT
BRANCH   2   4
ATOM      4  C   UNL     1      12.726 111.324  20.389  1.00  0.00     0.159 C 
ATOM      5  O   UNL     1      12.202 112.398  20.795  1.00  0.00    -0.295 OA
BRANCH   4   6
ATOM      6  C   UNL     1      13.106 111.248  18.940  1.00  0.00     0.091 CG0
ATOM      7  G   UNL     1      14.552 110.761  18.695  1.00  0.00     0.000 G0
ENDBRANCH   4   6
ENDBRANCH   2   4
BRANCH   3   8
ATOM      8  C   UNL     1      14.110 108.537  19.834  1.00  0.00    -0.003 C 
ATOM      9  C   UNL     1      14.604 109.258  18.821  1.00  0.00    -0.020 C 
BRANCH   9  10
ATOM     10  C   UNL     1      14.552 110.761  18.690  1.00  0.00    -0.010 CG0
ATOM     11  C   UNL     1      15.597 111.418  19.621  1.00  0.00     0.016 C 
ATOM     12  C   UNL     1      14.916 111.132  17.233  1.00  0.00     0.016 C 
ATOM     13  G   UNL     1      13.113 111.252  18.966  1.00  0.00     0.000 G0
ENDBRANCH   9  10
ENDBRANCH   3   8
TORSDOF 0
ENDMDL
MODEL 4
REMARK VINA RESULT:    -3.239      2.077      2.960
REMARK INTER + INTRA:          -3.133
REMARK INTER:                  -3.987
REMARK INTRA:                   0.853
REMARK UNBOUND:                 0.863
REMARK SMILES CC1=CC=CC(C)(C)CC1=O
REMARK SMILES IDX 1 1 2 2 3 3 10 4 11 5 9 6 4 8 5 9 6 10 7 11 8 12
REMARK H PARENT
REMARK Flexibility Score: 80.00
ROOT
ATOM      1  C   UNL     1       6.605 117.184  17.490  1.00  0.00     0.048 C 
ATOM      2  C   UNL     1       7.569 117.804  18.475  1.00  0.00    -0.008 C 
ATOM      3  C   UNL     1       8.833 117.328  18.505  1.00  0.00     0.007 C 
ENDROOT
BRANCH   2   4
ATOM      4  C   UNL     1       7.052 118.931  19.296  1.00  0.00     0.159 C 
ATOM      5  O   UNL     1       5.832 119.240  19.198  1.00  0.00    -0.295 OA
BRANCH   4   6
ATOM      6  C   UNL     1       7.900 119.760  20.215  1.00  0.00     0.091 CG0
ATOM      7  G   UNL     1       8.735 118.931  21.216  1.00  0.00     0.000 G0
ENDBRANCH   4   6
ENDBRANCH   2   4
BRANCH   3   8
ATOM      8  C   UNL     1       9.974 117.728  19.359  1.00  0.00    -0.003 C 
ATOM      9  C   UNL     1       9.954 118.380  20.527  1.00  0.00    -0.020 C 
BRANCH   9  10
ATOM     10  C   UNL     1       8.730 118.931  21.218  1.00  0.00    -0.010 CG0
ATOM     11  C   UNL     1       7.921 117.787  21.870  1.00  0.00     0.016 C 
ATOM     12  C   UNL     1       9.198 119.882  22.345  1.00  0.00     0.016 C 
ATOM     13  G   UNL     1       7.896 119.754  20.210  1.00  0.00     0.000 G0
ENDBRANCH   9  10
ENDBRANCH   3   8
TORSDOF 0
ENDMDL
MODEL 5
REMARK VINA RESULT:    -3.233      1.949      3.889
REMARK INTER + INTRA:          -3.126
REMARK INTER:                  -4.002
REMARK INTRA:                   0.876
REMARK UNBOUND:                 0.863
REMARK SMILES CC1=CC=CC(C)(C)CC1=O
REMARK SMILES IDX 1 1 2 2 3 3 10 4 11 5 9 6 4 8 5 9 6 10 7 11 8 12
REMARK H PARENT
REMARK Flexibility Score: 80.00
ROOT
ATOM      1  C   UNL     1       7.699 118.330  22.509  1.00  0.00     0.048 C 
ATOM      2  C   UNL     1       8.365 117.825  21.250  1.00  0.00    -0.008 C 
ATOM      3  C   UNL     1       9.457 117.043  21.385  1.00  0.00     0.007 C 
ENDROOT
BRANCH   2   4
ATOM      4  C   UNL     1       7.720 118.192  19.961  1.00  0.00     0.159 C 
ATOM      5  O   UNL     1       6.747 118.996  19.980  1.00  0.00    -0.295 OA
BRANCH   4   6
ATOM      6  C   UNL     1       8.129 117.636  18.629  1.00  0.00     0.091 CG0
ATOM      7  G   UNL     1       9.635 117.789  18.321  1.00  0.00     0.000 G0
ENDBRANCH   4   6
ENDBRANCH   2   4
BRANCH   3   8
ATOM      8  C   UNL     1      10.310 116.420  20.347  1.00  0.00    -0.003 C 
ATOM      9  C   UNL     1      10.422 116.746  19.054  1.00  0.00    -0.020 C 
BRANCH   9  10
ATOM     10  C   UNL     1       9.627 117.807  18.331  1.00  0.00    -0.010 CG0
ATOM     11  C   UNL     1      10.139 119.215  18.713  1.00  0.00     0.016 C 
ATOM     12  C   UNL     1       9.842 117.621  16.811  1.00  0.00     0.016 C 
ATOM     13  G   UNL     1       8.123 117.617  18.630  1.00  0.00     0.000 G0
ENDBRANCH   9  10
ENDBRANCH   3   8
TORSDOF 0
ENDMDL
MODEL 6
REMARK VINA RESULT:    -3.166      1.985      2.980
REMARK INTER + INTRA:          -3.043
REMARK INTER:                  -3.896
REMARK INTRA:                   0.853
REMARK UNBOUND:                 0.863
REMARK SMILES CC1=CC=CC(C)(C)CC1=O
REMARK SMILES IDX 1 1 2 2 3 3 10 4 11 5 9 6 4 8 5 9 6 10 7 11 8 12
REMARK H PARENT
REMARK Flexibility Score: 80.00
ROOT
ATOM      1  C   UNL     1       6.315 118.720  18.905  1.00  0.00     0.048 C 
ATOM      2  C   UNL     1       7.660 118.447  19.539  1.00  0.00    -0.008 C 
ATOM      3  C   UNL     1       8.464 117.540  18.944  1.00  0.00     0.007 C 
ENDROOT
BRANCH   2   4
ATOM      4  C   UNL     1       8.006 119.249  20.742  1.00  0.00     0.159 C 
ATOM      5  O   UNL     1       7.135 120.027  21.221  1.00  0.00    -0.295 OA
BRANCH   4   6
ATOM      6  C   UNL     1       9.348 119.224  21.411  1.00  0.00     0.091 CG0
ATOM      7  G   UNL     1       9.841 117.806  21.776  1.00  0.00     0.000 G0
ENDBRANCH   4   6
ENDBRANCH   2   4
BRANCH   3   8
ATOM      8  C   UNL     1       9.812 117.068  19.337  1.00  0.00    -0.003 C 
ATOM      9  C   UNL     1      10.405 117.141  20.534  1.00  0.00    -0.020 C 
BRANCH   9  10
ATOM     10  C   UNL     1       9.841 117.804  21.768  1.00  0.00    -0.010 CG0
ATOM     11  C   UNL     1       8.736 116.922  22.394  1.00  0.00     0.016 C 
ATOM     12  C   UNL     1      10.980 117.944  22.805  1.00  0.00     0.016 C 
ATOM     13  G   UNL     1       9.342 119.221  21.409  1.00  0.00     0.000 G0
ENDBRANCH   9  10
ENDBRANCH   3   8
TORSDOF 0
ENDMDL
MODEL 7
REMARK VINA RESULT:    -3.149      1.972      3.680
REMARK INTER + INTRA:          -3.022
REMARK INTER:                  -3.876
REMARK INTRA:                   0.854
REMARK UNBOUND:                 0.863
REMARK SMILES CC1=CC=CC(C)(C)CC1=O
REMARK SMILES IDX 1 1 2 2 3 3 10 4 11 5 9 6 4 8 5 9 6 10 7 11 8 12
REMARK H PARENT
REMARK Flexibility Score: 80.00
ROOT
ATOM      1  C   UNL     1       7.463 117.687  18.642  1.00  0.00     0.048 C 
ATOM      2  C   UNL     1       8.964 117.710  18.474  1.00  0.00    -0.008 C 
ATOM      3  C   UNL     1       9.457 117.900  17.231  1.00  0.00     0.007 C 
ENDROOT
BRANCH   2   4
ATOM      4  C   UNL     1       9.776 117.573  19.713  1.00  0.00     0.159 C 
ATOM      5  O   UNL     1       9.182 117.339  20.802  1.00  0.00    -0.295 OA
BRANCH   4   6
ATOM      6  C   UNL     1      11.267 117.734  19.762  1.00  0.00     0.091 CG0
ATOM      7  G   UNL     1      12.026 116.869  18.731  1.00  0.00     0.000 G0
ENDBRANCH   4   6
ENDBRANCH   2   4
BRANCH   3   8
ATOM      8  C   UNL     1      10.862 117.957  16.769  1.00  0.00    -0.003 C 
ATOM      9  C   UNL     1      11.960 117.492  17.376  1.00  0.00    -0.020 C 
BRANCH   9  10
ATOM     10  C   UNL     1      12.018 116.848  18.741  1.00  0.00    -0.010 CG0
ATOM     11  C   UNL     1      11.470 115.404  18.676  1.00  0.00     0.016 C 
ATOM     12  C   UNL     1      13.499 116.774  19.178  1.00  0.00     0.016 C 
ATOM     13  G   UNL     1      11.260 117.730  19.758  1.00  0.00     0.000 G0
ENDBRANCH   9  10
ENDBRANCH   3   8
TORSDOF 0
ENDMDL
MODEL 8
REMARK VINA RESULT:    -3.119     11.150     12.139
REMARK INTER + INTRA:          -2.985
REMARK INTER:                  -3.831
REMARK INTRA:                   0.846
REMARK UNBOUND:                 0.863
REMARK SMILES CC1=CC=CC(C)(C)CC1=O
REMARK SMILES IDX 1 1 2 2 3 3 10 4 11 5 9 6 4 8 5 9 6 10 7 11 8 12
REMARK H PARENT
REMARK Flexibility Score: 80.00
ROOT
ATOM      1  C   UNL     1      20.402 125.410  13.953  1.00  0.00     0.048 C 
ATOM      2  C   UNL     1      19.178 125.537  14.831  1.00  0.00    -0.008 C 
ATOM      3  C   UNL     1      19.052 126.656  15.576  1.00  0.00     0.007 C 
ENDROOT
BRANCH   2   4
ATOM      4  C   UNL     1      18.185 124.433  14.756  1.00  0.00     0.159 C 
ATOM      5  O   UNL     1      18.463 123.416  14.063  1.00  0.00    -0.295 OA
BRANCH   4   6
ATOM      6  C   UNL     1      16.843 124.464  15.426  1.00  0.00     0.091 CG0
ATOM      7  G   UNL     1      16.904 124.771  16.939  1.00  0.00     0.000 G0
ENDBRANCH   4   6
ENDBRANCH   2   4
BRANCH   3   8
ATOM      8  C   UNL     1      17.982 127.047  16.523  1.00  0.00    -0.003 C 
ATOM      9  C   UNL     1      17.085 126.266  17.136  1.00  0.00    -0.020 C 
BRANCH   9  10
ATOM     10  C   UNL     1      16.915 124.779  16.937  1.00  0.00    -0.010 CG0
ATOM     11  C   UNL     1      18.040 124.008  17.667  1.00  0.00     0.016 C 
ATOM     12  C   UNL     1      15.567 124.358  17.567  1.00  0.00     0.016 C 
ATOM     13  G   UNL     1      16.859 124.464  15.426  1.00  0.00     0.000 G0
ENDBRANCH   9  10
ENDBRANCH   3   8
TORSDOF 0
ENDMDL
MODEL 9
REMARK VINA RESULT:    -2.969     10.416     11.591
REMARK INTER + INTRA:          -2.801
REMARK INTER:                  -3.675
REMARK INTRA:                   0.874
REMARK UNBOUND:                 0.863
REMARK SMILES CC1=CC=CC(C)(C)CC1=O
REMARK SMILES IDX 1 1 2 2 3 3 10 4 11 5 9 6 4 8 5 9 6 10 7 11 8 12
REMARK H PARENT
REMARK Flexibility Score: 80.00
ROOT
ATOM      1  C   UNL     1      15.082 122.552  14.041  1.00  0.00     0.048 C 
ATOM      2  C   UNL     1      16.259 123.370  14.520  1.00  0.00    -0.008 C 
ATOM      3  C   UNL     1      17.387 123.346  13.778  1.00  0.00     0.007 C 
ENDROOT
BRANCH   2   4
ATOM      4  C   UNL     1      16.053 124.180  15.750  1.00  0.00     0.159 C 
ATOM      5  O   UNL     1      14.962 124.064  16.374  1.00  0.00    -0.295 OA
BRANCH   4   6
ATOM      6  C   UNL     1      17.049 125.166  16.284  1.00  0.00     0.091 CG0
ATOM      7  G   UNL     1      18.467 124.583  16.476  1.00  0.00     0.000 G0
ENDBRANCH   4   6
ENDBRANCH   2   4
BRANCH   3   8
ATOM      8  C   UNL     1      18.682 124.028  14.002  1.00  0.00    -0.003 C 
ATOM      9  C   UNL     1      19.174 124.533  15.139  1.00  0.00    -0.020 C 
BRANCH   9  10
ATOM     10  C   UNL     1      18.465 124.581  16.472  1.00  0.00    -0.010 CG0
ATOM     11  C   UNL     1      18.437 123.175  17.116  1.00  0.00     0.016 C 
ATOM     12  C   UNL     1      19.262 125.516  17.410  1.00  0.00     0.016 C 
ATOM     13  G   UNL     1      17.053 125.179  16.282  1.00  0.00     0.000 G0
ENDBRANCH   9  10
ENDBRANCH   3   8
TORSDOF 0
ENDMDL
