MODEL 1
REMARK VINA RESULT:    -5.723      0.000      0.000
REMARK INTER + INTRA:         -10.856
REMARK INTER:                  -8.902
REMARK INTRA:                  -1.954
REMARK UNBOUND:                -1.954
REMARK SMILES C[C@@]12C[C@@]3(O)O[C@@H](O1)[C@]1(COC(=O)c4ccccc4)[C@H]3C[C@@]12O[C@@H]1O[C@H](CO)[C@@H](O)[C@@H](O)[C@H]1O
REMARK SMILES IDX 1 1 2 2 3 3 4 4 20 5 21 6 22 7 9 8 7 9 8 10 6 11 23 12 24 13
REMARK SMILES IDX 33 14 25 15 31 16 26 17 29 18 34 19 32 21 27 23 28 24 30 26
REMARK SMILES IDX 5 28 10 30 11 31 12 32 13 33 14 34 15 35 19 36 16 37 18 38
REMARK SMILES IDX 17 39
REMARK H PARENT 34 20 32 22 28 25 30 27 5 29
REMARK Flexibility Score: inf
ROOT
ATOM      1  C   UNL     1      47.976  12.451  -2.734  1.00  0.00     0.046 C 
ATOM      2  C   UNL     1      46.813  13.291  -3.352  1.00  0.00     0.104 C 
ATOM      3  C   UNL     1      45.531  12.389  -3.005  1.00  0.00     0.104 C 
ATOM      4  C   UNL     1      44.336  13.142  -3.660  1.00  0.00     0.175 C 
ATOM      5  C   UNL     1      44.703  13.556  -5.155  1.00  0.00     0.070 C 
ATOM      6  C   UNL     1      45.938  12.834  -5.742  1.00  0.00     0.050 C 
ATOM      7  C   UNL     1      46.849  13.763  -4.931  1.00  0.00     0.115 C 
ATOM      8  C   UNL     1      45.656  14.723  -4.832  1.00  0.00     0.096 C 
ATOM      9  C   UNL     1      45.465  15.027  -3.358  1.00  0.00     0.267 C 
ATOM     10  O   UNL     1      46.616  14.488  -2.637  1.00  0.00    -0.342 OA
ATOM     11  O   UNL     1      44.288  14.386  -2.972  1.00  0.00    -0.320 OA
ENDROOT
BRANCH   7  12
ATOM     12  O   UNL     1      47.938  14.499  -5.591  1.00  0.00    -0.339 OA
BRANCH  12  13
ATOM     13  C   UNL     1      49.222  14.709  -4.969  1.00  0.00     0.282 C 
ATOM     14  C   UNL     1      50.474  13.954  -5.468  1.00  0.00     0.202 C 
ATOM     15  O   UNL     1      49.565  16.113  -4.944  1.00  0.00    -0.341 OA
ATOM     16  C   UNL     1      51.065  14.399  -6.765  1.00  0.00     0.179 C 
ATOM     17  C   UNL     1      50.135  16.735  -6.142  1.00  0.00     0.178 C 
ATOM     18  C   UNL     1      51.336  15.917  -6.826  1.00  0.00     0.177 C 
BRANCH  14  19
ATOM     19  O   UNL     1      51.487  14.243  -4.515  1.00  0.00    -0.385 OA
ATOM     20  H   UNL     1      51.052  14.086  -3.634  1.00  0.00     0.211 HD
ENDBRANCH  14  19
BRANCH  16  21
ATOM     21  O   UNL     1      52.337  13.768  -6.943  1.00  0.00    -0.387 OA
ATOM     22  H   UNL     1      52.295  12.917  -6.411  1.00  0.00     0.211 HD
ENDBRANCH  16  21
BRANCH  17  23
ATOM     23  C   UNL     1      49.029  17.192  -7.125  1.00  0.00     0.191 C 
BRANCH  23  24
ATOM     24  O   UNL     1      48.023  17.966  -6.465  1.00  0.00    -0.394 OA
ATOM     25  H   UNL     1      47.226  17.938  -7.056  1.00  0.00     0.210 HD
ENDBRANCH  23  24
ENDBRANCH  17  23
BRANCH  18  26
ATOM     26  O   UNL     1      52.623  16.368  -6.277  1.00  0.00    -0.387 OA
ATOM     27  H   UNL     1      52.693  17.359  -6.494  1.00  0.00     0.211 HD
ENDBRANCH  18  26
ENDBRANCH  12  13
ENDBRANCH   7  12
BRANCH   4  28
ATOM     28  O   UNL     1      43.083  12.424  -3.517  1.00  0.00    -0.365 OA
ATOM     29  H   UNL     1      42.650  12.444  -4.387  1.00  0.00     0.214 HD
ENDBRANCH   4  28
BRANCH   8  30
ATOM     30  C   UNL     1      45.451  15.934  -5.797  1.00  0.00     0.249 C 
BRANCH  30  31
ATOM     31  O   UNL     1      45.677  17.186  -5.177  1.00  0.00    -0.461 OA
BRANCH  31  32
ATOM     32  C   UNL     1      44.902  18.306  -5.592  1.00  0.00     0.338 C 
ATOM     33  O   UNL     1      45.108  18.833  -6.700  1.00  0.00    -0.246 OA
BRANCH  32  34
ATOM     34  C   UNL     1      43.905  18.898  -4.636  1.00  0.00     0.060 A 
ATOM     35  C   UNL     1      43.631  20.283  -4.621  1.00  0.00     0.015 A 
ATOM     36  C   UNL     1      43.487  18.114  -3.539  1.00  0.00     0.015 A 
ATOM     37  C   UNL     1      42.859  20.837  -3.597  1.00  0.00     0.001 A 
ATOM     38  C   UNL     1      42.720  18.669  -2.538  1.00  0.00     0.001 A 
ATOM     39  C   UNL     1      42.380  20.032  -2.564  1.00  0.00     0.000 A 
ENDBRANCH  32  34
ENDBRANCH  31  32
ENDBRANCH  30  31
ENDBRANCH   8  30
TORSDOF 12
ENDMDL
MODEL 2
REMARK VINA RESULT:    -5.366      0.972      1.353
REMARK INTER + INTRA:         -10.300
REMARK INTER:                  -8.855
REMARK INTRA:                  -1.446
REMARK UNBOUND:                -1.954
REMARK SMILES C[C@@]12C[C@@]3(O)O[C@@H](O1)[C@]1(COC(=O)c4ccccc4)[C@H]3C[C@@]12O[C@@H]1O[C@H](CO)[C@@H](O)[C@@H](O)[C@H]1O
REMARK SMILES IDX 1 1 2 2 3 3 4 4 20 5 21 6 22 7 9 8 7 9 8 10 6 11 23 12 24 13
REMARK SMILES IDX 33 14 25 15 31 16 26 17 29 18 34 19 32 21 27 23 28 24 30 26
REMARK SMILES IDX 5 28 10 30 11 31 12 32 13 33 14 34 15 35 19 36 16 37 18 38
REMARK SMILES IDX 17 39
REMARK H PARENT 34 20 32 22 28 25 30 27 5 29
REMARK Flexibility Score: inf
ROOT
ATOM      1  C   UNL     1      47.211  12.562  -2.875  1.00  0.00     0.046 C 
ATOM      2  C   UNL     1      46.166  13.601  -3.392  1.00  0.00     0.104 C 
ATOM      3  C   UNL     1      44.804  12.754  -3.342  1.00  0.00     0.104 C 
ATOM      4  C   UNL     1      43.725  13.719  -3.917  1.00  0.00     0.175 C 
ATOM      5  C   UNL     1      44.254  14.396  -5.259  1.00  0.00     0.070 C 
ATOM      6  C   UNL     1      45.491  13.709  -5.886  1.00  0.00     0.050 C 
ATOM      7  C   UNL     1      46.379  14.378  -4.831  1.00  0.00     0.115 C 
ATOM      8  C   UNL     1      45.246  15.392  -4.627  1.00  0.00     0.096 C 
ATOM      9  C   UNL     1      44.939  15.406  -3.142  1.00  0.00     0.267 C 
ATOM     10  O   UNL     1      45.980  14.640  -2.462  1.00  0.00    -0.342 OA
ATOM     11  O   UNL     1      43.692  14.798  -2.991  1.00  0.00    -0.320 OA
ENDROOT
BRANCH   7  12
ATOM     12  O   UNL     1      47.570  15.141  -5.235  1.00  0.00    -0.339 OA
BRANCH  12  13
ATOM     13  C   UNL     1      48.867  14.928  -4.643  1.00  0.00     0.282 C 
ATOM     14  C   UNL     1      49.721  13.701  -5.032  1.00  0.00     0.202 C 
ATOM     15  O   UNL     1      49.710  16.091  -4.807  1.00  0.00    -0.341 OA
ATOM     16  C   UNL     1      50.373  13.723  -6.375  1.00  0.00     0.179 C 
ATOM     17  C   UNL     1      50.414  16.296  -6.076  1.00  0.00     0.178 C 
ATOM     18  C   UNL     1      51.189  15.007  -6.640  1.00  0.00     0.177 C 
BRANCH  14  19
ATOM     19  O   UNL     1      50.813  13.705  -4.123  1.00  0.00    -0.385 OA
ATOM     20  H   UNL     1      50.434  14.075  -3.281  1.00  0.00     0.211 HD
ENDBRANCH  14  19
BRANCH  16  21
ATOM     21  O   UNL     1      51.308  12.643  -6.463  1.00  0.00    -0.387 OA
ATOM     22  H   UNL     1      51.846  12.817  -7.293  1.00  0.00     0.211 HD
ENDBRANCH  16  21
BRANCH  17  23
ATOM     23  C   UNL     1      49.513  17.007  -7.115  1.00  0.00     0.191 C 
BRANCH  23  24
ATOM     24  O   UNL     1      48.437  17.712  -6.487  1.00  0.00    -0.394 OA
ATOM     25  H   UNL     1      47.604  17.301  -6.836  1.00  0.00     0.210 HD
ENDBRANCH  23  24
ENDBRANCH  17  23
BRANCH  18  26
ATOM     26  O   UNL     1      52.576  15.005  -6.152  1.00  0.00    -0.387 OA
ATOM     27  H   UNL     1      53.137  14.589  -6.891  1.00  0.00     0.211 HD
ENDBRANCH  18  26
ENDBRANCH  12  13
ENDBRANCH   7  12
BRANCH   4  28
ATOM     28  O   UNL     1      42.421  13.091  -4.025  1.00  0.00    -0.365 OA
ATOM     29  H   UNL     1      41.924  13.343  -3.229  1.00  0.00     0.214 HD
ENDBRANCH   4  28
BRANCH   8  30
ATOM     30  C   UNL     1      45.208  16.785  -5.331  1.00  0.00     0.249 C 
BRANCH  30  31
ATOM     31  O   UNL     1      43.954  17.433  -5.219  1.00  0.00    -0.461 OA
BRANCH  31  32
ATOM     32  C   UNL     1      43.917  18.773  -4.740  1.00  0.00     0.338 C 
ATOM     33  O   UNL     1      44.437  19.689  -5.403  1.00  0.00    -0.246 OA
BRANCH  32  34
ATOM     34  C   UNL     1      43.331  19.047  -3.384  1.00  0.00     0.060 A 
ATOM     35  C   UNL     1      42.479  18.118  -2.749  1.00  0.00     0.015 A 
ATOM     36  C   UNL     1      43.375  20.370  -2.893  1.00  0.00     0.015 A 
ATOM     37  C   UNL     1      41.788  18.475  -1.589  1.00  0.00     0.001 A 
ATOM     38  C   UNL     1      42.695  20.710  -1.744  1.00  0.00     0.001 A 
ATOM     39  C   UNL     1      41.909  19.763  -1.067  1.00  0.00     0.000 A 
ENDBRANCH  32  34
ENDBRANCH  31  32
ENDBRANCH  30  31
ENDBRANCH   8  30
TORSDOF 12
ENDMDL
MODEL 3
REMARK VINA RESULT:    -5.195      2.066      7.319
REMARK INTER + INTRA:         -10.034
REMARK INTER:                  -8.240
REMARK INTRA:                  -1.794
REMARK UNBOUND:                -1.954
REMARK SMILES C[C@@]12C[C@@]3(O)O[C@@H](O1)[C@]1(COC(=O)c4ccccc4)[C@H]3C[C@@]12O[C@@H]1O[C@H](CO)[C@@H](O)[C@@H](O)[C@H]1O
REMARK SMILES IDX 1 1 2 2 3 3 4 4 20 5 21 6 22 7 9 8 7 9 8 10 6 11 23 12 24 13
REMARK SMILES IDX 33 14 25 15 31 16 26 17 29 18 34 19 32 21 27 23 28 24 30 26
REMARK SMILES IDX 5 28 10 30 11 31 12 32 13 33 14 34 15 35 19 36 16 37 18 38
REMARK SMILES IDX 17 39
REMARK H PARENT 34 20 32 22 28 25 30 27 5 29
REMARK Flexibility Score: inf
ROOT
ATOM      1  C   UNL     1      44.496  11.672  -3.785  1.00  0.00     0.046 C 
ATOM      2  C   UNL     1      45.866  12.381  -4.028  1.00  0.00     0.104 C 
ATOM      3  C   UNL     1      46.854  11.521  -3.100  1.00  0.00     0.104 C 
ATOM      4  C   UNL     1      48.236  12.227  -3.245  1.00  0.00     0.175 C 
ATOM      5  C   UNL     1      48.067  13.802  -3.073  1.00  0.00     0.070 C 
ATOM      6  C   UNL     1      46.721  14.245  -2.453  1.00  0.00     0.050 C 
ATOM      7  C   UNL     1      46.036  14.006  -3.803  1.00  0.00     0.115 C 
ATOM      8  C   UNL     1      47.427  14.105  -4.443  1.00  0.00     0.096 C 
ATOM      9  C   UNL     1      47.611  12.852  -5.279  1.00  0.00     0.267 C 
ATOM     10  O   UNL     1      46.324  12.164  -5.342  1.00  0.00    -0.342 OA
ATOM     11  O   UNL     1      48.563  12.074  -4.620  1.00  0.00    -0.320 OA
ENDROOT
BRANCH   7  12
ATOM     12  O   UNL     1      45.207  15.056  -4.415  1.00  0.00    -0.339 OA
BRANCH  12  13
ATOM     13  C   UNL     1      43.773  14.954  -4.515  1.00  0.00     0.282 C 
ATOM     14  C   UNL     1      42.894  14.907  -3.245  1.00  0.00     0.202 C 
ATOM     15  O   UNL     1      43.234  16.000  -5.354  1.00  0.00    -0.341 OA
ATOM     16  C   UNL     1      42.719  16.182  -2.490  1.00  0.00     0.179 C 
ATOM     17  C   UNL     1      43.018  17.335  -4.790  1.00  0.00     0.178 C 
ATOM     18  C   UNL     1      42.259  17.360  -3.375  1.00  0.00     0.177 C 
BRANCH  14  19
ATOM     19  O   UNL     1      41.586  14.603  -3.709  1.00  0.00    -0.385 OA
ATOM     20  H   UNL     1      41.617  14.796  -4.684  1.00  0.00     0.211 HD
ENDBRANCH  14  19
BRANCH  16  21
ATOM     21  O   UNL     1      41.694  16.011  -1.506  1.00  0.00    -0.387 OA
ATOM     22  H   UNL     1      41.123  15.253  -1.838  1.00  0.00     0.211 HD
ENDBRANCH  16  21
BRANCH  17  23
ATOM     23  C   UNL     1      44.310  18.188  -4.840  1.00  0.00     0.191 C 
BRANCH  23  24
ATOM     24  O   UNL     1      45.212  17.721  -5.849  1.00  0.00    -0.394 OA
ATOM     25  H   UNL     1      46.123  17.835  -5.472  1.00  0.00     0.210 HD
ENDBRANCH  23  24
ENDBRANCH  17  23
BRANCH  18  26
ATOM     26  O   UNL     1      40.809  17.483  -3.589  1.00  0.00    -0.387 OA
ATOM     27  H   UNL     1      40.666  18.369  -4.067  1.00  0.00     0.211 HD
ENDBRANCH  18  26
ENDBRANCH  12  13
ENDBRANCH   7  12
BRANCH   4  28
ATOM     28  O   UNL     1      49.254  11.628  -2.401  1.00  0.00    -0.365 OA
ATOM     29  H   UNL     1      50.104  11.771  -2.849  1.00  0.00     0.214 HD
ENDBRANCH   4  28
BRANCH   8  30
ATOM     30  C   UNL     1      47.986  15.419  -5.074  1.00  0.00     0.249 C 
BRANCH  30  31
ATOM     31  O   UNL     1      48.807  15.189  -6.205  1.00  0.00    -0.461 OA
BRANCH  31  32
ATOM     32  C   UNL     1      50.081  15.823  -6.265  1.00  0.00     0.338 C 
ATOM     33  O   UNL     1      50.161  17.057  -6.404  1.00  0.00    -0.246 OA
BRANCH  32  34
ATOM     34  C   UNL     1      51.319  14.972  -6.258  1.00  0.00     0.060 A 
ATOM     35  C   UNL     1      52.599  15.531  -6.463  1.00  0.00     0.015 A 
ATOM     36  C   UNL     1      51.168  13.572  -6.368  1.00  0.00     0.015 A 
ATOM     37  C   UNL     1      53.708  14.703  -6.654  1.00  0.00     0.001 A 
ATOM     38  C   UNL     1      52.269  12.764  -6.549  1.00  0.00     0.001 A 
ATOM     39  C   UNL     1      53.554  13.317  -6.675  1.00  0.00     0.000 A 
ENDBRANCH  32  34
ENDBRANCH  31  32
ENDBRANCH  30  31
ENDBRANCH   8  30
TORSDOF 12
ENDMDL
MODEL 4
REMARK VINA RESULT:    -5.106      2.228      7.237
REMARK INTER + INTRA:          -9.897
REMARK INTER:                  -8.040
REMARK INTRA:                  -1.856
REMARK UNBOUND:                -1.954
REMARK SMILES C[C@@]12C[C@@]3(O)O[C@@H](O1)[C@]1(COC(=O)c4ccccc4)[C@H]3C[C@@]12O[C@@H]1O[C@H](CO)[C@@H](O)[C@@H](O)[C@H]1O
REMARK SMILES IDX 1 1 2 2 3 3 4 4 20 5 21 6 22 7 9 8 7 9 8 10 6 11 23 12 24 13
REMARK SMILES IDX 33 14 25 15 31 16 26 17 29 18 34 19 32 21 27 23 28 24 30 26
REMARK SMILES IDX 5 28 10 30 11 31 12 32 13 33 14 34 15 35 19 36 16 37 18 38
REMARK SMILES IDX 17 39
REMARK H PARENT 34 20 32 22 28 25 30 27 5 29
REMARK Flexibility Score: inf
ROOT
ATOM      1  C   UNL     1      42.166  13.542  -3.865  1.00  0.00     0.046 C 
ATOM      2  C   UNL     1      43.610  14.001  -4.243  1.00  0.00     0.104 C 
ATOM      3  C   UNL     1      44.514  12.944  -3.441  1.00  0.00     0.104 C 
ATOM      4  C   UNL     1      45.979  13.393  -3.723  1.00  0.00     0.175 C 
ATOM      5  C   UNL     1      46.120  14.966  -3.508  1.00  0.00     0.070 C 
ATOM      6  C   UNL     1      44.949  15.622  -2.739  1.00  0.00     0.050 C 
ATOM      7  C   UNL     1      44.097  15.559  -4.011  1.00  0.00     0.115 C 
ATOM      8  C   UNL     1      45.409  15.428  -4.795  1.00  0.00     0.096 C 
ATOM      9  C   UNL     1      45.273  14.194  -5.667  1.00  0.00     0.267 C 
ATOM     10  O   UNL     1      43.883  13.752  -5.602  1.00  0.00    -0.342 OA
ATOM     11  O   UNL     1      46.129  13.234  -5.128  1.00  0.00    -0.320 OA
ENDROOT
BRANCH   7  12
ATOM     12  O   UNL     1      43.416  16.762  -4.513  1.00  0.00    -0.339 OA
BRANCH  12  13
ATOM     13  C   UNL     1      42.119  17.176  -4.038  1.00  0.00     0.282 C 
ATOM     14  C   UNL     1      41.809  17.220  -2.525  1.00  0.00     0.202 C 
ATOM     15  O   UNL     1      41.756  18.468  -4.574  1.00  0.00    -0.341 OA
ATOM     16  C   UNL     1      42.416  18.333  -1.737  1.00  0.00     0.179 C 
ATOM     17  C   UNL     1      42.283  19.682  -3.944  1.00  0.00     0.178 C 
ATOM     18  C   UNL     1      42.155  19.728  -2.344  1.00  0.00     0.177 C 
BRANCH  14  19
ATOM     19  O   UNL     1      40.412  17.464  -2.439  1.00  0.00    -0.385 OA
ATOM     20  H   UNL     1      40.281  18.330  -2.911  1.00  0.00     0.211 HD
ENDBRANCH  14  19
BRANCH  16  21
ATOM     21  O   UNL     1      41.831  18.360  -0.432  1.00  0.00    -0.387 OA
ATOM     22  H   UNL     1      40.849  18.510  -0.578  1.00  0.00     0.211 HD
ENDBRANCH  16  21
BRANCH  17  23
ATOM     23  C   UNL     1      43.690  20.036  -4.485  1.00  0.00     0.191 C 
BRANCH  23  24
ATOM     24  O   UNL     1      43.935  19.429  -5.757  1.00  0.00    -0.394 OA
ATOM     25  H   UNL     1      44.910  19.525  -5.922  1.00  0.00     0.210 HD
ENDBRANCH  23  24
ENDBRANCH  17  23
BRANCH  18  26
ATOM     26  O   UNL     1      40.890  20.373  -1.963  1.00  0.00    -0.387 OA
ATOM     27  H   UNL     1      40.375  20.521  -2.827  1.00  0.00     0.211 HD
ENDBRANCH  18  26
ENDBRANCH  12  13
ENDBRANCH   7  12
BRANCH   4  28
ATOM     28  O   UNL     1      46.952  12.591  -3.004  1.00  0.00    -0.365 OA
ATOM     29  H   UNL     1      47.821  12.803  -3.383  1.00  0.00     0.214 HD
ENDBRANCH   4  28
BRANCH   8  30
ATOM     30  C   UNL     1      46.131  16.642  -5.462  1.00  0.00     0.249 C 
BRANCH  30  31
ATOM     31  O   UNL     1      47.173  16.257  -6.340  1.00  0.00    -0.461 OA
BRANCH  31  32
ATOM     32  C   UNL     1      48.486  16.758  -6.104  1.00  0.00     0.338 C 
ATOM     33  O   UNL     1      48.726  17.971  -6.241  1.00  0.00    -0.246 OA
BRANCH  32  34
ATOM     34  C   UNL     1      49.590  15.790  -5.788  1.00  0.00     0.060 A 
ATOM     35  C   UNL     1      50.870  15.916  -6.370  1.00  0.00     0.015 A 
ATOM     36  C   UNL     1      49.250  14.571  -5.161  1.00  0.00     0.015 A 
ATOM     37  C   UNL     1      51.815  14.897  -6.221  1.00  0.00     0.001 A 
ATOM     38  C   UNL     1      50.190  13.576  -5.014  1.00  0.00     0.001 A 
ATOM     39  C   UNL     1      51.489  13.734  -5.525  1.00  0.00     0.000 A 
ENDBRANCH  32  34
ENDBRANCH  31  32
ENDBRANCH  30  31
ENDBRANCH   8  30
TORSDOF 12
ENDMDL
MODEL 5
REMARK VINA RESULT:    -5.085      2.366      6.605
REMARK INTER + INTRA:          -9.863
REMARK INTER:                  -8.209
REMARK INTRA:                  -1.654
REMARK UNBOUND:                -1.954
REMARK SMILES C[C@@]12C[C@@]3(O)O[C@@H](O1)[C@]1(COC(=O)c4ccccc4)[C@H]3C[C@@]12O[C@@H]1O[C@H](CO)[C@@H](O)[C@@H](O)[C@H]1O
REMARK SMILES IDX 1 1 2 2 3 3 4 4 20 5 21 6 22 7 9 8 7 9 8 10 6 11 23 12 24 13
REMARK SMILES IDX 33 14 25 15 31 16 26 17 29 18 34 19 32 21 27 23 28 24 30 26
REMARK SMILES IDX 5 28 10 30 11 31 12 32 13 33 14 34 15 35 19 36 16 37 18 38
REMARK SMILES IDX 17 39
REMARK H PARENT 34 20 32 22 28 25 30 27 5 29
REMARK Flexibility Score: inf
ROOT
ATOM      1  C   UNL     1      44.710  15.493  -2.637  1.00  0.00     0.046 C 
ATOM      2  C   UNL     1      45.302  15.720  -4.064  1.00  0.00     0.104 C 
ATOM      3  C   UNL     1      44.097  16.477  -4.807  1.00  0.00     0.104 C 
ATOM      4  C   UNL     1      44.602  16.671  -6.268  1.00  0.00     0.175 C 
ATOM      5  C   UNL     1      45.218  15.309  -6.820  1.00  0.00     0.070 C 
ATOM      6  C   UNL     1      44.860  14.053  -5.991  1.00  0.00     0.050 C 
ATOM      7  C   UNL     1      45.904  14.464  -4.946  1.00  0.00     0.115 C 
ATOM      8  C   UNL     1      46.544  15.333  -6.035  1.00  0.00     0.096 C 
ATOM      9  C   UNL     1      46.666  16.731  -5.459  1.00  0.00     0.267 C 
ATOM     10  O   UNL     1      46.353  16.657  -4.035  1.00  0.00    -0.342 OA
ATOM     11  O   UNL     1      45.735  17.520  -6.136  1.00  0.00    -0.320 OA
ENDROOT
BRANCH   7  12
ATOM     12  O   UNL     1      46.930  13.507  -4.502  1.00  0.00    -0.339 OA
BRANCH  12  13
ATOM     13  C   UNL     1      47.588  13.611  -3.225  1.00  0.00     0.282 C 
ATOM     14  C   UNL     1      46.981  12.952  -1.967  1.00  0.00     0.202 C 
ATOM     15  O   UNL     1      48.960  13.162  -3.308  1.00  0.00    -0.341 OA
ATOM     16  C   UNL     1      47.080  11.466  -1.861  1.00  0.00     0.179 C 
ATOM     17  C   UNL     1      49.251  11.727  -3.249  1.00  0.00     0.178 C 
ATOM     18  C   UNL     1      48.513  10.932  -2.064  1.00  0.00     0.177 C 
BRANCH  14  19
ATOM     19  O   UNL     1      47.767  13.424  -0.882  1.00  0.00    -0.385 OA
ATOM     20  H   UNL     1      47.111  13.595  -0.155  1.00  0.00     0.211 HD
ENDBRANCH  14  19
BRANCH  16  21
ATOM     21  O   UNL     1      46.697  11.061  -0.543  1.00  0.00    -0.387 OA
ATOM     22  H   UNL     1      47.208  11.657   0.084  1.00  0.00     0.211 HD
ENDBRANCH  16  21
BRANCH  17  23
ATOM     23  C   UNL     1      49.123  11.065  -4.643  1.00  0.00     0.191 C 
BRANCH  23  24
ATOM     24  O   UNL     1      47.754  10.927  -5.038  1.00  0.00    -0.394 OA
ATOM     25  H   UNL     1      47.392  11.849  -5.090  1.00  0.00     0.210 HD
ENDBRANCH  23  24
ENDBRANCH  17  23
BRANCH  18  26
ATOM     26  O   UNL     1      49.371  10.906  -0.871  1.00  0.00    -0.387 OA
ATOM     27  H   UNL     1      50.065  10.181  -1.035  1.00  0.00     0.211 HD
ENDBRANCH  18  26
ENDBRANCH  12  13
ENDBRANCH   7  12
BRANCH   4  28
ATOM     28  O   UNL     1      43.599  17.277  -7.125  1.00  0.00    -0.365 OA
ATOM     29  H   UNL     1      42.844  17.498  -6.555  1.00  0.00     0.214 HD
ENDBRANCH   4  28
BRANCH   8  30
ATOM     30  C   UNL     1      47.751  14.861  -6.907  1.00  0.00     0.249 C 
BRANCH  30  31
ATOM     31  O   UNL     1      48.856  15.745  -6.854  1.00  0.00    -0.461 OA
BRANCH  31  32
ATOM     32  C   UNL     1      49.900  15.480  -5.921  1.00  0.00     0.338 C 
ATOM     33  O   UNL     1      49.816  15.902  -4.753  1.00  0.00    -0.246 OA
BRANCH  32  34
ATOM     34  C   UNL     1      51.138  14.773  -6.393  1.00  0.00     0.060 A 
ATOM     35  C   UNL     1      51.212  13.363  -6.431  1.00  0.00     0.015 A 
ATOM     36  C   UNL     1      52.335  15.516  -6.490  1.00  0.00     0.015 A 
ATOM     37  C   UNL     1      52.432  12.729  -6.678  1.00  0.00     0.001 A 
ATOM     38  C   UNL     1      53.531  14.881  -6.740  1.00  0.00     0.001 A 
ATOM     39  C   UNL     1      53.592  13.482  -6.857  1.00  0.00     0.000 A 
ENDBRANCH  32  34
ENDBRANCH  31  32
ENDBRANCH  30  31
ENDBRANCH   8  30
TORSDOF 12
ENDMDL
MODEL 6
REMARK VINA RESULT:    -4.784      1.904      3.407
REMARK INTER + INTRA:          -9.394
REMARK INTER:                  -8.127
REMARK INTRA:                  -1.268
REMARK UNBOUND:                -1.954
REMARK SMILES C[C@@]12C[C@@]3(O)O[C@@H](O1)[C@]1(COC(=O)c4ccccc4)[C@H]3C[C@@]12O[C@@H]1O[C@H](CO)[C@@H](O)[C@@H](O)[C@H]1O
REMARK SMILES IDX 1 1 2 2 3 3 4 4 20 5 21 6 22 7 9 8 7 9 8 10 6 11 23 12 24 13
REMARK SMILES IDX 33 14 25 15 31 16 26 17 29 18 34 19 32 21 27 23 28 24 30 26
REMARK SMILES IDX 5 28 10 30 11 31 12 32 13 33 14 34 15 35 19 36 16 37 18 38
REMARK SMILES IDX 17 39
REMARK H PARENT 34 20 32 22 28 25 30 27 5 29
REMARK Flexibility Score: inf
ROOT
ATOM      1  C   UNL     1      43.877  12.729  -3.696  1.00  0.00     0.046 C 
ATOM      2  C   UNL     1      43.497  14.194  -4.081  1.00  0.00     0.104 C 
ATOM      3  C   UNL     1      42.005  14.013  -4.644  1.00  0.00     0.104 C 
ATOM      4  C   UNL     1      41.590  15.440  -5.113  1.00  0.00     0.175 C 
ATOM      5  C   UNL     1      42.754  16.088  -5.988  1.00  0.00     0.070 C 
ATOM      6  C   UNL     1      43.824  15.088  -6.485  1.00  0.00     0.050 C 
ATOM      7  C   UNL     1      44.452  15.086  -5.087  1.00  0.00     0.115 C 
ATOM      8  C   UNL     1      43.731  16.418  -4.842  1.00  0.00     0.096 C 
ATOM      9  C   UNL     1      42.943  16.255  -3.557  1.00  0.00     0.267 C 
ATOM     10  O   UNL     1      43.355  15.000  -2.935  1.00  0.00    -0.342 OA
ATOM     11  O   UNL     1      41.597  16.215  -3.921  1.00  0.00    -0.320 OA
ENDROOT
BRANCH   7  12
ATOM     12  O   UNL     1      45.891  15.339  -4.917  1.00  0.00    -0.339 OA
BRANCH  12  13
ATOM     13  C   UNL     1      46.897  14.660  -5.694  1.00  0.00     0.282 C 
ATOM     14  C   UNL     1      48.304  15.272  -5.874  1.00  0.00     0.202 C 
ATOM     15  O   UNL     1      47.090  13.306  -5.226  1.00  0.00    -0.341 OA
ATOM     16  C   UNL     1      49.223  15.223  -4.699  1.00  0.00     0.179 C 
ATOM     17  C   UNL     1      47.944  13.063  -4.060  1.00  0.00     0.178 C 
ATOM     18  C   UNL     1      49.365  13.811  -4.091  1.00  0.00     0.177 C 
BRANCH  14  19
ATOM     19  O   UNL     1      48.944  14.455  -6.843  1.00  0.00    -0.385 OA
ATOM     20  H   UNL     1      49.910  14.673  -6.754  1.00  0.00     0.211 HD
ENDBRANCH  14  19
BRANCH  16  21
ATOM     21  O   UNL     1      50.539  15.601  -5.115  1.00  0.00    -0.387 OA
ATOM     22  H   UNL     1      50.432  16.484  -5.583  1.00  0.00     0.211 HD
ENDBRANCH  16  21
BRANCH  17  23
ATOM     23  C   UNL     1      47.159  13.233  -2.737  1.00  0.00     0.191 C 
BRANCH  23  24
ATOM     24  O   UNL     1      47.114  14.601  -2.321  1.00  0.00    -0.394 OA
ATOM     25  H   UNL     1      46.444  15.041  -2.907  1.00  0.00     0.210 HD
ENDBRANCH  23  24
ENDBRANCH  17  23
BRANCH  18  26
ATOM     26  O   UNL     1      50.375  12.938  -4.707  1.00  0.00    -0.387 OA
ATOM     27  H   UNL     1      49.949  12.018  -4.782  1.00  0.00     0.211 HD
ENDBRANCH  18  26
ENDBRANCH  12  13
ENDBRANCH   7  12
BRANCH   4  28
ATOM     28  O   UNL     1      40.279  15.459  -5.735  1.00  0.00    -0.365 OA
ATOM     29  H   UNL     1      40.167  14.600  -6.173  1.00  0.00     0.214 HD
ENDBRANCH   4  28
BRANCH   8  30
ATOM     30  C   UNL     1      44.416  17.809  -5.037  1.00  0.00     0.249 C 
BRANCH  30  31
ATOM     31  O   UNL     1      43.525  18.809  -5.495  1.00  0.00    -0.461 OA
BRANCH  31  32
ATOM     32  C   UNL     1      43.510  20.068  -4.830  1.00  0.00     0.338 C 
ATOM     33  O   UNL     1      44.185  21.016  -5.269  1.00  0.00    -0.246 OA
BRANCH  32  34
ATOM     34  C   UNL     1      42.748  20.203  -3.542  1.00  0.00     0.060 A 
ATOM     35  C   UNL     1      43.403  20.497  -2.326  1.00  0.00     0.015 A 
ATOM     36  C   UNL     1      41.423  19.718  -3.496  1.00  0.00     0.015 A 
ATOM     37  C   UNL     1      42.709  20.418  -1.116  1.00  0.00     0.001 A 
ATOM     38  C   UNL     1      40.746  19.650  -2.298  1.00  0.00     0.001 A 
ATOM     39  C   UNL     1      41.374  20.018  -1.096  1.00  0.00     0.000 A 
ENDBRANCH  32  34
ENDBRANCH  31  32
ENDBRANCH  30  31
ENDBRANCH   8  30
TORSDOF 12
ENDMDL
MODEL 7
REMARK VINA RESULT:    -4.723      2.780      7.157
REMARK INTER + INTRA:          -9.301
REMARK INTER:                  -7.017
REMARK INTRA:                  -2.284
REMARK UNBOUND:                -1.954
REMARK SMILES C[C@@]12C[C@@]3(O)O[C@@H](O1)[C@]1(COC(=O)c4ccccc4)[C@H]3C[C@@]12O[C@@H]1O[C@H](CO)[C@@H](O)[C@@H](O)[C@H]1O
REMARK SMILES IDX 1 1 2 2 3 3 4 4 20 5 21 6 22 7 9 8 7 9 8 10 6 11 23 12 24 13
REMARK SMILES IDX 33 14 25 15 31 16 26 17 29 18 34 19 32 21 27 23 28 24 30 26
REMARK SMILES IDX 5 28 10 30 11 31 12 32 13 33 14 34 15 35 19 36 16 37 18 38
REMARK SMILES IDX 17 39
REMARK H PARENT 34 20 32 22 28 25 30 27 5 29
REMARK Flexibility Score: inf
ROOT
ATOM      1  C   UNL     1      40.735  18.009  -2.593  1.00  0.00     0.046 C 
ATOM      2  C   UNL     1      41.719  18.698  -3.590  1.00  0.00     0.104 C 
ATOM      3  C   UNL     1      40.995  20.107  -3.851  1.00  0.00     0.104 C 
ATOM      4  C   UNL     1      41.898  20.820  -4.901  1.00  0.00     0.175 C 
ATOM      5  C   UNL     1      42.255  19.818  -6.087  1.00  0.00     0.070 C 
ATOM      6  C   UNL     1      41.374  18.548  -6.149  1.00  0.00     0.050 C 
ATOM      7  C   UNL     1      42.177  17.951  -4.987  1.00  0.00     0.115 C 
ATOM      8  C   UNL     1      43.287  18.951  -5.339  1.00  0.00     0.096 C 
ATOM      9  C   UNL     1      43.618  19.699  -4.062  1.00  0.00     0.267 C 
ATOM     10  O   UNL     1      42.933  19.027  -2.960  1.00  0.00    -0.342 OA
ATOM     11  O   UNL     1      43.139  20.998  -4.230  1.00  0.00    -0.320 OA
ENDROOT
BRANCH   7  12
ATOM     12  O   UNL     1      42.760  16.606  -5.099  1.00  0.00    -0.339 OA
BRANCH  12  13
ATOM     13  C   UNL     1      42.152  15.443  -4.502  1.00  0.00     0.282 C 
ATOM     14  C   UNL     1      42.178  14.078  -5.225  1.00  0.00     0.202 C 
ATOM     15  O   UNL     1      42.662  15.216  -3.168  1.00  0.00    -0.341 OA
ATOM     16  C   UNL     1      43.478  13.346  -5.251  1.00  0.00     0.179 C 
ATOM     17  C   UNL     1      43.946  14.532  -2.996  1.00  0.00     0.178 C 
ATOM     18  C   UNL     1      44.119  13.186  -3.856  1.00  0.00     0.177 C 
BRANCH  14  19
ATOM     19  O   UNL     1      41.327  13.236  -4.461  1.00  0.00    -0.385 OA
ATOM     20  H   UNL     1      41.032  13.804  -3.700  1.00  0.00     0.211 HD
ENDBRANCH  14  19
BRANCH  16  21
ATOM     21  O   UNL     1      43.261  12.016  -5.733  1.00  0.00    -0.387 OA
ATOM     22  H   UNL     1      43.182  11.440  -4.914  1.00  0.00     0.211 HD
ENDBRANCH  16  21
BRANCH  17  23
ATOM     23  C   UNL     1      45.134  15.519  -3.103  1.00  0.00     0.191 C 
BRANCH  23  24
ATOM     24  O   UNL     1      44.773  16.830  -2.657  1.00  0.00    -0.394 OA
ATOM     25  H   UNL     1      44.266  17.242  -3.405  1.00  0.00     0.210 HD
ENDBRANCH  23  24
ENDBRANCH  17  23
BRANCH  18  26
ATOM     26  O   UNL     1      43.674  12.029  -3.066  1.00  0.00    -0.387 OA
ATOM     27  H   UNL     1      44.331  11.279  -3.265  1.00  0.00     0.211 HD
ENDBRANCH  18  26
ENDBRANCH  12  13
ENDBRANCH   7  12
BRANCH   4  28
ATOM     28  O   UNL     1      41.352  22.096  -5.325  1.00  0.00    -0.365 OA
ATOM     29  H   UNL     1      40.386  22.026  -5.244  1.00  0.00     0.214 HD
ENDBRANCH   4  28
BRANCH   8  30
ATOM     30  C   UNL     1      44.511  18.588  -6.238  1.00  0.00     0.249 C 
BRANCH  30  31
ATOM     31  O   UNL     1      45.592  18.034  -5.511  1.00  0.00    -0.461 OA
BRANCH  31  32
ATOM     32  C   UNL     1      46.287  16.919  -6.062  1.00  0.00     0.338 C 
ATOM     33  O   UNL     1      45.655  15.980  -6.579  1.00  0.00    -0.246 OA
BRANCH  32  34
ATOM     34  C   UNL     1      47.782  16.851  -5.921  1.00  0.00     0.060 A 
ATOM     35  C   UNL     1      48.640  17.390  -6.904  1.00  0.00     0.015 A 
ATOM     36  C   UNL     1      48.322  15.962  -4.966  1.00  0.00     0.015 A 
ATOM     37  C   UNL     1      50.013  17.138  -6.855  1.00  0.00     0.001 A 
ATOM     38  C   UNL     1      49.678  15.726  -4.923  1.00  0.00     0.001 A 
ATOM     39  C   UNL     1      50.543  16.326  -5.853  1.00  0.00     0.000 A 
ENDBRANCH  32  34
ENDBRANCH  31  32
ENDBRANCH  30  31
ENDBRANCH   8  30
TORSDOF 12
ENDMDL
MODEL 8
REMARK VINA RESULT:    -4.631      2.282      4.746
REMARK INTER + INTRA:          -9.157
REMARK INTER:                  -6.984
REMARK INTRA:                  -2.174
REMARK UNBOUND:                -1.954
REMARK SMILES C[C@@]12C[C@@]3(O)O[C@@H](O1)[C@]1(COC(=O)c4ccccc4)[C@H]3C[C@@]12O[C@@H]1O[C@H](CO)[C@@H](O)[C@@H](O)[C@H]1O
REMARK SMILES IDX 1 1 2 2 3 3 4 4 20 5 21 6 22 7 9 8 7 9 8 10 6 11 23 12 24 13
REMARK SMILES IDX 33 14 25 15 31 16 26 17 29 18 34 19 32 21 27 23 28 24 30 26
REMARK SMILES IDX 5 28 10 30 11 31 12 32 13 33 14 34 15 35 19 36 16 37 18 38
REMARK SMILES IDX 17 39
REMARK H PARENT 34 20 32 22 28 25 30 27 5 29
REMARK Flexibility Score: inf
ROOT
ATOM      1  C   UNL     1      46.944  15.985  -7.125  1.00  0.00     0.046 C 
ATOM      2  C   UNL     1      45.670  16.178  -6.241  1.00  0.00     0.104 C 
ATOM      3  C   UNL     1      45.564  17.778  -6.159  1.00  0.00     0.104 C 
ATOM      4  C   UNL     1      44.344  18.039  -5.226  1.00  0.00     0.175 C 
ATOM      5  C   UNL     1      44.447  17.126  -3.923  1.00  0.00     0.070 C 
ATOM      6  C   UNL     1      45.839  16.497  -3.681  1.00  0.00     0.050 C 
ATOM      7  C   UNL     1      45.540  15.455  -4.765  1.00  0.00     0.115 C 
ATOM      8  C   UNL     1      44.054  15.781  -4.565  1.00  0.00     0.096 C 
ATOM      9  C   UNL     1      43.495  16.116  -5.935  1.00  0.00     0.267 C 
ATOM     10  O   UNL     1      44.510  15.774  -6.928  1.00  0.00    -0.342 OA
ATOM     11  O   UNL     1      43.240  17.488  -5.932  1.00  0.00    -0.320 OA
ENDROOT
BRANCH   7  12
ATOM     12  O   UNL     1      45.706  14.021  -4.486  1.00  0.00    -0.339 OA
BRANCH  12  13
ATOM     13  C   UNL     1      46.676  13.203  -5.170  1.00  0.00     0.282 C 
ATOM     14  C   UNL     1      48.177  13.568  -5.144  1.00  0.00     0.202 C 
ATOM     15  O   UNL     1      46.578  11.822  -4.755  1.00  0.00    -0.341 OA
ATOM     16  C   UNL     1      48.916  13.323  -3.871  1.00  0.00     0.179 C 
ATOM     17  C   UNL     1      47.221  11.398  -3.509  1.00  0.00     0.178 C 
ATOM     18  C   UNL     1      48.739  11.889  -3.326  1.00  0.00     0.177 C 
BRANCH  14  19
ATOM     19  O   UNL     1      48.791  12.685  -6.071  1.00  0.00    -0.385 OA
ATOM     20  H   UNL     1      48.592  11.776  -5.718  1.00  0.00     0.211 HD
ENDBRANCH  14  19
BRANCH  16  21
ATOM     21  O   UNL     1      50.319  13.482  -4.102  1.00  0.00    -0.387 OA
ATOM     22  H   UNL     1      50.436  14.428  -4.418  1.00  0.00     0.211 HD
ENDBRANCH  16  21
BRANCH  17  23
ATOM     23  C   UNL     1      46.310  11.659  -2.284  1.00  0.00     0.191 C 
BRANCH  23  24
ATOM     24  O   UNL     1      44.924  11.565  -2.627  1.00  0.00    -0.394 OA
ATOM     25  H   UNL     1      44.762  12.278  -3.298  1.00  0.00     0.210 HD
ENDBRANCH  23  24
ENDBRANCH  17  23
BRANCH  18  26
ATOM     26  O   UNL     1      49.660  10.875  -3.860  1.00  0.00    -0.387 OA
ATOM     27  H   UNL     1      50.127  10.464  -3.056  1.00  0.00     0.211 HD
ENDBRANCH  18  26
ENDBRANCH  12  13
ENDBRANCH   7  12
BRANCH   4  28
ATOM     28  O   UNL     1      44.139  19.451  -4.965  1.00  0.00    -0.365 OA
ATOM     29  H   UNL     1      43.564  19.784  -5.674  1.00  0.00     0.214 HD
ENDBRANCH   4  28
BRANCH   8  30
ATOM     30  C   UNL     1      43.112  14.943  -3.644  1.00  0.00     0.249 C 
BRANCH  30  31
ATOM     31  O   UNL     1      41.739  15.120  -3.942  1.00  0.00    -0.461 OA
BRANCH  31  32
ATOM     32  C   UNL     1      40.909  15.770  -2.985  1.00  0.00     0.338 C 
ATOM     33  O   UNL     1      40.097  15.111  -2.311  1.00  0.00    -0.246 OA
BRANCH  32  34
ATOM     34  C   UNL     1      40.960  17.268  -2.872  1.00  0.00     0.060 A 
ATOM     35  C   UNL     1      40.509  18.101  -3.918  1.00  0.00     0.015 A 
ATOM     36  C   UNL     1      41.758  17.833  -1.853  1.00  0.00     0.015 A 
ATOM     37  C   UNL     1      40.751  19.476  -3.877  1.00  0.00     0.001 A 
ATOM     38  C   UNL     1      41.985  19.191  -1.819  1.00  0.00     0.001 A 
ATOM     39  C   UNL     1      41.468  20.032  -2.819  1.00  0.00     0.000 A 
ENDBRANCH  32  34
ENDBRANCH  31  32
ENDBRANCH  30  31
ENDBRANCH   8  30
TORSDOF 12
ENDMDL
MODEL 9
REMARK VINA RESULT:    -4.567      2.250      3.942
REMARK INTER + INTRA:          -9.057
REMARK INTER:                  -7.070
REMARK INTRA:                  -1.987
REMARK UNBOUND:                -1.954
REMARK SMILES C[C@@]12C[C@@]3(O)O[C@@H](O1)[C@]1(COC(=O)c4ccccc4)[C@H]3C[C@@]12O[C@@H]1O[C@H](CO)[C@@H](O)[C@@H](O)[C@H]1O
REMARK SMILES IDX 1 1 2 2 3 3 4 4 20 5 21 6 22 7 9 8 7 9 8 10 6 11 23 12 24 13
REMARK SMILES IDX 33 14 25 15 31 16 26 17 29 18 34 19 32 21 27 23 28 24 30 26
REMARK SMILES IDX 5 28 10 30 11 31 12 32 13 33 14 34 15 35 19 36 16 37 18 38
REMARK SMILES IDX 17 39
REMARK H PARENT 34 20 32 22 28 25 30 27 5 29
REMARK Flexibility Score: inf
ROOT
ATOM      1  C   UNL     1      43.568  12.812  -5.549  1.00  0.00     0.046 C 
ATOM      2  C   UNL     1      43.213  14.197  -4.922  1.00  0.00     0.104 C 
ATOM      3  C   UNL     1      41.736  14.453  -5.497  1.00  0.00     0.104 C 
ATOM      4  C   UNL     1      41.349  15.863  -4.960  1.00  0.00     0.175 C 
ATOM      5  C   UNL     1      42.543  16.889  -5.204  1.00  0.00     0.070 C 
ATOM      6  C   UNL     1      43.618  16.405  -6.206  1.00  0.00     0.050 C 
ATOM      7  C   UNL     1      44.205  15.500  -5.117  1.00  0.00     0.115 C 
ATOM      8  C   UNL     1      43.490  16.392  -4.094  1.00  0.00     0.096 C 
ATOM      9  C   UNL     1      42.663  15.471  -3.217  1.00  0.00     0.267 C 
ATOM     10  O   UNL     1      43.046  14.096  -3.528  1.00  0.00    -0.342 OA
ATOM     11  O   UNL     1      41.328  15.705  -3.547  1.00  0.00    -0.320 OA
ENDROOT
BRANCH   7  12
ATOM     12  O   UNL     1      45.641  15.550  -4.801  1.00  0.00    -0.339 OA
BRANCH  12  13
ATOM     13  C   UNL     1      46.639  14.907  -5.617  1.00  0.00     0.282 C 
ATOM     14  C   UNL     1      47.992  15.596  -5.901  1.00  0.00     0.202 C 
ATOM     15  O   UNL     1      46.943  13.583  -5.121  1.00  0.00    -0.341 OA
ATOM     16  C   UNL     1      48.981  15.642  -4.784  1.00  0.00     0.179 C 
ATOM     17  C   UNL     1      47.878  13.432  -4.003  1.00  0.00     0.178 C 
ATOM     18  C   UNL     1      49.245  14.262  -4.143  1.00  0.00     0.177 C 
BRANCH  14  19
ATOM     19  O   UNL     1      48.624  14.787  -6.883  1.00  0.00    -0.385 OA
ATOM     20  H   UNL     1      48.441  15.252  -7.743  1.00  0.00     0.211 HD
ENDBRANCH  14  19
BRANCH  16  21
ATOM     21  O   UNL     1      50.244  16.084  -5.290  1.00  0.00    -0.387 OA
ATOM     22  H   UNL     1      50.056  16.449  -6.207  1.00  0.00     0.211 HD
ENDBRANCH  16  21
BRANCH  17  23
ATOM     23  C   UNL     1      47.163  13.599  -2.640  1.00  0.00     0.191 C 
BRANCH  23  24
ATOM     24  O   UNL     1      45.773  13.272  -2.730  1.00  0.00    -0.394 OA
ATOM     25  H   UNL     1      45.516  13.434  -3.675  1.00  0.00     0.210 HD
ENDBRANCH  23  24
ENDBRANCH  17  23
BRANCH  18  26
ATOM     26  O   UNL     1      50.270  13.431  -4.793  1.00  0.00    -0.387 OA
ATOM     27  H   UNL     1      50.173  13.591  -5.793  1.00  0.00     0.211 HD
ENDBRANCH  18  26
ENDBRANCH  12  13
ENDBRANCH   7  12
BRANCH   4  28
ATOM     28  O   UNL     1      40.056  16.306  -5.449  1.00  0.00    -0.365 OA
ATOM     29  H   UNL     1      39.947  15.921  -6.334  1.00  0.00     0.214 HD
ENDBRANCH   4  28
BRANCH   8  30
ATOM     30  C   UNL     1      44.193  17.572  -3.349  1.00  0.00     0.249 C 
BRANCH  30  31
ATOM     31  O   UNL     1      43.286  18.422  -2.671  1.00  0.00    -0.461 OA
BRANCH  31  32
ATOM     32  C   UNL     1      43.398  19.829  -2.857  1.00  0.00     0.338 C 
ATOM     33  O   UNL     1      43.691  20.566  -1.897  1.00  0.00    -0.246 OA
BRANCH  32  34
ATOM     34  C   UNL     1      43.063  20.417  -4.199  1.00  0.00     0.060 A 
ATOM     35  C   UNL     1      44.059  20.642  -5.173  1.00  0.00     0.015 A 
ATOM     36  C   UNL     1      41.806  21.039  -4.359  1.00  0.00     0.015 A 
ATOM     37  C   UNL     1      43.762  21.371  -6.328  1.00  0.00     0.001 A 
ATOM     38  C   UNL     1      41.522  21.749  -5.504  1.00  0.00     0.001 A 
ATOM     39  C   UNL     1      42.488  21.908  -6.511  1.00  0.00     0.000 A 
ENDBRANCH  32  34
ENDBRANCH  31  32
ENDBRANCH  30  31
ENDBRANCH   8  30
TORSDOF 12
ENDMDL
