MODEL 1
REMARK VINA RESULT:    -3.063      0.000      0.000
REMARK INTER + INTRA:          -3.985
REMARK INTER:                  -3.780
REMARK INTRA:                  -0.205
REMARK UNBOUND:                -0.205
REMARK SMILES CCCCC(=O)CC
REMARK SMILES IDX 4 1 3 2 2 3 1 4 5 5 6 6 7 7 8 8
REMARK H PARENT
REMARK Flexibility Score: inf
ROOT
ATOM      1  C   UNL     1     115.178 116.993 112.525  1.00  0.00     0.075 C 
ENDROOT
BRANCH   1   2
ATOM      2  C   UNL     1     113.977 116.290 111.875  1.00  0.00     0.008 C 
BRANCH   2   3
ATOM      3  C   UNL     1     113.924 114.794 112.214  1.00  0.00    -0.003 C 
ATOM      4  C   UNL     1     113.305 114.562 113.589  1.00  0.00     0.004 C 
ENDBRANCH   2   3
ENDBRANCH   1   2
BRANCH   1   5
ATOM      5  C   UNL     1     114.761 118.059 113.509  1.00  0.00     0.132 C 
ATOM      6  O   UNL     1     114.553 117.751 114.674  1.00  0.00    -0.300 OA
BRANCH   5   7
ATOM      7  C   UNL     1     114.544 119.484 113.072  1.00  0.00     0.072 C 
ATOM      8  C   UNL     1     115.457 119.851 111.907  1.00  0.00     0.012 C 
ENDBRANCH   5   7
ENDBRANCH   1   5
TORSDOF 4
ENDMDL
MODEL 2
REMARK VINA RESULT:    -3.002      1.810      4.296
REMARK INTER + INTRA:          -3.909
REMARK INTER:                  -3.744
REMARK INTRA:                  -0.165
REMARK UNBOUND:                -0.205
REMARK SMILES CCCCC(=O)CC
REMARK SMILES IDX 4 1 3 2 2 3 1 4 5 5 6 6 7 7 8 8
REMARK H PARENT
REMARK Flexibility Score: inf
ROOT
ATOM      1  C   UNL     1     115.625 116.638 112.546  1.00  0.00     0.075 C 
ENDROOT
BRANCH   1   2
ATOM      2  C   UNL     1     114.712 117.674 111.875  1.00  0.00     0.008 C 
BRANCH   2   3
ATOM      3  C   UNL     1     114.652 118.993 112.658  1.00  0.00    -0.003 C 
ATOM      4  C   UNL     1     115.399 120.103 111.925  1.00  0.00     0.004 C 
ENDBRANCH   2   3
ENDBRANCH   1   2
BRANCH   1   5
ATOM      5  C   UNL     1     115.204 115.219 112.252  1.00  0.00     0.132 C 
ATOM      6  O   UNL     1     116.040 114.410 111.875  1.00  0.00    -0.300 OA
BRANCH   5   7
ATOM      7  C   UNL     1     113.763 114.793 112.362  1.00  0.00     0.072 C 
ATOM      8  C   UNL     1     113.313 114.731 113.818  1.00  0.00     0.012 C 
ENDBRANCH   5   7
ENDBRANCH   1   5
TORSDOF 4
ENDMDL
MODEL 3
REMARK VINA RESULT:    -2.999      4.445      5.971
REMARK INTER + INTRA:          -3.906
REMARK INTER:                  -3.717
REMARK INTRA:                  -0.189
REMARK UNBOUND:                -0.205
REMARK SMILES CCCCC(=O)CC
REMARK SMILES IDX 4 1 3 2 2 3 1 4 5 5 6 6 7 7 8 8
REMARK H PARENT
REMARK Flexibility Score: inf
ROOT
ATOM      1  C   UNL     1     118.351 116.319 113.372  1.00  0.00     0.075 C 
ENDROOT
BRANCH   1   2
ATOM      2  C   UNL     1     118.915 116.670 111.987  1.00  0.00     0.008 C 
BRANCH   2   3
ATOM      3  C   UNL     1     119.941 117.811 112.047  1.00  0.00    -0.003 C 
ATOM      4  C   UNL     1     119.880 118.535 113.389  1.00  0.00     0.004 C 
ENDBRANCH   2   3
ENDBRANCH   1   2
BRANCH   1   5
ATOM      5  C   UNL     1     118.268 114.829 113.601  1.00  0.00     0.132 C 
ATOM      6  O   UNL     1     117.795 114.409 114.647  1.00  0.00    -0.300 OA
BRANCH   5   7
ATOM      7  C   UNL     1     118.804 113.852 112.587  1.00  0.00     0.072 C 
ATOM      8  C   UNL     1     117.674 113.099 111.893  1.00  0.00     0.012 C 
ENDBRANCH   5   7
ENDBRANCH   1   5
TORSDOF 4
ENDMDL
MODEL 4
REMARK VINA RESULT:    -2.887      4.023      4.316
REMARK INTER + INTRA:          -3.768
REMARK INTER:                  -3.593
REMARK INTRA:                  -0.174
REMARK UNBOUND:                -0.205
REMARK SMILES CCCCC(=O)CC
REMARK SMILES IDX 4 1 3 2 2 3 1 4 5 5 6 6 7 7 8 8
REMARK H PARENT
REMARK Flexibility Score: inf
ROOT
ATOM      1  C   UNL     1     118.903 115.841 111.983  1.00  0.00     0.075 C 
ENDROOT
BRANCH   1   2
ATOM      2  C   UNL     1     118.137 114.514 111.894  1.00  0.00     0.008 C 
BRANCH   2   3
ATOM      3  C   UNL     1     118.613 113.493 112.937  1.00  0.00    -0.003 C 
ATOM      4  C   UNL     1     118.221 113.923 114.347  1.00  0.00     0.004 C 
ENDBRANCH   2   3
ENDBRANCH   1   2
BRANCH   1   5
ATOM      5  C   UNL     1     117.991 117.021 112.213  1.00  0.00     0.132 C 
ATOM      6  O   UNL     1     116.787 116.837 112.320  1.00  0.00    -0.300 OA
BRANCH   5   7
ATOM      7  C   UNL     1     118.530 118.428 112.261  1.00  0.00     0.072 C 
ATOM      8  C   UNL     1     119.701 118.540 113.232  1.00  0.00     0.012 C 
ENDBRANCH   5   7
ENDBRANCH   1   5
TORSDOF 4
ENDMDL
MODEL 5
REMARK VINA RESULT:    -2.861      2.863      4.160
REMARK INTER + INTRA:          -3.736
REMARK INTER:                  -3.453
REMARK INTRA:                  -0.283
REMARK UNBOUND:                -0.205
REMARK SMILES CCCCC(=O)CC
REMARK SMILES IDX 4 1 3 2 2 3 1 4 5 5 6 6 7 7 8 8
REMARK H PARENT
REMARK Flexibility Score: inf
ROOT
ATOM      1  C   UNL     1     116.365 117.038 112.267  1.00  0.00     0.075 C 
ENDROOT
BRANCH   1   2
ATOM      2  C   UNL     1     115.738 117.971 113.313  1.00  0.00     0.008 C 
BRANCH   2   3
ATOM      3  C   UNL     1     114.702 118.924 112.701  1.00  0.00    -0.003 C 
ATOM      4  C   UNL     1     115.377 120.014 111.875  1.00  0.00     0.004 C 
ENDBRANCH   2   3
ENDBRANCH   1   2
BRANCH   1   5
ATOM      5  C   UNL     1     117.872 117.031 112.327  1.00  0.00     0.132 C 
ATOM      6  O   UNL     1     118.454 116.006 112.654  1.00  0.00    -0.300 OA
BRANCH   5   7
ATOM      7  C   UNL     1     118.672 118.276 112.044  1.00  0.00     0.072 C 
ATOM      8  C   UNL     1     119.567 118.640 113.224  1.00  0.00     0.012 C 
ENDBRANCH   5   7
ENDBRANCH   1   5
TORSDOF 4
ENDMDL
MODEL 6
REMARK VINA RESULT:    -2.849      3.109      4.264
REMARK INTER + INTRA:          -3.720
REMARK INTER:                  -3.651
REMARK INTRA:                  -0.069
REMARK UNBOUND:                -0.205
REMARK SMILES CCCCC(=O)CC
REMARK SMILES IDX 4 1 3 2 2 3 1 4 5 5 6 6 7 7 8 8
REMARK H PARENT
REMARK Flexibility Score: inf
ROOT
ATOM      1  C   UNL     1     115.928 114.638 111.875  1.00  0.00     0.075 C 
ENDROOT
BRANCH   1   2
ATOM      2  C   UNL     1     114.960 115.829 111.920  1.00  0.00     0.008 C 
BRANCH   2   3
ATOM      3  C   UNL     1     113.496 115.387 112.060  1.00  0.00    -0.003 C 
ATOM      4  C   UNL     1     113.252 114.714 113.408  1.00  0.00     0.004 C 
ENDBRANCH   2   3
ENDBRANCH   1   2
BRANCH   1   5
ATOM      5  C   UNL     1     117.366 115.054 112.062  1.00  0.00     0.132 C 
ATOM      6  O   UNL     1     117.638 116.242 112.165  1.00  0.00    -0.300 OA
BRANCH   5   7
ATOM      7  C   UNL     1     118.479 114.038 112.070  1.00  0.00     0.072 C 
ATOM      8  C   UNL     1     118.503 113.253 113.378  1.00  0.00     0.012 C 
ENDBRANCH   5   7
ENDBRANCH   1   5
TORSDOF 4
ENDMDL
MODEL 7
REMARK VINA RESULT:    -2.839      1.436      1.602
REMARK INTER + INTRA:          -3.708
REMARK INTER:                  -3.457
REMARK INTRA:                  -0.251
REMARK UNBOUND:                -0.205
REMARK SMILES CCCCC(=O)CC
REMARK SMILES IDX 4 1 3 2 2 3 1 4 5 5 6 6 7 7 8 8
REMARK H PARENT
REMARK Flexibility Score: inf
ROOT
ATOM      1  C   UNL     1     115.404 116.071 112.272  1.00  0.00     0.075 C 
ENDROOT
BRANCH   1   2
ATOM      2  C   UNL     1     113.898 115.827 112.101  1.00  0.00     0.008 C 
BRANCH   2   3
ATOM      3  C   UNL     1     113.373 114.732 113.040  1.00  0.00    -0.003 C 
ATOM      4  C   UNL     1     113.611 115.100 114.501  1.00  0.00     0.004 C 
ENDBRANCH   2   3
ENDBRANCH   1   2
BRANCH   1   5
ATOM      5  C   UNL     1     115.746 117.538 112.358  1.00  0.00     0.132 C 
ATOM      6  O   UNL     1     116.900 117.873 112.585  1.00  0.00    -0.300 OA
BRANCH   5   7
ATOM      7  C   UNL     1     114.683 118.598 112.223  1.00  0.00     0.072 C 
ATOM      8  C   UNL     1     114.657 119.515 113.442  1.00  0.00     0.012 C 
ENDBRANCH   5   7
ENDBRANCH   1   5
TORSDOF 4
ENDMDL
MODEL 8
REMARK VINA RESULT:    -2.827      2.767      4.105
REMARK INTER + INTRA:          -3.694
REMARK INTER:                  -3.444
REMARK INTRA:                  -0.249
REMARK UNBOUND:                -0.205
REMARK SMILES CCCCC(=O)CC
REMARK SMILES IDX 4 1 3 2 2 3 1 4 5 5 6 6 7 7 8 8
REMARK H PARENT
REMARK Flexibility Score: inf
ROOT
ATOM      1  C   UNL     1     116.918 115.655 112.510  1.00  0.00     0.075 C 
ENDROOT
BRANCH   1   2
ATOM      2  C   UNL     1     117.517 114.743 113.590  1.00  0.00     0.008 C 
BRANCH   2   3
ATOM      3  C   UNL     1     118.446 113.672 113.000  1.00  0.00    -0.003 C 
ATOM      4  C   UNL     1     117.752 112.895 111.885  1.00  0.00     0.004 C 
ENDBRANCH   2   3
ENDBRANCH   1   2
BRANCH   1   5
ATOM      5  C   UNL     1     115.445 115.909 112.719  1.00  0.00     0.132 C 
ATOM      6  O   UNL     1     115.088 116.921 113.305  1.00  0.00    -0.300 OA
BRANCH   5   7
ATOM      7  C   UNL     1     114.409 114.914 112.266  1.00  0.00     0.072 C 
ATOM      8  C   UNL     1     113.449 114.560 113.397  1.00  0.00     0.012 C 
ENDBRANCH   5   7
ENDBRANCH   1   5
TORSDOF 4
ENDMDL
