MODEL 1
REMARK VINA RESULT:    -3.797      0.000      0.000
REMARK INTER + INTRA:          -3.908
REMARK INTER:                  -3.908
REMARK INTRA:                   0.000
REMARK UNBOUND:                 0.000
REMARK SMILES Nc1ncnc2nc[nH]c12
REMARK SMILES IDX 8 1 7 2 6 3 5 4 4 5 3 6 2 7 10 8 9 9 1 11
REMARK H PARENT 9 10 1 12 1 13
REMARK Flexibility Score: inf
ROOT
ATOM      1  C   UNL     1      -9.229  12.750 -21.755  1.00  0.00     0.199 A 
ATOM      2  N   UNL     1      -8.367  13.505 -21.021  1.00  0.00    -0.217 NA
ATOM      3  C   UNL     1      -7.852  14.331 -21.946  1.00  0.00     0.182 A 
ATOM      4  N   UNL     1      -6.928  15.300 -21.740  1.00  0.00    -0.215 NA
ATOM      5  C   UNL     1      -6.522  16.043 -22.814  1.00  0.00     0.226 A 
ATOM      6  N   UNL     1      -7.042  15.807 -24.061  1.00  0.00    -0.217 NA
ATOM      7  C   UNL     1      -7.974  14.829 -24.271  1.00  0.00     0.152 A 
ATOM      8  C   UNL     1      -8.377  14.082 -23.168  1.00  0.00     0.127 A 
ATOM      9  N   UNL     1      -9.257  13.077 -23.072  1.00  0.00    -0.340 N 
ATOM     10  H   UNL     1      -9.834  12.642 -23.823  1.00  0.00     0.168 HD
ENDROOT
BRANCH   7  11
ATOM     11  N   UNL     1      -8.501  14.602 -25.578  1.00  0.00    -0.382 N 
ATOM     12  H   UNL     1      -8.996  13.709 -25.795  1.00  0.00     0.158 HD
ATOM     13  H   UNL     1      -8.405  15.315 -26.335  1.00  0.00     0.158 HD
ENDBRANCH   7  11
TORSDOF 1
ENDMDL
MODEL 2
REMARK VINA RESULT:    -3.788      5.913      7.285
REMARK INTER + INTRA:          -3.898
REMARK INTER:                  -3.898
REMARK INTRA:                   0.000
REMARK UNBOUND:                 0.000
REMARK SMILES Nc1ncnc2nc[nH]c12
REMARK SMILES IDX 8 1 7 2 6 3 5 4 4 5 3 6 2 7 10 8 9 9 1 11
REMARK H PARENT 9 10 1 12 1 13
REMARK Flexibility Score: inf
ROOT
ATOM      1  C   UNL     1     -10.154   9.523 -16.195  1.00  0.00     0.199 A 
ATOM      2  N   UNL     1     -10.419  10.468 -15.253  1.00  0.00    -0.217 NA
ATOM      3  C   UNL     1     -10.792  11.520 -16.002  1.00  0.00     0.182 A 
ATOM      4  N   UNL     1     -11.167  12.741 -15.551  1.00  0.00    -0.215 NA
ATOM      5  C   UNL     1     -11.513  13.691 -16.473  1.00  0.00     0.226 A 
ATOM      6  N   UNL     1     -11.478  13.405 -17.814  1.00  0.00    -0.217 NA
ATOM      7  C   UNL     1     -11.099  12.173 -18.270  1.00  0.00     0.152 A 
ATOM      8  C   UNL     1     -10.750  11.218 -17.320  1.00  0.00     0.127 A 
ATOM      9  N   UNL     1     -10.346   9.950 -17.469  1.00  0.00    -0.340 N 
ATOM     10  H   UNL     1     -10.208   9.408 -18.349  1.00  0.00     0.168 HD
ENDROOT
BRANCH   7  11
ATOM     11  N   UNL     1     -11.071  11.899 -19.672  1.00  0.00    -0.382 N 
ATOM     12  H   UNL     1     -10.714  12.618 -20.338  1.00  0.00     0.158 HD
ATOM     13  H   UNL     1     -11.401  10.985 -20.053  1.00  0.00     0.158 HD
ENDBRANCH   7  11
TORSDOF 1
ENDMDL
MODEL 3
REMARK VINA RESULT:    -3.754      1.300      3.380
REMARK INTER + INTRA:          -3.864
REMARK INTER:                  -3.864
REMARK INTRA:                   0.000
REMARK UNBOUND:                 0.000
REMARK SMILES Nc1ncnc2nc[nH]c12
REMARK SMILES IDX 8 1 7 2 6 3 5 4 4 5 3 6 2 7 10 8 9 9 1 11
REMARK H PARENT 9 10 1 12 1 13
REMARK Flexibility Score: inf
ROOT
ATOM      1  C   UNL     1      -5.875  17.681 -24.291  1.00  0.00     0.199 A 
ATOM      2  N   UNL     1      -5.885  17.379 -22.964  1.00  0.00    -0.217 NA
ATOM      3  C   UNL     1      -6.679  16.296 -22.925  1.00  0.00     0.182 A 
ATOM      4  N   UNL     1      -7.026  15.587 -21.823  1.00  0.00    -0.215 NA
ATOM      5  C   UNL     1      -7.851  14.509 -21.984  1.00  0.00     0.226 A 
ATOM      6  N   UNL     1      -8.310  14.161 -23.229  1.00  0.00    -0.217 NA
ATOM      7  C   UNL     1      -7.962  14.876 -24.341  1.00  0.00     0.152 A 
ATOM      8  C   UNL     1      -7.121  15.971 -24.161  1.00  0.00     0.127 A 
ATOM      9  N   UNL     1      -6.623  16.840 -25.049  1.00  0.00    -0.340 N 
ATOM     10  H   UNL     1      -6.766  16.872 -26.082  1.00  0.00     0.168 HD
ENDROOT
BRANCH   7  11
ATOM     11  N   UNL     1      -8.452  14.495 -25.627  1.00  0.00    -0.382 N 
ATOM     12  H   UNL     1      -8.819  13.531 -25.782  1.00  0.00     0.158 HD
ATOM     13  H   UNL     1      -8.455  15.165 -26.428  1.00  0.00     0.158 HD
ENDBRANCH   7  11
TORSDOF 1
ENDMDL
MODEL 4
REMARK VINA RESULT:    -3.733      5.185      7.431
REMARK INTER + INTRA:          -3.842
REMARK INTER:                  -3.842
REMARK INTRA:                   0.000
REMARK UNBOUND:                 0.000
REMARK SMILES Nc1ncnc2nc[nH]c12
REMARK SMILES IDX 8 1 7 2 6 3 5 4 4 5 3 6 2 7 10 8 9 9 1 11
REMARK H PARENT 9 10 1 12 1 13
REMARK Flexibility Score: inf
ROOT
ATOM      1  C   UNL     1     -10.320  12.254 -19.633  1.00  0.00     0.199 A 
ATOM      2  N   UNL     1     -10.583  13.289 -18.791  1.00  0.00    -0.217 NA
ATOM      3  C   UNL     1     -10.649  12.676 -17.597  1.00  0.00     0.182 A 
ATOM      4  N   UNL     1     -10.893  13.261 -16.400  1.00  0.00    -0.215 NA
ATOM      5  C   UNL     1     -10.923  12.466 -15.287  1.00  0.00     0.226 A 
ATOM      6  N   UNL     1     -10.710  11.115 -15.391  1.00  0.00    -0.217 NA
ATOM      7  C   UNL     1     -10.465  10.523 -16.598  1.00  0.00     0.152 A 
ATOM      8  C   UNL     1     -10.438  11.345 -17.721  1.00  0.00     0.127 A 
ATOM      9  N   UNL     1     -10.226  11.051 -19.009  1.00  0.00    -0.340 N 
ATOM     10  H   UNL     1     -10.032  10.123 -19.444  1.00  0.00     0.168 HD
ENDROOT
BRANCH   7  11
ATOM     11  N   UNL     1     -10.246   9.114 -16.681  1.00  0.00    -0.382 N 
ATOM     12  H   UNL     1      -9.361   8.746 -17.093  1.00  0.00     0.158 HD
ATOM     13  H   UNL     1     -10.957   8.432 -16.334  1.00  0.00     0.158 HD
ENDBRANCH   7  11
TORSDOF 1
ENDMDL
MODEL 5
REMARK VINA RESULT:    -3.720      1.426      3.192
REMARK INTER + INTRA:          -3.829
REMARK INTER:                  -3.829
REMARK INTRA:                   0.000
REMARK UNBOUND:                 0.000
REMARK SMILES Nc1ncnc2nc[nH]c12
REMARK SMILES IDX 8 1 7 2 6 3 5 4 4 5 3 6 2 7 10 8 9 9 1 11
REMARK H PARENT 9 10 1 12 1 13
REMARK Flexibility Score: inf
ROOT
ATOM      1  C   UNL     1      -7.681  15.215 -25.032  1.00  0.00     0.199 A 
ATOM      2  N   UNL     1      -7.062  15.242 -23.821  1.00  0.00    -0.217 NA
ATOM      3  C   UNL     1      -7.485  14.097 -23.259  1.00  0.00     0.182 A 
ATOM      4  N   UNL     1      -7.158  13.632 -22.029  1.00  0.00    -0.215 NA
ATOM      5  C   UNL     1      -7.693  12.438 -21.628  1.00  0.00     0.226 A 
ATOM      6  N   UNL     1      -8.535  11.739 -22.455  1.00  0.00    -0.217 NA
ATOM      7  C   UNL     1      -8.865  12.208 -23.696  1.00  0.00     0.152 A 
ATOM      8  C   UNL     1      -8.313  13.423 -24.089  1.00  0.00     0.127 A 
ATOM      9  N   UNL     1      -8.455  14.116 -25.226  1.00  0.00    -0.340 N 
ATOM     10  H   UNL     1      -9.021  13.878 -26.070  1.00  0.00     0.168 HD
ENDROOT
BRANCH   7  11
ATOM     11  N   UNL     1      -9.744  11.462 -24.540  1.00  0.00    -0.382 N 
ATOM     12  H   UNL     1      -9.377  10.660 -25.097  1.00  0.00     0.158 HD
ATOM     13  H   UNL     1     -10.758  11.700 -24.615  1.00  0.00     0.158 HD
ENDBRANCH   7  11
TORSDOF 1
ENDMDL
MODEL 6
REMARK VINA RESULT:    -3.693     19.420     20.279
REMARK INTER + INTRA:          -3.801
REMARK INTER:                  -3.801
REMARK INTRA:                   0.000
REMARK UNBOUND:                 0.000
REMARK SMILES Nc1ncnc2nc[nH]c12
REMARK SMILES IDX 8 1 7 2 6 3 5 4 4 5 3 6 2 7 10 8 9 9 1 11
REMARK H PARENT 9 10 1 12 1 13
REMARK Flexibility Score: inf
ROOT
ATOM      1  C   UNL     1     -22.500  16.729  -9.807  1.00  0.00     0.199 A 
ATOM      2  N   UNL     1     -21.239  16.694  -9.296  1.00  0.00    -0.217 NA
ATOM      3  C   UNL     1     -21.230  15.522  -8.639  1.00  0.00     0.182 A 
ATOM      4  N   UNL     1     -20.196  14.994  -7.941  1.00  0.00    -0.215 NA
ATOM      5  C   UNL     1     -20.378  13.781  -7.335  1.00  0.00     0.226 A 
ATOM      6  N   UNL     1     -21.579  13.126  -7.436  1.00  0.00    -0.217 NA
ATOM      7  C   UNL     1     -22.624  13.658  -8.139  1.00  0.00     0.152 A 
ATOM      8  C   UNL     1     -22.422  14.891  -8.750  1.00  0.00     0.127 A 
ATOM      9  N   UNL     1     -23.249  15.641  -9.490  1.00  0.00    -0.340 N 
ATOM     10  H   UNL     1     -24.236  15.447  -9.766  1.00  0.00     0.168 HD
ENDROOT
BRANCH   7  11
ATOM     11  N   UNL     1     -23.864  12.956  -8.231  1.00  0.00    -0.382 N 
ATOM     12  H   UNL     1     -24.554  13.209  -8.971  1.00  0.00     0.158 HD
ATOM     13  H   UNL     1     -24.103  12.184  -7.569  1.00  0.00     0.158 HD
ENDBRANCH   7  11
TORSDOF 1
ENDMDL
MODEL 7
REMARK VINA RESULT:    -3.659     13.082     14.319
REMARK INTER + INTRA:          -3.766
REMARK INTER:                  -3.766
REMARK INTRA:                   0.000
REMARK UNBOUND:                 0.000
REMARK SMILES Nc1ncnc2nc[nH]c12
REMARK SMILES IDX 8 1 7 2 6 3 5 4 4 5 3 6 2 7 10 8 9 9 1 11
REMARK H PARENT 9 10 1 12 1 13
REMARK Flexibility Score: inf
ROOT
ATOM      1  C   UNL     1     -15.301  18.671 -11.403  1.00  0.00     0.199 A 
ATOM      2  N   UNL     1     -14.396  17.699 -11.697  1.00  0.00    -0.217 NA
ATOM      3  C   UNL     1     -15.179  16.621 -11.863  1.00  0.00     0.182 A 
ATOM      4  N   UNL     1     -14.773  15.366 -12.175  1.00  0.00    -0.215 NA
ATOM      5  C   UNL     1     -15.725  14.392 -12.301  1.00  0.00     0.226 A 
ATOM      6  N   UNL     1     -17.052  14.687 -12.116  1.00  0.00    -0.217 NA
ATOM      7  C   UNL     1     -17.463  15.952 -11.801  1.00  0.00     0.152 A 
ATOM      8  C   UNL     1     -16.483  16.932 -11.676  1.00  0.00     0.127 A 
ATOM      9  N   UNL     1     -16.586  18.233 -11.381  1.00  0.00    -0.340 N 
ATOM     10  H   UNL     1     -17.444  18.792 -11.181  1.00  0.00     0.168 HD
ENDROOT
BRANCH   7  11
ATOM     11  N   UNL     1     -18.851  16.235 -11.614  1.00  0.00    -0.382 N 
ATOM     12  H   UNL     1     -19.268  16.194 -10.658  1.00  0.00     0.158 HD
ATOM     13  H   UNL     1     -19.468  16.487 -12.418  1.00  0.00     0.158 HD
ENDBRANCH   7  11
TORSDOF 1
ENDMDL
MODEL 8
REMARK VINA RESULT:    -3.595     17.356     18.729
REMARK INTER + INTRA:          -3.700
REMARK INTER:                  -3.700
REMARK INTRA:                   0.000
REMARK UNBOUND:                 0.000
REMARK SMILES Nc1ncnc2nc[nH]c12
REMARK SMILES IDX 8 1 7 2 6 3 5 4 4 5 3 6 2 7 10 8 9 9 1 11
REMARK H PARENT 9 10 1 12 1 13
REMARK Flexibility Score: inf
ROOT
ATOM      1  C   UNL     1     -19.921  15.773 -10.305  1.00  0.00     0.199 A 
ATOM      2  N   UNL     1     -20.905  15.783  -9.366  1.00  0.00    -0.217 NA
ATOM      3  C   UNL     1     -21.891  16.445  -9.993  1.00  0.00     0.182 A 
ATOM      4  N   UNL     1     -23.117  16.735  -9.493  1.00  0.00    -0.215 NA
ATOM      5  C   UNL     1     -23.992  17.423 -10.287  1.00  0.00     0.226 A 
ATOM      6  N   UNL     1     -23.630  17.805 -11.554  1.00  0.00    -0.217 NA
ATOM      7  C   UNL     1     -22.394  17.513 -12.060  1.00  0.00     0.152 A 
ATOM      8  C   UNL     1     -21.515  16.813 -11.240  1.00  0.00     0.127 A 
ATOM      9  N   UNL     1     -20.262  16.396 -11.462  1.00  0.00    -0.340 N 
ATOM     10  H   UNL     1     -19.677  16.515 -12.317  1.00  0.00     0.168 HD
ENDROOT
BRANCH   7  11
ATOM     11  N   UNL     1     -22.041  17.921 -13.383  1.00  0.00    -0.382 N 
ATOM     12  H   UNL     1     -21.037  17.967 -13.665  1.00  0.00     0.158 HD
ATOM     13  H   UNL     1     -22.770  18.175 -14.086  1.00  0.00     0.158 HD
ENDBRANCH   7  11
TORSDOF 1
ENDMDL
MODEL 9
REMARK VINA RESULT:    -3.551     17.597     19.059
REMARK INTER + INTRA:          -3.655
REMARK INTER:                  -3.655
REMARK INTRA:                   0.000
REMARK UNBOUND:                 0.000
REMARK SMILES Nc1ncnc2nc[nH]c12
REMARK SMILES IDX 8 1 7 2 6 3 5 4 4 5 3 6 2 7 10 8 9 9 1 11
REMARK H PARENT 9 10 1 12 1 13
REMARK Flexibility Score: inf
ROOT
ATOM      1  C   UNL     1     -23.334  17.564 -12.931  1.00  0.00     0.199 A 
ATOM      2  N   UNL     1     -24.130  17.370 -11.845  1.00  0.00    -0.217 NA
ATOM      3  C   UNL     1     -23.238  17.076 -10.885  1.00  0.00     0.182 A 
ATOM      4  N   UNL     1     -23.509  16.792  -9.588  1.00  0.00    -0.215 NA
ATOM      5  C   UNL     1     -22.460  16.514  -8.756  1.00  0.00     0.226 A 
ATOM      6  N   UNL     1     -21.172  16.525  -9.230  1.00  0.00    -0.217 NA
ATOM      7  C   UNL     1     -20.898  16.811 -10.538  1.00  0.00     0.152 A 
ATOM      8  C   UNL     1     -21.975  17.091 -11.372  1.00  0.00     0.127 A 
ATOM      9  N   UNL     1     -22.011  17.399 -12.675  1.00  0.00    -0.340 N 
ATOM     10  H   UNL     1     -21.217  17.495 -13.345  1.00  0.00     0.168 HD
ENDROOT
BRANCH   7  11
ATOM     11  N   UNL     1     -19.549  16.817 -11.008  1.00  0.00    -0.382 N 
ATOM     12  H   UNL     1     -19.326  17.203 -11.951  1.00  0.00     0.158 HD
ATOM     13  H   UNL     1     -18.768  16.441 -10.425  1.00  0.00     0.158 HD
ENDBRANCH   7  11
TORSDOF 1
ENDMDL
