MODEL 1
REMARK VINA RESULT:    99.893      0.000      0.000
REMARK INTER + INTRA:         109.091
REMARK INTER:                 108.653
REMARK INTRA:                   0.438
REMARK UNBOUND:                 0.438
REMARK SMILES C[C@H]1[C@H](C)CC[C@@]2(C(=O)[O-])CC[C@@]3(C)C(=CC[C@@H]4[C@@]5(C)CC[C@H](O)C(C)(C)[C@@H]5CC[C@]43C)[C@H]12
REMARK SMILES IDX 7 1 6 2 11 3 33 4 5 5 12 6 15 7 2 8 3 9 13 10 16 11 1 12
REMARK SMILES IDX 4 13 14 14 31 15 17 16 18 17 30 18 32 19 19 20 29 21 28 22
REMARK SMILES IDX 21 23 20 24 25 25 22 26 23 27 26 28 27 29 8 30 9 31 10 32
REMARK SMILES IDX 24 33
REMARK H PARENT 24 34
REMARK Flexibility Score: inf
ROOT
ATOM      1  C   UNL     1      26.658  26.765   2.160  1.00  0.00     0.017 C 
ATOM      2  C   UNL     1      27.513  25.475   2.127  1.00  0.00     0.014 C 
ATOM      3  C   UNL     1      25.443  26.514   3.102  1.00  0.00     0.014 C 
ATOM      4  C   UNL     1      27.494  27.938   2.772  1.00  0.00     0.030 C 
ATOM      5  C   UNL     1      28.841  25.685   1.397  1.00  0.00     0.004 C 
ATOM      6  C   UNL     1      24.576  27.772   3.359  1.00  0.00     0.013 C 
ATOM      7  C   UNL     1      26.588  29.179   2.874  1.00  0.00    -0.063 C 
ATOM      8  C   UNL     1      28.912  28.128   2.128  1.00  0.00    -0.003 C 
ATOM      9  C   UNL     1      29.681  26.773   2.090  1.00  0.00    -0.011 C 
ATOM     10  C   UNL     1      25.363  29.056   3.822  1.00  0.00    -0.006 C 
ATOM     11  C   UNL     1      26.682  30.161   1.940  1.00  0.00    -0.027 C 
ATOM     12  C   UNL     1      29.716  29.185   2.919  1.00  0.00     0.008 C 
ATOM     13  C   UNL     1      31.038  26.895   1.374  1.00  0.00     0.008 C 
ATOM     14  C   UNL     1      25.874  28.787   5.275  1.00  0.00     0.017 C 
ATOM     15  C   UNL     1      24.442  30.394   3.805  1.00  0.00    -0.020 C 
ATOM     16  C   UNL     1      25.714  31.291   1.789  1.00  0.00     0.032 C 
ATOM     17  C   UNL     1      24.317  30.905   2.316  1.00  0.00     0.006 C 
ATOM     18  C   UNL     1      23.014  30.106   4.380  1.00  0.00     0.008 C 
ATOM     19  C   UNL     1      25.106  31.488   4.710  1.00  0.00     0.012 C 
ATOM     20  C   UNL     1      23.172  31.958   1.950  1.00  0.00    -0.025 C 
ATOM     21  C   UNL     1      22.007  31.232   4.134  1.00  0.00     0.005 C 
ATOM     22  C   UNL     1      21.834  31.473   2.614  1.00  0.00     0.003 C 
ATOM     23  C   UNL     1      22.996  31.967   0.379  1.00  0.00     0.010 C 
ATOM     24  C   UNL     1      23.536  33.412   2.394  1.00  0.00     0.012 C 
ATOM     25  C   UNL     1      20.522  32.273   2.210  1.00  0.00    -0.006 C 
ATOM     26  C   UNL     1      21.543  31.900  -0.124  1.00  0.00     0.033 C 
ATOM     27  C   UNL     1      20.586  32.765   0.713  1.00  0.00     0.120 C 
ATOM     28  C   UNL     1      19.302  31.314   2.334  1.00  0.00     0.014 C 
ATOM     29  C   UNL     1      20.238  33.466   3.159  1.00  0.00     0.014 C 
ENDROOT
BRANCH   1  30
ATOM     30  C   UNL     1      26.144  27.045   0.745  1.00  0.00     0.048 C 
ATOM     31  O   UNL     1      25.252  26.307   0.244  1.00  0.00    -0.550 OA
ATOM     32  O   UNL     1      26.688  28.045  -0.043  1.00  0.00    -0.550 OA
ENDBRANCH   1  30
BRANCH  27  33
ATOM     33  O   UNL     1      20.941  34.124   0.616  1.00  0.00    -0.393 OA
ATOM     34  H   UNL     1      21.443  34.243  -0.239  1.00  0.00     0.210 HD
ENDBRANCH  27  33
TORSDOF 2
ENDMDL
