MODEL 1
REMARK VINA RESULT:     6.207      0.000      0.000
REMARK INTER + INTRA:           9.104
REMARK INTER:                   9.836
REMARK INTRA:                  -0.732
REMARK UNBOUND:                -0.732
REMARK SMILES CCCCCCCCCCCC(=O)[O-]
REMARK SMILES IDX 7 1 8 2 9 3 10 4 11 5 12 6 13 7 14 8 6 9 5 10 4 11 3 12 2 13
REMARK SMILES IDX 1 14
REMARK H PARENT
REMARK Flexibility Score: inf
ROOT
ATOM      1  C   UNL     1     -12.576  17.733  -9.719  1.00  0.00     0.000 C 
ENDROOT
BRANCH   1   2
ATOM      2  C   UNL     1     -13.121  18.874 -10.587  1.00  0.00     0.000 C 
BRANCH   2   3
ATOM      3  C   UNL     1     -13.085  18.498 -12.076  1.00  0.00     0.000 C 
BRANCH   3   4
ATOM      4  C   UNL     1     -12.952  19.724 -12.993  1.00  0.00     0.006 C 
BRANCH   4   5
ATOM      5  C   UNL     1     -11.553  19.855 -13.606  1.00  0.00     0.053 C 
BRANCH   5   6
ATOM      6  C   UNL     1     -11.533  19.287 -14.990  1.00  0.00     0.041 C 
ATOM      7  O   UNL     1     -12.369  18.407 -15.326  1.00  0.00    -0.550 OA
ATOM      8  O   UNL     1     -10.624  19.766 -15.925  1.00  0.00    -0.550 OA
ENDBRANCH   5   6
ENDBRANCH   4   5
ENDBRANCH   3   4
ENDBRANCH   2   3
ENDBRANCH   1   2
BRANCH   1   9
ATOM      9  C   UNL     1     -12.967  17.927  -8.246  1.00  0.00     0.000 C 
BRANCH   9  10
ATOM     10  C   UNL     1     -13.728  19.239  -8.002  1.00  0.00    -0.000 C 
BRANCH  10  11
ATOM     11  C   UNL     1     -13.379  19.880  -6.647  1.00  0.00    -0.000 C 
BRANCH  11  12
ATOM     12  C   UNL     1     -12.533  21.159  -6.790  1.00  0.00    -0.000 C 
BRANCH  12  13
ATOM     13  C   UNL     1     -12.154  21.530  -8.235  1.00  0.00    -0.003 C 
ATOM     14  C   UNL     1     -10.645  21.532  -8.477  1.00  0.00     0.004 C 
ENDBRANCH  12  13
ENDBRANCH  11  12
ENDBRANCH  10  11
ENDBRANCH   9  10
ENDBRANCH   1   9
TORSDOF 10
ENDMDL
MODEL 2
REMARK VINA RESULT:     6.546      0.908      1.690
REMARK INTER + INTRA:           9.641
REMARK INTER:                  10.152
REMARK INTRA:                  -0.512
REMARK UNBOUND:                -0.732
REMARK SMILES CCCCCCCCCCCC(=O)[O-]
REMARK SMILES IDX 7 1 8 2 9 3 10 4 11 5 12 6 13 7 14 8 6 9 5 10 4 11 3 12 2 13
REMARK SMILES IDX 1 14
REMARK H PARENT
REMARK Flexibility Score: inf
ROOT
ATOM      1  C   UNL     1     -13.148  18.845 -10.993  1.00  0.00     0.000 C 
ENDROOT
BRANCH   1   2
ATOM      2  C   UNL     1     -12.793  18.519 -12.449  1.00  0.00     0.000 C 
BRANCH   2   3
ATOM      3  C   UNL     1     -12.984  19.749 -13.350  1.00  0.00     0.000 C 
BRANCH   3   4
ATOM      4  C   UNL     1     -11.699  20.141 -14.095  1.00  0.00     0.006 C 
BRANCH   4   5
ATOM      5  C   UNL     1     -11.206  19.043 -15.044  1.00  0.00     0.053 C 
BRANCH   5   6
ATOM      6  C   UNL     1     -10.800  19.630 -16.359  1.00  0.00     0.041 C 
ATOM      7  O   UNL     1     -11.010  18.997 -17.427  1.00  0.00    -0.550 OA
ATOM      8  O   UNL     1     -10.237  20.899 -16.409  1.00  0.00    -0.550 OA
ENDBRANCH   5   6
ENDBRANCH   4   5
ENDBRANCH   3   4
ENDBRANCH   2   3
ENDBRANCH   1   2
BRANCH   1   9
ATOM      9  C   UNL     1     -12.707  17.713 -10.053  1.00  0.00     0.000 C 
BRANCH   9  10
ATOM     10  C   UNL     1     -12.805  18.101  -8.569  1.00  0.00    -0.000 C 
BRANCH  10  11
ATOM     11  C   UNL     1     -13.493  19.460  -8.359  1.00  0.00    -0.000 C 
BRANCH  11  12
ATOM     12  C   UNL     1     -13.189  20.079  -6.982  1.00  0.00    -0.000 C 
BRANCH  12  13
ATOM     13  C   UNL     1     -12.192  21.252  -7.001  1.00  0.00    -0.003 C 
ATOM     14  C   UNL     1     -11.693  21.590  -8.406  1.00  0.00     0.004 C 
ENDBRANCH  12  13
ENDBRANCH  11  12
ENDBRANCH  10  11
ENDBRANCH   9  10
ENDBRANCH   1   9
TORSDOF 10
ENDMDL
MODEL 3
REMARK VINA RESULT:     6.569      1.945      3.002
REMARK INTER + INTRA:           9.677
REMARK INTER:                  10.185
REMARK INTRA:                  -0.508
REMARK UNBOUND:                -0.732
REMARK SMILES CCCCCCCCCCCC(=O)[O-]
REMARK SMILES IDX 7 1 8 2 9 3 10 4 11 5 12 6 13 7 14 8 6 9 5 10 4 11 3 12 2 13
REMARK SMILES IDX 1 14
REMARK H PARENT
REMARK Flexibility Score: inf
ROOT
ATOM      1  C   UNL     1     -13.093  19.014 -12.239  1.00  0.00     0.000 C 
ENDROOT
BRANCH   1   2
ATOM      2  C   UNL     1     -11.961  19.725 -12.993  1.00  0.00     0.000 C 
BRANCH   2   3
ATOM      3  C   UNL     1     -12.011  19.401 -14.494  1.00  0.00     0.000 C 
BRANCH   3   4
ATOM      4  C   UNL     1     -13.314  18.698 -14.904  1.00  0.00     0.006 C 
BRANCH   4   5
ATOM      5  C   UNL     1     -13.183  17.938 -16.230  1.00  0.00     0.053 C 
BRANCH   5   6
ATOM      6  C   UNL     1     -14.533  17.557 -16.750  1.00  0.00     0.041 C 
ATOM      7  O   UNL     1     -14.655  16.587 -17.543  1.00  0.00    -0.550 OA
ATOM      8  O   UNL     1     -15.663  18.240 -16.318  1.00  0.00    -0.550 OA
ENDBRANCH   5   6
ENDBRANCH   4   5
ENDBRANCH   3   4
ENDBRANCH   2   3
ENDBRANCH   1   2
BRANCH   1   9
ATOM      9  C   UNL     1     -13.044  19.338 -10.739  1.00  0.00     0.000 C 
BRANCH   9  10
ATOM     10  C   UNL     1     -12.905  18.082  -9.864  1.00  0.00    -0.000 C 
BRANCH  10  11
ATOM     11  C   UNL     1     -12.590  18.418  -8.396  1.00  0.00    -0.000 C 
BRANCH  11  12
ATOM     12  C   UNL     1     -13.460  19.562  -7.844  1.00  0.00    -0.000 C 
BRANCH  12  13
ATOM     13  C   UNL     1     -12.684  20.687  -7.135  1.00  0.00    -0.003 C 
ATOM     14  C   UNL     1     -11.836  21.523  -8.093  1.00  0.00     0.004 C 
ENDBRANCH  12  13
ENDBRANCH  11  12
ENDBRANCH  10  11
ENDBRANCH   9  10
ENDBRANCH   1   9
TORSDOF 10
ENDMDL
MODEL 4
REMARK VINA RESULT:     6.585      3.405      6.412
REMARK INTER + INTRA:           9.702
REMARK INTER:                   9.669
REMARK INTRA:                   0.033
REMARK UNBOUND:                -0.732
REMARK SMILES CCCCCCCCCCCC(=O)[O-]
REMARK SMILES IDX 7 1 8 2 9 3 10 4 11 5 12 6 13 7 14 8 6 9 5 10 4 11 3 12 2 13
REMARK SMILES IDX 1 14
REMARK H PARENT
REMARK Flexibility Score: inf
ROOT
ATOM      1  C   UNL     1     -13.337  18.536 -10.873  1.00  0.00     0.000 C 
ENDROOT
BRANCH   1   2
ATOM      2  C   UNL     1     -12.642  17.538  -9.937  1.00  0.00     0.000 C 
BRANCH   2   3
ATOM      3  C   UNL     1     -12.611  18.066  -8.495  1.00  0.00     0.000 C 
BRANCH   3   4
ATOM      4  C   UNL     1     -13.505  19.299  -8.297  1.00  0.00     0.006 C 
BRANCH   4   5
ATOM      5  C   UNL     1     -12.854  20.590  -8.807  1.00  0.00     0.053 C 
BRANCH   5   6
ATOM      6  C   UNL     1     -12.008  21.207  -7.739  1.00  0.00     0.041 C 
ATOM      7  O   UNL     1     -12.432  21.275  -6.555  1.00  0.00    -0.550 OA
ATOM      8  O   UNL     1     -10.730  21.661  -8.039  1.00  0.00    -0.550 OA
ENDBRANCH   5   6
ENDBRANCH   4   5
ENDBRANCH   3   4
ENDBRANCH   2   3
ENDBRANCH   1   2
BRANCH   1   9
ATOM      9  C   UNL     1     -12.685  18.531 -12.264  1.00  0.00     0.000 C 
BRANCH   9  10
ATOM     10  C   UNL     1     -13.083  19.749 -13.111  1.00  0.00    -0.000 C 
BRANCH  10  11
ATOM     11  C   UNL     1     -11.923  20.271 -13.976  1.00  0.00    -0.000 C 
BRANCH  11  12
ATOM     12  C   UNL     1     -11.126  19.141 -14.654  1.00  0.00    -0.000 C 
BRANCH  12  13
ATOM     13  C   UNL     1     -10.900  19.320 -16.166  1.00  0.00    -0.003 C 
ATOM     14  C   UNL     1     -10.233  20.650 -16.517  1.00  0.00     0.004 C 
ENDBRANCH  12  13
ENDBRANCH  11  12
ENDBRANCH  10  11
ENDBRANCH   9  10
ENDBRANCH   1   9
TORSDOF 10
ENDMDL
MODEL 5
REMARK VINA RESULT:     6.681      3.783      7.074
REMARK INTER + INTRA:           9.855
REMARK INTER:                  10.324
REMARK INTRA:                  -0.469
REMARK UNBOUND:                -0.732
REMARK SMILES CCCCCCCCCCCC(=O)[O-]
REMARK SMILES IDX 7 1 8 2 9 3 10 4 11 5 12 6 13 7 14 8 6 9 5 10 4 11 3 12 2 13
REMARK SMILES IDX 1 14
REMARK H PARENT
REMARK Flexibility Score: inf
ROOT
ATOM      1  C   UNL     1     -13.148  19.179 -11.738  1.00  0.00     0.000 C 
ENDROOT
BRANCH   1   2
ATOM      2  C   UNL     1     -12.819  17.865 -11.017  1.00  0.00     0.000 C 
BRANCH   2   3
ATOM      3  C   UNL     1     -12.809  18.061  -9.493  1.00  0.00     0.000 C 
BRANCH   3   4
ATOM      4  C   UNL     1     -13.369  19.426  -9.069  1.00  0.00     0.006 C 
BRANCH   4   5
ATOM      5  C   UNL     1     -13.136  19.725  -7.583  1.00  0.00     0.053 C 
BRANCH   5   6
ATOM      6  C   UNL     1     -12.357  20.992  -7.420  1.00  0.00     0.041 C 
ATOM      7  O   UNL     1     -12.383  21.616  -6.326  1.00  0.00    -0.550 OA
ATOM      8  O   UNL     1     -11.561  21.458  -8.459  1.00  0.00    -0.550 OA
ENDBRANCH   5   6
ENDBRANCH   4   5
ENDBRANCH   3   4
ENDBRANCH   2   3
ENDBRANCH   1   2
BRANCH   1   9
ATOM      9  C   UNL     1     -11.935  19.691 -12.528  1.00  0.00     0.000 C 
BRANCH   9  10
ATOM     10  C   UNL     1     -12.131  19.589 -14.049  1.00  0.00    -0.000 C 
BRANCH  10  11
ATOM     11  C   UNL     1     -13.479  18.954 -14.429  1.00  0.00    -0.000 C 
BRANCH  11  12
ATOM     12  C   UNL     1     -13.415  18.153 -15.742  1.00  0.00    -0.000 C 
BRANCH  12  13
ATOM     13  C   UNL     1     -14.777  17.888 -16.410  1.00  0.00    -0.003 C 
ATOM     14  C   UNL     1     -14.735  16.742 -17.420  1.00  0.00     0.004 C 
ENDBRANCH  12  13
ENDBRANCH  11  12
ENDBRANCH  10  11
ENDBRANCH   9  10
ENDBRANCH   1   9
TORSDOF 10
ENDMDL
MODEL 6
REMARK VINA RESULT:     7.634     14.398     16.252
REMARK INTER + INTRA:          11.365
REMARK INTER:                  10.334
REMARK INTRA:                   1.031
REMARK UNBOUND:                -0.732
REMARK SMILES CCCCCCCCCCCC(=O)[O-]
REMARK SMILES IDX 7 1 8 2 9 3 10 4 11 5 12 6 13 7 14 8 6 9 5 10 4 11 3 12 2 13
REMARK SMILES IDX 1 14
REMARK H PARENT
REMARK Flexibility Score: inf
ROOT
ATOM      1  C   UNL     1     -17.270   6.497  -3.670  1.00  0.00     0.000 C 
ENDROOT
BRANCH   1   2
ATOM      2  C   UNL     1     -16.177   7.222  -2.875  1.00  0.00     0.000 C 
BRANCH   2   3
ATOM      3  C   UNL     1     -14.959   7.524  -3.763  1.00  0.00     0.000 C 
BRANCH   3   4
ATOM      4  C   UNL     1     -13.673   7.734  -2.950  1.00  0.00     0.006 C 
BRANCH   4   5
ATOM      5  C   UNL     1     -12.632   6.636  -3.197  1.00  0.00     0.053 C 
BRANCH   5   6
ATOM      6  C   UNL     1     -11.253   7.216  -3.213  1.00  0.00     0.041 C 
ATOM      7  O   UNL     1     -10.265   6.511  -2.876  1.00  0.00    -0.550 OA
ATOM      8  O   UNL     1     -11.052   8.519  -3.651  1.00  0.00    -0.550 OA
ENDBRANCH   5   6
ENDBRANCH   4   5
ENDBRANCH   3   4
ENDBRANCH   2   3
ENDBRANCH   1   2
BRANCH   1   9
ATOM      9  C   UNL     1     -18.201   7.501  -4.367  1.00  0.00     0.000 C 
BRANCH   9  10
ATOM     10  C   UNL     1     -19.422   7.872  -3.510  1.00  0.00    -0.000 C 
BRANCH  10  11
ATOM     11  C   UNL     1     -20.141   6.637  -2.941  1.00  0.00    -0.000 C 
BRANCH  11  12
ATOM     12  C   UNL     1     -19.300   5.352  -3.049  1.00  0.00    -0.000 C 
BRANCH  12  13
ATOM     13  C   UNL     1     -20.099   4.040  -2.951  1.00  0.00    -0.003 C 
ATOM     14  C   UNL     1     -21.612   4.258  -2.976  1.00  0.00     0.004 C 
ENDBRANCH  12  13
ENDBRANCH  11  12
ENDBRANCH  10  11
ENDBRANCH   9  10
ENDBRANCH   1   9
TORSDOF 10
ENDMDL
MODEL 7
REMARK VINA RESULT:     8.275     14.392     17.516
REMARK INTER + INTRA:          12.380
REMARK INTER:                  12.529
REMARK INTRA:                  -0.149
REMARK UNBOUND:                -0.732
REMARK SMILES CCCCCCCCCCCC(=O)[O-]
REMARK SMILES IDX 7 1 8 2 9 3 10 4 11 5 12 6 13 7 14 8 6 9 5 10 4 11 3 12 2 13
REMARK SMILES IDX 1 14
REMARK H PARENT
REMARK Flexibility Score: inf
ROOT
ATOM      1  C   UNL     1      -8.586   5.159 -19.509  1.00  0.00     0.000 C 
ENDROOT
BRANCH   1   2
ATOM      2  C   UNL     1      -7.173   5.568 -19.070  1.00  0.00     0.000 C 
BRANCH   2   3
ATOM      3  C   UNL     1      -6.975   7.086 -19.198  1.00  0.00     0.000 C 
BRANCH   3   4
ATOM      4  C   UNL     1      -7.604   7.865 -18.033  1.00  0.00     0.006 C 
BRANCH   4   5
ATOM      5  C   UNL     1      -7.855   9.338 -18.375  1.00  0.00     0.053 C 
BRANCH   5   6
ATOM      6  C   UNL     1      -8.669   9.992 -17.303  1.00  0.00     0.041 C 
ATOM      7  O   UNL     1      -9.841  10.382 -17.546  1.00  0.00    -0.550 OA
ATOM      8  O   UNL     1      -8.151  10.126 -16.021  1.00  0.00    -0.550 OA
ENDBRANCH   5   6
ENDBRANCH   4   5
ENDBRANCH   3   4
ENDBRANCH   2   3
ENDBRANCH   1   2
BRANCH   1   9
ATOM      9  C   UNL     1      -8.539   3.948 -20.454  1.00  0.00     0.000 C 
BRANCH   9  10
ATOM     10  C   UNL     1      -7.250   3.895 -21.289  1.00  0.00    -0.000 C 
BRANCH  10  11
ATOM     11  C   UNL     1      -7.528   3.713 -22.791  1.00  0.00    -0.000 C 
BRANCH  11  12
ATOM     12  C   UNL     1      -9.031   3.704 -23.125  1.00  0.00    -0.000 C 
BRANCH  12  13
ATOM     13  C   UNL     1      -9.706   5.088 -23.124  1.00  0.00    -0.003 C 
ATOM     14  C   UNL     1      -8.705   6.242 -23.075  1.00  0.00     0.004 C 
ENDBRANCH  12  13
ENDBRANCH  11  12
ENDBRANCH  10  11
ENDBRANCH   9  10
ENDBRANCH   1   9
TORSDOF 10
ENDMDL
MODEL 8
REMARK VINA RESULT:     8.834     14.544     16.854
REMARK INTER + INTRA:          13.266
REMARK INTER:                  13.760
REMARK INTRA:                  -0.494
REMARK UNBOUND:                -0.732
REMARK SMILES CCCCCCCCCCCC(=O)[O-]
REMARK SMILES IDX 7 1 8 2 9 3 10 4 11 5 12 6 13 7 14 8 6 9 5 10 4 11 3 12 2 13
REMARK SMILES IDX 1 14
REMARK H PARENT
REMARK Flexibility Score: inf
ROOT
ATOM      1  C   UNL     1      -7.678   5.608 -19.820  1.00  0.00     0.000 C 
ENDROOT
BRANCH   1   2
ATOM      2  C   UNL     1      -7.918   4.124 -20.125  1.00  0.00     0.000 C 
BRANCH   2   3
ATOM      3  C   UNL     1      -6.979   3.631 -21.237  1.00  0.00     0.000 C 
BRANCH   3   4
ATOM      4  C   UNL     1      -7.296   4.261 -22.601  1.00  0.00     0.006 C 
BRANCH   4   5
ATOM      5  C   UNL     1      -8.764   4.085 -23.008  1.00  0.00     0.053 C 
BRANCH   5   6
ATOM      6  C   UNL     1      -9.443   5.414 -23.104  1.00  0.00     0.041 C 
ATOM      7  O   UNL     1     -10.701   5.484 -23.119  1.00  0.00    -0.550 OA
ATOM      8  O   UNL     1      -8.689   6.581 -23.125  1.00  0.00    -0.550 OA
ENDBRANCH   5   6
ENDBRANCH   4   5
ENDBRANCH   3   4
ENDBRANCH   2   3
ENDBRANCH   1   2
BRANCH   1   9
ATOM      9  C   UNL     1      -7.493   5.837 -18.313  1.00  0.00     0.000 C 
BRANCH   9  10
ATOM     10  C   UNL     1      -7.207   7.306 -17.965  1.00  0.00    -0.000 C 
BRANCH  10  11
ATOM     11  C   UNL     1      -7.754   8.280 -19.024  1.00  0.00    -0.000 C 
BRANCH  11  12
ATOM     12  C   UNL     1      -7.949   9.707 -18.481  1.00  0.00    -0.000 C 
BRANCH  12  13
ATOM     13  C   UNL     1      -8.840   9.812 -17.231  1.00  0.00    -0.003 C 
ATOM     14  C   UNL     1      -8.042   9.985 -15.939  1.00  0.00     0.004 C 
ENDBRANCH  12  13
ENDBRANCH  11  12
ENDBRANCH  10  11
ENDBRANCH   9  10
ENDBRANCH   1   9
TORSDOF 10
ENDMDL
MODEL 9
REMARK VINA RESULT:     8.950     14.970     18.026
REMARK INTER + INTRA:          13.450
REMARK INTER:                  13.514
REMARK INTRA:                  -0.064
REMARK UNBOUND:                -0.732
REMARK SMILES CCCCCCCCCCCC(=O)[O-]
REMARK SMILES IDX 7 1 8 2 9 3 10 4 11 5 12 6 13 7 14 8 6 9 5 10 4 11 3 12 2 13
REMARK SMILES IDX 1 14
REMARK H PARENT
REMARK Flexibility Score: inf
ROOT
ATOM      1  C   UNL     1      -8.172   4.426 -20.074  1.00  0.00     0.000 C 
ENDROOT
BRANCH   1   2
ATOM      2  C   UNL     1      -8.220   5.930 -19.775  1.00  0.00     0.000 C 
BRANCH   2   3
ATOM      3  C   UNL     1      -7.446   6.260 -18.490  1.00  0.00     0.000 C 
BRANCH   3   4
ATOM      4  C   UNL     1      -7.029   7.737 -18.413  1.00  0.00     0.006 C 
BRANCH   4   5
ATOM      5  C   UNL     1      -8.204   8.696 -18.641  1.00  0.00     0.053 C 
BRANCH   5   6
ATOM      6  C   UNL     1      -8.375   9.602 -17.463  1.00  0.00     0.041 C 
ATOM      7  O   UNL     1      -9.299  10.458 -17.451  1.00  0.00    -0.550 OA
ATOM      8  O   UNL     1      -7.548   9.466 -16.355  1.00  0.00    -0.550 OA
ENDBRANCH   5   6
ENDBRANCH   4   5
ENDBRANCH   3   4
ENDBRANCH   2   3
ENDBRANCH   1   2
BRANCH   1   9
ATOM      9  C   UNL     1      -9.368   3.999 -20.938  1.00  0.00     0.000 C 
BRANCH   9  10
ATOM     10  C   UNL     1      -9.423   4.738 -22.284  1.00  0.00    -0.000 C 
BRANCH  10  11
ATOM     11  C   UNL     1      -8.123   4.585 -23.094  1.00  0.00    -0.000 C 
BRANCH  11  12
ATOM     12  C   UNL     1      -7.602   3.137 -23.122  1.00  0.00    -0.000 C 
BRANCH  12  13
ATOM     13  C   UNL     1      -6.115   2.973 -22.759  1.00  0.00    -0.003 C 
ATOM     14  C   UNL     1      -5.872   2.878 -21.254  1.00  0.00     0.004 C 
ENDBRANCH  12  13
ENDBRANCH  11  12
ENDBRANCH  10  11
ENDBRANCH   9  10
ENDBRANCH   1   9
TORSDOF 10
ENDMDL
