MODEL 1
REMARK VINA RESULT:    -5.640      0.000      0.000
REMARK INTER + INTRA:          -9.722
REMARK INTER:                  -8.277
REMARK INTRA:                  -1.445
REMARK UNBOUND:                -1.445
REMARK SMILES Cc1cc2c(C(C)C)c(O)c(O)c(C=O)c2c(O)c1-c1c(C)cc2c(C(C)C)c(O)c(O)c(C=O)c2c1O
REMARK SMILES IDX 1 1 2 2 3 3 4 4 16 5 13 6 11 7 9 8 5 9 17 10 19 11 20 12
REMARK SMILES IDX 37 13 21 14 36 15 23 16 22 17 24 18 33 19 25 20 31 21 29 22
REMARK SMILES IDX 38 23 34 25 35 26 26 27 27 28 28 29 32 30 30 32 18 34 6 36
REMARK SMILES IDX 7 37 8 38 14 39 15 40 10 41 12 43
REMARK H PARENT 38 24 32 31 30 33 18 35 10 42 12 44
REMARK Flexibility Score: inf
ROOT
ATOM      1  C   UNL     1      -1.060 -15.311 -39.448  1.00  0.00     0.045 C 
ATOM      2  C   UNL     1      -0.904 -14.693 -38.079  1.00  0.00    -0.039 A 
ATOM      3  C   UNL     1      -0.088 -15.319 -37.135  1.00  0.00     0.013 A 
ATOM      4  C   UNL     1       0.073 -14.804 -35.829  1.00  0.00    -0.006 A 
ATOM      5  C   UNL     1      -0.568 -13.574 -35.492  1.00  0.00     0.039 A 
ATOM      6  C   UNL     1      -0.391 -13.042 -34.181  1.00  0.00     0.072 A 
ATOM      7  C   UNL     1       0.549 -13.622 -33.310  1.00  0.00     0.169 A 
ATOM      8  C   UNL     1       1.249 -14.779 -33.689  1.00  0.00     0.162 A 
ATOM      9  C   UNL     1       0.896 -15.471 -34.869  1.00  0.00     0.008 A 
ATOM     10  C   UNL     1      -1.328 -12.892 -36.490  1.00  0.00     0.132 A 
ATOM     11  C   UNL     1      -1.518 -13.471 -37.764  1.00  0.00     0.031 A 
ENDROOT
BRANCH  11  12
ATOM     12  C   UNL     1      -2.336 -12.773 -38.790  1.00  0.00     0.031 A 
ATOM     13  C   UNL     1      -1.746 -11.798 -39.622  1.00  0.00     0.132 A 
ATOM     14  C   UNL     1      -3.688 -13.112 -38.954  1.00  0.00    -0.039 A 
ATOM     15  C   UNL     1      -2.535 -11.085 -40.573  1.00  0.00     0.039 A 
ATOM     16  C   UNL     1      -4.438 -12.487 -39.951  1.00  0.00     0.013 A 
ATOM     17  C   UNL     1      -4.325 -14.205 -38.128  1.00  0.00     0.045 C 
ATOM     18  C   UNL     1      -3.906 -11.447 -40.747  1.00  0.00    -0.006 A 
ATOM     19  C   UNL     1      -1.988 -10.053 -41.390  1.00  0.00     0.072 A 
ATOM     20  C   UNL     1      -4.700 -10.796 -41.740  1.00  0.00     0.008 A 
ATOM     21  C   UNL     1      -2.733  -9.538 -42.465  1.00  0.00     0.169 A 
ATOM     22  C   UNL     1      -4.052  -9.974 -42.688  1.00  0.00     0.162 A 
BRANCH  13  23
ATOM     23  O   UNL     1      -0.367 -11.572 -39.536  1.00  0.00    -0.507 OA
ATOM     24  H   UNL     1       0.260 -12.117 -38.959  1.00  0.00     0.293 HD
ENDBRANCH  13  23
BRANCH  19  25
ATOM     25  C   UNL     1      -0.678  -9.423 -41.091  1.00  0.00     0.264 C 
ATOM     26  O   UNL     1       0.324  -9.621 -41.829  1.00  0.00    -0.298 OA
ENDBRANCH  19  25
BRANCH  20  27
ATOM     27  C   UNL     1      -6.221 -11.009 -41.832  1.00  0.00     0.017 C 
ATOM     28  C   UNL     1      -6.577 -11.930 -43.004  1.00  0.00     0.012 C 
ATOM     29  C   UNL     1      -7.032  -9.700 -41.884  1.00  0.00     0.012 C 
ENDBRANCH  20  27
BRANCH  21  30
ATOM     30  O   UNL     1      -2.157  -8.552 -43.275  1.00  0.00    -0.504 OA
ATOM     31  H   UNL     1      -2.504  -7.607 -43.350  1.00  0.00     0.293 HD
ENDBRANCH  21  30
BRANCH  22  32
ATOM     32  O   UNL     1      -4.734  -9.607 -43.852  1.00  0.00    -0.504 OA
ATOM     33  H   UNL     1      -4.280  -9.344 -44.715  1.00  0.00     0.293 HD
ENDBRANCH  22  32
ENDBRANCH  11  12
BRANCH  10  34
ATOM     34  O   UNL     1      -1.856 -11.622 -36.233  1.00  0.00    -0.507 OA
ATOM     35  H   UNL     1      -2.541 -11.164 -36.820  1.00  0.00     0.293 HD
ENDBRANCH  10  34
BRANCH   9  36
ATOM     36  C   UNL     1       1.444 -16.888 -35.113  1.00  0.00     0.017 C 
ATOM     37  C   UNL     1       2.971 -16.874 -35.229  1.00  0.00     0.012 C 
ATOM     38  C   UNL     1       0.971 -17.926 -34.078  1.00  0.00     0.012 C 
ENDBRANCH   9  36
BRANCH   6  39
ATOM     39  C   UNL     1      -1.234 -11.939 -33.657  1.00  0.00     0.264 C 
ATOM     40  O   UNL     1      -0.767 -10.780 -33.499  1.00  0.00    -0.298 OA
ENDBRANCH   6  39
BRANCH   8  41
ATOM     41  O   UNL     1       2.309 -15.255 -32.912  1.00  0.00    -0.504 OA
ATOM     42  H   UNL     1       2.637 -14.809 -32.067  1.00  0.00     0.293 HD
ENDBRANCH   8  41
BRANCH   7  43
ATOM     43  O   UNL     1       0.733 -13.056 -32.042  1.00  0.00    -0.504 OA
ATOM     44  H   UNL     1       0.995 -12.094 -31.885  1.00  0.00     0.293 HD
ENDBRANCH   7  43
TORSDOF 11
ENDMDL
MODEL 2
REMARK VINA RESULT:    -5.506      0.500      9.122
REMARK INTER + INTRA:          -9.525
REMARK INTER:                  -8.015
REMARK INTRA:                  -1.510
REMARK UNBOUND:                -1.445
REMARK SMILES Cc1cc2c(C(C)C)c(O)c(O)c(C=O)c2c(O)c1-c1c(C)cc2c(C(C)C)c(O)c(O)c(C=O)c2c1O
REMARK SMILES IDX 1 1 2 2 3 3 4 4 16 5 13 6 11 7 9 8 5 9 17 10 19 11 20 12
REMARK SMILES IDX 37 13 21 14 36 15 23 16 22 17 24 18 33 19 25 20 31 21 29 22
REMARK SMILES IDX 38 23 34 25 35 26 26 27 27 28 28 29 32 30 30 32 18 34 6 36
REMARK SMILES IDX 7 37 8 38 14 39 15 40 10 41 12 43
REMARK H PARENT 38 24 32 31 30 33 18 35 10 42 12 44
REMARK Flexibility Score: inf
ROOT
ATOM      1  C   UNL     1      -4.394 -14.080 -37.948  1.00  0.00     0.045 C 
ATOM      2  C   UNL     1      -3.719 -13.129 -38.908  1.00  0.00    -0.039 A 
ATOM      3  C   UNL     1      -4.493 -12.421 -39.828  1.00  0.00     0.013 A 
ATOM      4  C   UNL     1      -3.915 -11.540 -40.769  1.00  0.00    -0.006 A 
ATOM      5  C   UNL     1      -2.505 -11.322 -40.730  1.00  0.00     0.039 A 
ATOM      6  C   UNL     1      -1.921 -10.419 -41.665  1.00  0.00     0.072 A 
ATOM      7  C   UNL     1      -2.747  -9.620 -42.478  1.00  0.00     0.169 A 
ATOM      8  C   UNL     1      -4.143  -9.773 -42.439  1.00  0.00     0.162 A 
ATOM      9  C   UNL     1      -4.723 -10.840 -41.719  1.00  0.00     0.008 A 
ATOM     10  C   UNL     1      -1.730 -11.980 -39.727  1.00  0.00     0.132 A 
ATOM     11  C   UNL     1      -2.336 -12.902 -38.846  1.00  0.00     0.031 A 
ENDROOT
BRANCH  11  12
ATOM     12  C   UNL     1      -1.519 -13.609 -37.823  1.00  0.00     0.031 A 
ATOM     13  C   UNL     1      -1.308 -13.022 -36.558  1.00  0.00     0.132 A 
ATOM     14  C   UNL     1      -0.990 -14.877 -38.108  1.00  0.00    -0.039 A 
ATOM     15  C   UNL     1      -0.482 -13.668 -35.590  1.00  0.00     0.039 A 
ATOM     16  C   UNL     1      -0.265 -15.555 -37.127  1.00  0.00     0.013 A 
ATOM     17  C   UNL     1      -1.263 -15.559 -39.427  1.00  0.00     0.045 C 
ATOM     18  C   UNL     1       0.039 -14.966 -35.879  1.00  0.00    -0.006 A 
ATOM     19  C   UNL     1      -0.199 -13.079 -34.323  1.00  0.00     0.072 A 
ATOM     20  C   UNL     1       0.811 -15.663 -34.900  1.00  0.00     0.008 A 
ATOM     21  C   UNL     1       0.423 -13.841 -33.318  1.00  0.00     0.169 A 
ATOM     22  C   UNL     1       0.846 -15.156 -33.582  1.00  0.00     0.162 A 
BRANCH  13  23
ATOM     23  O   UNL     1      -1.957 -11.822 -36.245  1.00  0.00    -0.507 OA
ATOM     24  H   UNL     1      -1.645 -11.181 -35.527  1.00  0.00     0.293 HD
ENDBRANCH  13  23
BRANCH  19  25
ATOM     25  C   UNL     1      -0.452 -11.643 -34.047  1.00  0.00     0.264 C 
ATOM     26  O   UNL     1      -1.364 -11.282 -33.257  1.00  0.00    -0.298 OA
ENDBRANCH  19  25
BRANCH  20  27
ATOM     27  C   UNL     1       1.556 -16.969 -35.232  1.00  0.00     0.017 C 
ATOM     28  C   UNL     1       0.803 -18.185 -34.683  1.00  0.00     0.012 C 
ATOM     29  C   UNL     1       3.031 -16.976 -34.787  1.00  0.00     0.012 C 
ENDBRANCH  20  27
BRANCH  21  30
ATOM     30  O   UNL     1       0.655 -13.250 -32.070  1.00  0.00    -0.504 OA
ATOM     31  H   UNL     1       1.218 -12.423 -31.931  1.00  0.00     0.293 HD
ENDBRANCH  21  30
BRANCH  22  32
ATOM     32  O   UNL     1       1.297 -15.979 -32.547  1.00  0.00    -0.504 OA
ATOM     33  H   UNL     1       1.959 -16.732 -32.669  1.00  0.00     0.293 HD
ENDBRANCH  22  32
ENDBRANCH  11  12
BRANCH  10  34
ATOM     34  O   UNL     1      -0.370 -11.686 -39.578  1.00  0.00    -0.507 OA
ATOM     35  H   UNL     1       0.373 -12.186 -40.049  1.00  0.00     0.293 HD
ENDBRANCH  10  34
BRANCH   9  36
ATOM     36  C   UNL     1      -6.207 -11.186 -41.933  1.00  0.00     0.017 C 
ATOM     37  C   UNL     1      -7.114 -10.159 -41.247  1.00  0.00     0.012 C 
ATOM     38  C   UNL     1      -6.596 -11.375 -43.412  1.00  0.00     0.012 C 
ENDBRANCH   9  36
BRANCH   6  39
ATOM     39  C   UNL     1      -0.456 -10.349 -41.885  1.00  0.00     0.264 C 
ATOM     40  O   UNL     1       0.230  -9.405 -41.410  1.00  0.00    -0.298 OA
ENDBRANCH   6  39
BRANCH   8  41
ATOM     41  O   UNL     1      -4.976  -8.866 -43.101  1.00  0.00    -0.504 OA
ATOM     42  H   UNL     1      -5.171  -7.932 -42.770  1.00  0.00     0.293 HD
ENDBRANCH   8  41
BRANCH   7  43
ATOM     43  O   UNL     1      -2.150  -8.712 -43.360  1.00  0.00    -0.504 OA
ATOM     44  H   UNL     1      -2.027  -7.729 -43.164  1.00  0.00     0.293 HD
ENDBRANCH   7  43
TORSDOF 11
ENDMDL
MODEL 3
REMARK VINA RESULT:    -5.197      3.632      5.845
REMARK INTER + INTRA:          -9.072
REMARK INTER:                  -7.762
REMARK INTRA:                  -1.310
REMARK UNBOUND:                -1.445
REMARK SMILES Cc1cc2c(C(C)C)c(O)c(O)c(C=O)c2c(O)c1-c1c(C)cc2c(C(C)C)c(O)c(O)c(C=O)c2c1O
REMARK SMILES IDX 1 1 2 2 3 3 4 4 16 5 13 6 11 7 9 8 5 9 17 10 19 11 20 12
REMARK SMILES IDX 37 13 21 14 36 15 23 16 22 17 24 18 33 19 25 20 31 21 29 22
REMARK SMILES IDX 38 23 34 25 35 26 26 27 27 28 28 29 32 30 30 32 18 34 6 36
REMARK SMILES IDX 7 37 8 38 14 39 15 40 10 41 12 43
REMARK H PARENT 38 24 32 31 30 33 18 35 10 42 12 44
REMARK Flexibility Score: inf
ROOT
ATOM      1  C   UNL     1      -4.404 -14.278 -37.523  1.00  0.00     0.045 C 
ATOM      2  C   UNL     1      -3.306 -15.168 -38.054  1.00  0.00    -0.039 A 
ATOM      3  C   UNL     1      -3.442 -16.554 -37.958  1.00  0.00     0.013 A 
ATOM      4  C   UNL     1      -2.435 -17.436 -38.410  1.00  0.00    -0.006 A 
ATOM      5  C   UNL     1      -1.277 -16.891 -39.042  1.00  0.00     0.039 A 
ATOM      6  C   UNL     1      -0.269 -17.779 -39.517  1.00  0.00     0.072 A 
ATOM      7  C   UNL     1      -0.507 -19.166 -39.532  1.00  0.00     0.169 A 
ATOM      8  C   UNL     1      -1.695 -19.688 -38.995  1.00  0.00     0.162 A 
ATOM      9  C   UNL     1      -2.583 -18.853 -38.283  1.00  0.00     0.008 A 
ATOM     10  C   UNL     1      -1.186 -15.477 -39.219  1.00  0.00     0.132 A 
ATOM     11  C   UNL     1      -2.183 -14.625 -38.696  1.00  0.00     0.031 A 
ENDROOT
BRANCH  11  12
ATOM     12  C   UNL     1      -2.068 -13.151 -38.855  1.00  0.00     0.031 A 
ATOM     13  C   UNL     1      -1.540 -12.366 -37.808  1.00  0.00     0.132 A 
ATOM     14  C   UNL     1      -2.450 -12.547 -40.063  1.00  0.00    -0.039 A 
ATOM     15  C   UNL     1      -1.476 -10.946 -37.931  1.00  0.00     0.039 A 
ATOM     16  C   UNL     1      -2.294 -11.169 -40.223  1.00  0.00     0.013 A 
ATOM     17  C   UNL     1      -2.947 -13.373 -41.226  1.00  0.00     0.045 C 
ATOM     18  C   UNL     1      -1.850 -10.339 -39.169  1.00  0.00    -0.006 A 
ATOM     19  C   UNL     1      -1.004 -10.115 -36.873  1.00  0.00     0.072 A 
ATOM     20  C   UNL     1      -1.728  -8.926 -39.341  1.00  0.00     0.008 A 
ATOM     21  C   UNL     1      -0.740  -8.755 -37.112  1.00  0.00     0.169 A 
ATOM     22  C   UNL     1      -1.021  -8.187 -38.368  1.00  0.00     0.162 A 
BRANCH  13  23
ATOM     23  O   UNL     1      -1.038 -13.000 -36.666  1.00  0.00    -0.507 OA
ATOM     24  H   UNL     1      -0.099 -13.372 -36.592  1.00  0.00     0.293 HD
ENDBRANCH  13  23
BRANCH  19  25
ATOM     25  C   UNL     1      -0.866 -10.613 -35.482  1.00  0.00     0.264 C 
ATOM     26  O   UNL     1       0.266 -10.733 -34.941  1.00  0.00    -0.298 OA
ENDBRANCH  19  25
BRANCH  20  27
ATOM     27  C   UNL     1      -2.300  -8.207 -40.576  1.00  0.00     0.017 C 
ATOM     28  C   UNL     1      -3.832  -8.192 -40.542  1.00  0.00     0.012 C 
ATOM     29  C   UNL     1      -1.776  -8.757 -41.916  1.00  0.00     0.012 C 
ENDBRANCH  20  27
BRANCH  21  30
ATOM     30  O   UNL     1      -0.241  -7.970 -36.066  1.00  0.00    -0.504 OA
ATOM     31  H   UNL     1       0.439  -8.292 -35.391  1.00  0.00     0.293 HD
ENDBRANCH  21  30
BRANCH  22  32
ATOM     32  O   UNL     1      -0.597  -6.890 -38.672  1.00  0.00    -0.504 OA
ATOM     33  H   UNL     1       0.156  -6.675 -39.311  1.00  0.00     0.293 HD
ENDBRANCH  22  32
ENDBRANCH  11  12
BRANCH  10  34
ATOM     34  O   UNL     1      -0.130 -14.922 -39.951  1.00  0.00    -0.507 OA
ATOM     35  H   UNL     1      -0.021 -15.021 -40.952  1.00  0.00     0.293 HD
ENDBRANCH  10  34
BRANCH   9  36
ATOM     36  C   UNL     1      -3.708 -19.479 -37.439  1.00  0.00     0.017 C 
ATOM     37  C   UNL     1      -4.815 -20.044 -38.334  1.00  0.00     0.012 C 
ATOM     38  C   UNL     1      -3.215 -20.531 -36.427  1.00  0.00     0.012 C 
ENDBRANCH   9  36
BRANCH   6  39
ATOM     39  C   UNL     1       1.076 -17.302 -39.921  1.00  0.00     0.264 C 
ATOM     40  O   UNL     1       1.414 -17.254 -41.133  1.00  0.00    -0.298 OA
ENDBRANCH   6  39
BRANCH   8  41
ATOM     41  O   UNL     1      -2.020 -21.037 -39.167  1.00  0.00    -0.504 OA
ATOM     42  H   UNL     1      -2.003 -21.514 -40.058  1.00  0.00     0.293 HD
ENDBRANCH   8  41
BRANCH   7  43
ATOM     43  O   UNL     1       0.484 -20.015 -40.040  1.00  0.00    -0.504 OA
ATOM     44  H   UNL     1       0.370 -21.012 -40.157  1.00  0.00     0.293 HD
ENDBRANCH   7  43
TORSDOF 11
ENDMDL
MODEL 4
REMARK VINA RESULT:    -5.075      1.757      9.056
REMARK INTER + INTRA:          -8.893
REMARK INTER:                  -7.465
REMARK INTRA:                  -1.428
REMARK UNBOUND:                -1.445
REMARK SMILES Cc1cc2c(C(C)C)c(O)c(O)c(C=O)c2c(O)c1-c1c(C)cc2c(C(C)C)c(O)c(O)c(C=O)c2c1O
REMARK SMILES IDX 1 1 2 2 3 3 4 4 16 5 13 6 11 7 9 8 5 9 17 10 19 11 20 12
REMARK SMILES IDX 37 13 21 14 36 15 23 16 22 17 24 18 33 19 25 20 31 21 29 22
REMARK SMILES IDX 38 23 34 25 35 26 26 27 27 28 28 29 32 30 30 32 18 34 6 36
REMARK SMILES IDX 7 37 8 38 14 39 15 40 10 41 12 43
REMARK H PARENT 38 24 32 31 30 33 18 35 10 42 12 44
REMARK Flexibility Score: inf
ROOT
ATOM      1  C   UNL     1      -3.784 -13.940 -38.489  1.00  0.00     0.045 C 
ATOM      2  C   UNL     1      -2.721 -13.260 -39.319  1.00  0.00    -0.039 A 
ATOM      3  C   UNL     1      -3.079 -12.202 -40.155  1.00  0.00     0.013 A 
ATOM      4  C   UNL     1      -2.134 -11.546 -40.976  1.00  0.00    -0.006 A 
ATOM      5  C   UNL     1      -0.764 -11.940 -40.896  1.00  0.00     0.039 A 
ATOM      6  C   UNL     1       0.194 -11.268 -41.709  1.00  0.00     0.072 A 
ATOM      7  C   UNL     1      -0.179 -10.117 -42.427  1.00  0.00     0.169 A 
ATOM      8  C   UNL     1      -1.514  -9.679 -42.421  1.00  0.00     0.162 A 
ATOM      9  C   UNL     1      -2.524 -10.478 -41.842  1.00  0.00     0.008 A 
ATOM     10  C   UNL     1      -0.391 -12.963 -39.972  1.00  0.00     0.132 A 
ATOM     11  C   UNL     1      -1.374 -13.637 -39.215  1.00  0.00     0.031 A 
ENDROOT
BRANCH  11  12
ATOM     12  C   UNL     1      -0.983 -14.723 -38.278  1.00  0.00     0.031 A 
ATOM     13  C   UNL     1      -0.625 -14.415 -36.948  1.00  0.00     0.132 A 
ATOM     14  C   UNL     1      -1.008 -16.059 -38.708  1.00  0.00    -0.039 A 
ATOM     15  C   UNL     1      -0.198 -15.444 -36.057  1.00  0.00     0.039 A 
ATOM     16  C   UNL     1      -0.686 -17.077 -37.809  1.00  0.00     0.013 A 
ATOM     17  C   UNL     1      -1.459 -16.422 -40.103  1.00  0.00     0.045 C 
ATOM     18  C   UNL     1      -0.242 -16.803 -36.496  1.00  0.00    -0.006 A 
ATOM     19  C   UNL     1       0.227 -15.165 -34.726  1.00  0.00     0.072 A 
ATOM     20  C   UNL     1       0.115 -17.858 -35.600  1.00  0.00     0.008 A 
ATOM     21  C   UNL     1       0.418 -16.218 -33.814  1.00  0.00     0.169 A 
ATOM     22  C   UNL     1       0.277 -17.553 -34.231  1.00  0.00     0.162 A 
BRANCH  13  23
ATOM     23  O   UNL     1      -0.740 -13.094 -36.500  1.00  0.00    -0.507 OA
ATOM     24  H   UNL     1      -1.555 -12.514 -36.652  1.00  0.00     0.293 HD
ENDBRANCH  13  23
BRANCH  19  25
ATOM     25  C   UNL     1       0.572 -13.792 -34.281  1.00  0.00     0.264 C 
ATOM     26  O   UNL     1      -0.184 -13.149 -33.504  1.00  0.00    -0.298 OA
ENDBRANCH  19  25
BRANCH  20  27
ATOM     27  C   UNL     1       0.274 -19.311 -36.081  1.00  0.00     0.017 C 
ATOM     28  C   UNL     1      -0.925 -20.165 -35.653  1.00  0.00     0.012 C 
ATOM     29  C   UNL     1       1.604 -19.965 -35.660  1.00  0.00     0.012 C 
ENDBRANCH  20  27
BRANCH  21  30
ATOM     30  O   UNL     1       0.798 -15.913 -32.501  1.00  0.00    -0.504 OA
ATOM     31  H   UNL     1       1.543 -15.274 -32.261  1.00  0.00     0.293 HD
ENDBRANCH  21  30
BRANCH  22  32
ATOM     32  O   UNL     1       0.286 -18.594 -33.298  1.00  0.00    -0.504 OA
ATOM     33  H   UNL     1       0.368 -18.460 -32.300  1.00  0.00     0.293 HD
ENDBRANCH  22  32
ENDBRANCH  11  12
BRANCH  10  34
ATOM     34  O   UNL     1       0.958 -13.278 -39.774  1.00  0.00    -0.507 OA
ATOM     35  H   UNL     1       1.612 -12.686 -39.279  1.00  0.00     0.293 HD
ENDBRANCH  10  34
BRANCH   9  36
ATOM     36  C   UNL     1      -4.003 -10.150 -42.112  1.00  0.00     0.017 C 
ATOM     37  C   UNL     1      -4.714 -11.331 -42.780  1.00  0.00     0.012 C 
ATOM     38  C   UNL     1      -4.771  -9.666 -40.868  1.00  0.00     0.012 C 
ENDBRANCH   9  36
BRANCH   6  39
ATOM     39  C   UNL     1       1.569 -11.791 -41.903  1.00  0.00     0.264 C 
ATOM     40  O   UNL     1       2.576 -11.131 -41.531  1.00  0.00    -0.298 OA
ENDBRANCH   6  39
BRANCH   8  41
ATOM     41  O   UNL     1      -1.858  -8.444 -42.977  1.00  0.00    -0.504 OA
ATOM     42  H   UNL     1      -1.847  -8.245 -43.968  1.00  0.00     0.293 HD
ENDBRANCH   8  41
BRANCH   7  43
ATOM     43  O   UNL     1       0.791  -9.451 -43.186  1.00  0.00    -0.504 OA
ATOM     44  H   UNL     1       0.617  -8.606 -43.711  1.00  0.00     0.293 HD
ENDBRANCH   7  43
TORSDOF 11
ENDMDL
MODEL 5
REMARK VINA RESULT:    -5.008      1.734      9.337
REMARK INTER + INTRA:          -8.795
REMARK INTER:                  -7.464
REMARK INTRA:                  -1.331
REMARK UNBOUND:                -1.445
REMARK SMILES Cc1cc2c(C(C)C)c(O)c(O)c(C=O)c2c(O)c1-c1c(C)cc2c(C(C)C)c(O)c(O)c(C=O)c2c1O
REMARK SMILES IDX 1 1 2 2 3 3 4 4 16 5 13 6 11 7 9 8 5 9 17 10 19 11 20 12
REMARK SMILES IDX 37 13 21 14 36 15 23 16 22 17 24 18 33 19 25 20 31 21 29 22
REMARK SMILES IDX 38 23 34 25 35 26 26 27 27 28 28 29 32 30 30 32 18 34 6 36
REMARK SMILES IDX 7 37 8 38 14 39 15 40 10 41 12 43
REMARK H PARENT 38 24 32 31 30 33 18 35 10 42 12 44
REMARK Flexibility Score: inf
ROOT
ATOM      1  C   UNL     1      -3.059 -15.582 -37.822  1.00  0.00     0.045 C 
ATOM      2  C   UNL     1      -2.547 -14.508 -38.751  1.00  0.00    -0.039 A 
ATOM      3  C   UNL     1      -3.458 -13.678 -39.405  1.00  0.00     0.013 A 
ATOM      4  C   UNL     1      -3.041 -12.675 -40.309  1.00  0.00    -0.006 A 
ATOM      5  C   UNL     1      -1.642 -12.467 -40.505  1.00  0.00     0.039 A 
ATOM      6  C   UNL     1      -1.217 -11.443 -41.400  1.00  0.00     0.072 A 
ATOM      7  C   UNL     1      -2.156 -10.538 -41.927  1.00  0.00     0.169 A 
ATOM      8  C   UNL     1      -3.525 -10.693 -41.649  1.00  0.00     0.162 A 
ATOM      9  C   UNL     1      -3.991 -11.849 -40.986  1.00  0.00     0.008 A 
ATOM     10  C   UNL     1      -0.713 -13.259 -39.764  1.00  0.00     0.132 A 
ATOM     11  C   UNL     1      -1.170 -14.294 -38.919  1.00  0.00     0.031 A 
ENDROOT
BRANCH  11  12
ATOM     12  C   UNL     1      -0.198 -15.137 -38.174  1.00  0.00     0.031 A 
ATOM     13  C   UNL     1       0.212 -14.764 -36.876  1.00  0.00     0.132 A 
ATOM     14  C   UNL     1       0.281 -16.324 -38.749  1.00  0.00    -0.039 A 
ATOM     15  C   UNL     1       1.184 -15.538 -36.175  1.00  0.00     0.039 A 
ATOM     16  C   UNL     1       1.156 -17.135 -38.024  1.00  0.00     0.013 A 
ATOM     17  C   UNL     1      -0.200 -16.784 -40.105  1.00  0.00     0.045 C 
ATOM     18  C   UNL     1       1.655 -16.754 -36.759  1.00  0.00    -0.006 A 
ATOM     19  C   UNL     1       1.667 -15.161 -34.888  1.00  0.00     0.072 A 
ATOM     20  C   UNL     1       2.576 -17.582 -36.047  1.00  0.00     0.008 A 
ATOM     21  C   UNL     1       2.443 -16.062 -34.137  1.00  0.00     0.169 A 
ATOM     22  C   UNL     1       2.821 -17.301 -34.684  1.00  0.00     0.162 A 
BRANCH  13  23
ATOM     23  O   UNL     1      -0.381 -13.653 -36.266  1.00  0.00    -0.507 OA
ATOM     24  H   UNL     1       0.083 -13.069 -35.582  1.00  0.00     0.293 HD
ENDBRANCH  13  23
BRANCH  19  25
ATOM     25  C   UNL     1       1.458 -13.800 -34.335  1.00  0.00     0.264 C 
ATOM     26  O   UNL     1       0.725 -13.610 -33.328  1.00  0.00    -0.298 OA
ENDBRANCH  19  25
BRANCH  20  27
ATOM     27  C   UNL     1       3.261 -18.791 -36.709  1.00  0.00     0.017 C 
ATOM     28  C   UNL     1       2.665 -20.107 -36.198  1.00  0.00     0.012 C 
ATOM     29  C   UNL     1       4.796 -18.785 -36.582  1.00  0.00     0.012 C 
ENDBRANCH  20  27
BRANCH  21  30
ATOM     30  O   UNL     1       2.872 -15.682 -32.860  1.00  0.00    -0.504 OA
ATOM     31  H   UNL     1       3.562 -16.185 -32.320  1.00  0.00     0.293 HD
ENDBRANCH  21  30
BRANCH  22  32
ATOM     32  O   UNL     1       3.435 -18.272 -33.888  1.00  0.00    -0.504 OA
ATOM     33  H   UNL     1       4.431 -18.441 -33.866  1.00  0.00     0.293 HD
ENDBRANCH  22  32
ENDBRANCH  11  12
BRANCH  10  34
ATOM     34  O   UNL     1       0.658 -12.991 -39.833  1.00  0.00    -0.507 OA
ATOM     35  H   UNL     1       1.048 -12.087 -40.068  1.00  0.00     0.293 HD
ENDBRANCH  10  34
BRANCH   9  36
ATOM     36  C   UNL     1      -5.498 -12.159 -40.964  1.00  0.00     0.017 C 
ATOM     37  C   UNL     1      -6.235 -11.234 -39.990  1.00  0.00     0.012 C 
ATOM     38  C   UNL     1      -6.157 -12.144 -42.356  1.00  0.00     0.012 C 
ENDBRANCH   9  36
BRANCH   6  39
ATOM     39  C   UNL     1       0.184 -11.345 -41.879  1.00  0.00     0.264 C 
ATOM     40  O   UNL     1       0.463 -11.434 -43.104  1.00  0.00    -0.298 OA
ENDBRANCH   6  39
BRANCH   8  41
ATOM     41  O   UNL     1      -4.440  -9.702 -42.014  1.00  0.00    -0.504 OA
ATOM     42  H   UNL     1      -4.254  -8.983 -42.700  1.00  0.00     0.293 HD
ENDBRANCH   8  41
BRANCH   7  43
ATOM     43  O   UNL     1      -1.708  -9.516 -42.773  1.00  0.00    -0.504 OA
ATOM     44  H   UNL     1      -1.142  -8.737 -42.469  1.00  0.00     0.293 HD
ENDBRANCH   7  43
TORSDOF 11
ENDMDL
MODEL 6
REMARK VINA RESULT:    -4.998      1.684      2.301
REMARK INTER + INTRA:          -8.780
REMARK INTER:                  -7.279
REMARK INTRA:                  -1.501
REMARK UNBOUND:                -1.445
REMARK SMILES Cc1cc2c(C(C)C)c(O)c(O)c(C=O)c2c(O)c1-c1c(C)cc2c(C(C)C)c(O)c(O)c(C=O)c2c1O
REMARK SMILES IDX 1 1 2 2 3 3 4 4 16 5 13 6 11 7 9 8 5 9 17 10 19 11 20 12
REMARK SMILES IDX 37 13 21 14 36 15 23 16 22 17 24 18 33 19 25 20 31 21 29 22
REMARK SMILES IDX 38 23 34 25 35 26 26 27 27 28 28 29 32 30 30 32 18 34 6 36
REMARK SMILES IDX 7 37 8 38 14 39 15 40 10 41 12 43
REMARK H PARENT 38 24 32 31 30 33 18 35 10 42 12 44
REMARK Flexibility Score: inf
ROOT
ATOM      1  C   UNL     1      -1.878 -15.755 -40.001  1.00  0.00     0.045 C 
ATOM      2  C   UNL     1      -1.427 -15.523 -38.578  1.00  0.00    -0.039 A 
ATOM      3  C   UNL     1      -1.033 -16.613 -37.800  1.00  0.00     0.013 A 
ATOM      4  C   UNL     1      -0.629 -16.462 -36.455  1.00  0.00    -0.006 A 
ATOM      5  C   UNL     1      -0.562 -15.148 -35.900  1.00  0.00     0.039 A 
ATOM      6  C   UNL     1      -0.136 -14.991 -34.549  1.00  0.00     0.072 A 
ATOM      7  C   UNL     1       0.388 -16.092 -33.847  1.00  0.00     0.169 A 
ATOM      8  C   UNL     1       0.408 -17.367 -34.437  1.00  0.00     0.162 A 
ATOM      9  C   UNL     1      -0.250 -17.593 -35.666  1.00  0.00     0.008 A 
ATOM     10  C   UNL     1      -0.879 -14.030 -36.730  1.00  0.00     0.132 A 
ATOM     11  C   UNL     1      -1.340 -14.226 -38.050  1.00  0.00     0.031 A 
ENDROOT
BRANCH  11  12
ATOM     12  C   UNL     1      -1.700 -13.060 -38.899  1.00  0.00     0.031 A 
ATOM     13  C   UNL     1      -0.742 -12.496 -39.768  1.00  0.00     0.132 A 
ATOM     14  C   UNL     1      -3.005 -12.546 -38.863  1.00  0.00    -0.039 A 
ATOM     15  C   UNL     1      -1.062 -11.344 -40.547  1.00  0.00     0.039 A 
ATOM     16  C   UNL     1      -3.349 -11.482 -39.698  1.00  0.00     0.013 A 
ATOM     17  C   UNL     1      -4.069 -13.178 -37.997  1.00  0.00     0.045 C 
ATOM     18  C   UNL     1      -2.396 -10.837 -40.518  1.00  0.00    -0.006 A 
ATOM     19  C   UNL     1      -0.103 -10.712 -41.392  1.00  0.00     0.072 A 
ATOM     20  C   UNL     1      -2.760  -9.727 -41.342  1.00  0.00     0.008 A 
ATOM     21  C   UNL     1      -0.516  -9.730 -42.310  1.00  0.00     0.169 A 
ATOM     22  C   UNL     1      -1.856  -9.305 -42.341  1.00  0.00     0.162 A 
BRANCH  13  23
ATOM     23  O   UNL     1       0.511 -13.108 -39.892  1.00  0.00    -0.507 OA
ATOM     24  H   UNL     1       0.643 -14.096 -40.067  1.00  0.00     0.293 HD
ENDBRANCH  13  23
BRANCH  19  25
ATOM     25  C   UNL     1       1.351 -10.984 -41.276  1.00  0.00     0.264 C 
ATOM     26  O   UNL     1       1.959 -11.662 -42.146  1.00  0.00    -0.298 OA
ENDBRANCH  19  25
BRANCH  20  27
ATOM     27  C   UNL     1      -4.121  -9.023 -41.200  1.00  0.00     0.017 C 
ATOM     28  C   UNL     1      -5.059  -9.404 -42.351  1.00  0.00     0.012 C 
ATOM     29  C   UNL     1      -4.019  -7.493 -41.046  1.00  0.00     0.012 C 
ENDBRANCH  20  27
BRANCH  21  30
ATOM     30  O   UNL     1       0.440  -9.152 -43.155  1.00  0.00    -0.504 OA
ATOM     31  H   UNL     1       0.714  -8.180 -43.118  1.00  0.00     0.293 HD
ENDBRANCH  21  30
BRANCH  22  32
ATOM     32  O   UNL     1      -2.312  -8.468 -43.363  1.00  0.00    -0.504 OA
ATOM     33  H   UNL     1      -2.999  -8.739 -44.053  1.00  0.00     0.293 HD
ENDBRANCH  22  32
ENDBRANCH  11  12
BRANCH  10  34
ATOM     34  O   UNL     1      -0.696 -12.725 -36.259  1.00  0.00    -0.507 OA
ATOM     35  H   UNL     1      -0.975 -11.896 -36.765  1.00  0.00     0.293 HD
ENDBRANCH  10  34
BRANCH   9  36
ATOM     36  C   UNL     1      -0.492 -19.035 -36.146  1.00  0.00     0.017 C 
ATOM     37  C   UNL     1       0.818 -19.692 -36.594  1.00  0.00     0.012 C 
ATOM     38  C   UNL     1      -1.237 -19.915 -35.125  1.00  0.00     0.012 C 
ENDBRANCH   9  36
BRANCH   6  39
ATOM     39  C   UNL     1      -0.307 -13.715 -33.812  1.00  0.00     0.264 C 
ATOM     40  O   UNL     1       0.682 -12.987 -33.531  1.00  0.00    -0.298 OA
ENDBRANCH   6  39
BRANCH   8  41
ATOM     41  O   UNL     1       1.087 -18.423 -33.824  1.00  0.00    -0.504 OA
ATOM     42  H   UNL     1       2.044 -18.371 -33.503  1.00  0.00     0.293 HD
ENDBRANCH   8  41
BRANCH   7  43
ATOM     43  O   UNL     1       0.836 -15.903 -32.534  1.00  0.00    -0.504 OA
ATOM     44  H   UNL     1       0.353 -16.244 -31.716  1.00  0.00     0.293 HD
ENDBRANCH   7  43
TORSDOF 11
ENDMDL
MODEL 7
REMARK VINA RESULT:    -4.994      1.760      2.476
REMARK INTER + INTRA:          -8.775
REMARK INTER:                  -7.265
REMARK INTRA:                  -1.510
REMARK UNBOUND:                -1.445
REMARK SMILES Cc1cc2c(C(C)C)c(O)c(O)c(C=O)c2c(O)c1-c1c(C)cc2c(C(C)C)c(O)c(O)c(C=O)c2c1O
REMARK SMILES IDX 1 1 2 2 3 3 4 4 16 5 13 6 11 7 9 8 5 9 17 10 19 11 20 12
REMARK SMILES IDX 37 13 21 14 36 15 23 16 22 17 24 18 33 19 25 20 31 21 29 22
REMARK SMILES IDX 38 23 34 25 35 26 26 27 27 28 28 29 32 30 30 32 18 34 6 36
REMARK SMILES IDX 7 37 8 38 14 39 15 40 10 41 12 43
REMARK H PARENT 38 24 32 31 30 33 18 35 10 42 12 44
REMARK Flexibility Score: inf
ROOT
ATOM      1  C   UNL     1      -0.126 -16.744 -40.031  1.00  0.00     0.045 C 
ATOM      2  C   UNL     1       0.308 -16.386 -38.630  1.00  0.00    -0.039 A 
ATOM      3  C   UNL     1       1.241 -17.193 -37.976  1.00  0.00     0.013 A 
ATOM      4  C   UNL     1       1.663 -16.925 -36.654  1.00  0.00    -0.006 A 
ATOM      5  C   UNL     1       1.168 -15.758 -35.998  1.00  0.00     0.039 A 
ATOM      6  C   UNL     1       1.608 -15.475 -34.672  1.00  0.00     0.072 A 
ATOM      7  C   UNL     1       2.651 -16.228 -34.103  1.00  0.00     0.169 A 
ATOM      8  C   UNL     1       3.201 -17.317 -34.799  1.00  0.00     0.162 A 
ATOM      9  C   UNL     1       2.603 -17.776 -35.993  1.00  0.00     0.008 A 
ATOM     10  C   UNL     1       0.285 -14.888 -36.705  1.00  0.00     0.132 A 
ATOM     11  C   UNL     1      -0.164 -15.224 -38.002  1.00  0.00     0.031 A 
ENDROOT
BRANCH  11  12
ATOM     12  C   UNL     1      -1.110 -14.330 -38.722  1.00  0.00     0.031 A 
ATOM     13  C   UNL     1      -0.618 -13.340 -39.598  1.00  0.00     0.132 A 
ATOM     14  C   UNL     1      -2.493 -14.499 -38.557  1.00  0.00    -0.039 A 
ATOM     15  C   UNL     1      -1.514 -12.444 -40.253  1.00  0.00     0.039 A 
ATOM     16  C   UNL     1      -3.375 -13.688 -39.273  1.00  0.00     0.013 A 
ATOM     17  C   UNL     1      -3.047 -15.599 -37.683  1.00  0.00     0.045 C 
ATOM     18  C   UNL     1      -2.921 -12.631 -40.094  1.00  0.00    -0.006 A 
ATOM     19  C   UNL     1      -1.052 -11.394 -41.099  1.00  0.00     0.072 A 
ATOM     20  C   UNL     1      -3.841 -11.791 -40.794  1.00  0.00     0.008 A 
ATOM     21  C   UNL     1      -1.964 -10.684 -41.901  1.00  0.00     0.169 A 
ATOM     22  C   UNL     1      -3.343 -10.945 -41.809  1.00  0.00     0.162 A 
BRANCH  13  23
ATOM     23  O   UNL     1       0.757 -13.278 -39.855  1.00  0.00    -0.507 OA
ATOM     24  H   UNL     1       1.205 -13.722 -40.646  1.00  0.00     0.293 HD
ENDBRANCH  13  23
BRANCH  19  25
ATOM     25  C   UNL     1       0.364 -10.949 -41.101  1.00  0.00     0.264 C 
ATOM     26  O   UNL     1       1.126 -11.202 -42.071  1.00  0.00    -0.298 OA
ENDBRANCH  19  25
BRANCH  20  27
ATOM     27  C   UNL     1      -5.352 -11.824 -40.505  1.00  0.00     0.017 C 
ATOM     28  C   UNL     1      -6.119 -12.469 -41.665  1.00  0.00     0.012 C 
ATOM     29  C   UNL     1      -5.947 -10.452 -40.136  1.00  0.00     0.012 C 
ENDBRANCH  20  27
BRANCH  21  30
ATOM     30  O   UNL     1      -1.478  -9.684 -42.752  1.00  0.00    -0.504 OA
ATOM     31  H   UNL     1      -0.510  -9.598 -43.030  1.00  0.00     0.293 HD
ENDBRANCH  21  30
BRANCH  22  32
ATOM     32  O   UNL     1      -4.235 -10.379 -42.723  1.00  0.00    -0.504 OA
ATOM     33  H   UNL     1      -4.018 -10.206 -43.695  1.00  0.00     0.293 HD
ENDBRANCH  22  32
ENDBRANCH  11  12
BRANCH  10  34
ATOM     34  O   UNL     1      -0.113 -13.671 -36.140  1.00  0.00    -0.507 OA
ATOM     35  H   UNL     1      -0.693 -12.990 -36.612  1.00  0.00     0.293 HD
ENDBRANCH  10  34
BRANCH   9  36
ATOM     36  C   UNL     1       3.012 -19.141 -36.574  1.00  0.00     0.017 C 
ATOM     37  C   UNL     1       4.409 -19.076 -37.198  1.00  0.00     0.012 C 
ATOM     38  C   UNL     1       2.901 -20.304 -35.570  1.00  0.00     0.012 C 
ENDBRANCH   9  36
BRANCH   6  39
ATOM     39  C   UNL     1       0.940 -14.461 -33.819  1.00  0.00     0.264 C 
ATOM     40  O   UNL     1       1.493 -13.359 -33.561  1.00  0.00    -0.298 OA
ENDBRANCH   6  39
BRANCH   8  41
ATOM     41  O   UNL     1       4.352 -17.954 -34.326  1.00  0.00    -0.504 OA
ATOM     42  H   UNL     1       5.168 -18.144 -34.893  1.00  0.00     0.293 HD
ENDBRANCH   8  41
BRANCH   7  43
ATOM     43  O   UNL     1       3.092 -15.904 -32.814  1.00  0.00    -0.504 OA
ATOM     44  H   UNL     1       2.575 -15.325 -32.168  1.00  0.00     0.293 HD
ENDBRANCH   7  43
TORSDOF 11
ENDMDL
MODEL 8
REMARK VINA RESULT:    -4.991      1.870      9.061
REMARK INTER + INTRA:          -8.769
REMARK INTER:                  -7.303
REMARK INTRA:                  -1.466
REMARK UNBOUND:                -1.445
REMARK SMILES Cc1cc2c(C(C)C)c(O)c(O)c(C=O)c2c(O)c1-c1c(C)cc2c(C(C)C)c(O)c(O)c(C=O)c2c1O
REMARK SMILES IDX 1 1 2 2 3 3 4 4 16 5 13 6 11 7 9 8 5 9 17 10 19 11 20 12
REMARK SMILES IDX 37 13 21 14 36 15 23 16 22 17 24 18 33 19 25 20 31 21 29 22
REMARK SMILES IDX 38 23 34 25 35 26 26 27 27 28 28 29 32 30 30 32 18 34 6 36
REMARK SMILES IDX 7 37 8 38 14 39 15 40 10 41 12 43
REMARK H PARENT 38 24 32 31 30 33 18 35 10 42 12 44
REMARK Flexibility Score: inf
ROOT
ATOM      1  C   UNL     1      -0.590 -11.265 -39.601  1.00  0.00     0.045 C 
ATOM      2  C   UNL     1      -2.094 -11.363 -39.509  1.00  0.00    -0.039 A 
ATOM      3  C   UNL     1      -2.883 -10.656 -40.418  1.00  0.00     0.013 A 
ATOM      4  C   UNL     1      -4.294 -10.685 -40.362  1.00  0.00    -0.006 A 
ATOM      5  C   UNL     1      -4.926 -11.515 -39.388  1.00  0.00     0.039 A 
ATOM      6  C   UNL     1      -6.350 -11.562 -39.342  1.00  0.00     0.072 A 
ATOM      7  C   UNL     1      -7.105 -10.952 -40.361  1.00  0.00     0.169 A 
ATOM      8  C   UNL     1      -6.467 -10.217 -41.374  1.00  0.00     0.162 A 
ATOM      9  C   UNL     1      -5.085  -9.937 -41.289  1.00  0.00     0.008 A 
ATOM     10  C   UNL     1      -4.114 -12.306 -38.520  1.00  0.00     0.132 A 
ATOM     11  C   UNL     1      -2.706 -12.200 -38.564  1.00  0.00     0.031 A 
ENDROOT
BRANCH  11  12
ATOM     12  C   UNL     1      -1.865 -13.002 -37.636  1.00  0.00     0.031 A 
ATOM     13  C   UNL     1      -1.521 -12.486 -36.369  1.00  0.00     0.132 A 
ATOM     14  C   UNL     1      -1.446 -14.289 -38.010  1.00  0.00    -0.039 A 
ATOM     15  C   UNL     1      -0.671 -13.226 -35.494  1.00  0.00     0.039 A 
ATOM     16  C   UNL     1      -0.697 -15.055 -37.115  1.00  0.00     0.013 A 
ATOM     17  C   UNL     1      -1.863 -14.893 -39.330  1.00  0.00     0.045 C 
ATOM     18  C   UNL     1      -0.262 -14.541 -35.873  1.00  0.00    -0.006 A 
ATOM     19  C   UNL     1      -0.254 -12.713 -34.231  1.00  0.00     0.072 A 
ATOM     20  C   UNL     1       0.532 -15.329 -34.984  1.00  0.00     0.008 A 
ATOM     21  C   UNL     1       0.388 -13.557 -33.307  1.00  0.00     0.169 A 
ATOM     22  C   UNL     1       0.700 -14.884 -33.654  1.00  0.00     0.162 A 
BRANCH  13  23
ATOM     23  O   UNL     1      -2.062 -11.262 -35.961  1.00  0.00    -0.507 OA
ATOM     24  H   UNL     1      -1.536 -10.399 -35.912  1.00  0.00     0.293 HD
ENDBRANCH  13  23
BRANCH  19  25
ATOM     25  C   UNL     1      -0.388 -11.277 -33.881  1.00  0.00     0.264 C 
ATOM     26  O   UNL     1      -1.197 -10.896 -32.993  1.00  0.00    -0.298 OA
ENDBRANCH  19  25
BRANCH  20  27
ATOM     27  C   UNL     1       1.160 -16.664 -35.424  1.00  0.00     0.017 C 
ATOM     28  C   UNL     1       0.386 -17.852 -34.843  1.00  0.00     0.012 C 
ATOM     29  C   UNL     1       2.666 -16.775 -35.119  1.00  0.00     0.012 C 
ENDBRANCH  20  27
BRANCH  21  30
ATOM     30  O   UNL     1       0.752 -13.038 -32.059  1.00  0.00    -0.504 OA
ATOM     31  H   UNL     1       0.141 -12.482 -31.477  1.00  0.00     0.293 HD
ENDBRANCH  21  30
BRANCH  22  32
ATOM     32  O   UNL     1       1.170 -15.779 -32.690  1.00  0.00    -0.504 OA
ATOM     33  H   UNL     1       2.128 -15.815 -32.369  1.00  0.00     0.293 HD
ENDBRANCH  22  32
ENDBRANCH  11  12
BRANCH  10  34
ATOM     34  O   UNL     1      -4.701 -13.227 -37.646  1.00  0.00    -0.507 OA
ATOM     35  H   UNL     1      -5.305 -12.972 -36.875  1.00  0.00     0.293 HD
ENDBRANCH  10  34
BRANCH   9  36
ATOM     36  C   UNL     1      -4.463  -8.882 -42.221  1.00  0.00     0.017 C 
ATOM     37  C   UNL     1      -3.908  -7.700 -41.420  1.00  0.00     0.012 C 
ATOM     38  C   UNL     1      -3.404  -9.450 -43.185  1.00  0.00     0.012 C 
ENDBRANCH   9  36
BRANCH   6  39
ATOM     39  C   UNL     1      -7.084 -12.160 -38.200  1.00  0.00     0.264 C 
ATOM     40  O   UNL     1      -7.687 -13.259 -38.316  1.00  0.00    -0.298 OA
ENDBRANCH   6  39
BRANCH   8  41
ATOM     41  O   UNL     1      -7.185  -9.764 -42.484  1.00  0.00    -0.504 OA
ATOM     42  H   UNL     1      -6.767  -9.303 -43.280  1.00  0.00     0.293 HD
ENDBRANCH   8  41
BRANCH   7  43
ATOM     43  O   UNL     1      -8.501 -11.046 -40.315  1.00  0.00    -0.504 OA
ATOM     44  H   UNL     1      -9.004 -11.737 -39.778  1.00  0.00     0.293 HD
ENDBRANCH   7  43
TORSDOF 11
ENDMDL
MODEL 9
REMARK VINA RESULT:    -4.960      1.916      3.365
REMARK INTER + INTRA:          -8.725
REMARK INTER:                  -7.239
REMARK INTRA:                  -1.486
REMARK UNBOUND:                -1.445
REMARK SMILES Cc1cc2c(C(C)C)c(O)c(O)c(C=O)c2c(O)c1-c1c(C)cc2c(C(C)C)c(O)c(O)c(C=O)c2c1O
REMARK SMILES IDX 1 1 2 2 3 3 4 4 16 5 13 6 11 7 9 8 5 9 17 10 19 11 20 12
REMARK SMILES IDX 37 13 21 14 36 15 23 16 22 17 24 18 33 19 25 20 31 21 29 22
REMARK SMILES IDX 38 23 34 25 35 26 26 27 27 28 28 29 32 30 30 32 18 34 6 36
REMARK SMILES IDX 7 37 8 38 14 39 15 40 10 41 12 43
REMARK H PARENT 38 24 32 31 30 33 18 35 10 42 12 44
REMARK Flexibility Score: inf
ROOT
ATOM      1  C   UNL     1      -1.617 -15.793 -39.154  1.00  0.00     0.045 C 
ATOM      2  C   UNL     1      -1.316 -15.056 -37.871  1.00  0.00    -0.039 A 
ATOM      3  C   UNL     1      -0.409 -15.607 -36.963  1.00  0.00     0.013 A 
ATOM      4  C   UNL     1      -0.109 -14.979 -35.734  1.00  0.00    -0.006 A 
ATOM      5  C   UNL     1      -0.704 -13.713 -35.445  1.00  0.00     0.039 A 
ATOM      6  C   UNL     1      -0.388 -13.068 -34.214  1.00  0.00     0.072 A 
ATOM      7  C   UNL     1       0.634 -13.582 -33.395  1.00  0.00     0.169 A 
ATOM      8  C   UNL     1       1.284 -14.780 -33.738  1.00  0.00     0.162 A 
ATOM      9  C   UNL     1       0.806 -15.569 -34.807  1.00  0.00     0.008 A 
ATOM     10  C   UNL     1      -1.560 -13.113 -36.417  1.00  0.00     0.132 A 
ATOM     11  C   UNL     1      -1.885 -13.802 -37.607  1.00  0.00     0.031 A 
ENDROOT
BRANCH  11  12
ATOM     12  C   UNL     1      -2.802 -13.186 -38.602  1.00  0.00     0.031 A 
ATOM     13  C   UNL     1      -4.198 -13.339 -38.467  1.00  0.00     0.132 A 
ATOM     14  C   UNL     1      -2.278 -12.421 -39.656  1.00  0.00    -0.039 A 
ATOM     15  C   UNL     1      -5.084 -12.797 -39.446  1.00  0.00     0.039 A 
ATOM     16  C   UNL     1      -3.147 -11.806 -40.558  1.00  0.00     0.013 A 
ATOM     17  C   UNL     1      -0.792 -12.180 -39.780  1.00  0.00     0.045 C 
ATOM     18  C   UNL     1      -4.545 -12.006 -40.505  1.00  0.00    -0.006 A 
ATOM     19  C   UNL     1      -6.495 -12.981 -39.374  1.00  0.00     0.072 A 
ATOM     20  C   UNL     1      -5.415 -11.394 -41.459  1.00  0.00     0.008 A 
ATOM     21  C   UNL     1      -7.343 -12.244 -40.221  1.00  0.00     0.169 A 
ATOM     22  C   UNL     1      -6.803 -11.391 -41.199  1.00  0.00     0.162 A 
BRANCH  13  23
ATOM     23  O   UNL     1      -4.707 -13.988 -37.336  1.00  0.00    -0.507 OA
ATOM     24  H   UNL     1      -4.688 -14.991 -37.202  1.00  0.00     0.293 HD
ENDBRANCH  13  23
BRANCH  19  25
ATOM     25  C   UNL     1      -7.113 -14.003 -38.493  1.00  0.00     0.264 C 
ATOM     26  O   UNL     1      -7.748 -13.672 -37.457  1.00  0.00    -0.298 OA
ENDBRANCH  19  25
BRANCH  20  27
ATOM     27  C   UNL     1      -4.876 -10.702 -42.723  1.00  0.00     0.017 C 
ATOM     28  C   UNL     1      -4.854  -9.179 -42.548  1.00  0.00     0.012 C 
ATOM     29  C   UNL     1      -5.611 -11.105 -44.016  1.00  0.00     0.012 C 
ENDBRANCH  20  27
BRANCH  21  30
ATOM     30  O   UNL     1      -8.728 -12.416 -40.104  1.00  0.00    -0.504 OA
ATOM     31  H   UNL     1      -9.258 -12.193 -39.273  1.00  0.00     0.293 HD
ENDBRANCH  21  30
BRANCH  22  32
ATOM     32  O   UNL     1      -7.629 -10.523 -41.919  1.00  0.00    -0.504 OA
ATOM     33  H   UNL     1      -7.858  -9.584 -41.625  1.00  0.00     0.293 HD
ENDBRANCH  22  32
ENDBRANCH  11  12
BRANCH  10  34
ATOM     34  O   UNL     1      -2.051 -11.817 -36.224  1.00  0.00    -0.507 OA
ATOM     35  H   UNL     1      -2.152 -11.133 -36.962  1.00  0.00     0.293 HD
ENDBRANCH  10  34
BRANCH   9  36
ATOM     36  C   UNL     1       1.316 -17.011 -34.976  1.00  0.00     0.017 C 
ATOM     37  C   UNL     1       2.798 -17.027 -35.366  1.00  0.00     0.012 C 
ATOM     38  C   UNL     1       1.049 -17.914 -33.757  1.00  0.00     0.012 C 
ENDBRANCH   9  36
BRANCH   6  39
ATOM     39  C   UNL     1      -1.165 -11.910 -33.709  1.00  0.00     0.264 C 
ATOM     40  O   UNL     1      -0.695 -10.742 -33.747  1.00  0.00    -0.298 OA
ENDBRANCH   6  39
BRANCH   8  41
ATOM     41  O   UNL     1       2.416 -15.200 -33.035  1.00  0.00    -0.504 OA
ATOM     42  H   UNL     1       2.604 -16.162 -32.787  1.00  0.00     0.293 HD
ENDBRANCH   8  41
BRANCH   7  43
ATOM     43  O   UNL     1       0.953 -12.908 -32.210  1.00  0.00    -0.504 OA
ATOM     44  H   UNL     1       1.720 -12.258 -32.118  1.00  0.00     0.293 HD
ENDBRANCH   7  43
TORSDOF 11
ENDMDL
