MODEL 1
REMARK VINA RESULT:     0.788      0.000      0.000
REMARK INTER + INTRA:           1.595
REMARK INTER:                   1.203
REMARK INTRA:                   0.392
REMARK UNBOUND:                 0.392
REMARK SMILES CC1=CCC[C@@H](C)C(=O)C[C@@H](C(C)C)C(=O)C1
REMARK SMILES IDX 8 1 9 2 6 3 7 4 5 5 4 6 3 7 2 8 1 9 10 11 11 12 15 13 16 14
REMARK SMILES IDX 17 15 12 17 13 18 14 19
REMARK H PARENT
REMARK Flexibility Score: 70.00
ROOT
ATOM      1  C   UNL     1      25.429  24.534  27.633  1.00  0.00     0.136 C 
ATOM      2  O   UNL     1      25.398  23.547  28.355  1.00  0.00    -0.299 OA
ENDROOT
BRANCH   1   3
ATOM      3  C   UNL     1      24.135  25.150  27.143  1.00  0.00     0.053 C 
ATOM      4  C   UNL     1      23.519  25.998  28.261  1.00  0.00     0.016 C 
BRANCH   3   5
ATOM      5  C   UNL     1      23.123  24.085  26.664  1.00  0.00     0.015 C 
BRANCH   5   6
ATOM      6  C   UNL     1      23.789  22.876  25.993  1.00  0.00     0.028 C 
BRANCH   6   7
ATOM      7  C   UNL     1      24.214  23.199  24.580  1.00  0.00    -0.028 C 
ATOM      8  C   UNL     1      25.482  23.202  24.107  1.00  0.00    -0.070 CG0
ATOM      9  C   UNL     1      25.690  23.581  22.662  1.00  0.00     0.039 C 
ATOM     10  G   UNL     1      26.701  22.869  24.948  1.00  0.00     0.000 G0
ENDBRANCH   6   7
ENDBRANCH   5   6
ENDBRANCH   3   5
ENDBRANCH   1   3
BRANCH   1  11
ATOM     11  C   UNL     1      26.752  25.195  27.337  1.00  0.00     0.087 C 
BRANCH  11  12
ATOM     12  C   UNL     1      27.026  25.408  25.826  1.00  0.00     0.066 C 
BRANCH  12  13
ATOM     13  C   UNL     1      27.542  24.106  25.212  1.00  0.00     0.140 C 
ATOM     14  O   UNL     1      28.732  24.047  24.936  1.00  0.00    -0.299 OA
BRANCH  13  15
ATOM     15  C   UNL     1      26.696  22.876  24.954  1.00  0.00     0.106 CG0
ATOM     16  G   UNL     1      25.501  23.196  24.074  1.00  0.00     0.000 G0
ENDBRANCH  13  15
ENDBRANCH  12  13
BRANCH  12  17
ATOM     17  C   UNL     1      27.848  26.696  25.484  1.00  0.00    -0.006 C 
ATOM     18  C   UNL     1      29.077  26.857  26.400  1.00  0.00     0.008 C 
ATOM     19  C   UNL     1      26.982  27.964  25.630  1.00  0.00     0.008 C 
ENDBRANCH  12  17
ENDBRANCH  11  12
ENDBRANCH   1  11
TORSDOF 1
ENDMDL
MODEL 2
REMARK VINA RESULT:     2.235      2.060      4.653
REMARK INTER + INTRA:           3.803
REMARK INTER:                   3.722
REMARK INTRA:                   0.081
REMARK UNBOUND:                 0.392
REMARK SMILES CC1=CCC[C@@H](C)C(=O)C[C@@H](C(C)C)C(=O)C1
REMARK SMILES IDX 8 1 9 2 6 3 7 4 5 5 4 6 3 7 2 8 1 9 10 11 11 12 15 13 16 14
REMARK SMILES IDX 17 15 12 17 13 18 14 19
REMARK H PARENT
REMARK Flexibility Score: 70.00
ROOT
ATOM      1  C   UNL     1      27.842  26.455  25.757  1.00  0.00     0.136 C 
ATOM      2  O   UNL     1      28.584  26.134  24.839  1.00  0.00    -0.299 OA
ENDROOT
BRANCH   1   3
ATOM      3  C   UNL     1      27.474  27.911  25.955  1.00  0.00     0.053 C 
ATOM      4  C   UNL     1      28.240  28.469  27.159  1.00  0.00     0.016 C 
BRANCH   3   5
ATOM      5  C   UNL     1      25.954  28.111  26.151  1.00  0.00     0.015 C 
BRANCH   5   6
ATOM      6  C   UNL     1      25.524  28.081  27.623  1.00  0.00     0.028 C 
BRANCH   6   7
ATOM      7  C   UNL     1      24.104  27.588  27.768  1.00  0.00    -0.028 C 
ATOM      8  C   UNL     1      23.722  26.311  28.005  1.00  0.00    -0.070 CG0
ATOM      9  C   UNL     1      22.243  26.026  28.090  1.00  0.00     0.039 C 
ATOM     10  G   UNL     1      24.690  25.152  28.168  1.00  0.00     0.000 G0
ENDBRANCH   6   7
ENDBRANCH   5   6
ENDBRANCH   3   5
ENDBRANCH   1   3
BRANCH   1  11
ATOM     11  C   UNL     1      27.208  25.383  26.608  1.00  0.00     0.087 C 
BRANCH  11  12
ATOM     12  C   UNL     1      26.073  24.602  25.897  1.00  0.00     0.066 C 
BRANCH  12  13
ATOM     13  C   UNL     1      24.919  24.374  26.874  1.00  0.00     0.140 C 
ATOM     14  O   UNL     1      24.123  23.485  26.608  1.00  0.00    -0.299 OA
BRANCH  13  15
ATOM     15  C   UNL     1      24.711  25.146  28.161  1.00  0.00     0.106 CG0
ATOM     16  G   UNL     1      23.736  26.294  27.971  1.00  0.00     0.000 G0
ENDBRANCH  13  15
ENDBRANCH  12  13
BRANCH  12  17
ATOM     17  C   UNL     1      26.548  23.342  25.096  1.00  0.00    -0.006 C 
ATOM     18  C   UNL     1      28.020  22.993  25.389  1.00  0.00     0.008 C 
ATOM     19  C   UNL     1      26.408  23.563  23.577  1.00  0.00     0.008 C 
ENDBRANCH  12  17
ENDBRANCH  11  12
ENDBRANCH   1  11
TORSDOF 1
ENDMDL
MODEL 3
REMARK VINA RESULT:     2.398      2.312      4.840
REMARK INTER + INTRA:           4.052
REMARK INTER:                   3.288
REMARK INTRA:                   0.764
REMARK UNBOUND:                 0.392
REMARK SMILES CC1=CCC[C@@H](C)C(=O)C[C@@H](C(C)C)C(=O)C1
REMARK SMILES IDX 8 1 9 2 6 3 7 4 5 5 4 6 3 7 2 8 1 9 10 11 11 12 15 13 16 14
REMARK SMILES IDX 17 15 12 17 13 18 14 19
REMARK H PARENT
REMARK Flexibility Score: 70.00
ROOT
ATOM      1  C   UNL     1      25.815  23.931  26.000  1.00  0.00     0.136 C 
ATOM      2  O   UNL     1      25.077  22.966  25.860  1.00  0.00    -0.299 OA
ENDROOT
BRANCH   1   3
ATOM      3  C   UNL     1      26.701  24.374  24.854  1.00  0.00     0.053 C 
ATOM      4  C   UNL     1      26.253  23.677  23.566  1.00  0.00     0.016 C 
BRANCH   3   5
ATOM      5  C   UNL     1      28.195  24.087  25.124  1.00  0.00     0.015 C 
BRANCH   5   6
ATOM      6  C   UNL     1      28.960  25.306  25.659  1.00  0.00     0.028 C 
BRANCH   6   7
ATOM      7  C   UNL     1      28.414  26.590  25.081  1.00  0.00    -0.028 C 
ATOM      8  C   UNL     1      27.626  27.483  25.723  1.00  0.00    -0.070 CG0
ATOM      9  C   UNL     1      27.168  28.696  24.951  1.00  0.00     0.039 C 
ATOM     10  G   UNL     1      27.161  27.325  27.160  1.00  0.00     0.000 G0
ENDBRANCH   6   7
ENDBRANCH   5   6
ENDBRANCH   3   5
ENDBRANCH   1   3
BRANCH   1  11
ATOM     11  C   UNL     1      25.747  24.739  27.272  1.00  0.00     0.087 C 
BRANCH  11  12
ATOM     12  C   UNL     1      24.806  25.968  27.189  1.00  0.00     0.066 C 
BRANCH  12  13
ATOM     13  C   UNL     1      25.632  27.252  27.285  1.00  0.00     0.140 C 
ATOM     14  O   UNL     1      25.029  28.295  27.495  1.00  0.00    -0.299 OA
BRANCH  13  15
ATOM     15  C   UNL     1      27.141  27.320  27.172  1.00  0.00     0.106 CG0
ATOM     16  G   UNL     1      27.585  27.485  25.729  1.00  0.00     0.000 G0
ENDBRANCH  13  15
ENDBRANCH  12  13
BRANCH  12  17
ATOM     17  C   UNL     1      23.549  25.895  28.120  1.00  0.00    -0.006 C 
ATOM     18  C   UNL     1      22.581  24.773  27.696  1.00  0.00     0.008 C 
ATOM     19  C   UNL     1      22.766  27.224  28.106  1.00  0.00     0.008 C 
ENDBRANCH  12  17
ENDBRANCH  11  12
ENDBRANCH   1  11
TORSDOF 1
ENDMDL
MODEL 4
REMARK VINA RESULT:     3.393      2.009      4.792
REMARK INTER + INTRA:           5.570
REMARK INTER:                   5.333
REMARK INTRA:                   0.237
REMARK UNBOUND:                 0.392
REMARK SMILES CC1=CCC[C@@H](C)C(=O)C[C@@H](C(C)C)C(=O)C1
REMARK SMILES IDX 8 1 9 2 6 3 7 4 5 5 4 6 3 7 2 8 1 9 10 11 11 12 15 13 16 14
REMARK SMILES IDX 17 15 12 17 13 18 14 19
REMARK H PARENT
REMARK Flexibility Score: 70.00
ROOT
ATOM      1  C   UNL     1      24.382  23.376  24.634  1.00  0.00     0.136 C 
ATOM      2  O   UNL     1      23.362  23.174  23.991  1.00  0.00    -0.299 OA
ENDROOT
BRANCH   1   3
ATOM      3  C   UNL     1      25.638  23.843  23.928  1.00  0.00     0.053 C 
ATOM      4  C   UNL     1      25.350  24.005  22.432  1.00  0.00     0.016 C 
BRANCH   3   5
ATOM      5  C   UNL     1      26.824  22.875  24.140  1.00  0.00     0.015 C 
BRANCH   5   6
ATOM      6  C   UNL     1      27.816  23.357  25.207  1.00  0.00     0.028 C 
BRANCH   6   7
ATOM      7  C   UNL     1      27.824  24.864  25.305  1.00  0.00    -0.028 C 
ATOM      8  C   UNL     1      27.189  25.608  26.241  1.00  0.00    -0.070 CG0
ATOM      9  C   UNL     1      27.306  27.108  26.142  1.00  0.00     0.039 C 
ATOM     10  G   UNL     1      26.352  25.022  27.364  1.00  0.00     0.000 G0
ENDBRANCH   6   7
ENDBRANCH   5   6
ENDBRANCH   3   5
ENDBRANCH   1   3
BRANCH   1  11
ATOM     11  C   UNL     1      24.345  23.270  26.138  1.00  0.00     0.087 C 
BRANCH  11  12
ATOM     12  C   UNL     1      23.765  24.523  26.845  1.00  0.00     0.066 C 
BRANCH  12  13
ATOM     13  C   UNL     1      24.911  25.405  27.342  1.00  0.00     0.140 C 
ATOM     14  O   UNL     1      24.624  26.519  27.756  1.00  0.00    -0.299 OA
BRANCH  13  15
ATOM     15  C   UNL     1      26.366  24.987  27.390  1.00  0.00     0.106 CG0
ATOM     16  G   UNL     1      27.159  25.594  26.247  1.00  0.00     0.000 G0
ENDBRANCH  13  15
ENDBRANCH  12  13
BRANCH  12  17
ATOM     17  C   UNL     1      22.633  24.223  27.885  1.00  0.00    -0.006 C 
ATOM     18  C   UNL     1      21.923  22.886  27.596  1.00  0.00     0.008 C 
ATOM     19  C   UNL     1      21.564  25.335  27.880  1.00  0.00     0.008 C 
ENDBRANCH  12  17
ENDBRANCH  11  12
ENDBRANCH   1  11
TORSDOF 1
ENDMDL
MODEL 5
REMARK VINA RESULT:     3.686      2.338      4.449
REMARK INTER + INTRA:           6.018
REMARK INTER:                   6.077
REMARK INTRA:                  -0.059
REMARK UNBOUND:                 0.392
REMARK SMILES CC1=CCC[C@@H](C)C(=O)C[C@@H](C(C)C)C(=O)C1
REMARK SMILES IDX 8 1 9 2 6 3 7 4 5 5 4 6 3 7 2 8 1 9 10 11 11 12 15 13 16 14
REMARK SMILES IDX 17 15 12 17 13 18 14 19
REMARK H PARENT
REMARK Flexibility Score: 70.00
ROOT
ATOM      1  C   UNL     1      23.868  26.613  27.913  1.00  0.00     0.136 C 
ATOM      2  O   UNL     1      22.777  26.462  28.444  1.00  0.00    -0.299 OA
ENDROOT
BRANCH   1   3
ATOM      3  C   UNL     1      24.785  27.726  28.378  1.00  0.00     0.053 C 
ATOM      4  C   UNL     1      23.965  28.782  29.125  1.00  0.00     0.016 C 
BRANCH   3   5
ATOM      5  C   UNL     1      25.554  28.378  27.207  1.00  0.00     0.015 C 
BRANCH   5   6
ATOM      6  C   UNL     1      27.062  28.500  27.466  1.00  0.00     0.028 C 
BRANCH   6   7
ATOM      7  C   UNL     1      27.859  28.140  26.234  1.00  0.00    -0.028 C 
ATOM      8  C   UNL     1      28.288  26.903  25.893  1.00  0.00    -0.070 CG0
ATOM      9  C   UNL     1      29.096  26.765  24.626  1.00  0.00     0.039 C 
ATOM     10  G   UNL     1      28.022  25.656  26.718  1.00  0.00     0.000 G0
ENDBRANCH   6   7
ENDBRANCH   5   6
ENDBRANCH   3   5
ENDBRANCH   1   3
BRANCH   1  11
ATOM     11  C   UNL     1      24.335  25.617  26.881  1.00  0.00     0.087 C 
BRANCH  11  12
ATOM     12  C   UNL     1      25.553  24.769  27.330  1.00  0.00     0.066 C 
BRANCH  12  13
ATOM     13  C   UNL     1      26.712  24.983  26.356  1.00  0.00     0.140 C 
ATOM     14  O   UNL     1      26.551  24.619  25.200  1.00  0.00    -0.299 OA
BRANCH  13  15
ATOM     15  C   UNL     1      28.029  25.643  26.711  1.00  0.00     0.106 CG0
ATOM     16  G   UNL     1      28.262  26.899  25.889  1.00  0.00     0.000 G0
ENDBRANCH  13  15
ENDBRANCH  12  13
BRANCH  12  17
ATOM     17  C   UNL     1      25.220  23.278  27.678  1.00  0.00    -0.006 C 
ATOM     18  C   UNL     1      23.721  22.967  27.506  1.00  0.00     0.008 C 
ATOM     19  C   UNL     1      25.609  22.945  29.132  1.00  0.00     0.008 C 
ENDBRANCH  12  17
ENDBRANCH  11  12
ENDBRANCH   1  11
TORSDOF 1
ENDMDL
