MODEL 1
REMARK VINA RESULT:    -4.892      0.000      0.000
REMARK INTER + INTRA:          -6.137
REMARK INTER:                  -5.893
REMARK INTRA:                  -0.244
REMARK UNBOUND:                -0.244
REMARK SMILES NC(=O)C[C@@H]([NH3+])C(=O)[O-]
REMARK SMILES IDX 4 1 5 2 6 3 7 7 8 8 9 9 2 10 3 11 1 12
REMARK H PARENT 6 4 6 5 6 6 1 13 1 14
REMARK Flexibility Score: inf
ROOT
ATOM      1  C   UNL     1      66.019  27.769  35.785  1.00  0.00     0.171 C 
ENDROOT
BRANCH   1   2
ATOM      2  C   UNL     1      66.671  26.763  36.755  1.00  0.00     0.237 C 
BRANCH   2   3
ATOM      3  N   UNL     1      65.892  25.521  36.806  1.00  0.00    -0.350 N 
ATOM      4  H   UNL     1      66.520  24.694  36.937  1.00  0.00     0.345 HD
ATOM      5  H   UNL     1      65.355  25.403  35.916  1.00  0.00     0.345 HD
ATOM      6  H   UNL     1      65.208  25.563  37.596  1.00  0.00     0.345 HD
ENDBRANCH   2   3
BRANCH   2   7
ATOM      7  C   UNL     1      68.092  26.466  36.347  1.00  0.00     0.100 C 
ATOM      8  O   UNL     1      69.034  26.642  37.163  1.00  0.00    -0.544 OA
ATOM      9  O   UNL     1      68.372  26.008  35.066  1.00  0.00    -0.544 OA
ENDBRANCH   2   7
ENDBRANCH   1   2
BRANCH   1  10
ATOM     10  C   UNL     1      64.805  28.414  36.389  1.00  0.00     0.223 C 
ATOM     11  O   UNL     1      63.718  27.778  36.437  1.00  0.00    -0.275 OA
ATOM     12  N   UNL     1      64.882  29.725  36.947  1.00  0.00    -0.369 N 
ATOM     13  H   UNL     1      64.039  30.164  37.380  1.00  0.00     0.159 HD
ATOM     14  H   UNL     1      65.779  30.259  36.935  1.00  0.00     0.159 HD
ENDBRANCH   1  10
TORSDOF 4
ENDMDL
MODEL 2
REMARK VINA RESULT:    -4.533      1.839      4.185
REMARK INTER + INTRA:          -5.704
REMARK INTER:                  -5.602
REMARK INTRA:                  -0.101
REMARK UNBOUND:                -0.244
REMARK SMILES NC(=O)C[C@@H]([NH3+])C(=O)[O-]
REMARK SMILES IDX 4 1 5 2 6 3 7 7 8 8 9 9 2 10 3 11 1 12
REMARK H PARENT 6 4 6 5 6 6 1 13 1 14
REMARK Flexibility Score: inf
ROOT
ATOM      1  C   UNL     1      67.510  26.385  36.512  1.00  0.00     0.171 C 
ENDROOT
BRANCH   1   2
ATOM      2  C   UNL     1      66.064  26.099  36.061  1.00  0.00     0.237 C 
BRANCH   2   3
ATOM      3  N   UNL     1      65.334  25.373  37.106  1.00  0.00    -0.350 N 
ATOM      4  H   UNL     1      64.355  25.733  37.193  1.00  0.00     0.345 HD
ATOM      5  H   UNL     1      65.822  25.489  38.024  1.00  0.00     0.345 HD
ATOM      6  H   UNL     1      65.307  24.353  36.877  1.00  0.00     0.345 HD
ENDBRANCH   2   3
BRANCH   2   7
ATOM      7  C   UNL     1      65.344  27.380  35.722  1.00  0.00     0.100 C 
ATOM      8  O   UNL     1      65.978  28.354  35.240  1.00  0.00    -0.544 OA
ATOM      9  O   UNL     1      63.977  27.497  35.949  1.00  0.00    -0.544 OA
ENDBRANCH   2   7
ENDBRANCH   1   2
BRANCH   1  10
ATOM     10  C   UNL     1      68.491  25.465  35.844  1.00  0.00     0.223 C 
ATOM     11  O   UNL     1      69.115  25.853  34.820  1.00  0.00    -0.275 OA
ATOM     12  N   UNL     1      68.751  24.168  36.381  1.00  0.00    -0.369 N 
ATOM     13  H   UNL     1      69.446  23.537  35.921  1.00  0.00     0.159 HD
ATOM     14  H   UNL     1      68.258  23.836  37.239  1.00  0.00     0.159 HD
ENDBRANCH   1  10
TORSDOF 4
ENDMDL
MODEL 3
REMARK VINA RESULT:    -4.469     15.492     16.138
REMARK INTER + INTRA:          -5.628
REMARK INTER:                  -5.428
REMARK INTRA:                  -0.199
REMARK UNBOUND:                -0.244
REMARK SMILES NC(=O)C[C@@H]([NH3+])C(=O)[O-]
REMARK SMILES IDX 4 1 5 2 6 3 7 7 8 8 9 9 2 10 3 11 1 12
REMARK H PARENT 6 4 6 5 6 6 1 13 1 14
REMARK Flexibility Score: inf
ROOT
ATOM      1  C   UNL     1      60.817  14.522  30.899  1.00  0.00     0.171 C 
ENDROOT
BRANCH   1   2
ATOM      2  C   UNL     1      61.433  13.138  30.612  1.00  0.00     0.237 C 
BRANCH   2   3
ATOM      3  N   UNL     1      60.815  12.115  31.462  1.00  0.00    -0.350 N 
ATOM      4  H   UNL     1      59.904  11.796  31.056  1.00  0.00     0.345 HD
ATOM      5  H   UNL     1      60.644  12.504  32.418  1.00  0.00     0.345 HD
ATOM      6  H   UNL     1      61.457  11.294  31.554  1.00  0.00     0.345 HD
ENDBRANCH   2   3
BRANCH   2   7
ATOM      7  C   UNL     1      61.275  12.769  29.159  1.00  0.00     0.100 C 
ATOM      8  O   UNL     1      60.700  11.696  28.838  1.00  0.00    -0.544 OA
ATOM      9  O   UNL     1      61.772  13.604  28.166  1.00  0.00    -0.544 OA
ENDBRANCH   2   7
ENDBRANCH   1   2
BRANCH   1  10
ATOM     10  C   UNL     1      59.717  14.438  31.918  1.00  0.00     0.223 C 
ATOM     11  O   UNL     1      58.665  13.797  31.651  1.00  0.00    -0.275 OA
ATOM     12  N   UNL     1      59.869  15.044  33.201  1.00  0.00    -0.369 N 
ATOM     13  H   UNL     1      59.107  14.971  33.912  1.00  0.00     0.159 HD
ATOM     14  H   UNL     1      60.741  15.562  33.447  1.00  0.00     0.159 HD
ENDBRANCH   1  10
TORSDOF 4
ENDMDL
MODEL 4
REMARK VINA RESULT:    -4.436      1.426      4.354
REMARK INTER + INTRA:          -5.588
REMARK INTER:                  -5.318
REMARK INTRA:                  -0.269
REMARK UNBOUND:                -0.244
REMARK SMILES NC(=O)C[C@@H]([NH3+])C(=O)[O-]
REMARK SMILES IDX 4 1 5 2 6 3 7 7 8 8 9 9 2 10 3 11 1 12
REMARK H PARENT 6 4 6 5 6 6 1 13 1 14
REMARK Flexibility Score: inf
ROOT
ATOM      1  C   UNL     1      65.941  26.629  36.151  1.00  0.00     0.171 C 
ENDROOT
BRANCH   1   2
ATOM      2  C   UNL     1      65.692  28.148  36.244  1.00  0.00     0.237 C 
BRANCH   2   3
ATOM      3  N   UNL     1      66.078  28.809  34.993  1.00  0.00    -0.350 N 
ATOM      4  H   UNL     1      67.056  28.552  34.724  1.00  0.00     0.345 HD
ATOM      5  H   UNL     1      66.017  29.847  35.108  1.00  0.00     0.345 HD
ATOM      6  H   UNL     1      65.424  28.527  34.226  1.00  0.00     0.345 HD
ENDBRANCH   2   3
BRANCH   2   7
ATOM      7  C   UNL     1      64.246  28.437  36.558  1.00  0.00     0.100 C 
ATOM      8  O   UNL     1      63.456  27.495  36.828  1.00  0.00    -0.544 OA
ATOM      9  O   UNL     1      63.773  29.744  36.538  1.00  0.00    -0.544 OA
ENDBRANCH   2   7
ENDBRANCH   1   2
BRANCH   1  10
ATOM     10  C   UNL     1      67.397  26.297  36.306  1.00  0.00     0.223 C 
ATOM     11  O   UNL     1      68.242  27.225  36.424  1.00  0.00    -0.275 OA
ATOM     12  N   UNL     1      67.829  24.937  36.362  1.00  0.00    -0.369 N 
ATOM     13  H   UNL     1      68.841  24.710  36.486  1.00  0.00     0.159 HD
ATOM     14  H   UNL     1      67.142  24.155  36.286  1.00  0.00     0.159 HD
ENDBRANCH   1  10
TORSDOF 4
ENDMDL
MODEL 5
REMARK VINA RESULT:    -4.416     15.205     15.980
REMARK INTER + INTRA:          -5.563
REMARK INTER:                  -5.390
REMARK INTRA:                  -0.173
REMARK UNBOUND:                -0.244
REMARK SMILES NC(=O)C[C@@H]([NH3+])C(=O)[O-]
REMARK SMILES IDX 4 1 5 2 6 3 7 7 8 8 9 9 2 10 3 11 1 12
REMARK H PARENT 6 4 6 5 6 6 1 13 1 14
REMARK Flexibility Score: inf
ROOT
ATOM      1  C   UNL     1      61.708  13.298  31.514  1.00  0.00     0.171 C 
ENDROOT
BRANCH   1   2
ATOM      2  C   UNL     1      60.583  12.856  32.471  1.00  0.00     0.237 C 
BRANCH   2   3
ATOM      3  N   UNL     1      61.125  12.581  33.806  1.00  0.00    -0.350 N 
ATOM      4  H   UNL     1      61.397  11.575  33.897  1.00  0.00     0.345 HD
ATOM      5  H   UNL     1      60.407  12.807  34.533  1.00  0.00     0.345 HD
ATOM      6  H   UNL     1      61.964  13.182  33.980  1.00  0.00     0.345 HD
ENDBRANCH   2   3
BRANCH   2   7
ATOM      7  C   UNL     1      59.505  13.906  32.555  1.00  0.00     0.100 C 
ATOM      8  O   UNL     1      59.703  14.966  33.204  1.00  0.00    -0.544 OA
ATOM      9  O   UNL     1      58.281  13.705  31.928  1.00  0.00    -0.544 OA
ENDBRANCH   2   7
ENDBRANCH   1   2
BRANCH   1  10
ATOM     10  C   UNL     1      61.198  13.503  30.116  1.00  0.00     0.223 C 
ATOM     11  O   UNL     1      60.731  12.526  29.471  1.00  0.00    -0.275 OA
ATOM     12  N   UNL     1      61.199  14.803  29.527  1.00  0.00    -0.369 N 
ATOM     13  H   UNL     1      60.829  14.944  28.560  1.00  0.00     0.159 HD
ATOM     14  H   UNL     1      61.564  15.628  30.053  1.00  0.00     0.159 HD
ENDBRANCH   1  10
TORSDOF 4
ENDMDL
MODEL 6
REMARK VINA RESULT:    -4.411     16.040     16.883
REMARK INTER + INTRA:          -5.557
REMARK INTER:                  -5.304
REMARK INTRA:                  -0.253
REMARK UNBOUND:                -0.244
REMARK SMILES NC(=O)C[C@@H]([NH3+])C(=O)[O-]
REMARK SMILES IDX 4 1 5 2 6 3 7 7 8 8 9 9 2 10 3 11 1 12
REMARK H PARENT 6 4 6 5 6 6 1 13 1 14
REMARK Flexibility Score: inf
ROOT
ATOM      1  C   UNL     1      60.949  12.518  29.039  1.00  0.00     0.171 C 
ENDROOT
BRANCH   1   2
ATOM      2  C   UNL     1      61.532  13.515  30.060  1.00  0.00     0.237 C 
BRANCH   2   3
ATOM      3  N   UNL     1      61.114  14.884  29.735  1.00  0.00    -0.350 N 
ATOM      4  H   UNL     1      61.058  15.469  30.601  1.00  0.00     0.345 HD
ATOM      5  H   UNL     1      60.176  14.868  29.273  1.00  0.00     0.345 HD
ATOM      6  H   UNL     1      61.798  15.315  29.072  1.00  0.00     0.345 HD
ENDBRANCH   2   3
BRANCH   2   7
ATOM      7  C   UNL     1      61.104  13.163  31.462  1.00  0.00     0.100 C 
ATOM      8  O   UNL     1      61.957  12.792  32.309  1.00  0.00    -0.544 OA
ATOM      9  O   UNL     1      59.764  13.234  31.824  1.00  0.00    -0.544 OA
ENDBRANCH   2   7
ENDBRANCH   1   2
BRANCH   1  10
ATOM     10  C   UNL     1      61.721  12.527  27.752  1.00  0.00     0.223 C 
ATOM     11  O   UNL     1      61.813  13.593  27.085  1.00  0.00    -0.275 OA
ATOM     12  N   UNL     1      62.387  11.349  27.297  1.00  0.00    -0.369 N 
ATOM     13  H   UNL     1      62.936  11.365  26.408  1.00  0.00     0.159 HD
ATOM     14  H   UNL     1      62.340  10.463  27.845  1.00  0.00     0.159 HD
ENDBRANCH   1  10
TORSDOF 4
ENDMDL
MODEL 7
REMARK VINA RESULT:    -4.385     15.124     16.112
REMARK INTER + INTRA:          -5.526
REMARK INTER:                  -5.397
REMARK INTRA:                  -0.129
REMARK UNBOUND:                -0.244
REMARK SMILES NC(=O)C[C@@H]([NH3+])C(=O)[O-]
REMARK SMILES IDX 4 1 5 2 6 3 7 7 8 8 9 9 2 10 3 11 1 12
REMARK H PARENT 6 4 6 5 6 6 1 13 1 14
REMARK Flexibility Score: inf
ROOT
ATOM      1  C   UNL     1      60.346  14.546  31.284  1.00  0.00     0.171 C 
ENDROOT
BRANCH   1   2
ATOM      2  C   UNL     1      59.868  14.383  32.741  1.00  0.00     0.237 C 
BRANCH   2   3
ATOM      3  N   UNL     1      59.821  15.685  33.414  1.00  0.00    -0.350 N 
ATOM      4  H   UNL     1      60.077  15.589  34.425  1.00  0.00     0.345 HD
ATOM      5  H   UNL     1      58.858  16.086  33.343  1.00  0.00     0.345 HD
ATOM      6  H   UNL     1      60.485  16.348  32.952  1.00  0.00     0.345 HD
ENDBRANCH   2   3
BRANCH   2   7
ATOM      7  C   UNL     1      58.512  13.725  32.792  1.00  0.00     0.100 C 
ATOM      8  O   UNL     1      57.733  13.804  31.807  1.00  0.00    -0.544 OA
ATOM      9  O   UNL     1      58.110  13.037  33.931  1.00  0.00    -0.544 OA
ENDBRANCH   2   7
ENDBRANCH   1   2
BRANCH   1  10
ATOM     10  C   UNL     1      61.069  13.323  30.798  1.00  0.00     0.223 C 
ATOM     11  O   UNL     1      61.934  12.774  31.533  1.00  0.00    -0.275 OA
ATOM     12  N   UNL     1      60.757  12.752  29.528  1.00  0.00    -0.369 N 
ATOM     13  H   UNL     1      61.252  11.892  29.200  1.00  0.00     0.159 HD
ATOM     14  H   UNL     1      60.030  13.181  28.913  1.00  0.00     0.159 HD
ENDBRANCH   1  10
TORSDOF 4
ENDMDL
MODEL 8
REMARK VINA RESULT:    -4.319     15.137     15.794
REMARK INTER + INTRA:          -5.446
REMARK INTER:                  -5.329
REMARK INTRA:                  -0.117
REMARK UNBOUND:                -0.244
REMARK SMILES NC(=O)C[C@@H]([NH3+])C(=O)[O-]
REMARK SMILES IDX 4 1 5 2 6 3 7 7 8 8 9 9 2 10 3 11 1 12
REMARK H PARENT 6 4 6 5 6 6 1 13 1 14
REMARK Flexibility Score: inf
ROOT
ATOM      1  C   UNL     1      59.919  13.533  32.758  1.00  0.00     0.171 C 
ENDROOT
BRANCH   1   2
ATOM      2  C   UNL     1      60.247  14.446  31.560  1.00  0.00     0.237 C 
BRANCH   2   3
ATOM      3  N   UNL     1      61.104  15.559  31.983  1.00  0.00    -0.350 N 
ATOM      4  H   UNL     1      61.920  15.209  32.537  1.00  0.00     0.345 HD
ATOM      5  H   UNL     1      60.554  16.226  32.572  1.00  0.00     0.345 HD
ATOM      6  H   UNL     1      61.453  16.077  31.144  1.00  0.00     0.345 HD
ENDBRANCH   2   3
BRANCH   2   7
ATOM      7  C   UNL     1      60.917  13.667  30.457  1.00  0.00     0.100 C 
ATOM      8  O   UNL     1      60.900  12.409  30.471  1.00  0.00    -0.544 OA
ATOM      9  O   UNL     1      61.568  14.332  29.425  1.00  0.00    -0.544 OA
ENDBRANCH   2   7
ENDBRANCH   1   2
BRANCH   1  10
ATOM     10  C   UNL     1      58.443  13.479  33.026  1.00  0.00     0.223 C 
ATOM     11  O   UNL     1      57.983  12.624  33.830  1.00  0.00    -0.275 OA
ATOM     12  N   UNL     1      57.558  14.414  32.409  1.00  0.00    -0.369 N 
ATOM     13  H   UNL     1      56.534  14.382  32.609  1.00  0.00     0.159 HD
ATOM     14  H   UNL     1      57.922  15.142  31.755  1.00  0.00     0.159 HD
ENDBRANCH   1  10
TORSDOF 4
ENDMDL
MODEL 9
REMARK VINA RESULT:    -4.013     16.371     17.136
REMARK INTER + INTRA:          -5.078
REMARK INTER:                  -4.811
REMARK INTRA:                  -0.267
REMARK UNBOUND:                -0.244
REMARK SMILES NC(=O)C[C@@H]([NH3+])C(=O)[O-]
REMARK SMILES IDX 4 1 5 2 6 3 7 7 8 8 9 9 2 10 3 11 1 12
REMARK H PARENT 6 4 6 5 6 6 1 13 1 14
REMARK Flexibility Score: inf
ROOT
ATOM      1  C   UNL     1      61.368  13.672  29.728  1.00  0.00     0.171 C 
ENDROOT
BRANCH   1   2
ATOM      2  C   UNL     1      61.648  12.440  28.844  1.00  0.00     0.237 C 
BRANCH   2   3
ATOM      3  N   UNL     1      60.883  11.282  29.319  1.00  0.00    -0.350 N 
ATOM      4  H   UNL     1      60.595  10.674  28.518  1.00  0.00     0.345 HD
ATOM      5  H   UNL     1      60.027  11.607  29.826  1.00  0.00     0.345 HD
ATOM      6  H   UNL     1      61.464  10.722  29.985  1.00  0.00     0.345 HD
ENDBRANCH   2   3
BRANCH   2   7
ATOM      7  C   UNL     1      61.313  12.725  27.402  1.00  0.00     0.100 C 
ATOM      8  O   UNL     1      61.919  13.636  26.780  1.00  0.00    -0.544 OA
ATOM      9  O   UNL     1      60.324  11.993  26.755  1.00  0.00    -0.544 OA
ENDBRANCH   2   7
ENDBRANCH   1   2
BRANCH   1  10
ATOM     10  C   UNL     1      61.054  13.278  31.143  1.00  0.00     0.223 C 
ATOM     11  O   UNL     1      61.943  12.733  31.852  1.00  0.00    -0.275 OA
ATOM     12  N   UNL     1      59.771  13.551  31.705  1.00  0.00    -0.369 N 
ATOM     13  H   UNL     1      59.562  13.289  32.695  1.00  0.00     0.159 HD
ATOM     14  H   UNL     1      59.029  14.019  31.140  1.00  0.00     0.159 HD
ENDBRANCH   1  10
TORSDOF 4
ENDMDL
