MODEL 1
REMARK VINA RESULT:    -2.932      0.000      0.000
REMARK INTER + INTRA:          -7.029
REMARK INTER:                  -5.504
REMARK INTRA:                  -1.526
REMARK UNBOUND:                -1.526
REMARK SMILES O=C([O-])CCCCCCCCCCCCCCC(=O)[O-]
REMARK SMILES IDX 10 1 9 2 8 3 7 4 6 5 5 6 4 7 2 8 1 9 3 10 11 11 12 12 13 13
REMARK SMILES IDX 14 14 15 15 16 16 17 17 18 18 19 19 20 20
REMARK H PARENT
REMARK Flexibility Score: inf
ROOT
ATOM      1  C   UNL     1     -11.434 -22.350  12.001  1.00  0.00     0.000 C 
ENDROOT
BRANCH   1   2
ATOM      2  C   UNL     1     -10.194 -22.369  12.911  1.00  0.00     0.000 C 
BRANCH   2   3
ATOM      3  C   UNL     1      -9.453 -21.021  13.024  1.00  0.00     0.000 C 
BRANCH   3   4
ATOM      4  C   UNL     1      -8.033 -21.004  12.427  1.00  0.00     0.000 C 
BRANCH   4   5
ATOM      5  C   UNL     1      -7.969 -20.792  10.902  1.00  0.00     0.000 C 
BRANCH   5   6
ATOM      6  C   UNL     1      -7.891 -19.319  10.450  1.00  0.00     0.006 C 
BRANCH   6   7
ATOM      7  C   UNL     1      -9.127 -18.824   9.682  1.00  0.00     0.053 C 
BRANCH   7   8
ATOM      8  C   UNL     1      -9.659 -17.541  10.243  1.00  0.00     0.041 C 
ATOM      9  O   UNL     1      -9.704 -16.507   9.526  1.00  0.00    -0.550 OA
ATOM     10  O   UNL     1     -10.072 -17.478  11.567  1.00  0.00    -0.550 OA
ENDBRANCH   7   8
ENDBRANCH   6   7
ENDBRANCH   5   6
ENDBRANCH   4   5
ENDBRANCH   3   4
ENDBRANCH   2   3
ENDBRANCH   1   2
BRANCH   1  11
ATOM     11  C   UNL     1     -12.703 -22.852  12.712  1.00  0.00     0.000 C 
BRANCH  11  12
ATOM     12  C   UNL     1     -12.647 -22.656  14.235  1.00  0.00     0.000 C 
BRANCH  12  13
ATOM     13  C   UNL     1     -13.830 -21.828  14.766  1.00  0.00     0.000 C 
BRANCH  13  14
ATOM     14  C   UNL     1     -13.428 -20.899  15.924  1.00  0.00     0.000 C 
BRANCH  14  15
ATOM     15  C   UNL     1     -11.914 -20.629  15.963  1.00  0.00     0.000 C 
BRANCH  15  16
ATOM     16  C   UNL     1     -11.580 -19.133  16.107  1.00  0.00     0.006 C 
BRANCH  16  17
ATOM     17  C   UNL     1     -10.832 -18.531  14.906  1.00  0.00     0.053 C 
BRANCH  17  18
ATOM     18  C   UNL     1     -10.627 -17.054  15.054  1.00  0.00     0.041 C 
ATOM     19  O   UNL     1     -11.617 -16.280  15.120  1.00  0.00    -0.550 OA
ATOM     20  O   UNL     1      -9.340 -16.531  15.086  1.00  0.00    -0.550 OA
ENDBRANCH  17  18
ENDBRANCH  16  17
ENDBRANCH  15  16
ENDBRANCH  14  15
ENDBRANCH  13  14
ENDBRANCH  12  13
ENDBRANCH  11  12
ENDBRANCH   1  11
TORSDOF 15
ENDMDL
MODEL 2
REMARK VINA RESULT:    -2.806      2.143      5.311
REMARK INTER + INTRA:          -6.791
REMARK INTER:                  -5.286
REMARK INTRA:                  -1.505
REMARK UNBOUND:                -1.526
REMARK SMILES O=C([O-])CCCCCCCCCCCCCCC(=O)[O-]
REMARK SMILES IDX 10 1 9 2 8 3 7 4 6 5 5 6 4 7 2 8 1 9 3 10 11 11 12 12 13 13
REMARK SMILES IDX 14 14 15 15 16 16 17 17 18 18 19 19 20 20
REMARK H PARENT
REMARK Flexibility Score: inf
ROOT
ATOM      1  C   UNL     1     -11.627 -19.808  15.635  1.00  0.00     0.000 C 
ENDROOT
BRANCH   1   2
ATOM      2  C   UNL     1     -12.777 -20.721  16.094  1.00  0.00     0.000 C 
BRANCH   2   3
ATOM      3  C   UNL     1     -13.640 -21.298  14.953  1.00  0.00     0.000 C 
BRANCH   3   4
ATOM      4  C   UNL     1     -13.202 -22.683  14.440  1.00  0.00     0.000 C 
BRANCH   4   5
ATOM      5  C   UNL     1     -12.584 -22.691  13.029  1.00  0.00     0.000 C 
BRANCH   5   6
ATOM      6  C   UNL     1     -11.042 -22.678  12.992  1.00  0.00     0.006 C 
BRANCH   6   7
ATOM      7  C   UNL     1     -10.431 -21.396  12.405  1.00  0.00     0.053 C 
BRANCH   7   8
ATOM      8  C   UNL     1      -8.934 -21.438  12.405  1.00  0.00     0.041 C 
ATOM      9  O   UNL     1      -8.310 -21.793  13.440  1.00  0.00    -0.550 OA
ATOM     10  O   UNL     1      -8.225 -21.051  11.276  1.00  0.00    -0.550 OA
ENDBRANCH   7   8
ENDBRANCH   6   7
ENDBRANCH   5   6
ENDBRANCH   4   5
ENDBRANCH   3   4
ENDBRANCH   2   3
ENDBRANCH   1   2
BRANCH   1  11
ATOM     11  C   UNL     1     -11.812 -18.346  16.080  1.00  0.00     0.000 C 
BRANCH  11  12
ATOM     12  C   UNL     1     -10.494 -17.556  16.087  1.00  0.00     0.000 C 
BRANCH  12  13
ATOM     13  C   UNL     1     -10.306 -16.714  14.812  1.00  0.00     0.000 C 
BRANCH  13  14
ATOM     14  C   UNL     1      -8.835 -16.634  14.370  1.00  0.00     0.000 C 
BRANCH  14  15
ATOM     15  C   UNL     1      -8.369 -17.907  13.644  1.00  0.00     0.000 C 
BRANCH  15  16
ATOM     16  C   UNL     1      -8.347 -17.745  12.112  1.00  0.00     0.006 C 
BRANCH  16  17
ATOM     17  C   UNL     1      -9.737 -17.734  11.455  1.00  0.00     0.053 C 
BRANCH  17  18
ATOM     18  C   UNL     1      -9.659 -17.479   9.980  1.00  0.00     0.041 C 
ATOM     19  O   UNL     1      -9.826 -16.316   9.529  1.00  0.00    -0.550 OA
ATOM     20  O   UNL     1      -9.435 -18.533   9.103  1.00  0.00    -0.550 OA
ENDBRANCH  17  18
ENDBRANCH  16  17
ENDBRANCH  15  16
ENDBRANCH  14  15
ENDBRANCH  13  14
ENDBRANCH  12  13
ENDBRANCH  11  12
ENDBRANCH   1  11
TORSDOF 15
ENDMDL
MODEL 3
REMARK VINA RESULT:    -2.345      2.280      6.191
REMARK INTER + INTRA:          -5.927
REMARK INTER:                  -4.767
REMARK INTRA:                  -1.161
REMARK UNBOUND:                -1.526
REMARK SMILES O=C([O-])CCCCCCCCCCCCCCC(=O)[O-]
REMARK SMILES IDX 10 1 9 2 8 3 7 4 6 5 5 6 4 7 2 8 1 9 3 10 11 11 12 12 13 13
REMARK SMILES IDX 14 14 15 15 16 16 17 17 18 18 19 19 20 20
REMARK H PARENT
REMARK Flexibility Score: inf
ROOT
ATOM      1  C   UNL     1     -11.441 -17.969  15.104  1.00  0.00     0.000 C 
ENDROOT
BRANCH   1   2
ATOM      2  C   UNL     1     -11.584 -19.327  15.813  1.00  0.00     0.000 C 
BRANCH   2   3
ATOM      3  C   UNL     1     -13.036 -19.745  16.125  1.00  0.00     0.000 C 
BRANCH   3   4
ATOM      4  C   UNL     1     -13.317 -21.257  16.022  1.00  0.00     0.000 C 
BRANCH   4   5
ATOM      5  C   UNL     1     -14.210 -21.675  14.837  1.00  0.00     0.000 C 
BRANCH   5   6
ATOM      6  C   UNL     1     -13.724 -22.917  14.061  1.00  0.00     0.006 C 
BRANCH   6   7
ATOM      7  C   UNL     1     -12.196 -23.070  14.001  1.00  0.00     0.053 C 
BRANCH   7   8
ATOM      8  C   UNL     1     -11.659 -22.795  12.630  1.00  0.00     0.041 C 
ATOM      9  O   UNL     1     -12.442 -22.724  11.646  1.00  0.00    -0.550 OA
ATOM     10  O   UNL     1     -10.292 -22.650  12.432  1.00  0.00    -0.550 OA
ENDBRANCH   7   8
ENDBRANCH   6   7
ENDBRANCH   5   6
ENDBRANCH   4   5
ENDBRANCH   3   4
ENDBRANCH   2   3
ENDBRANCH   1   2
BRANCH   1  11
ATOM     11  C   UNL     1     -10.588 -16.968  15.901  1.00  0.00     0.000 C 
BRANCH  11  12
ATOM     12  C   UNL     1      -9.079 -17.198  15.722  1.00  0.00     0.000 C 
BRANCH  12  13
ATOM     13  C   UNL     1      -8.501 -16.412  14.531  1.00  0.00     0.000 C 
BRANCH  13  14
ATOM     14  C   UNL     1      -7.905 -17.331  13.451  1.00  0.00     0.000 C 
BRANCH  14  15
ATOM     15  C   UNL     1      -8.626 -18.687  13.370  1.00  0.00     0.000 C 
BRANCH  15  16
ATOM     16  C   UNL     1      -8.617 -19.283  11.950  1.00  0.00     0.006 C 
BRANCH  16  17
ATOM     17  C   UNL     1      -9.813 -18.867  11.078  1.00  0.00     0.053 C 
BRANCH  17  18
ATOM     18  C   UNL     1      -9.379 -18.201   9.808  1.00  0.00     0.041 C 
ATOM     19  O   UNL     1      -9.286 -16.947   9.751  1.00  0.00    -0.550 OA
ATOM     20  O   UNL     1      -9.110 -18.965   8.680  1.00  0.00    -0.550 OA
ENDBRANCH  17  18
ENDBRANCH  16  17
ENDBRANCH  15  16
ENDBRANCH  14  15
ENDBRANCH  13  14
ENDBRANCH  12  13
ENDBRANCH  11  12
ENDBRANCH   1  11
TORSDOF 15
ENDMDL
MODEL 4
REMARK VINA RESULT:    -2.285      2.308      6.106
REMARK INTER + INTRA:          -5.814
REMARK INTER:                  -4.699
REMARK INTRA:                  -1.115
REMARK UNBOUND:                -1.526
REMARK SMILES O=C([O-])CCCCCCCCCCCCCCC(=O)[O-]
REMARK SMILES IDX 10 1 9 2 8 3 7 4 6 5 5 6 4 7 2 8 1 9 3 10 11 11 12 12 13 13
REMARK SMILES IDX 14 14 15 15 16 16 17 17 18 18 19 19 20 20
REMARK H PARENT
REMARK Flexibility Score: inf
ROOT
ATOM      1  C   UNL     1      -9.868 -16.780  15.371  1.00  0.00     0.000 C 
ENDROOT
BRANCH   1   2
ATOM      2  C   UNL     1     -10.237 -18.072  16.120  1.00  0.00     0.000 C 
BRANCH   2   3
ATOM      3  C   UNL     1     -11.693 -18.541  15.924  1.00  0.00     0.000 C 
BRANCH   3   4
ATOM      4  C   UNL     1     -11.896 -20.069  15.943  1.00  0.00     0.000 C 
BRANCH   4   5
ATOM      5  C   UNL     1     -10.597 -20.899  15.952  1.00  0.00     0.000 C 
BRANCH   5   6
ATOM      6  C   UNL     1     -10.770 -22.385  15.575  1.00  0.00     0.006 C 
BRANCH   6   7
ATOM      7  C   UNL     1     -10.521 -22.696  14.091  1.00  0.00     0.053 C 
BRANCH   7   8
ATOM      8  C   UNL     1     -11.739 -22.449  13.255  1.00  0.00     0.041 C 
ATOM      9  O   UNL     1     -12.886 -22.668  13.727  1.00  0.00    -0.550 OA
ATOM     10  O   UNL     1     -11.608 -22.011  11.944  1.00  0.00    -0.550 OA
ENDBRANCH   7   8
ENDBRANCH   6   7
ENDBRANCH   5   6
ENDBRANCH   4   5
ENDBRANCH   3   4
ENDBRANCH   2   3
ENDBRANCH   1   2
BRANCH   1  11
ATOM     11  C   UNL     1      -8.377 -16.710  15.000  1.00  0.00     0.000 C 
BRANCH  11  12
ATOM     12  C   UNL     1      -8.039 -17.522  13.740  1.00  0.00     0.000 C 
BRANCH  12  13
ATOM     13  C   UNL     1      -9.263 -17.732  12.830  1.00  0.00     0.000 C 
BRANCH  13  14
ATOM     14  C   UNL     1      -9.529 -19.218  12.534  1.00  0.00     0.000 C 
BRANCH  14  15
ATOM     15  C   UNL     1      -8.386 -19.873  11.739  1.00  0.00     0.000 C 
BRANCH  15  16
ATOM     16  C   UNL     1      -8.150 -19.202  10.373  1.00  0.00     0.006 C 
BRANCH  16  17
ATOM     17  C   UNL     1      -9.377 -18.471   9.804  1.00  0.00     0.053 C 
BRANCH  17  18
ATOM     18  C   UNL     1      -9.105 -17.017   9.566  1.00  0.00     0.041 C 
ATOM     19  O   UNL     1      -9.978 -16.290   9.022  1.00  0.00    -0.550 OA
ATOM     20  O   UNL     1      -7.875 -16.474   9.915  1.00  0.00    -0.550 OA
ENDBRANCH  17  18
ENDBRANCH  16  17
ENDBRANCH  15  16
ENDBRANCH  14  15
ENDBRANCH  13  14
ENDBRANCH  12  13
ENDBRANCH  11  12
ENDBRANCH   1  11
TORSDOF 15
ENDMDL
MODEL 5
REMARK VINA RESULT:    -2.270      3.141      4.973
REMARK INTER + INTRA:          -5.787
REMARK INTER:                  -4.321
REMARK INTRA:                  -1.466
REMARK UNBOUND:                -1.526
REMARK SMILES O=C([O-])CCCCCCCCCCCCCCC(=O)[O-]
REMARK SMILES IDX 10 1 9 2 8 3 7 4 6 5 5 6 4 7 2 8 1 9 3 10 11 11 12 12 13 13
REMARK SMILES IDX 14 14 15 15 16 16 17 17 18 18 19 19 20 20
REMARK H PARENT
REMARK Flexibility Score: inf
ROOT
ATOM      1  C   UNL     1     -10.997 -17.199  12.679  1.00  0.00     0.000 C 
ENDROOT
BRANCH   1   2
ATOM      2  C   UNL     1      -9.667 -17.448  11.947  1.00  0.00     0.000 C 
BRANCH   2   3
ATOM      3  C   UNL     1      -9.758 -17.411  10.407  1.00  0.00     0.000 C 
BRANCH   3   4
ATOM      4  C   UNL     1      -9.234 -18.671   9.692  1.00  0.00     0.000 C 
BRANCH   4   5
ATOM      5  C   UNL     1      -7.875 -19.191  10.198  1.00  0.00     0.000 C 
BRANCH   5   6
ATOM      6  C   UNL     1      -7.906 -20.605  10.814  1.00  0.00     0.006 C 
BRANCH   6   7
ATOM      7  C   UNL     1      -9.163 -20.909  11.644  1.00  0.00     0.053 C 
BRANCH   7   8
ATOM      8  C   UNL     1      -9.094 -22.257  12.293  1.00  0.00     0.041 C 
ATOM      9  O   UNL     1      -8.038 -22.630  12.869  1.00  0.00    -0.550 OA
ATOM     10  O   UNL     1     -10.183 -23.117  12.231  1.00  0.00    -0.550 OA
ENDBRANCH   7   8
ENDBRANCH   6   7
ENDBRANCH   5   6
ENDBRANCH   4   5
ENDBRANCH   3   4
ENDBRANCH   2   3
ENDBRANCH   1   2
BRANCH   1  11
ATOM     11  C   UNL     1     -10.824 -16.376  13.967  1.00  0.00     0.000 C 
BRANCH  11  12
ATOM     12  C   UNL     1      -9.599 -16.810  14.788  1.00  0.00     0.000 C 
BRANCH  12  13
ATOM     13  C   UNL     1      -9.952 -17.851  15.865  1.00  0.00     0.000 C 
BRANCH  13  14
ATOM     14  C   UNL     1      -9.300 -19.218  15.599  1.00  0.00     0.000 C 
BRANCH  14  15
ATOM     15  C   UNL     1     -10.296 -20.244  15.031  1.00  0.00     0.000 C 
BRANCH  15  16
ATOM     16  C   UNL     1     -11.237 -20.818  16.106  1.00  0.00     0.006 C 
BRANCH  16  17
ATOM     17  C   UNL     1     -12.726 -20.508  15.879  1.00  0.00     0.053 C 
BRANCH  17  18
ATOM     18  C   UNL     1     -13.439 -21.638  15.202  1.00  0.00     0.041 C 
ATOM     19  O   UNL     1     -12.793 -22.480  14.525  1.00  0.00    -0.550 OA
ATOM     20  O   UNL     1     -14.822 -21.741  15.293  1.00  0.00    -0.550 OA
ENDBRANCH  17  18
ENDBRANCH  16  17
ENDBRANCH  15  16
ENDBRANCH  14  15
ENDBRANCH  13  14
ENDBRANCH  12  13
ENDBRANCH  11  12
ENDBRANCH   1  11
TORSDOF 15
ENDMDL
MODEL 6
REMARK VINA RESULT:    -1.631      2.455      4.446
REMARK INTER + INTRA:          -4.587
REMARK INTER:                  -3.590
REMARK INTRA:                  -0.997
REMARK UNBOUND:                -1.526
REMARK SMILES O=C([O-])CCCCCCCCCCCCCCC(=O)[O-]
REMARK SMILES IDX 10 1 9 2 8 3 7 4 6 5 5 6 4 7 2 8 1 9 3 10 11 11 12 12 13 13
REMARK SMILES IDX 14 14 15 15 16 16 17 17 18 18 19 19 20 20
REMARK H PARENT
REMARK Flexibility Score: inf
ROOT
ATOM      1  C   UNL     1     -10.770 -16.592  13.735  1.00  0.00     0.000 C 
ENDROOT
BRANCH   1   2
ATOM      2  C   UNL     1     -10.581 -17.810  12.815  1.00  0.00     0.000 C 
BRANCH   2   3
ATOM      3  C   UNL     1      -9.121 -18.093  12.406  1.00  0.00     0.000 C 
BRANCH   3   4
ATOM      4  C   UNL     1      -8.743 -19.584  12.323  1.00  0.00     0.000 C 
BRANCH   4   5
ATOM      5  C   UNL     1      -8.447 -20.105  10.903  1.00  0.00     0.000 C 
BRANCH   5   6
ATOM      6  C   UNL     1      -8.155 -19.012   9.855  1.00  0.00     0.006 C 
BRANCH   6   7
ATOM      7  C   UNL     1      -9.399 -18.262   9.354  1.00  0.00     0.053 C 
BRANCH   7   8
ATOM      8  C   UNL     1      -9.212 -16.777   9.392  1.00  0.00     0.041 C 
ATOM      9  O   UNL     1     -10.165 -16.011   9.090  1.00  0.00    -0.550 OA
ATOM     10  O   UNL     1      -7.977 -16.238   9.728  1.00  0.00    -0.550 OA
ENDBRANCH   7   8
ENDBRANCH   6   7
ENDBRANCH   5   6
ENDBRANCH   4   5
ENDBRANCH   3   4
ENDBRANCH   2   3
ENDBRANCH   1   2
BRANCH   1  11
ATOM     11  C   UNL     1     -10.400 -16.887  15.199  1.00  0.00     0.000 C 
BRANCH  11  12
ATOM     12  C   UNL     1      -8.891 -17.105  15.397  1.00  0.00     0.000 C 
BRANCH  12  13
ATOM     13  C   UNL     1      -8.579 -18.424  16.125  1.00  0.00     0.000 C 
BRANCH  13  14
ATOM     14  C   UNL     1      -9.601 -19.529  15.808  1.00  0.00     0.000 C 
BRANCH  14  15
ATOM     15  C   UNL     1      -8.958 -20.925  15.750  1.00  0.00     0.000 C 
BRANCH  15  16
ATOM     16  C   UNL     1      -9.950 -22.020  15.314  1.00  0.00     0.006 C 
BRANCH  16  17
ATOM     17  C   UNL     1     -11.158 -21.502  14.517  1.00  0.00     0.053 C 
BRANCH  17  18
ATOM     18  C   UNL     1     -11.378 -22.284  13.258  1.00  0.00     0.041 C 
ATOM     19  O   UNL     1     -10.395 -22.688  12.583  1.00  0.00    -0.550 OA
ATOM     20  O   UNL     1     -12.670 -22.537  12.814  1.00  0.00    -0.550 OA
ENDBRANCH  17  18
ENDBRANCH  16  17
ENDBRANCH  15  16
ENDBRANCH  14  15
ENDBRANCH  13  14
ENDBRANCH  12  13
ENDBRANCH  11  12
ENDBRANCH   1  11
TORSDOF 15
ENDMDL
MODEL 7
REMARK VINA RESULT:    -1.525      3.202      6.271
REMARK INTER + INTRA:          -4.388
REMARK INTER:                  -2.262
REMARK INTRA:                  -2.126
REMARK UNBOUND:                -1.526
REMARK SMILES O=C([O-])CCCCCCCCCCCCCCC(=O)[O-]
REMARK SMILES IDX 10 1 9 2 8 3 7 4 6 5 5 6 4 7 2 8 1 9 3 10 11 11 12 12 13 13
REMARK SMILES IDX 14 14 15 15 16 16 17 17 18 18 19 19 20 20
REMARK H PARENT
REMARK Flexibility Score: inf
ROOT
ATOM      1  C   UNL     1     -10.364 -17.399  12.364  1.00  0.00     0.000 C 
ENDROOT
BRANCH   1   2
ATOM      2  C   UNL     1     -11.378 -16.948  13.430  1.00  0.00     0.000 C 
BRANCH   2   3
ATOM      3  C   UNL     1     -10.751 -16.371  14.716  1.00  0.00     0.000 C 
BRANCH   3   4
ATOM      4  C   UNL     1     -11.020 -17.186  15.995  1.00  0.00     0.000 C 
BRANCH   4   5
ATOM      5  C   UNL     1     -12.164 -18.213  15.887  1.00  0.00     0.000 C 
BRANCH   5   6
ATOM      6  C   UNL     1     -11.749 -19.680  16.123  1.00  0.00     0.006 C 
BRANCH   6   7
ATOM      7  C   UNL     1     -12.079 -20.628  14.959  1.00  0.00     0.053 C 
BRANCH   7   8
ATOM      8  C   UNL     1     -13.174 -21.587  15.311  1.00  0.00     0.041 C 
ATOM      9  O   UNL     1     -14.363 -21.342  14.976  1.00  0.00    -0.550 OA
ATOM     10  O   UNL     1     -12.888 -22.735  16.039  1.00  0.00    -0.550 OA
ENDBRANCH   7   8
ENDBRANCH   6   7
ENDBRANCH   5   6
ENDBRANCH   4   5
ENDBRANCH   3   4
ENDBRANCH   2   3
ENDBRANCH   1   2
BRANCH   1  11
ATOM     11  C   UNL     1      -9.610 -18.680  12.762  1.00  0.00     0.000 C 
BRANCH  11  12
ATOM     12  C   UNL     1      -8.136 -18.418  13.109  1.00  0.00     0.000 C 
BRANCH  12  13
ATOM     13  C   UNL     1      -7.875 -18.439  14.625  1.00  0.00     0.000 C 
BRANCH  13  14
ATOM     14  C   UNL     1      -8.539 -19.640  15.320  1.00  0.00     0.000 C 
BRANCH  14  15
ATOM     15  C   UNL     1      -7.878 -20.977  14.944  1.00  0.00     0.000 C 
BRANCH  15  16
ATOM     16  C   UNL     1      -8.886 -22.139  14.868  1.00  0.00     0.006 C 
BRANCH  16  17
ATOM     17  C   UNL     1      -8.657 -23.103  13.693  1.00  0.00     0.053 C 
BRANCH  17  18
ATOM     18  C   UNL     1      -9.418 -22.691  12.470  1.00  0.00     0.041 C 
ATOM     19  O   UNL     1      -8.803 -22.357  11.424  1.00  0.00    -0.550 OA
ATOM     20  O   UNL     1     -10.806 -22.645  12.498  1.00  0.00    -0.550 OA
ENDBRANCH  17  18
ENDBRANCH  16  17
ENDBRANCH  15  16
ENDBRANCH  14  15
ENDBRANCH  13  14
ENDBRANCH  12  13
ENDBRANCH  11  12
ENDBRANCH   1  11
TORSDOF 15
ENDMDL
