MODEL 1
REMARK VINA RESULT:    -5.202      0.000      0.000
REMARK INTER + INTRA:          -5.202
REMARK INTER:                  -5.202
REMARK INTRA:                   0.000
REMARK UNBOUND:                 0.000
REMARK SMILES CC1(C)[C@@H]2CC[C@@]1(C)C(=O)C2
REMARK SMILES IDX 1 1 2 2 4 3 5 4 6 5 7 6 9 7 10 8 11 9 8 10 3 11
REMARK H PARENT
REMARK Flexibility Score: inf
ROOT
ATOM      1  C   UNL     1     116.355 119.281 119.480  1.00  0.00     0.012 C 
ATOM      2  C   UNL     1     117.867 119.551 119.217  1.00  0.00    -0.020 C 
ATOM      3  C   UNL     1     118.252 119.548 117.718  1.00  0.00     0.003 C 
ATOM      4  C   UNL     1     117.966 118.080 117.296  1.00  0.00     0.005 C 
ATOM      5  C   UNL     1     118.365 117.271 118.555  1.00  0.00     0.015 C 
ATOM      6  C   UNL     1     118.817 118.377 119.538  1.00  0.00     0.032 C 
ATOM      7  C   UNL     1     120.110 118.900 118.963  1.00  0.00     0.139 C 
ATOM      8  O   UNL     1     121.233 118.643 119.371  1.00  0.00    -0.299 OA
ATOM      9  C   UNL     1     119.798 119.704 117.739  1.00  0.00     0.080 C 
ATOM     10  C   UNL     1     118.892 117.940 121.006  1.00  0.00     0.020 C 
ATOM     11  C   UNL     1     118.210 120.886 119.947  1.00  0.00     0.012 C 
ENDROOT
TORSDOF 0
ENDMDL
MODEL 2
REMARK VINA RESULT:    -5.185      1.442      2.253
REMARK INTER + INTRA:          -5.185
REMARK INTER:                  -5.185
REMARK INTRA:                   0.000
REMARK UNBOUND:                 0.000
REMARK SMILES CC1(C)[C@@H]2CC[C@@]1(C)C(=O)C2
REMARK SMILES IDX 1 1 2 2 4 3 5 4 6 5 7 6 9 7 10 8 11 9 8 10 3 11
REMARK H PARENT
REMARK Flexibility Score: inf
ROOT
ATOM      1  C   UNL     1     118.312 116.339 119.562  1.00  0.00     0.012 C 
ATOM      2  C   UNL     1     118.023 117.845 119.284  1.00  0.00    -0.020 C 
ATOM      3  C   UNL     1     118.060 118.223 117.784  1.00  0.00     0.003 C 
ATOM      4  C   UNL     1     119.543 117.961 117.401  1.00  0.00     0.005 C 
ATOM      5  C   UNL     1     120.311 118.380 118.680  1.00  0.00     0.015 C 
ATOM      6  C   UNL     1     119.172 118.817 119.631  1.00  0.00     0.032 C 
ATOM      7  C   UNL     1     118.643 120.098 119.035  1.00  0.00     0.139 C 
ATOM      8  O   UNL     1     118.869 121.227 119.444  1.00  0.00    -0.299 OA
ATOM      9  C   UNL     1     117.877 119.766 117.792  1.00  0.00     0.080 C 
ATOM     10  C   UNL     1     119.568 118.906 121.109  1.00  0.00     0.020 C 
ATOM     11  C   UNL     1     116.663 118.169 119.976  1.00  0.00     0.012 C 
ENDROOT
TORSDOF 0
ENDMDL
MODEL 3
REMARK VINA RESULT:    -5.169      1.862      3.162
REMARK INTER + INTRA:          -5.169
REMARK INTER:                  -5.169
REMARK INTRA:                   0.000
REMARK UNBOUND:                 0.000
REMARK SMILES CC1(C)[C@@H]2CC[C@@]1(C)C(=O)C2
REMARK SMILES IDX 1 1 2 2 4 3 5 4 6 5 7 6 9 7 10 8 11 9 8 10 3 11
REMARK H PARENT
REMARK Flexibility Score: inf
ROOT
ATOM      1  C   UNL     1     121.291 118.279 119.578  1.00  0.00     0.012 C 
ATOM      2  C   UNL     1     119.783 118.009 119.289  1.00  0.00    -0.020 C 
ATOM      3  C   UNL     1     119.409 118.086 117.790  1.00  0.00     0.003 C 
ATOM      4  C   UNL     1     119.685 119.576 117.444  1.00  0.00     0.005 C 
ATOM      5  C   UNL     1     119.269 120.316 118.740  1.00  0.00     0.015 C 
ATOM      6  C   UNL     1     118.820 119.157 119.662  1.00  0.00     0.032 C 
ATOM      7  C   UNL     1     117.536 118.654 119.051  1.00  0.00     0.139 C 
ATOM      8  O   UNL     1     116.408 118.880 119.462  1.00  0.00    -0.299 OA
ATOM      9  C   UNL     1     117.864 117.915 117.791  1.00  0.00     0.080 C 
ATOM     10  C   UNL     1     118.730 119.518 121.150  1.00  0.00     0.020 C 
ATOM     11  C   UNL     1     119.446 116.636 119.948  1.00  0.00     0.012 C 
ENDROOT
TORSDOF 0
ENDMDL
MODEL 4
REMARK VINA RESULT:    -5.148      1.412      2.227
REMARK INTER + INTRA:          -5.148
REMARK INTER:                  -5.148
REMARK INTRA:                   0.000
REMARK UNBOUND:                 0.000
REMARK SMILES CC1(C)[C@@H]2CC[C@@]1(C)C(=O)C2
REMARK SMILES IDX 1 1 2 2 4 3 5 4 6 5 7 6 9 7 10 8 11 9 8 10 3 11
REMARK H PARENT
REMARK Flexibility Score: inf
ROOT
ATOM      1  C   UNL     1     119.317 121.268 119.592  1.00  0.00     0.012 C 
ATOM      2  C   UNL     1     119.589 119.764 119.290  1.00  0.00    -0.020 C 
ATOM      3  C   UNL     1     119.537 119.408 117.785  1.00  0.00     0.003 C 
ATOM      4  C   UNL     1     118.053 119.690 117.418  1.00  0.00     0.005 C 
ATOM      5  C   UNL     1     117.291 119.260 118.696  1.00  0.00     0.015 C 
ATOM      6  C   UNL     1     118.433 118.797 119.632  1.00  0.00     0.032 C 
ATOM      7  C   UNL     1     118.945 117.521 119.014  1.00  0.00     0.139 C 
ATOM      8  O   UNL     1     118.711 116.388 119.407  1.00  0.00    -0.299 OA
ATOM      9  C   UNL     1     119.705 117.863 117.770  1.00  0.00     0.080 C 
ATOM     10  C   UNL     1     118.047 118.691 121.112  1.00  0.00     0.020 C 
ATOM     11  C   UNL     1     120.950 119.416 119.968  1.00  0.00     0.012 C 
ENDROOT
TORSDOF 0
ENDMDL
MODEL 5
REMARK VINA RESULT:    -5.051      1.145      2.716
REMARK INTER + INTRA:          -5.051
REMARK INTER:                  -5.051
REMARK INTRA:                   0.000
REMARK UNBOUND:                 0.000
REMARK SMILES CC1(C)[C@@H]2CC[C@@]1(C)C(=O)C2
REMARK SMILES IDX 1 1 2 2 4 3 5 4 6 5 7 6 9 7 10 8 11 9 8 10 3 11
REMARK H PARENT
REMARK Flexibility Score: inf
ROOT
ATOM      1  C   UNL     1     116.853 119.890 118.542  1.00  0.00     0.012 C 
ATOM      2  C   UNL     1     118.022 118.981 119.028  1.00  0.00    -0.020 C 
ATOM      3  C   UNL     1     118.769 119.531 120.266  1.00  0.00     0.003 C 
ATOM      4  C   UNL     1     119.400 120.846 119.729  1.00  0.00     0.005 C 
ATOM      5  C   UNL     1     119.770 120.483 118.269  1.00  0.00     0.015 C 
ATOM      6  C   UNL     1     119.296 119.014 118.155  1.00  0.00     0.032 C 
ATOM      7  C   UNL     1     120.249 118.232 119.024  1.00  0.00     0.139 C 
ATOM      8  O   UNL     1     121.175 117.539 118.630  1.00  0.00    -0.299 OA
ATOM      9  C   UNL     1     119.942 118.530 120.459  1.00  0.00     0.080 C 
ATOM     10  C   UNL     1     119.154 118.495 116.719  1.00  0.00     0.020 C 
ATOM     11  C   UNL     1     117.417 117.560 119.243  1.00  0.00     0.012 C 
ENDROOT
TORSDOF 0
ENDMDL
MODEL 6
REMARK VINA RESULT:    -5.024      1.700      3.106
REMARK INTER + INTRA:          -5.024
REMARK INTER:                  -5.024
REMARK INTRA:                   0.000
REMARK UNBOUND:                 0.000
REMARK SMILES CC1(C)[C@@H]2CC[C@@]1(C)C(=O)C2
REMARK SMILES IDX 1 1 2 2 4 3 5 4 6 5 7 6 9 7 10 8 11 9 8 10 3 11
REMARK H PARENT
REMARK Flexibility Score: inf
ROOT
ATOM      1  C   UNL     1     120.030 120.743 118.559  1.00  0.00     0.012 C 
ATOM      2  C   UNL     1     119.092 119.583 119.010  1.00  0.00    -0.020 C 
ATOM      3  C   UNL     1     119.631 118.775 120.214  1.00  0.00     0.003 C 
ATOM      4  C   UNL     1     120.921 118.126 119.641  1.00  0.00     0.005 C 
ATOM      5  C   UNL     1     120.534 117.821 118.172  1.00  0.00     0.015 C 
ATOM      6  C   UNL     1     119.080 118.342 118.090  1.00  0.00     0.032 C 
ATOM      7  C   UNL     1     118.278 117.380 118.931  1.00  0.00     0.139 C 
ATOM      8  O   UNL     1     117.553 116.490 118.510  1.00  0.00    -0.299 OA
ATOM      9  C   UNL     1     118.597 117.625 120.373  1.00  0.00     0.080 C 
ATOM     10  C   UNL     1     118.552 118.553 116.666  1.00  0.00     0.020 C 
ATOM     11  C   UNL     1     117.691 120.221 119.262  1.00  0.00     0.012 C 
ENDROOT
TORSDOF 0
ENDMDL
MODEL 7
REMARK VINA RESULT:    -4.898      1.655      2.695
REMARK INTER + INTRA:          -4.898
REMARK INTER:                  -4.898
REMARK INTRA:                   0.000
REMARK UNBOUND:                 0.000
REMARK SMILES CC1(C)[C@@H]2CC[C@@]1(C)C(=O)C2
REMARK SMILES IDX 1 1 2 2 4 3 5 4 6 5 7 6 9 7 10 8 11 9 8 10 3 11
REMARK H PARENT
REMARK Flexibility Score: inf
ROOT
ATOM      1  C   UNL     1     119.036 118.612 116.763  1.00  0.00     0.012 C 
ATOM      2  C   UNL     1     118.633 118.943 118.232  1.00  0.00    -0.020 C 
ATOM      3  C   UNL     1     119.740 119.663 119.038  1.00  0.00     0.003 C 
ATOM      4  C   UNL     1     120.867 118.595 119.100  1.00  0.00     0.005 C 
ATOM      5  C   UNL     1     120.081 117.266 119.220  1.00  0.00     0.015 C 
ATOM      6  C   UNL     1     118.608 117.740 119.201  1.00  0.00     0.032 C 
ATOM      7  C   UNL     1     118.415 118.449 120.518  1.00  0.00     0.139 C 
ATOM      8  O   UNL     1     117.834 118.001 121.496  1.00  0.00    -0.299 OA
ATOM      9  C   UNL     1     119.145 119.755 120.471  1.00  0.00     0.080 C 
ATOM     10  C   UNL     1     117.583 116.641 118.900  1.00  0.00     0.020 C 
ATOM     11  C   UNL     1     117.297 119.743 118.153  1.00  0.00     0.012 C 
ENDROOT
TORSDOF 0
ENDMDL
MODEL 8
REMARK VINA RESULT:    -4.885      1.580      2.332
REMARK INTER + INTRA:          -4.885
REMARK INTER:                  -4.885
REMARK INTRA:                   0.000
REMARK UNBOUND:                 0.000
REMARK SMILES CC1(C)[C@@H]2CC[C@@]1(C)C(=O)C2
REMARK SMILES IDX 1 1 2 2 4 3 5 4 6 5 7 6 9 7 10 8 11 9 8 10 3 11
REMARK H PARENT
REMARK Flexibility Score: inf
ROOT
ATOM      1  C   UNL     1     119.323 119.216 121.067  1.00  0.00     0.012 C 
ATOM      2  C   UNL     1     119.061 119.522 119.562  1.00  0.00    -0.020 C 
ATOM      3  C   UNL     1     117.562 119.641 119.198  1.00  0.00     0.003 C 
ATOM      4  C   UNL     1     117.028 118.208 119.476  1.00  0.00     0.005 C 
ATOM      5  C   UNL     1     118.214 117.306 119.052  1.00  0.00     0.015 C 
ATOM      6  C   UNL     1     119.275 118.335 118.596  1.00  0.00     0.032 C 
ATOM      7  C   UNL     1     118.726 118.915 117.316  1.00  0.00     0.139 C 
ATOM      8  O   UNL     1     119.096 118.638 116.185  1.00  0.00    -0.299 OA
ATOM      9  C   UNL     1     117.574 119.811 117.653  1.00  0.00     0.080 C 
ATOM     10  C   UNL     1     120.703 117.785 118.496  1.00  0.00     0.020 C 
ATOM     11  C   UNL     1     119.890 120.798 119.220  1.00  0.00     0.012 C 
ENDROOT
TORSDOF 0
ENDMDL
MODEL 9
REMARK VINA RESULT:    -4.881      1.567      2.565
REMARK INTER + INTRA:          -4.881
REMARK INTER:                  -4.881
REMARK INTRA:                   0.000
REMARK UNBOUND:                 0.000
REMARK SMILES CC1(C)[C@@H]2CC[C@@]1(C)C(=O)C2
REMARK SMILES IDX 1 1 2 2 4 3 5 4 6 5 7 6 9 7 10 8 11 9 8 10 3 11
REMARK H PARENT
REMARK Flexibility Score: inf
ROOT
ATOM      1  C   UNL     1     118.130 119.372 120.967  1.00  0.00     0.012 C 
ATOM      2  C   UNL     1     117.955 119.103 119.442  1.00  0.00    -0.020 C 
ATOM      3  C   UNL     1     117.858 117.602 119.078  1.00  0.00     0.003 C 
ATOM      4  C   UNL     1     119.258 117.062 119.483  1.00  0.00     0.005 C 
ATOM      5  C   UNL     1     120.201 118.240 119.132  1.00  0.00     0.015 C 
ATOM      6  C   UNL     1     119.222 119.305 118.583  1.00  0.00     0.032 C 
ATOM      7  C   UNL     1     118.753 118.751 117.260  1.00  0.00     0.139 C 
ATOM      8  O   UNL     1     119.129 119.113 116.156  1.00  0.00    -0.299 OA
ATOM      9  C   UNL     1     117.824 117.606 117.524  1.00  0.00     0.080 C 
ATOM     10  C   UNL     1     119.788 120.728 118.524  1.00  0.00     0.020 C 
ATOM     11  C   UNL     1     116.718 119.937 118.986  1.00  0.00     0.012 C 
ENDROOT
TORSDOF 0
ENDMDL
