MODEL 1
REMARK VINA RESULT:    -3.744      0.000      0.000
REMARK INTER + INTRA:          -5.767
REMARK INTER:                  -5.494
REMARK INTRA:                  -0.272
REMARK UNBOUND:                -0.272
REMARK SMILES O=C([O-])CCCCCCCC(=O)[O-]
REMARK SMILES IDX 7 1 6 2 5 3 4 4 2 5 1 6 3 7 8 8 9 9 10 10 11 11 12 12 13 13
REMARK H PARENT
REMARK Flexibility Score: inf
ROOT
ATOM      1  C   UNL     1     -95.236 148.813 240.865  1.00  0.00     0.000 C 
ENDROOT
BRANCH   1   2
ATOM      2  C   UNL     1     -96.319 149.768 241.391  1.00  0.00     0.000 C 
BRANCH   2   3
ATOM      3  C   UNL     1     -97.560 149.025 241.914  1.00  0.00     0.006 C 
BRANCH   3   4
ATOM      4  C   UNL     1     -98.491 149.946 242.714  1.00  0.00     0.053 C 
BRANCH   4   5
ATOM      5  C   UNL     1     -98.404 149.679 244.185  1.00  0.00     0.041 C 
ATOM      6  O   UNL     1     -98.304 148.499 244.612  1.00  0.00    -0.550 OA
ATOM      7  O   UNL     1     -98.400 150.738 245.086  1.00  0.00    -0.550 OA
ENDBRANCH   4   5
ENDBRANCH   3   4
ENDBRANCH   2   3
ENDBRANCH   1   2
BRANCH   1   8
ATOM      8  C   UNL     1     -95.297 148.632 239.341  1.00  0.00     0.000 C 
BRANCH   8   9
ATOM      9  C   UNL     1     -93.911 148.298 238.771  1.00  0.00     0.006 C 
BRANCH   9  10
ATOM     10  C   UNL     1     -93.781 146.818 238.386  1.00  0.00     0.053 C 
BRANCH  10  11
ATOM     11  C   UNL     1     -92.900 146.069 239.338  1.00  0.00     0.041 C 
ATOM     12  O   UNL     1     -91.658 146.016 239.142  1.00  0.00    -0.550 OA
ATOM     13  O   UNL     1     -93.456 145.400 240.422  1.00  0.00    -0.550 OA
ENDBRANCH  10  11
ENDBRANCH   9  10
ENDBRANCH   8   9
ENDBRANCH   1   8
TORSDOF 8
ENDMDL
MODEL 2
REMARK VINA RESULT:    -3.672      1.376      6.802
REMARK INTER + INTRA:          -5.662
REMARK INTER:                  -5.264
REMARK INTRA:                  -0.398
REMARK UNBOUND:                -0.272
REMARK SMILES O=C([O-])CCCCCCCC(=O)[O-]
REMARK SMILES IDX 7 1 6 2 5 3 4 4 2 5 1 6 3 7 8 8 9 9 10 10 11 11 12 12 13 13
REMARK H PARENT
REMARK Flexibility Score: inf
ROOT
ATOM      1  C   UNL     1     -94.651 148.425 240.850  1.00  0.00     0.000 C 
ENDROOT
BRANCH   1   2
ATOM      2  C   UNL     1     -94.600 146.932 241.211  1.00  0.00     0.000 C 
BRANCH   2   3
ATOM      3  C   UNL     1     -93.822 146.099 240.177  1.00  0.00     0.006 C 
BRANCH   3   4
ATOM      4  C   UNL     1     -93.109 146.980 239.143  1.00  0.00     0.053 C 
BRANCH   4   5
ATOM      5  C   UNL     1     -92.484 146.162 238.055  1.00  0.00     0.041 C 
ATOM      6  O   UNL     1     -93.059 146.042 236.941  1.00  0.00    -0.550 OA
ATOM      7  O   UNL     1     -91.249 145.558 238.260  1.00  0.00    -0.550 OA
ENDBRANCH   4   5
ENDBRANCH   3   4
ENDBRANCH   2   3
ENDBRANCH   1   2
BRANCH   1   8
ATOM      8  C   UNL     1     -96.062 148.890 240.458  1.00  0.00     0.000 C 
BRANCH   8   9
ATOM      9  C   UNL     1     -96.614 149.891 241.484  1.00  0.00     0.006 C 
BRANCH   9  10
ATOM     10  C   UNL     1     -97.983 149.466 242.032  1.00  0.00     0.053 C 
BRANCH  10  11
ATOM     11  C   UNL     1     -97.857 148.698 243.311  1.00  0.00     0.041 C 
ATOM     12  O   UNL     1     -98.061 149.268 244.415  1.00  0.00    -0.550 OA
ATOM     13  O   UNL     1     -97.478 147.361 243.287  1.00  0.00    -0.550 OA
ENDBRANCH  10  11
ENDBRANCH   9  10
ENDBRANCH   8   9
ENDBRANCH   1   8
TORSDOF 8
ENDMDL
MODEL 3
REMARK VINA RESULT:    -3.662      1.378      1.997
REMARK INTER + INTRA:          -5.647
REMARK INTER:                  -5.304
REMARK INTRA:                  -0.343
REMARK UNBOUND:                -0.272
REMARK SMILES O=C([O-])CCCCCCCC(=O)[O-]
REMARK SMILES IDX 7 1 6 2 5 3 4 4 2 5 1 6 3 7 8 8 9 9 10 10 11 11 12 12 13 13
REMARK H PARENT
REMARK Flexibility Score: inf
ROOT
ATOM      1  C   UNL     1     -94.643 148.339 240.727  1.00  0.00     0.000 C 
ENDROOT
BRANCH   1   2
ATOM      2  C   UNL     1     -96.071 148.839 240.458  1.00  0.00     0.000 C 
BRANCH   2   3
ATOM      3  C   UNL     1     -96.517 149.922 241.456  1.00  0.00     0.006 C 
BRANCH   3   4
ATOM      4  C   UNL     1     -97.945 149.686 241.966  1.00  0.00     0.053 C 
BRANCH   4   5
ATOM      5  C   UNL     1     -97.951 149.087 243.339  1.00  0.00     0.041 C 
ATOM      6  O   UNL     1     -98.332 149.767 244.327  1.00  0.00    -0.550 OA
ATOM      7  O   UNL     1     -97.566 147.763 243.522  1.00  0.00    -0.550 OA
ENDBRANCH   4   5
ENDBRANCH   3   4
ENDBRANCH   2   3
ENDBRANCH   1   2
BRANCH   1   8
ATOM      8  C   UNL     1     -94.605 146.863 241.151  1.00  0.00     0.000 C 
BRANCH   8   9
ATOM      9  C   UNL     1     -93.779 146.029 240.161  1.00  0.00     0.006 C 
BRANCH   9  10
ATOM     10  C   UNL     1     -92.996 146.906 239.174  1.00  0.00     0.053 C 
BRANCH  10  11
ATOM     11  C   UNL     1     -92.424 146.103 238.047  1.00  0.00     0.041 C 
ATOM     12  O   UNL     1     -91.280 145.587 238.154  1.00  0.00    -0.550 OA
ATOM     13  O   UNL     1     -93.138 145.954 236.864  1.00  0.00    -0.550 OA
ENDBRANCH  10  11
ENDBRANCH   9  10
ENDBRANCH   8   9
ENDBRANCH   1   8
TORSDOF 8
ENDMDL
MODEL 4
REMARK VINA RESULT:    -3.621      3.242      4.778
REMARK INTER + INTRA:          -5.587
REMARK INTER:                  -5.251
REMARK INTRA:                  -0.336
REMARK UNBOUND:                -0.272
REMARK SMILES O=C([O-])CCCCCCCC(=O)[O-]
REMARK SMILES IDX 7 1 6 2 5 3 4 4 2 5 1 6 3 7 8 8 9 9 10 10 11 11 12 12 13 13
REMARK H PARENT
REMARK Flexibility Score: inf
ROOT
ATOM      1  C   UNL     1     -92.024 146.040 238.986  1.00  0.00     0.000 C 
ENDROOT
BRANCH   1   2
ATOM      2  C   UNL     1     -93.478 146.507 239.161  1.00  0.00     0.000 C 
BRANCH   2   3
ATOM      3  C   UNL     1     -93.579 147.980 239.593  1.00  0.00     0.006 C 
BRANCH   3   4
ATOM      4  C   UNL     1     -95.019 148.506 239.523  1.00  0.00     0.053 C 
BRANCH   4   5
ATOM      5  C   UNL     1     -95.625 148.644 240.886  1.00  0.00     0.041 C 
ATOM      6  O   UNL     1     -95.750 147.637 241.630  1.00  0.00    -0.550 OA
ATOM      7  O   UNL     1     -96.021 149.894 241.348  1.00  0.00    -0.550 OA
ENDBRANCH   4   5
ENDBRANCH   3   4
ENDBRANCH   2   3
ENDBRANCH   1   2
BRANCH   1   8
ATOM      8  C   UNL     1     -91.700 145.651 237.535  1.00  0.00     0.000 C 
BRANCH   8   9
ATOM      9  C   UNL     1     -92.858 146.020 236.596  1.00  0.00     0.006 C 
BRANCH   9  10
ATOM     10  C   UNL     1     -92.415 146.097 235.129  1.00  0.00     0.053 C 
BRANCH  10  11
ATOM     11  C   UNL     1     -93.111 147.200 234.394  1.00  0.00     0.041 C 
ATOM     12  O   UNL     1     -92.500 147.855 233.509  1.00  0.00    -0.550 OA
ATOM     13  O   UNL     1     -94.423 147.529 234.711  1.00  0.00    -0.550 OA
ENDBRANCH  10  11
ENDBRANCH   9  10
ENDBRANCH   8   9
ENDBRANCH   1   8
TORSDOF 8
ENDMDL
MODEL 5
REMARK VINA RESULT:    -3.603      0.765      6.730
REMARK INTER + INTRA:          -5.561
REMARK INTER:                  -5.208
REMARK INTRA:                  -0.353
REMARK UNBOUND:                -0.272
REMARK SMILES O=C([O-])CCCCCCCC(=O)[O-]
REMARK SMILES IDX 7 1 6 2 5 3 4 4 2 5 1 6 3 7 8 8 9 9 10 10 11 11 12 12 13 13
REMARK H PARENT
REMARK Flexibility Score: inf
ROOT
ATOM      1  C   UNL     1     -96.068 148.567 241.153  1.00  0.00     0.000 C 
ENDROOT
BRANCH   1   2
ATOM      2  C   UNL     1     -94.585 148.612 240.753  1.00  0.00     0.000 C 
BRANCH   2   3
ATOM      3  C   UNL     1     -94.361 148.264 239.270  1.00  0.00     0.006 C 
BRANCH   3   4
ATOM      4  C   UNL     1     -94.499 146.759 239.002  1.00  0.00     0.053 C 
BRANCH   4   5
ATOM      5  C   UNL     1     -93.407 145.977 239.666  1.00  0.00     0.041 C 
ATOM      6  O   UNL     1     -93.677 145.178 240.602  1.00  0.00    -0.550 OA
ATOM      7  O   UNL     1     -92.094 146.104 239.228  1.00  0.00    -0.550 OA
ENDBRANCH   4   5
ENDBRANCH   3   4
ENDBRANCH   2   3
ENDBRANCH   1   2
BRANCH   1   8
ATOM      8  C   UNL     1     -96.637 149.958 241.468  1.00  0.00     0.000 C 
BRANCH   8   9
ATOM      9  C   UNL     1     -97.961 149.848 242.238  1.00  0.00     0.006 C 
BRANCH   9  10
ATOM     10  C   UNL     1     -97.931 148.729 243.289  1.00  0.00     0.053 C 
BRANCH  10  11
ATOM     11  C   UNL     1     -98.467 149.190 244.609  1.00  0.00     0.041 C 
ATOM     12  O   UNL     1     -99.055 148.379 245.372  1.00  0.00    -0.550 OA
ATOM     13  O   UNL     1     -98.350 150.524 244.981  1.00  0.00    -0.550 OA
ENDBRANCH  10  11
ENDBRANCH   9  10
ENDBRANCH   8   9
ENDBRANCH   1   8
TORSDOF 8
ENDMDL
MODEL 6
REMARK VINA RESULT:    -3.591      2.950      7.166
REMARK INTER + INTRA:          -5.542
REMARK INTER:                  -5.017
REMARK INTRA:                  -0.526
REMARK UNBOUND:                -0.272
REMARK SMILES O=C([O-])CCCCCCCC(=O)[O-]
REMARK SMILES IDX 7 1 6 2 5 3 4 4 2 5 1 6 3 7 8 8 9 9 10 10 11 11 12 12 13 13
REMARK H PARENT
REMARK Flexibility Score: inf
ROOT
ATOM      1  C   UNL     1     -93.415 146.439 239.033  1.00  0.00     0.000 C 
ENDROOT
BRANCH   1   2
ATOM      2  C   UNL     1     -92.002 146.001 238.615  1.00  0.00     0.000 C 
BRANCH   2   3
ATOM      3  C   UNL     1     -91.896 145.705 237.109  1.00  0.00     0.006 C 
BRANCH   3   4
ATOM      4  C   UNL     1     -93.250 145.826 236.398  1.00  0.00     0.053 C 
BRANCH   4   5
ATOM      5  C   UNL     1     -93.191 146.793 235.255  1.00  0.00     0.041 C 
ATOM      6  O   UNL     1     -92.252 146.730 234.419  1.00  0.00    -0.550 OA
ATOM      7  O   UNL     1     -94.194 147.741 235.093  1.00  0.00    -0.550 OA
ENDBRANCH   4   5
ENDBRANCH   3   4
ENDBRANCH   2   3
ENDBRANCH   1   2
BRANCH   1   8
ATOM      8  C   UNL     1     -93.487 147.929 239.401  1.00  0.00     0.000 C 
BRANCH   8   9
ATOM      9  C   UNL     1     -94.616 148.630 238.632  1.00  0.00     0.006 C 
BRANCH   9  10
ATOM     10  C   UNL     1     -95.978 148.462 239.319  1.00  0.00     0.053 C 
BRANCH  10  11
ATOM     11  C   UNL     1     -95.887 148.682 240.798  1.00  0.00     0.041 C 
ATOM     12  O   UNL     1     -95.686 149.838 241.255  1.00  0.00    -0.550 OA
ATOM     13  O   UNL     1     -95.988 147.605 241.670  1.00  0.00    -0.550 OA
ENDBRANCH  10  11
ENDBRANCH   9  10
ENDBRANCH   8   9
ENDBRANCH   1   8
TORSDOF 8
ENDMDL
MODEL 7
REMARK VINA RESULT:    -3.581      1.002      1.496
REMARK INTER + INTRA:          -5.529
REMARK INTER:                  -5.124
REMARK INTRA:                  -0.405
REMARK UNBOUND:                -0.272
REMARK SMILES O=C([O-])CCCCCCCC(=O)[O-]
REMARK SMILES IDX 7 1 6 2 5 3 4 4 2 5 1 6 3 7 8 8 9 9 10 10 11 11 12 12 13 13
REMARK H PARENT
REMARK Flexibility Score: inf
ROOT
ATOM      1  C   UNL     1     -95.472 148.907 240.765  1.00  0.00     0.000 C 
ENDROOT
BRANCH   1   2
ATOM      2  C   UNL     1     -96.439 149.876 241.463  1.00  0.00     0.000 C 
BRANCH   2   3
ATOM      3  C   UNL     1     -97.789 149.221 241.805  1.00  0.00     0.006 C 
BRANCH   3   4
ATOM      4  C   UNL     1     -97.615 147.912 242.586  1.00  0.00     0.053 C 
BRANCH   4   5
ATOM      5  C   UNL     1     -98.008 148.067 244.023  1.00  0.00     0.041 C 
ATOM      6  O   UNL     1     -98.136 149.215 244.526  1.00  0.00    -0.550 OA
ATOM      7  O   UNL     1     -98.268 146.944 244.799  1.00  0.00    -0.550 OA
ENDBRANCH   4   5
ENDBRANCH   3   4
ENDBRANCH   2   3
ENDBRANCH   1   2
BRANCH   1   8
ATOM      8  C   UNL     1     -95.843 148.658 239.296  1.00  0.00     0.000 C 
BRANCH   8   9
ATOM      9  C   UNL     1     -94.589 148.394 238.450  1.00  0.00     0.006 C 
BRANCH   9  10
ATOM     10  C   UNL     1     -93.391 147.961 239.306  1.00  0.00     0.053 C 
BRANCH  10  11
ATOM     11  C   UNL     1     -93.020 146.531 239.063  1.00  0.00     0.041 C 
ATOM     12  O   UNL     1     -92.619 146.165 237.928  1.00  0.00    -0.550 OA
ATOM     13  O   UNL     1     -93.152 145.594 240.081  1.00  0.00    -0.550 OA
ENDBRANCH  10  11
ENDBRANCH   9  10
ENDBRANCH   8   9
ENDBRANCH   1   8
TORSDOF 8
ENDMDL
MODEL 8
REMARK VINA RESULT:    -3.532      2.137      2.877
REMARK INTER + INTRA:          -5.456
REMARK INTER:                  -4.931
REMARK INTRA:                  -0.525
REMARK UNBOUND:                -0.272
REMARK SMILES O=C([O-])CCCCCCCC(=O)[O-]
REMARK SMILES IDX 7 1 6 2 5 3 4 4 2 5 1 6 3 7 8 8 9 9 10 10 11 11 12 12 13 13
REMARK H PARENT
REMARK Flexibility Score: inf
ROOT
ATOM      1  C   UNL     1     -94.595 146.639 240.962  1.00  0.00     0.000 C 
ENDROOT
BRANCH   1   2
ATOM      2  C   UNL     1     -94.585 148.158 240.729  1.00  0.00     0.000 C 
BRANCH   2   3
ATOM      3  C   UNL     1     -95.985 148.721 240.430  1.00  0.00     0.006 C 
BRANCH   3   4
ATOM      4  C   UNL     1     -96.369 149.856 241.389  1.00  0.00     0.053 C 
BRANCH   4   5
ATOM      5  C   UNL     1     -97.430 149.429 242.356  1.00  0.00     0.041 C 
ATOM      6  O   UNL     1     -98.452 150.142 242.533  1.00  0.00    -0.550 OA
ATOM      7  O   UNL     1     -97.305 148.224 243.038  1.00  0.00    -0.550 OA
ENDBRANCH   4   5
ENDBRANCH   3   4
ENDBRANCH   2   3
ENDBRANCH   1   2
BRANCH   1   8
ATOM      8  C   UNL     1     -93.494 145.914 240.174  1.00  0.00     0.000 C 
BRANCH   8   9
ATOM      9  C   UNL     1     -92.917 146.820 239.077  1.00  0.00     0.006 C 
BRANCH   9  10
ATOM     10  C   UNL     1     -93.028 146.189 237.682  1.00  0.00     0.053 C 
BRANCH  10  11
ATOM     11  C   UNL     1     -94.004 146.922 236.815  1.00  0.00     0.041 C 
ATOM     12  O   UNL     1     -94.304 146.471 235.678  1.00  0.00    -0.550 OA
ATOM     13  O   UNL     1     -94.555 148.122 237.247  1.00  0.00    -0.550 OA
ENDBRANCH  10  11
ENDBRANCH   9  10
ENDBRANCH   8   9
ENDBRANCH   1   8
TORSDOF 8
ENDMDL
MODEL 9
REMARK VINA RESULT:    -3.525      2.864      3.492
REMARK INTER + INTRA:          -5.446
REMARK INTER:                  -4.712
REMARK INTRA:                  -0.734
REMARK UNBOUND:                -0.272
REMARK SMILES O=C([O-])CCCCCCCC(=O)[O-]
REMARK SMILES IDX 7 1 6 2 5 3 4 4 2 5 1 6 3 7 8 8 9 9 10 10 11 11 12 12 13 13
REMARK H PARENT
REMARK Flexibility Score: inf
ROOT
ATOM      1  C   UNL     1     -94.201 148.285 240.431  1.00  0.00     0.000 C 
ENDROOT
BRANCH   1   2
ATOM      2  C   UNL     1     -95.131 147.310 241.171  1.00  0.00     0.000 C 
BRANCH   2   3
ATOM      3  C   UNL     1     -96.447 147.971 241.616  1.00  0.00     0.006 C 
BRANCH   3   4
ATOM      4  C   UNL     1     -96.485 149.468 241.282  1.00  0.00     0.053 C 
BRANCH   4   5
ATOM      5  C   UNL     1     -97.809 150.079 241.627  1.00  0.00     0.041 C 
ATOM      6  O   UNL     1     -98.511 150.620 240.734  1.00  0.00    -0.550 OA
ATOM      7  O   UNL     1     -98.282 150.020 242.933  1.00  0.00    -0.550 OA
ENDBRANCH   4   5
ENDBRANCH   3   4
ENDBRANCH   2   3
ENDBRANCH   1   2
BRANCH   1   8
ATOM      8  C   UNL     1     -93.391 147.600 239.320  1.00  0.00     0.000 C 
BRANCH   8   9
ATOM      9  C   UNL     1     -94.188 147.557 238.007  1.00  0.00     0.006 C 
BRANCH   9  10
ATOM     10  C   UNL     1     -94.966 148.856 237.757  1.00  0.00     0.053 C 
BRANCH  10  11
ATOM     11  C   UNL     1     -96.433 148.604 237.588  1.00  0.00     0.041 C 
ATOM     12  O   UNL     1     -96.950 147.549 238.040  1.00  0.00    -0.550 OA
ATOM     13  O   UNL     1     -97.221 149.518 236.900  1.00  0.00    -0.550 OA
ENDBRANCH  10  11
ENDBRANCH   9  10
ENDBRANCH   8   9
ENDBRANCH   1   8
TORSDOF 8
ENDMDL
