MODEL 1
REMARK VINA RESULT:    75.022      0.000      0.000
REMARK INTER + INTRA:         101.616
REMARK INTER:                  99.143
REMARK INTRA:                   2.473
REMARK UNBOUND:                 2.473
REMARK SMILES CC(C)=CCC[C@@H](C(=O)[O-])[C@H]1CC[C@]2(C)C3=C(CC[C@@]12C)[C@@]1(C)CC[C@H](O)C(C)(C)[C@@H]1CC3
REMARK SMILES IDX 6 1 7 2 8 3 9 4 10 5 11 6 12 7 20 8 13 9 14 10 19 11 21 12
REMARK SMILES IDX 15 13 16 14 18 15 17 16 33 17 22 18 32 19 31 20 24 21 23 22
REMARK SMILES IDX 28 23 25 24 26 25 29 26 30 27 27 28 5 30 4 31 2 32 1 33 3 34
REMARK H PARENT 27 29
REMARK Flexibility Score: inf
ROOT
ATOM      1  C   UNL     1      20.215  18.631  29.047  1.00  0.00     0.014 C 
ENDROOT
BRANCH   1   2
ATOM      2  C   UNL     1      20.224  17.983  27.623  1.00  0.00     0.039 C 
BRANCH   2   3
ATOM      3  C   UNL     1      20.925  16.643  27.584  1.00  0.00     0.045 C 
ATOM      4  O   UNL     1      21.332  16.095  28.642  1.00  0.00    -0.550 OA
ATOM      5  O   UNL     1      21.162  16.023  26.362  1.00  0.00    -0.550 OA
ENDBRANCH   2   3
BRANCH   2   6
ATOM      6  C   UNL     1      18.867  17.935  26.830  1.00  0.00     0.004 C 
ATOM      7  C   UNL     1      18.886  18.361  25.345  1.00  0.00     0.006 C 
ATOM      8  C   UNL     1      17.985  16.633  26.883  1.00  0.00    -0.020 C 
ATOM      9  C   UNL     1      17.845  17.482  24.629  1.00  0.00     0.012 C 
ATOM     10  C   UNL     1      17.890  16.153  25.399  1.00  0.00    -0.006 C 
ATOM     11  C   UNL     1      18.437  15.433  27.739  1.00  0.00     0.012 C 
ATOM     12  C   UNL     1      16.587  17.085  27.458  1.00  0.00     0.012 C 
ATOM     13  C   UNL     1      19.101  15.349  24.815  1.00  0.00     0.017 C 
ATOM     14  C   UNL     1      16.718  15.193  25.288  1.00  0.00    -0.064 C 
ATOM     15  C   UNL     1      17.554  14.171  27.467  1.00  0.00     0.032 C 
ATOM     16  C   UNL     1      16.604  14.200  26.235  1.00  0.00    -0.064 C 
ATOM     17  C   UNL     1      15.717  15.387  24.162  1.00  0.00     0.032 C 
ATOM     18  C   UNL     1      15.652  13.006  25.993  1.00  0.00    -0.008 C 
ATOM     19  C   UNL     1      14.816  14.181  23.890  1.00  0.00     0.009 C 
ATOM     20  C   UNL     1      14.384  13.521  25.215  1.00  0.00     0.007 C 
ATOM     21  C   UNL     1      15.183  12.390  27.340  1.00  0.00     0.014 C 
ATOM     22  C   UNL     1      16.498  11.961  25.217  1.00  0.00     0.016 C 
ATOM     23  C   UNL     1      13.148  12.531  25.097  1.00  0.00    -0.006 C 
ATOM     24  C   UNL     1      14.102  11.322  27.167  1.00  0.00     0.033 C 
ATOM     25  C   UNL     1      12.851  11.901  26.497  1.00  0.00     0.120 C 
ATOM     26  C   UNL     1      13.334  11.421  24.024  1.00  0.00     0.014 C 
ATOM     27  C   UNL     1      11.887  13.345  24.687  1.00  0.00     0.014 C 
BRANCH  25  28
ATOM     28  O   UNL     1      11.889  10.878  26.394  1.00  0.00    -0.393 OA
ATOM     29  H   UNL     1      11.509  10.731  27.300  1.00  0.00     0.210 HD
ENDBRANCH  25  28
ENDBRANCH   2   6
ENDBRANCH   1   2
BRANCH   1  30
ATOM     30  C   UNL     1      21.543  18.663  29.831  1.00  0.00     0.028 C 
BRANCH  30  31
ATOM     31  C   UNL     1      22.230  20.005  29.728  1.00  0.00    -0.028 C 
ATOM     32  C   UNL     1      21.594  21.196  29.766  1.00  0.00    -0.080 C 
ATOM     33  C   UNL     1      22.422  22.453  29.697  1.00  0.00     0.039 C 
ATOM     34  C   UNL     1      20.092  21.300  29.885  1.00  0.00     0.039 C 
ENDBRANCH  30  31
ENDBRANCH   1  30
TORSDOF 6
ENDMDL
MODEL 2
REMARK VINA RESULT:    77.541      1.779      2.968
REMARK INTER + INTRA:         104.945
REMARK INTER:                 105.886
REMARK INTRA:                  -0.940
REMARK UNBOUND:                 2.473
REMARK SMILES CC(C)=CCC[C@@H](C(=O)[O-])[C@H]1CC[C@]2(C)C3=C(CC[C@@]12C)[C@@]1(C)CC[C@H](O)C(C)(C)[C@@H]1CC3
REMARK SMILES IDX 6 1 7 2 8 3 9 4 10 5 11 6 12 7 20 8 13 9 14 10 19 11 21 12
REMARK SMILES IDX 15 13 16 14 18 15 17 16 33 17 22 18 32 19 31 20 24 21 23 22
REMARK SMILES IDX 28 23 25 24 26 25 29 26 30 27 27 28 5 30 4 31 2 32 1 33 3 34
REMARK H PARENT 27 29
REMARK Flexibility Score: inf
ROOT
ATOM      1  C   UNL     1      21.449  16.839  28.058  1.00  0.00     0.014 C 
ENDROOT
BRANCH   1   2
ATOM      2  C   UNL     1      20.213  17.725  28.424  1.00  0.00     0.039 C 
BRANCH   2   3
ATOM      3  C   UNL     1      20.588  19.138  28.811  1.00  0.00     0.045 C 
ATOM      4  O   UNL     1      19.969  20.126  28.333  1.00  0.00    -0.550 OA
ATOM      5  O   UNL     1      21.656  19.358  29.673  1.00  0.00    -0.550 OA
ENDBRANCH   2   3
BRANCH   2   6
ATOM      6  C   UNL     1      18.986  17.714  27.441  1.00  0.00     0.004 C 
ATOM      7  C   UNL     1      19.236  18.131  25.974  1.00  0.00     0.006 C 
ATOM      8  C   UNL     1      18.064  16.442  27.366  1.00  0.00    -0.020 C 
ATOM      9  C   UNL     1      18.284  17.280  25.114  1.00  0.00     0.012 C 
ATOM     10  C   UNL     1      18.172  15.955  25.884  1.00  0.00    -0.006 C 
ATOM     11  C   UNL     1      18.347  15.233  28.281  1.00  0.00     0.012 C 
ATOM     12  C   UNL     1      16.612  16.941  27.729  1.00  0.00     0.012 C 
ATOM     13  C   UNL     1      19.430  15.110  25.486  1.00  0.00     0.017 C 
ATOM     14  C   UNL     1      16.999  15.033  25.604  1.00  0.00    -0.064 C 
ATOM     15  C   UNL     1      17.473  13.998  27.884  1.00  0.00     0.032 C 
ATOM     16  C   UNL     1      16.715  14.049  26.526  1.00  0.00    -0.064 C 
ATOM     17  C   UNL     1      16.181  15.250  24.343  1.00  0.00     0.032 C 
ATOM     18  C   UNL     1      15.771  12.885  26.149  1.00  0.00    -0.008 C 
ATOM     19  C   UNL     1      15.290  14.072  23.944  1.00  0.00     0.009 C 
ATOM     20  C   UNL     1      14.648  13.434  25.192  1.00  0.00     0.007 C 
ATOM     21  C   UNL     1      15.090  12.292  27.413  1.00  0.00     0.014 C 
ATOM     22  C   UNL     1      16.688  11.808  25.507  1.00  0.00     0.016 C 
ATOM     23  C   UNL     1      13.412  12.483  24.895  1.00  0.00    -0.006 C 
ATOM     24  C   UNL     1      14.012  11.258  27.085  1.00  0.00     0.033 C 
ATOM     25  C   UNL     1      12.893  11.872  26.238  1.00  0.00     0.120 C 
ATOM     26  C   UNL     1      13.717  11.361  23.863  1.00  0.00     0.014 C 
ATOM     27  C   UNL     1      12.251  13.334  24.303  1.00  0.00     0.014 C 
BRANCH  25  28
ATOM     28  O   UNL     1      11.923  10.880  25.997  1.00  0.00    -0.393 OA
ATOM     29  H   UNL     1      12.348   9.998  26.167  1.00  0.00     0.210 HD
ENDBRANCH  25  28
ENDBRANCH   2   6
ENDBRANCH   1   2
BRANCH   1  30
ATOM     30  C   UNL     1      21.548  15.440  28.699  1.00  0.00     0.028 C 
BRANCH  30  31
ATOM     31  C   UNL     1      20.983  15.416  30.101  1.00  0.00    -0.028 C 
ATOM     32  C   UNL     1      20.643  14.294  30.770  1.00  0.00    -0.080 C 
ATOM     33  C   UNL     1      20.134  14.428  32.182  1.00  0.00     0.039 C 
ATOM     34  C   UNL     1      20.767  12.921  30.152  1.00  0.00     0.039 C 
ENDBRANCH  30  31
ENDBRANCH   1  30
TORSDOF 6
ENDMDL
