MODEL 1
REMARK VINA RESULT:    -6.621      0.000      0.000
REMARK INTER + INTRA:          -8.046
REMARK INTER:                  -7.782
REMARK INTRA:                  -0.264
REMARK UNBOUND:                -0.264
REMARK SMILES O=c1cc(-c2ccc(O)c(O)c2)oc2cc(O)cc(O)c12
REMARK SMILES IDX 4 1 3 2 2 3 1 4 21 5 19 6 18 7 16 8 15 9 14 10 13 11 5 12
REMARK SMILES IDX 6 13 7 14 8 15 12 16 10 17 9 18 11 20 20 22 17 24
REMARK H PARENT 9 19 11 21 20 23 17 25
REMARK Flexibility Score: inf
ROOT
ATOM      1  C   UNL     1       6.177  42.937  37.345  1.00  0.00     0.138 A 
ATOM      2  C   UNL     1       4.908  42.890  37.947  1.00  0.00     0.100 A 
ATOM      3  C   UNL     1       4.444  43.998  38.659  1.00  0.00     0.197 A 
ATOM      4  O   UNL     1       3.304  43.947  39.194  1.00  0.00    -0.289 OA
ATOM      5  C   UNL     1       5.252  45.148  38.760  1.00  0.00     0.107 A 
ATOM      6  C   UNL     1       4.859  46.312  39.462  1.00  0.00     0.134 A 
ATOM      7  C   UNL     1       5.721  47.417  39.512  1.00  0.00     0.093 A 
ATOM      8  C   UNL     1       6.963  47.383  38.873  1.00  0.00     0.123 A 
ATOM      9  C   UNL     1       7.357  46.235  38.178  1.00  0.00     0.094 A 
ATOM     10  C   UNL     1       6.514  45.122  38.118  1.00  0.00     0.146 A 
ATOM     11  O   UNL     1       6.911  44.042  37.452  1.00  0.00    -0.456 OA
ENDROOT
BRANCH   1  12
ATOM     12  C   UNL     1       6.720  41.790  36.575  1.00  0.00     0.021 A 
ATOM     13  C   UNL     1       6.692  41.826  35.170  1.00  0.00     0.016 A 
ATOM     14  C   UNL     1       7.204  40.764  34.422  1.00  0.00     0.051 A 
ATOM     15  C   UNL     1       7.763  39.651  35.063  1.00  0.00     0.157 A 
ATOM     16  C   UNL     1       7.296  40.675  37.214  1.00  0.00     0.062 A 
ATOM     17  C   UNL     1       7.812  39.610  36.466  1.00  0.00     0.158 A 
BRANCH  15  18
ATOM     18  O   UNL     1       8.272  38.592  34.313  1.00  0.00    -0.504 OA
ATOM     19  H   UNL     1       7.667  37.876  33.928  1.00  0.00     0.293 HD
ENDBRANCH  15  18
BRANCH  17  20
ATOM     20  O   UNL     1       8.372  38.522  37.135  1.00  0.00    -0.504 OA
ATOM     21  H   UNL     1       9.370  38.442  37.292  1.00  0.00     0.293 HD
ENDBRANCH  17  20
ENDBRANCH   1  12
BRANCH   6  22
ATOM     22  O   UNL     1       3.625  46.377  40.109  1.00  0.00    -0.507 OA
ATOM     23  H   UNL     1       3.552  46.388  41.119  1.00  0.00     0.293 HD
ENDBRANCH   6  22
BRANCH   8  24
ATOM     24  O   UNL     1       7.799  48.496  38.939  1.00  0.00    -0.508 OA
ATOM     25  H   UNL     1       7.578  49.289  39.530  1.00  0.00     0.293 HD
ENDBRANCH   8  24
TORSDOF 5
ENDMDL
MODEL 2
REMARK VINA RESULT:    -6.603      1.403      7.006
REMARK INTER + INTRA:          -8.025
REMARK INTER:                  -7.750
REMARK INTRA:                  -0.275
REMARK UNBOUND:                -0.264
REMARK SMILES O=c1cc(-c2ccc(O)c(O)c2)oc2cc(O)cc(O)c12
REMARK SMILES IDX 4 1 3 2 2 3 1 4 21 5 19 6 18 7 16 8 15 9 14 10 13 11 5 12
REMARK SMILES IDX 6 13 7 14 8 15 12 16 10 17 9 18 11 20 20 22 17 24
REMARK H PARENT 9 19 11 21 20 23 17 25
REMARK Flexibility Score: inf
ROOT
ATOM      1  C   UNL     1       6.320  43.292  37.871  1.00  0.00     0.138 A 
ATOM      2  C   UNL     1       6.501  42.161  38.684  1.00  0.00     0.100 A 
ATOM      3  C   UNL     1       6.995  40.982  38.122  1.00  0.00     0.197 A 
ATOM      4  O   UNL     1       7.155  39.973  38.859  1.00  0.00    -0.289 OA
ATOM      5  C   UNL     1       7.309  40.946  36.748  1.00  0.00     0.107 A 
ATOM      6  C   UNL     1       7.812  39.794  36.099  1.00  0.00     0.134 A 
ATOM      7  C   UNL     1       8.104  39.840  34.728  1.00  0.00     0.093 A 
ATOM      8  C   UNL     1       7.904  41.014  33.996  1.00  0.00     0.123 A 
ATOM      9  C   UNL     1       7.407  42.155  34.633  1.00  0.00     0.094 A 
ATOM     10  C   UNL     1       7.108  42.129  35.998  1.00  0.00     0.146 A 
ATOM     11  O   UNL     1       6.635  43.227  36.580  1.00  0.00    -0.456 OA
ENDROOT
BRANCH   1  12
ATOM     12  C   UNL     1       5.800  44.572  38.416  1.00  0.00     0.021 A 
ATOM     13  C   UNL     1       4.508  44.614  38.966  1.00  0.00     0.016 A 
ATOM     14  C   UNL     1       3.998  45.802  39.493  1.00  0.00     0.051 A 
ATOM     15  C   UNL     1       4.773  46.968  39.489  1.00  0.00     0.157 A 
ATOM     16  C   UNL     1       6.580  45.744  38.426  1.00  0.00     0.062 A 
ATOM     17  C   UNL     1       6.072  46.937  38.955  1.00  0.00     0.158 A 
BRANCH  15  18
ATOM     18  O   UNL     1       4.261  48.153  40.014  1.00  0.00    -0.504 OA
ATOM     19  H   UNL     1       3.291  48.233  40.298  1.00  0.00     0.293 HD
ENDBRANCH  15  18
BRANCH  17  20
ATOM     20  O   UNL     1       6.874  48.077  38.946  1.00  0.00    -0.504 OA
ATOM     21  H   UNL     1       7.661  48.177  38.316  1.00  0.00     0.293 HD
ENDBRANCH  17  20
ENDBRANCH   1  12
BRANCH   6  22
ATOM     22  O   UNL     1       8.023  38.608  36.803  1.00  0.00    -0.507 OA
ATOM     23  H   UNL     1       7.771  38.515  37.780  1.00  0.00     0.293 HD
ENDBRANCH   6  22
BRANCH   8  24
ATOM     24  O   UNL     1       8.203  41.032  32.635  1.00  0.00    -0.508 OA
ATOM     25  H   UNL     1       7.526  40.735  31.941  1.00  0.00     0.293 HD
ENDBRANCH   8  24
TORSDOF 5
ENDMDL
MODEL 3
REMARK VINA RESULT:    -6.469      2.385      3.608
REMARK INTER + INTRA:          -7.867
REMARK INTER:                  -7.563
REMARK INTRA:                  -0.305
REMARK UNBOUND:                -0.264
REMARK SMILES O=c1cc(-c2ccc(O)c(O)c2)oc2cc(O)cc(O)c12
REMARK SMILES IDX 4 1 3 2 2 3 1 4 21 5 19 6 18 7 16 8 15 9 14 10 13 11 5 12
REMARK SMILES IDX 6 13 7 14 8 15 12 16 10 17 9 18 11 20 20 22 17 24
REMARK H PARENT 9 19 11 21 20 23 17 25
REMARK Flexibility Score: inf
ROOT
ATOM      1  C   UNL     1       6.539  41.280  35.365  1.00  0.00     0.138 A 
ATOM      2  C   UNL     1       6.482  40.702  36.645  1.00  0.00     0.100 A 
ATOM      3  C   UNL     1       6.467  41.528  37.771  1.00  0.00     0.197 A 
ATOM      4  O   UNL     1       6.415  41.001  38.914  1.00  0.00    -0.289 OA
ATOM      5  C   UNL     1       6.505  42.927  37.608  1.00  0.00     0.107 A 
ATOM      6  C   UNL     1       6.494  43.834  38.694  1.00  0.00     0.134 A 
ATOM      7  C   UNL     1       6.529  45.214  38.447  1.00  0.00     0.093 A 
ATOM      8  C   UNL     1       6.573  45.703  37.139  1.00  0.00     0.123 A 
ATOM      9  C   UNL     1       6.583  44.812  36.062  1.00  0.00     0.094 A 
ATOM     10  C   UNL     1       6.551  43.432  36.286  1.00  0.00     0.146 A 
ATOM     11  O   UNL     1       6.564  42.605  35.246  1.00  0.00    -0.456 OA
ENDROOT
BRANCH   1  12
ATOM     12  C   UNL     1       6.555  40.452  34.133  1.00  0.00     0.021 A 
ATOM     13  C   UNL     1       7.158  39.182  34.162  1.00  0.00     0.016 A 
ATOM     14  C   UNL     1       7.180  38.379  33.020  1.00  0.00     0.051 A 
ATOM     15  C   UNL     1       6.591  38.825  31.830  1.00  0.00     0.157 A 
ATOM     16  C   UNL     1       5.952  40.889  32.938  1.00  0.00     0.062 A 
ATOM     17  C   UNL     1       5.972  40.085  31.791  1.00  0.00     0.158 A 
BRANCH  15  18
ATOM     18  O   UNL     1       6.616  38.022  30.691  1.00  0.00    -0.504 OA
ATOM     19  H   UNL     1       7.330  38.130  29.981  1.00  0.00     0.293 HD
ENDBRANCH  15  18
BRANCH  17  20
ATOM     20  O   UNL     1       5.366  40.554  30.626  1.00  0.00    -0.504 OA
ATOM     21  H   UNL     1       5.732  40.341  29.705  1.00  0.00     0.293 HD
ENDBRANCH  17  20
ENDBRANCH   1  12
BRANCH   6  22
ATOM     22  O   UNL     1       6.450  43.375  40.011  1.00  0.00    -0.507 OA
ATOM     23  H   UNL     1       6.137  42.439  40.240  1.00  0.00     0.293 HD
ENDBRANCH   6  22
BRANCH   8  24
ATOM     24  O   UNL     1       6.606  47.079  36.923  1.00  0.00    -0.508 OA
ATOM     25  H   UNL     1       5.821  47.673  37.166  1.00  0.00     0.293 HD
ENDBRANCH   8  24
TORSDOF 5
ENDMDL
MODEL 4
REMARK VINA RESULT:    -6.407      2.017      6.696
REMARK INTER + INTRA:          -7.795
REMARK INTER:                  -7.503
REMARK INTRA:                  -0.292
REMARK UNBOUND:                -0.264
REMARK SMILES O=c1cc(-c2ccc(O)c(O)c2)oc2cc(O)cc(O)c12
REMARK SMILES IDX 4 1 3 2 2 3 1 4 21 5 19 6 18 7 16 8 15 9 14 10 13 11 5 12
REMARK SMILES IDX 6 13 7 14 8 15 12 16 10 17 9 18 11 20 20 22 17 24
REMARK H PARENT 9 19 11 21 20 23 17 25
REMARK Flexibility Score: inf
ROOT
ATOM      1  C   UNL     1       5.963  43.452  37.308  1.00  0.00     0.138 A 
ATOM      2  C   UNL     1       4.652  43.106  37.680  1.00  0.00     0.100 A 
ATOM      3  C   UNL     1       4.076  41.943  37.165  1.00  0.00     0.197 A 
ATOM      4  O   UNL     1       2.902  41.641  37.506  1.00  0.00    -0.289 OA
ATOM      5  C   UNL     1       4.818  41.131  36.284  1.00  0.00     0.107 A 
ATOM      6  C   UNL     1       4.311  39.938  35.717  1.00  0.00     0.134 A 
ATOM      7  C   UNL     1       5.115  39.183  34.852  1.00  0.00     0.093 A 
ATOM      8  C   UNL     1       6.414  39.596  34.544  1.00  0.00     0.123 A 
ATOM      9  C   UNL     1       6.921  40.773  35.102  1.00  0.00     0.094 A 
ATOM     10  C   UNL     1       6.135  41.542  35.965  1.00  0.00     0.146 A 
ATOM     11  O   UNL     1       6.639  42.658  36.482  1.00  0.00    -0.456 OA
ENDROOT
BRANCH   1  12
ATOM     12  C   UNL     1       6.626  44.675  37.826  1.00  0.00     0.021 A 
ATOM     13  C   UNL     1       6.567  44.964  39.200  1.00  0.00     0.016 A 
ATOM     14  C   UNL     1       7.189  46.103  39.715  1.00  0.00     0.051 A 
ATOM     15  C   UNL     1       7.889  46.970  38.867  1.00  0.00     0.157 A 
ATOM     16  C   UNL     1       7.343  45.544  36.981  1.00  0.00     0.062 A 
ATOM     17  C   UNL     1       7.969  46.686  37.494  1.00  0.00     0.158 A 
BRANCH  15  18
ATOM     18  O   UNL     1       8.508  48.108  39.383  1.00  0.00    -0.504 OA
ATOM     19  H   UNL     1       9.201  48.047  40.120  1.00  0.00     0.293 HD
ENDBRANCH  15  18
BRANCH  17  20
ATOM     20  O   UNL     1       8.668  47.523  36.625  1.00  0.00    -0.504 OA
ATOM     21  H   UNL     1       8.398  47.640  35.656  1.00  0.00     0.293 HD
ENDBRANCH  17  20
ENDBRANCH   1  12
BRANCH   6  22
ATOM     22  O   UNL     1       3.017  39.501  36.006  1.00  0.00    -0.507 OA
ATOM     23  H   UNL     1       2.755  38.524  35.931  1.00  0.00     0.293 HD
ENDBRANCH   6  22
BRANCH   8  24
ATOM     24  O   UNL     1       7.192  38.826  33.681  1.00  0.00    -0.508 OA
ATOM     25  H   UNL     1       7.595  39.220  32.838  1.00  0.00     0.293 HD
ENDBRANCH   8  24
TORSDOF 5
ENDMDL
MODEL 5
REMARK VINA RESULT:    -6.357     12.643     15.092
REMARK INTER + INTRA:          -7.736
REMARK INTER:                  -7.472
REMARK INTRA:                  -0.264
REMARK UNBOUND:                -0.264
REMARK SMILES O=c1cc(-c2ccc(O)c(O)c2)oc2cc(O)cc(O)c12
REMARK SMILES IDX 4 1 3 2 2 3 1 4 21 5 19 6 18 7 16 8 15 9 14 10 13 11 5 12
REMARK SMILES IDX 6 13 7 14 8 15 12 16 10 17 9 18 11 20 20 22 17 24
REMARK H PARENT 9 19 11 21 20 23 17 25
REMARK Flexibility Score: inf
ROOT
ATOM      1  C   UNL     1      19.475  39.545  31.067  1.00  0.00     0.138 A 
ATOM      2  C   UNL     1      18.093  39.574  30.813  1.00  0.00     0.100 A 
ATOM      3  C   UNL     1      17.242  40.218  31.712  1.00  0.00     0.197 A 
ATOM      4  O   UNL     1      16.005  40.240  31.474  1.00  0.00    -0.289 OA
ATOM      5  C   UNL     1      17.780  40.834  32.859  1.00  0.00     0.107 A 
ATOM      6  C   UNL     1      16.990  41.506  33.821  1.00  0.00     0.134 A 
ATOM      7  C   UNL     1      17.603  42.097  34.935  1.00  0.00     0.093 A 
ATOM      8  C   UNL     1      18.989  42.031  35.105  1.00  0.00     0.123 A 
ATOM      9  C   UNL     1      19.775  41.368  34.157  1.00  0.00     0.094 A 
ATOM     10  C   UNL     1      19.183  40.770  33.041  1.00  0.00     0.146 A 
ATOM     11  O   UNL     1      19.952  40.144  32.156  1.00  0.00    -0.456 OA
ENDROOT
BRANCH   1  12
ATOM     12  C   UNL     1      20.427  38.877  30.145  1.00  0.00     0.021 A 
ATOM     13  C   UNL     1      20.964  37.626  30.495  1.00  0.00     0.016 A 
ATOM     14  C   UNL     1      21.855  36.971  29.642  1.00  0.00     0.051 A 
ATOM     15  C   UNL     1      22.217  37.549  28.419  1.00  0.00     0.157 A 
ATOM     16  C   UNL     1      20.784  39.446  28.908  1.00  0.00     0.062 A 
ATOM     17  C   UNL     1      21.676  38.791  28.050  1.00  0.00     0.158 A 
BRANCH  15  18
ATOM     18  O   UNL     1      23.108  36.894  27.569  1.00  0.00    -0.504 OA
ATOM     19  H   UNL     1      22.819  36.105  27.003  1.00  0.00     0.293 HD
ENDBRANCH  15  18
BRANCH  17  20
ATOM     20  O   UNL     1      22.007  39.388  26.834  1.00  0.00    -0.504 OA
ATOM     21  H   UNL     1      21.511  39.175  25.976  1.00  0.00     0.293 HD
ENDBRANCH  17  20
ENDBRANCH   1  12
BRANCH   6  22
ATOM     22  O   UNL     1      15.604  41.590  33.679  1.00  0.00    -0.507 OA
ATOM     23  H   UNL     1      15.099  42.448  33.868  1.00  0.00     0.293 HD
ENDBRANCH   6  22
BRANCH   8  24
ATOM     24  O   UNL     1      19.572  42.628  36.221  1.00  0.00    -0.508 OA
ATOM     25  H   UNL     1      20.006  43.543  36.165  1.00  0.00     0.293 HD
ENDBRANCH   8  24
TORSDOF 5
ENDMDL
MODEL 6
REMARK VINA RESULT:    -6.239      1.841      3.195
REMARK INTER + INTRA:          -7.598
REMARK INTER:                  -7.302
REMARK INTRA:                  -0.296
REMARK UNBOUND:                -0.264
REMARK SMILES O=c1cc(-c2ccc(O)c(O)c2)oc2cc(O)cc(O)c12
REMARK SMILES IDX 4 1 3 2 2 3 1 4 21 5 19 6 18 7 16 8 15 9 14 10 13 11 5 12
REMARK SMILES IDX 6 13 7 14 8 15 12 16 10 17 9 18 11 20 20 22 17 24
REMARK H PARENT 9 19 11 21 20 23 17 25
REMARK Flexibility Score: inf
ROOT
ATOM      1  C   UNL     1       6.766  43.612  35.929  1.00  0.00     0.138 A 
ATOM      2  C   UNL     1       7.818  44.490  35.615  1.00  0.00     0.100 A 
ATOM      3  C   UNL     1       7.907  45.718  36.272  1.00  0.00     0.197 A 
ATOM      4  O   UNL     1       8.854  46.498  35.985  1.00  0.00    -0.289 OA
ATOM      5  C   UNL     1       6.944  46.058  37.244  1.00  0.00     0.107 A 
ATOM      6  C   UNL     1       6.960  47.280  37.956  1.00  0.00     0.134 A 
ATOM      7  C   UNL     1       5.967  47.541  38.912  1.00  0.00     0.093 A 
ATOM      8  C   UNL     1       4.963  46.605  39.170  1.00  0.00     0.123 A 
ATOM      9  C   UNL     1       4.942  45.395  38.470  1.00  0.00     0.094 A 
ATOM     10  C   UNL     1       5.922  45.116  37.512  1.00  0.00     0.146 A 
ATOM     11  O   UNL     1       5.880  43.960  36.858  1.00  0.00    -0.456 OA
ENDROOT
BRANCH   1  12
ATOM     12  C   UNL     1       6.623  42.293  35.262  1.00  0.00     0.021 A 
ATOM     13  C   UNL     1       5.436  41.560  35.430  1.00  0.00     0.016 A 
ATOM     14  C   UNL     1       5.272  40.320  34.808  1.00  0.00     0.051 A 
ATOM     15  C   UNL     1       6.288  39.796  33.998  1.00  0.00     0.157 A 
ATOM     16  C   UNL     1       7.635  41.767  34.436  1.00  0.00     0.062 A 
ATOM     17  C   UNL     1       7.473  40.525  33.810  1.00  0.00     0.158 A 
BRANCH  15  18
ATOM     18  O   UNL     1       6.122  38.557  33.379  1.00  0.00    -0.504 OA
ATOM     19  H   UNL     1       6.670  38.292  32.569  1.00  0.00     0.293 HD
ENDBRANCH  15  18
BRANCH  17  20
ATOM     20  O   UNL     1       8.498  40.036  33.000  1.00  0.00    -0.504 OA
ATOM     21  H   UNL     1       8.924  40.598  32.273  1.00  0.00     0.293 HD
ENDBRANCH  17  20
ENDBRANCH   1  12
BRANCH   6  22
ATOM     22  O   UNL     1       7.951  48.235  37.721  1.00  0.00    -0.507 OA
ATOM     23  H   UNL     1       7.745  49.227  37.716  1.00  0.00     0.293 HD
ENDBRANCH   6  22
BRANCH   8  24
ATOM     24  O   UNL     1       3.989  46.890  40.125  1.00  0.00    -0.508 OA
ATOM     25  H   UNL     1       3.749  47.845  40.368  1.00  0.00     0.293 HD
ENDBRANCH   8  24
TORSDOF 5
ENDMDL
MODEL 7
REMARK VINA RESULT:    -6.157     12.225     14.897
REMARK INTER + INTRA:          -7.501
REMARK INTER:                  -7.237
REMARK INTRA:                  -0.264
REMARK UNBOUND:                -0.264
REMARK SMILES O=c1cc(-c2ccc(O)c(O)c2)oc2cc(O)cc(O)c12
REMARK SMILES IDX 4 1 3 2 2 3 1 4 21 5 19 6 18 7 16 8 15 9 14 10 13 11 5 12
REMARK SMILES IDX 6 13 7 14 8 15 12 16 10 17 9 18 11 20 20 22 17 24
REMARK H PARENT 9 19 11 21 20 23 17 25
REMARK Flexibility Score: inf
ROOT
ATOM      1  C   UNL     1      18.877  42.443  34.405  1.00  0.00     0.138 A 
ATOM      2  C   UNL     1      17.594  42.042  33.994  1.00  0.00     0.100 A 
ATOM      3  C   UNL     1      17.464  41.106  32.966  1.00  0.00     0.197 A 
ATOM      4  O   UNL     1      16.310  40.751  32.605  1.00  0.00    -0.289 OA
ATOM      5  C   UNL     1      18.619  40.575  32.359  1.00  0.00     0.107 A 
ATOM      6  C   UNL     1      18.577  39.624  31.312  1.00  0.00     0.134 A 
ATOM      7  C   UNL     1      19.774  39.141  30.763  1.00  0.00     0.093 A 
ATOM      8  C   UNL     1      21.009  39.587  31.241  1.00  0.00     0.123 A 
ATOM      9  C   UNL     1      21.057  40.526  32.277  1.00  0.00     0.094 A 
ATOM     10  C   UNL     1      19.875  41.022  32.836  1.00  0.00     0.146 A 
ATOM     11  O   UNL     1      19.947  41.915  33.817  1.00  0.00    -0.456 OA
ENDROOT
BRANCH   1  12
ATOM     12  C   UNL     1      19.074  43.433  35.494  1.00  0.00     0.021 A 
ATOM     13  C   UNL     1      19.248  44.790  35.171  1.00  0.00     0.016 A 
ATOM     14  C   UNL     1      19.427  45.742  36.176  1.00  0.00     0.051 A 
ATOM     15  C   UNL     1      19.427  45.359  37.523  1.00  0.00     0.157 A 
ATOM     16  C   UNL     1      19.061  43.055  36.851  1.00  0.00     0.062 A 
ATOM     17  C   UNL     1      19.240  44.008  37.860  1.00  0.00     0.158 A 
BRANCH  15  18
ATOM     18  O   UNL     1      19.608  46.311  38.524  1.00  0.00    -0.504 OA
ATOM     19  H   UNL     1      19.595  47.304  38.321  1.00  0.00     0.293 HD
ENDBRANCH  15  18
BRANCH  17  20
ATOM     20  O   UNL     1      19.223  43.595  39.192  1.00  0.00    -0.504 OA
ATOM     21  H   UNL     1      19.910  43.915  39.864  1.00  0.00     0.293 HD
ENDBRANCH  17  20
ENDBRANCH   1  12
BRANCH   6  22
ATOM     22  O   UNL     1      17.360  39.160  30.813  1.00  0.00    -0.507 OA
ATOM     23  H   UNL     1      17.209  38.181  30.600  1.00  0.00     0.293 HD
ENDBRANCH   6  22
BRANCH   8  24
ATOM     24  O   UNL     1      22.182  39.090  30.678  1.00  0.00    -0.508 OA
ATOM     25  H   UNL     1      22.967  39.697  30.467  1.00  0.00     0.293 HD
ENDBRANCH   8  24
TORSDOF 5
ENDMDL
MODEL 8
REMARK VINA RESULT:    -6.155      2.429      2.910
REMARK INTER + INTRA:          -7.498
REMARK INTER:                  -7.210
REMARK INTRA:                  -0.288
REMARK UNBOUND:                -0.264
REMARK SMILES O=c1cc(-c2ccc(O)c(O)c2)oc2cc(O)cc(O)c12
REMARK SMILES IDX 4 1 3 2 2 3 1 4 21 5 19 6 18 7 16 8 15 9 14 10 13 11 5 12
REMARK SMILES IDX 6 13 7 14 8 15 12 16 10 17 9 18 11 20 20 22 17 24
REMARK H PARENT 9 19 11 21 20 23 17 25
REMARK Flexibility Score: inf
ROOT
ATOM      1  C   UNL     1       6.182  43.135  36.602  1.00  0.00     0.138 A 
ATOM      2  C   UNL     1       5.710  43.580  37.848  1.00  0.00     0.100 A 
ATOM      3  C   UNL     1       6.139  44.812  38.346  1.00  0.00     0.197 A 
ATOM      4  O   UNL     1       5.709  45.204  39.463  1.00  0.00    -0.289 OA
ATOM      5  C   UNL     1       7.035  45.593  37.589  1.00  0.00     0.107 A 
ATOM      6  C   UNL     1       7.520  46.851  38.019  1.00  0.00     0.134 A 
ATOM      7  C   UNL     1       8.408  47.569  37.205  1.00  0.00     0.093 A 
ATOM      8  C   UNL     1       8.818  47.055  35.971  1.00  0.00     0.123 A 
ATOM      9  C   UNL     1       8.342  45.813  35.541  1.00  0.00     0.094 A 
ATOM     10  C   UNL     1       7.458  45.081  36.339  1.00  0.00     0.146 A 
ATOM     11  O   UNL     1       7.021  43.901  35.909  1.00  0.00    -0.456 OA
ENDROOT
BRANCH   1  12
ATOM     12  C   UNL     1       5.758  41.835  36.024  1.00  0.00     0.021 A 
ATOM     13  C   UNL     1       6.635  41.137  35.176  1.00  0.00     0.016 A 
ATOM     14  C   UNL     1       6.265  39.909  34.625  1.00  0.00     0.051 A 
ATOM     15  C   UNL     1       5.015  39.349  34.920  1.00  0.00     0.157 A 
ATOM     16  C   UNL     1       4.508  41.261  36.327  1.00  0.00     0.062 A 
ATOM     17  C   UNL     1       4.135  40.029  35.778  1.00  0.00     0.158 A 
BRANCH  15  18
ATOM     18  O   UNL     1       4.648  38.123  34.368  1.00  0.00    -0.504 OA
ATOM     19  H   UNL     1       4.969  37.246  34.761  1.00  0.00     0.293 HD
ENDBRANCH  15  18
BRANCH  17  20
ATOM     20  O   UNL     1       2.888  39.494  36.100  1.00  0.00    -0.504 OA
ATOM     21  H   UNL     1       2.690  38.503  36.022  1.00  0.00     0.293 HD
ENDBRANCH  17  20
ENDBRANCH   1  12
BRANCH   6  22
ATOM     22  O   UNL     1       7.129  47.390  39.245  1.00  0.00    -0.507 OA
ATOM     23  H   UNL     1       6.530  48.206  39.303  1.00  0.00     0.293 HD
ENDBRANCH   6  22
BRANCH   8  24
ATOM     24  O   UNL     1       9.700  47.790  35.182  1.00  0.00    -0.508 OA
ATOM     25  H   UNL     1       9.745  48.802  35.240  1.00  0.00     0.293 HD
ENDBRANCH   8  24
TORSDOF 5
ENDMDL
MODEL 9
REMARK VINA RESULT:    -6.119      3.909      5.818
REMARK INTER + INTRA:          -7.456
REMARK INTER:                  -7.192
REMARK INTRA:                  -0.264
REMARK UNBOUND:                -0.264
REMARK SMILES O=c1cc(-c2ccc(O)c(O)c2)oc2cc(O)cc(O)c12
REMARK SMILES IDX 4 1 3 2 2 3 1 4 21 5 19 6 18 7 16 8 15 9 14 10 13 11 5 12
REMARK SMILES IDX 6 13 7 14 8 15 12 16 10 17 9 18 11 20 20 22 17 24
REMARK H PARENT 9 19 11 21 20 23 17 25
REMARK Flexibility Score: inf
ROOT
ATOM      1  C   UNL     1       8.022  46.457  35.680  1.00  0.00     0.138 A 
ATOM      2  C   UNL     1       7.677  45.096  35.622  1.00  0.00     0.100 A 
ATOM      3  C   UNL     1       6.712  44.594  36.498  1.00  0.00     0.197 A 
ATOM      4  O   UNL     1       6.408  43.373  36.437  1.00  0.00    -0.289 OA
ATOM      5  C   UNL     1       6.097  45.459  37.424  1.00  0.00     0.107 A 
ATOM      6  C   UNL     1       5.112  45.033  38.346  1.00  0.00     0.134 A 
ATOM      7  C   UNL     1       4.544  45.958  39.234  1.00  0.00     0.093 A 
ATOM      8  C   UNL     1       4.939  47.299  39.215  1.00  0.00     0.123 A 
ATOM      9  C   UNL     1       5.911  47.726  38.306  1.00  0.00     0.094 A 
ATOM     10  C   UNL     1       6.491  46.819  37.414  1.00  0.00     0.146 A 
ATOM     11  O   UNL     1       7.415  47.249  36.561  1.00  0.00    -0.456 OA
ENDROOT
BRANCH   1  12
ATOM     12  C   UNL     1       9.039  47.046  34.773  1.00  0.00     0.021 A 
ATOM     13  C   UNL     1       8.620  47.775  33.646  1.00  0.00     0.016 A 
ATOM     14  C   UNL     1       9.556  48.346  32.781  1.00  0.00     0.051 A 
ATOM     15  C   UNL     1      10.927  48.208  33.030  1.00  0.00     0.157 A 
ATOM     16  C   UNL     1      10.419  46.922  35.025  1.00  0.00     0.062 A 
ATOM     17  C   UNL     1      11.359  47.494  34.160  1.00  0.00     0.158 A 
BRANCH  15  18
ATOM     18  O   UNL     1      11.858  48.777  32.164  1.00  0.00    -0.504 OA
ATOM     19  H   UNL     1      12.301  49.665  32.370  1.00  0.00     0.293 HD
ENDBRANCH  15  18
BRANCH  17  20
ATOM     20  O   UNL     1      12.717  47.348  34.443  1.00  0.00    -0.504 OA
ATOM     21  H   UNL     1      13.206  46.472  34.298  1.00  0.00     0.293 HD
ENDBRANCH  17  20
ENDBRANCH   1  12
BRANCH   6  22
ATOM     22  O   UNL     1       4.697  43.702  38.388  1.00  0.00    -0.507 OA
ATOM     23  H   UNL     1       5.341  42.937  38.223  1.00  0.00     0.293 HD
ENDBRANCH   6  22
BRANCH   8  24
ATOM     24  O   UNL     1       4.357  48.197  40.108  1.00  0.00    -0.508 OA
ATOM     25  H   UNL     1       4.702  49.146  40.203  1.00  0.00     0.293 HD
ENDBRANCH   8  24
TORSDOF 5
ENDMDL
