MODEL 1
REMARK VINA RESULT:    -3.193      0.000      0.000
REMARK INTER + INTRA:          -4.438
REMARK INTER:                  -4.127
REMARK INTRA:                  -0.311
REMARK UNBOUND:                -0.311
REMARK SMILES CCCCC(=O)c1ccccc1C(=O)[O-]
REMARK SMILES IDX 4 1 5 2 6 3 7 4 12 5 11 6 10 7 8 8 9 9 13 10 14 11 15 12
REMARK SMILES IDX 3 13 2 14 1 15
REMARK H PARENT
REMARK Flexibility Score: inf
ROOT
ATOM      1  C   UNL     1     145.308 147.614 144.063  1.00  0.00     0.081 C 
ENDROOT
BRANCH   1   2
ATOM      2  C   UNL     1     146.805 147.547 143.957  1.00  0.00     0.163 C 
ATOM      3  O   UNL     1     147.372 147.983 142.919  1.00  0.00    -0.294 OA
BRANCH   2   4
ATOM      4  C   UNL     1     147.611 146.870 144.992  1.00  0.00     0.027 A 
ATOM      5  C   UNL     1     148.246 145.616 144.776  1.00  0.00     0.008 A 
ATOM      6  C   UNL     1     149.078 145.095 145.783  1.00  0.00     0.011 A 
ATOM      7  C   UNL     1     149.255 145.776 146.989  1.00  0.00     0.001 A 
ATOM      8  C   UNL     1     147.785 147.530 146.219  1.00  0.00     0.012 A 
ATOM      9  C   UNL     1     148.602 146.987 147.211  1.00  0.00     0.001 A 
BRANCH   5  10
ATOM     10  C   UNL     1     148.029 144.804 143.552  1.00  0.00     0.072 C 
ATOM     11  O   UNL     1     146.866 144.563 143.131  1.00  0.00    -0.545 OA
ATOM     12  O   UNL     1     149.113 144.258 142.875  1.00  0.00    -0.545 OA
ENDBRANCH   5  10
ENDBRANCH   2   4
ENDBRANCH   1   2
BRANCH   1  13
ATOM     13  C   UNL     1     144.810 146.662 145.159  1.00  0.00     0.008 C 
BRANCH  13  14
ATOM     14  C   UNL     1     143.862 147.350 146.153  1.00  0.00    -0.003 C 
ATOM     15  C   UNL     1     143.667 148.835 145.851  1.00  0.00     0.004 C 
ENDBRANCH  13  14
ENDBRANCH   1  13
TORSDOF 5
ENDMDL
MODEL 2
REMARK VINA RESULT:    -2.524      2.210      4.365
REMARK INTER + INTRA:          -3.573
REMARK INTER:                  -3.875
REMARK INTRA:                   0.302
REMARK UNBOUND:                -0.311
REMARK SMILES CCCCC(=O)c1ccccc1C(=O)[O-]
REMARK SMILES IDX 4 1 5 2 6 3 7 4 12 5 11 6 10 7 8 8 9 9 13 10 14 11 15 12
REMARK SMILES IDX 3 13 2 14 1 15
REMARK H PARENT
REMARK Flexibility Score: inf
ROOT
ATOM      1  C   UNL     1     149.004 146.865 147.184  1.00  0.00     0.081 C 
ENDROOT
BRANCH   1   2
ATOM      2  C   UNL     1     148.002 147.251 146.133  1.00  0.00     0.163 C 
ATOM      3  O   UNL     1     147.380 148.342 146.242  1.00  0.00    -0.294 OA
BRANCH   2   4
ATOM      4  C   UNL     1     147.646 146.320 145.044  1.00  0.00     0.027 A 
ATOM      5  C   UNL     1     146.394 146.365 144.371  1.00  0.00     0.008 A 
ATOM      6  C   UNL     1     146.181 145.507 143.276  1.00  0.00     0.011 A 
ATOM      7  C   UNL     1     147.165 144.602 142.875  1.00  0.00     0.001 A 
ATOM      8  C   UNL     1     148.616 145.389 144.638  1.00  0.00     0.012 A 
ATOM      9  C   UNL     1     148.377 144.536 143.560  1.00  0.00     0.001 A 
BRANCH   5  10
ATOM     10  C   UNL     1     145.278 147.243 144.804  1.00  0.00     0.072 C 
ATOM     11  O   UNL     1     144.531 146.918 145.764  1.00  0.00    -0.545 OA
ATOM     12  O   UNL     1     145.015 148.426 144.122  1.00  0.00    -0.545 OA
ENDBRANCH   5  10
ENDBRANCH   2   4
ENDBRANCH   1   2
BRANCH   1  13
ATOM     13  C   UNL     1     148.741 147.642 148.481  1.00  0.00     0.008 C 
BRANCH  13  14
ATOM     14  C   UNL     1     149.520 148.964 148.544  1.00  0.00    -0.003 C 
ATOM     15  C   UNL     1     148.739 150.077 149.243  1.00  0.00     0.004 C 
ENDBRANCH  13  14
ENDBRANCH   1  13
TORSDOF 5
ENDMDL
MODEL 3
REMARK VINA RESULT:    -2.239      1.798      4.078
REMARK INTER + INTRA:          -3.204
REMARK INTER:                  -3.322
REMARK INTRA:                   0.118
REMARK UNBOUND:                -0.311
REMARK SMILES CCCCC(=O)c1ccccc1C(=O)[O-]
REMARK SMILES IDX 4 1 5 2 6 3 7 4 12 5 11 6 10 7 8 8 9 9 13 10 14 11 15 12
REMARK SMILES IDX 3 13 2 14 1 15
REMARK H PARENT
REMARK Flexibility Score: inf
ROOT
ATOM      1  C   UNL     1     148.775 146.919 147.528  1.00  0.00     0.081 C 
ENDROOT
BRANCH   1   2
ATOM      2  C   UNL     1     148.313 146.293 146.243  1.00  0.00     0.163 C 
ATOM      3  O   UNL     1     148.938 145.303 145.777  1.00  0.00    -0.294 OA
BRANCH   2   4
ATOM      4  C   UNL     1     147.217 146.892 145.457  1.00  0.00     0.027 A 
ATOM      5  C   UNL     1     147.273 147.039 144.043  1.00  0.00     0.008 A 
ATOM      6  C   UNL     1     146.140 147.526 143.366  1.00  0.00     0.011 A 
ATOM      7  C   UNL     1     144.990 147.893 144.067  1.00  0.00     0.001 A 
ATOM      8  C   UNL     1     146.058 147.285 146.147  1.00  0.00     0.012 A 
ATOM      9  C   UNL     1     144.952 147.782 145.456  1.00  0.00     0.001 A 
BRANCH   5  10
ATOM     10  C   UNL     1     148.495 146.748 143.252  1.00  0.00     0.072 C 
ATOM     11  O   UNL     1     149.260 147.676 142.876  1.00  0.00    -0.545 OA
ATOM     12  O   UNL     1     148.790 145.443 142.877  1.00  0.00    -0.545 OA
ENDBRANCH   5  10
ENDBRANCH   2   4
ENDBRANCH   1   2
BRANCH   1  13
ATOM     13  C   UNL     1     149.065 148.411 147.319  1.00  0.00     0.008 C 
BRANCH  13  14
ATOM     14  C   UNL     1     149.493 149.117 148.614  1.00  0.00    -0.003 C 
ATOM     15  C   UNL     1     148.354 149.905 149.260  1.00  0.00     0.004 C 
ENDBRANCH  13  14
ENDBRANCH   1  13
TORSDOF 5
ENDMDL
MODEL 4
REMARK VINA RESULT:    -1.981      8.498     10.465
REMARK INTER + INTRA:          -2.871
REMARK INTER:                  -4.111
REMARK INTRA:                   1.241
REMARK UNBOUND:                -0.311
REMARK SMILES CCCCC(=O)c1ccccc1C(=O)[O-]
REMARK SMILES IDX 4 1 5 2 6 3 7 4 12 5 11 6 10 7 8 8 9 9 13 10 14 11 15 12
REMARK SMILES IDX 3 13 2 14 1 15
REMARK H PARENT
REMARK Flexibility Score: inf
ROOT
ATOM      1  C   UNL     1     155.346 142.037 147.946  1.00  0.00     0.081 C 
ENDROOT
BRANCH   1   2
ATOM      2  C   UNL     1     154.382 142.387 149.045  1.00  0.00     0.163 C 
ATOM      3  O   UNL     1     154.781 143.076 150.022  1.00  0.00    -0.294 OA
BRANCH   2   4
ATOM      4  C   UNL     1     153.013 141.835 149.058  1.00  0.00     0.027 A 
ATOM      5  C   UNL     1     152.178 141.873 150.209  1.00  0.00     0.008 A 
ATOM      6  C   UNL     1     150.852 141.417 150.101  1.00  0.00     0.011 A 
ATOM      7  C   UNL     1     150.368 140.904 148.896  1.00  0.00     0.001 A 
ATOM      8  C   UNL     1     152.514 141.297 147.860  1.00  0.00     0.012 A 
ATOM      9  C   UNL     1     151.200 140.835 147.780  1.00  0.00     0.001 A 
BRANCH   5  10
ATOM     10  C   UNL     1     152.661 142.326 151.538  1.00  0.00     0.072 C 
ATOM     11  O   UNL     1     152.613 141.564 152.540  1.00  0.00    -0.545 OA
ATOM     12  O   UNL     1     153.135 143.622 151.705  1.00  0.00    -0.545 OA
ENDBRANCH   5  10
ENDBRANCH   2   4
ENDBRANCH   1   2
BRANCH   1  13
ATOM     13  C   UNL     1     156.740 141.767 148.528  1.00  0.00     0.008 C 
BRANCH  13  14
ATOM     14  C   UNL     1     157.827 141.692 147.445  1.00  0.00    -0.003 C 
ATOM     15  C   UNL     1     157.414 142.381 146.145  1.00  0.00     0.004 C 
ENDBRANCH  13  14
ENDBRANCH   1  13
TORSDOF 5
ENDMDL
MODEL 5
REMARK VINA RESULT:    -1.597      8.704     10.085
REMARK INTER + INTRA:          -2.374
REMARK INTER:                  -2.706
REMARK INTRA:                   0.332
REMARK UNBOUND:                -0.311
REMARK SMILES CCCCC(=O)c1ccccc1C(=O)[O-]
REMARK SMILES IDX 4 1 5 2 6 3 7 4 12 5 11 6 10 7 8 8 9 9 13 10 14 11 15 12
REMARK SMILES IDX 3 13 2 14 1 15
REMARK H PARENT
REMARK Flexibility Score: inf
ROOT
ATOM      1  C   UNL     1     152.858 141.270 147.682  1.00  0.00     0.081 C 
ENDROOT
BRANCH   1   2
ATOM      2  C   UNL     1     154.118 142.008 148.039  1.00  0.00     0.163 C 
ATOM      3  O   UNL     1     154.262 142.457 149.207  1.00  0.00    -0.294 OA
BRANCH   2   4
ATOM      4  C   UNL     1     155.132 142.319 147.013  1.00  0.00     0.027 A 
ATOM      5  C   UNL     1     156.523 142.105 147.215  1.00  0.00     0.008 A 
ATOM      6  C   UNL     1     157.408 142.334 146.145  1.00  0.00     0.011 A 
ATOM      7  C   UNL     1     156.938 142.795 144.915  1.00  0.00     0.001 A 
ATOM      8  C   UNL     1     154.680 142.803 145.774  1.00  0.00     0.012 A 
ATOM      9  C   UNL     1     155.578 143.038 144.731  1.00  0.00     0.001 A 
BRANCH   5  10
ATOM     10  C   UNL     1     157.093 141.699 148.525  1.00  0.00     0.072 C 
ATOM     11  O   UNL     1     157.678 140.592 148.663  1.00  0.00    -0.545 OA
ATOM     12  O   UNL     1     156.949 142.524 149.634  1.00  0.00    -0.545 OA
ENDBRANCH   5  10
ENDBRANCH   2   4
ENDBRANCH   1   2
BRANCH   1  13
ATOM     13  C   UNL     1     152.341 140.484 148.894  1.00  0.00     0.008 C 
BRANCH  13  14
ATOM     14  C   UNL     1     151.096 141.126 149.526  1.00  0.00    -0.003 C 
ATOM     15  C   UNL     1     151.326 141.560 150.973  1.00  0.00     0.004 C 
ENDBRANCH  13  14
ENDBRANCH   1  13
TORSDOF 5
ENDMDL
MODEL 6
REMARK VINA RESULT:    -1.213      1.941      3.039
REMARK INTER + INTRA:          -1.879
REMARK INTER:                  -1.948
REMARK INTRA:                   0.070
REMARK UNBOUND:                -0.311
REMARK SMILES CCCCC(=O)c1ccccc1C(=O)[O-]
REMARK SMILES IDX 4 1 5 2 6 3 7 4 12 5 11 6 10 7 8 8 9 9 13 10 14 11 15 12
REMARK SMILES IDX 3 13 2 14 1 15
REMARK H PARENT
REMARK Flexibility Score: inf
ROOT
ATOM      1  C   UNL     1     144.608 146.867 145.491  1.00  0.00     0.081 C 
ENDROOT
BRANCH   1   2
ATOM      2  C   UNL     1     145.733 147.230 144.564  1.00  0.00     0.163 C 
ATOM      3  O   UNL     1     145.697 148.327 143.946  1.00  0.00    -0.294 OA
BRANCH   2   4
ATOM      4  C   UNL     1     146.817 146.271 144.274  1.00  0.00     0.027 A 
ATOM      5  C   UNL     1     147.970 146.138 145.096  1.00  0.00     0.008 A 
ATOM      6  C   UNL     1     148.902 145.127 144.800  1.00  0.00     0.011 A 
ATOM      7  C   UNL     1     148.722 144.288 143.700  1.00  0.00     0.001 A 
ATOM      8  C   UNL     1     146.664 145.430 143.159  1.00  0.00     0.012 A 
ATOM      9  C   UNL     1     147.610 144.444 142.875  1.00  0.00     0.001 A 
BRANCH   5  10
ATOM     10  C   UNL     1     148.261 147.055 146.227  1.00  0.00     0.072 C 
ATOM     11  O   UNL     1     147.830 148.239 146.231  1.00  0.00    -0.545 OA
ATOM     12  O   UNL     1     149.056 146.629 147.285  1.00  0.00    -0.545 OA
ENDBRANCH   5  10
ENDBRANCH   2   4
ENDBRANCH   1   2
BRANCH   1  13
ATOM     13  C   UNL     1     143.818 148.122 145.886  1.00  0.00     0.008 C 
BRANCH  13  14
ATOM     14  C   UNL     1     143.870 148.401 147.395  1.00  0.00    -0.003 C 
ATOM     15  C   UNL     1     143.801 149.893 147.723  1.00  0.00     0.004 C 
ENDBRANCH  13  14
ENDBRANCH   1  13
TORSDOF 5
ENDMDL
MODEL 7
REMARK VINA RESULT:    -1.104     19.041     20.378
REMARK INTER + INTRA:          -1.738
REMARK INTER:                  -2.512
REMARK INTRA:                   0.774
REMARK UNBOUND:                -0.311
REMARK SMILES CCCCC(=O)c1ccccc1C(=O)[O-]
REMARK SMILES IDX 4 1 5 2 6 3 7 4 12 5 11 6 10 7 8 8 9 9 13 10 14 11 15 12
REMARK SMILES IDX 3 13 2 14 1 15
REMARK H PARENT
REMARK Flexibility Score: inf
ROOT
ATOM      1  C   UNL     1     157.828 137.304 158.168  1.00  0.00     0.081 C 
ENDROOT
BRANCH   1   2
ATOM      2  C   UNL     1     156.993 138.226 159.012  1.00  0.00     0.163 C 
ATOM      3  O   UNL     1     155.963 138.756 158.516  1.00  0.00    -0.294 OA
BRANCH   2   4
ATOM      4  C   UNL     1     157.426 138.614 160.368  1.00  0.00     0.027 A 
ATOM      5  C   UNL     1     157.826 139.938 160.700  1.00  0.00     0.008 A 
ATOM      6  C   UNL     1     158.124 140.241 162.041  1.00  0.00     0.011 A 
ATOM      7  C   UNL     1     158.062 139.256 163.028  1.00  0.00     0.001 A 
ATOM      8  C   UNL     1     157.388 137.632 161.372  1.00  0.00     0.012 A 
ATOM      9  C   UNL     1     157.704 137.951 162.693  1.00  0.00     0.001 A 
BRANCH   5  10
ATOM     10  C   UNL     1     157.995 141.006 159.683  1.00  0.00     0.072 C 
ATOM     11  O   UNL     1     158.069 140.728 158.456  1.00  0.00    -0.545 OA
ATOM     12  O   UNL     1     158.119 142.333 160.078  1.00  0.00    -0.545 OA
ENDBRANCH   5  10
ENDBRANCH   2   4
ENDBRANCH   1   2
BRANCH   1  13
ATOM     13  C   UNL     1     157.626 135.849 158.611  1.00  0.00     0.008 C 
BRANCH  13  14
ATOM     14  C   UNL     1     156.153 135.514 158.885  1.00  0.00    -0.003 C 
ATOM     15  C   UNL     1     155.936 134.890 160.263  1.00  0.00     0.004 C 
ENDBRANCH  13  14
ENDBRANCH   1  13
TORSDOF 5
ENDMDL
MODEL 8
REMARK VINA RESULT:    -0.988     18.820     20.396
REMARK INTER + INTRA:          -1.588
REMARK INTER:                  -3.323
REMARK INTRA:                   1.735
REMARK UNBOUND:                -0.311
REMARK SMILES CCCCC(=O)c1ccccc1C(=O)[O-]
REMARK SMILES IDX 4 1 5 2 6 3 7 4 12 5 11 6 10 7 8 8 9 9 13 10 14 11 15 12
REMARK SMILES IDX 3 13 2 14 1 15
REMARK H PARENT
REMARK Flexibility Score: inf
ROOT
ATOM      1  C   UNL     1     156.338 136.852 159.253  1.00  0.00     0.081 C 
ENDROOT
BRANCH   1   2
ATOM      2  C   UNL     1     157.304 137.069 160.383  1.00  0.00     0.163 C 
ATOM      3  O   UNL     1     157.748 136.074 161.018  1.00  0.00    -0.294 OA
BRANCH   2   4
ATOM      4  C   UNL     1     157.647 138.430 160.838  1.00  0.00     0.027 A 
ATOM      5  C   UNL     1     157.907 139.501 159.939  1.00  0.00     0.008 A 
ATOM      6  C   UNL     1     158.125 140.789 160.462  1.00  0.00     0.011 A 
ATOM      7  C   UNL     1     158.120 141.012 161.840  1.00  0.00     0.001 A 
ATOM      8  C   UNL     1     157.666 138.670 162.222  1.00  0.00     0.012 A 
ATOM      9  C   UNL     1     157.900 139.953 162.719  1.00  0.00     0.001 A 
BRANCH   5  10
ATOM     10  C   UNL     1     158.012 139.311 158.470  1.00  0.00     0.072 C 
ATOM     11  O   UNL     1     158.119 138.159 157.971  1.00  0.00    -0.545 OA
ATOM     12  O   UNL     1     158.036 140.413 157.624  1.00  0.00    -0.545 OA
ENDBRANCH   5  10
ENDBRANCH   2   4
ENDBRANCH   1   2
BRANCH   1  13
ATOM     13  C   UNL     1     156.290 135.366 158.873  1.00  0.00     0.008 C 
BRANCH  13  14
ATOM     14  C   UNL     1     157.528 134.918 158.082  1.00  0.00    -0.003 C 
ATOM     15  C   UNL     1     157.350 135.069 156.572  1.00  0.00     0.004 C 
ENDBRANCH  13  14
ENDBRANCH   1  13
TORSDOF 5
ENDMDL
MODEL 9
REMARK VINA RESULT:    -0.888     18.234     20.554
REMARK INTER + INTRA:          -1.459
REMARK INTER:                  -3.350
REMARK INTRA:                   1.891
REMARK UNBOUND:                -0.311
REMARK SMILES CCCCC(=O)c1ccccc1C(=O)[O-]
REMARK SMILES IDX 4 1 5 2 6 3 7 4 12 5 11 6 10 7 8 8 9 9 13 10 14 11 15 12
REMARK SMILES IDX 3 13 2 14 1 15
REMARK H PARENT
REMARK Flexibility Score: inf
ROOT
ATOM      1  C   UNL     1     156.727 138.860 159.038  1.00  0.00     0.081 C 
ENDROOT
BRANCH   1   2
ATOM      2  C   UNL     1     157.383 138.631 160.370  1.00  0.00     0.163 C 
ATOM      3  O   UNL     1     158.101 139.537 160.871  1.00  0.00    -0.294 OA
BRANCH   2   4
ATOM      4  C   UNL     1     157.299 137.319 161.042  1.00  0.00     0.027 A 
ATOM      5  C   UNL     1     157.105 136.101 160.334  1.00  0.00     0.008 A 
ATOM      6  C   UNL     1     157.140 134.889 161.046  1.00  0.00     0.011 A 
ATOM      7  C   UNL     1     157.329 134.877 162.429  1.00  0.00     0.001 A 
ATOM      8  C   UNL     1     157.467 137.288 162.437  1.00  0.00     0.012 A 
ATOM      9  C   UNL     1     157.483 136.074 163.125  1.00  0.00     0.001 A 
BRANCH   5  10
ATOM     10  C   UNL     1     156.814 136.055 158.879  1.00  0.00     0.072 C 
ATOM     11  O   UNL     1     155.646 136.237 158.444  1.00  0.00    -0.545 OA
ATOM     12  O   UNL     1     157.827 135.763 157.973  1.00  0.00    -0.545 OA
ENDBRANCH   5  10
ENDBRANCH   2   4
ENDBRANCH   1   2
BRANCH   1  13
ATOM     13  C   UNL     1     157.787 138.949 157.932  1.00  0.00     0.008 C 
BRANCH  13  14
ATOM     14  C   UNL     1     158.076 140.396 157.506  1.00  0.00    -0.003 C 
ATOM     15  C   UNL     1     158.108 141.364 158.689  1.00  0.00     0.004 C 
ENDBRANCH  13  14
ENDBRANCH   1  13
TORSDOF 5
ENDMDL
