MODEL 1
REMARK VINA RESULT:    -7.940      0.000      0.000
REMARK INTER + INTRA:          -9.789
REMARK INTER:                  -9.565
REMARK INTRA:                  -0.224
REMARK UNBOUND:                -0.224
REMARK SMILES O=c1c(O)c(-c2ccc(O)c(O)c2)oc2cc(O)cc(O)c12
REMARK SMILES IDX 5 1 3 2 2 3 1 4 22 5 20 6 19 7 17 8 16 9 15 10 14 11 6 12
REMARK SMILES IDX 7 13 8 14 9 15 13 16 11 17 10 18 12 20 4 22 21 24 18 26
REMARK H PARENT 10 19 12 21 4 23 21 25 18 27
REMARK Flexibility Score: inf
ROOT
ATOM      1  C   UNL     1      31.144  -0.575   8.856  1.00  0.00     0.180 A 
ATOM      2  C   UNL     1      30.599  -1.362   9.886  1.00  0.00     0.208 A 
ATOM      3  C   UNL     1      31.424  -1.752  10.954  1.00  0.00     0.238 A 
ATOM      4  O   UNL     1      30.945  -2.501  11.845  1.00  0.00    -0.285 OA
ATOM      5  C   UNL     1      32.777  -1.339  10.986  1.00  0.00     0.111 A 
ATOM      6  C   UNL     1      33.692  -1.642  12.039  1.00  0.00     0.134 A 
ATOM      7  C   UNL     1      35.041  -1.292  11.903  1.00  0.00     0.093 A 
ATOM      8  C   UNL     1      35.495  -0.592  10.782  1.00  0.00     0.123 A 
ATOM      9  C   UNL     1      34.597  -0.239   9.777  1.00  0.00     0.094 A 
ATOM     10  C   UNL     1      33.252  -0.606   9.868  1.00  0.00     0.146 A 
ATOM     11  O   UNL     1      32.433  -0.259   8.882  1.00  0.00    -0.452 OA
ENDROOT
BRANCH   1  12
ATOM     12  C   UNL     1      30.332  -0.104   7.711  1.00  0.00     0.025 A 
ATOM     13  C   UNL     1      30.491  -0.655   6.426  1.00  0.00     0.016 A 
ATOM     14  C   UNL     1      29.698  -0.212   5.365  1.00  0.00     0.051 A 
ATOM     15  C   UNL     1      28.726   0.771   5.571  1.00  0.00     0.157 A 
ATOM     16  C   UNL     1      29.341   0.869   7.918  1.00  0.00     0.062 A 
ATOM     17  C   UNL     1      28.544   1.314   6.853  1.00  0.00     0.158 A 
BRANCH  15  18
ATOM     18  O   UNL     1      27.951   1.195   4.492  1.00  0.00    -0.504 OA
ATOM     19  H   UNL     1      27.699   2.167   4.357  1.00  0.00     0.293 HD
ENDBRANCH  15  18
BRANCH  17  20
ATOM     20  O   UNL     1      27.572   2.291   7.067  1.00  0.00    -0.504 OA
ATOM     21  H   UNL     1      26.745   2.105   7.622  1.00  0.00     0.293 HD
ENDBRANCH  17  20
ENDBRANCH   1  12
BRANCH   2  22
ATOM     22  O   UNL     1      29.266  -1.777   9.823  1.00  0.00    -0.502 OA
ATOM     23  H   UNL     1      28.618  -1.643  10.590  1.00  0.00     0.293 HD
ENDBRANCH   2  22
BRANCH   6  24
ATOM     24  O   UNL     1      33.325  -2.256  13.239  1.00  0.00    -0.507 OA
ATOM     25  H   UNL     1      33.809  -2.138  14.117  1.00  0.00     0.293 HD
ENDBRANCH   6  24
BRANCH   8  26
ATOM     26  O   UNL     1      36.836  -0.234  10.663  1.00  0.00    -0.508 OA
ATOM     27  H   UNL     1      37.221   0.094   9.786  1.00  0.00     0.293 HD
ENDBRANCH   8  26
TORSDOF 6
ENDMDL
MODEL 2
REMARK VINA RESULT:    -7.747      2.730      4.085
REMARK INTER + INTRA:          -9.556
REMARK INTER:                  -9.528
REMARK INTRA:                  -0.028
REMARK UNBOUND:                -0.224
REMARK SMILES O=c1c(O)c(-c2ccc(O)c(O)c2)oc2cc(O)cc(O)c12
REMARK SMILES IDX 5 1 3 2 2 3 1 4 22 5 20 6 19 7 17 8 16 9 15 10 14 11 6 12
REMARK SMILES IDX 7 13 8 14 9 15 13 16 11 17 10 18 12 20 4 22 21 24 18 26
REMARK H PARENT 10 19 12 21 4 23 21 25 18 27
REMARK Flexibility Score: inf
ROOT
ATOM      1  C   UNL     1      32.724   0.043  11.092  1.00  0.00     0.180 A 
ATOM      2  C   UNL     1      33.985  -0.542  10.886  1.00  0.00     0.208 A 
ATOM      3  C   UNL     1      34.966  -0.415  11.883  1.00  0.00     0.238 A 
ATOM      4  O   UNL     1      36.109  -0.895  11.669  1.00  0.00    -0.285 OA
ATOM      5  C   UNL     1      34.669   0.281  13.079  1.00  0.00     0.111 A 
ATOM      6  C   UNL     1      35.573   0.436  14.172  1.00  0.00     0.134 A 
ATOM      7  C   UNL     1      35.218   1.256  15.251  1.00  0.00     0.093 A 
ATOM      8  C   UNL     1      33.966   1.873  15.306  1.00  0.00     0.123 A 
ATOM      9  C   UNL     1      33.053   1.679  14.271  1.00  0.00     0.094 A 
ATOM     10  C   UNL     1      33.392   0.896  13.165  1.00  0.00     0.146 A 
ATOM     11  O   UNL     1      32.497   0.746  12.196  1.00  0.00    -0.452 OA
ENDROOT
BRANCH   1  12
ATOM     12  C   UNL     1      31.631  -0.068  10.098  1.00  0.00     0.025 A 
ATOM     13  C   UNL     1      31.824   0.302   8.755  1.00  0.00     0.016 A 
ATOM     14  C   UNL     1      30.786   0.166   7.830  1.00  0.00     0.051 A 
ATOM     15  C   UNL     1      29.549  -0.354   8.225  1.00  0.00     0.157 A 
ATOM     16  C   UNL     1      30.395  -0.608  10.487  1.00  0.00     0.062 A 
ATOM     17  C   UNL     1      29.352  -0.745   9.559  1.00  0.00     0.158 A 
BRANCH  15  18
ATOM     18  O   UNL     1      28.532  -0.475   7.280  1.00  0.00    -0.504 OA
ATOM     19  H   UNL     1      28.190   0.318   6.750  1.00  0.00     0.293 HD
ENDBRANCH  15  18
BRANCH  17  20
ATOM     20  O   UNL     1      28.123  -1.270   9.959  1.00  0.00    -0.504 OA
ATOM     21  H   UNL     1      27.794  -2.167   9.622  1.00  0.00     0.293 HD
ENDBRANCH  17  20
ENDBRANCH   1  12
BRANCH   2  22
ATOM     22  O   UNL     1      34.264  -1.206   9.688  1.00  0.00    -0.502 OA
ATOM     23  H   UNL     1      34.179  -0.755   8.784  1.00  0.00     0.293 HD
ENDBRANCH   2  22
BRANCH   6  24
ATOM     24  O   UNL     1      36.810  -0.209  14.259  1.00  0.00    -0.507 OA
ATOM     25  H   UNL     1      36.955  -1.122  14.664  1.00  0.00     0.293 HD
ENDBRANCH   6  24
BRANCH   8  26
ATOM     26  O   UNL     1      33.615   2.673  16.390  1.00  0.00    -0.508 OA
ATOM     27  H   UNL     1      33.053   3.508  16.274  1.00  0.00     0.293 HD
ENDBRANCH   8  26
TORSDOF 6
ENDMDL
MODEL 3
REMARK VINA RESULT:    -7.209      2.748      6.962
REMARK INTER + INTRA:          -8.908
REMARK INTER:                  -8.590
REMARK INTRA:                  -0.318
REMARK UNBOUND:                -0.224
REMARK SMILES O=c1c(O)c(-c2ccc(O)c(O)c2)oc2cc(O)cc(O)c12
REMARK SMILES IDX 5 1 3 2 2 3 1 4 22 5 20 6 19 7 17 8 16 9 15 10 14 11 6 12
REMARK SMILES IDX 7 13 8 14 9 15 13 16 11 17 10 18 12 20 4 22 21 24 18 26
REMARK H PARENT 10 19 12 21 4 23 21 25 18 27
REMARK Flexibility Score: inf
ROOT
ATOM      1  C   UNL     1      32.443  -0.558  11.454  1.00  0.00     0.180 A 
ATOM      2  C   UNL     1      33.298  -1.516  10.882  1.00  0.00     0.208 A 
ATOM      3  C   UNL     1      33.040  -1.966   9.577  1.00  0.00     0.238 A 
ATOM      4  O   UNL     1      33.778  -2.863   9.091  1.00  0.00    -0.285 OA
ATOM      5  C   UNL     1      31.942  -1.442   8.855  1.00  0.00     0.111 A 
ATOM      6  C   UNL     1      31.611  -1.797   7.513  1.00  0.00     0.134 A 
ATOM      7  C   UNL     1      30.425  -1.314   6.944  1.00  0.00     0.093 A 
ATOM      8  C   UNL     1      29.593  -0.438   7.645  1.00  0.00     0.123 A 
ATOM      9  C   UNL     1      29.939  -0.039   8.934  1.00  0.00     0.094 A 
ATOM     10  C   UNL     1      31.096  -0.532   9.542  1.00  0.00     0.146 A 
ATOM     11  O   UNL     1      31.382  -0.135  10.776  1.00  0.00    -0.452 OA
ENDROOT
BRANCH   1  12
ATOM     12  C   UNL     1      32.664  -0.017  12.815  1.00  0.00     0.025 A 
ATOM     13  C   UNL     1      32.047  -0.594  13.940  1.00  0.00     0.016 A 
ATOM     14  C   UNL     1      32.288  -0.082  15.218  1.00  0.00     0.051 A 
ATOM     15  C   UNL     1      33.157   0.999  15.394  1.00  0.00     0.157 A 
ATOM     16  C   UNL     1      33.551   1.056  12.999  1.00  0.00     0.062 A 
ATOM     17  C   UNL     1      33.793   1.570  14.281  1.00  0.00     0.158 A 
BRANCH  15  18
ATOM     18  O   UNL     1      33.376   1.490  16.681  1.00  0.00    -0.504 OA
ATOM     19  H   UNL     1      32.617   1.795  17.278  1.00  0.00     0.293 HD
ENDBRANCH  15  18
BRANCH  17  20
ATOM     20  O   UNL     1      34.666   2.645  14.450  1.00  0.00    -0.504 OA
ATOM     21  H   UNL     1      35.376   2.644  15.172  1.00  0.00     0.293 HD
ENDBRANCH  17  20
ENDBRANCH   1  12
BRANCH   2  22
ATOM     22  O   UNL     1      34.365  -2.036  11.621  1.00  0.00    -0.502 OA
ATOM     23  H   UNL     1      34.402  -3.005  11.913  1.00  0.00     0.293 HD
ENDBRANCH   2  22
BRANCH   6  24
ATOM     24  O   UNL     1      32.418  -2.590   6.694  1.00  0.00    -0.507 OA
ATOM     25  H   UNL     1      33.104  -3.251   7.029  1.00  0.00     0.293 HD
ENDBRANCH   6  24
BRANCH   8  26
ATOM     26  O   UNL     1      28.425   0.050   7.065  1.00  0.00    -0.508 OA
ATOM     27  H   UNL     1      28.442   0.574   6.198  1.00  0.00     0.293 HD
ENDBRANCH   8  26
TORSDOF 6
ENDMDL
MODEL 4
REMARK VINA RESULT:    -7.201      2.907      7.647
REMARK INTER + INTRA:          -8.899
REMARK INTER:                  -8.566
REMARK INTRA:                  -0.333
REMARK UNBOUND:                -0.224
REMARK SMILES O=c1c(O)c(-c2ccc(O)c(O)c2)oc2cc(O)cc(O)c12
REMARK SMILES IDX 5 1 3 2 2 3 1 4 22 5 20 6 19 7 17 8 16 9 15 10 14 11 6 12
REMARK SMILES IDX 7 13 8 14 9 15 13 16 11 17 10 18 12 20 4 22 21 24 18 26
REMARK H PARENT 10 19 12 21 4 23 21 25 18 27
REMARK Flexibility Score: inf
ROOT
ATOM      1  C   UNL     1      33.276  -0.151  12.313  1.00  0.00     0.180 A 
ATOM      2  C   UNL     1      34.094  -0.666  11.293  1.00  0.00     0.208 A 
ATOM      3  C   UNL     1      33.493  -1.197  10.140  1.00  0.00     0.238 A 
ATOM      4  O   UNL     1      34.229  -1.705   9.254  1.00  0.00    -0.285 OA
ATOM      5  C   UNL     1      32.084  -1.192  10.014  1.00  0.00     0.111 A 
ATOM      6  C   UNL     1      31.370  -1.668   8.873  1.00  0.00     0.134 A 
ATOM      7  C   UNL     1      29.972  -1.735   8.912  1.00  0.00     0.093 A 
ATOM      8  C   UNL     1      29.259  -1.283  10.025  1.00  0.00     0.123 A 
ATOM      9  C   UNL     1      29.944  -0.761  11.120  1.00  0.00     0.094 A 
ATOM     10  C   UNL     1      31.341  -0.715  11.125  1.00  0.00     0.146 A 
ATOM     11  O   UNL     1      31.954  -0.221  12.194  1.00  0.00    -0.452 OA
ENDROOT
BRANCH   1  12
ATOM     12  C   UNL     1      33.835   0.447  13.547  1.00  0.00     0.025 A 
ATOM     13  C   UNL     1      34.152   1.815  13.617  1.00  0.00     0.016 A 
ATOM     14  C   UNL     1      34.656   2.363  14.799  1.00  0.00     0.051 A 
ATOM     15  C   UNL     1      34.838   1.561  15.930  1.00  0.00     0.157 A 
ATOM     16  C   UNL     1      34.000  -0.351  14.690  1.00  0.00     0.062 A 
ATOM     17  C   UNL     1      34.506   0.197  15.877  1.00  0.00     0.158 A 
BRANCH  15  18
ATOM     18  O   UNL     1      35.345   2.135  17.095  1.00  0.00    -0.504 OA
ATOM     19  H   UNL     1      36.185   1.791  17.544  1.00  0.00     0.293 HD
ENDBRANCH  15  18
BRANCH  17  20
ATOM     20  O   UNL     1      34.679  -0.608  17.002  1.00  0.00    -0.504 OA
ATOM     21  H   UNL     1      34.999  -1.566  16.926  1.00  0.00     0.293 HD
ENDBRANCH  17  20
ENDBRANCH   1  12
BRANCH   2  22
ATOM     22  O   UNL     1      35.483  -0.681  11.447  1.00  0.00    -0.502 OA
ATOM     23  H   UNL     1      36.091  -1.230  10.850  1.00  0.00     0.293 HD
ENDBRANCH   2  22
BRANCH   6  24
ATOM     24  O   UNL     1      31.980  -2.056   7.677  1.00  0.00    -0.507 OA
ATOM     25  H   UNL     1      31.538  -2.030   6.771  1.00  0.00     0.293 HD
ENDBRANCH   6  24
BRANCH   8  26
ATOM     26  O   UNL     1      27.868  -1.338  10.048  1.00  0.00    -0.508 OA
ATOM     27  H   UNL     1      27.348  -1.270  10.916  1.00  0.00     0.293 HD
ENDBRANCH   8  26
TORSDOF 6
ENDMDL
MODEL 5
REMARK VINA RESULT:    -7.183      3.478      7.917
REMARK INTER + INTRA:          -8.878
REMARK INTER:                  -8.563
REMARK INTRA:                  -0.315
REMARK UNBOUND:                -0.224
REMARK SMILES O=c1c(O)c(-c2ccc(O)c(O)c2)oc2cc(O)cc(O)c12
REMARK SMILES IDX 5 1 3 2 2 3 1 4 22 5 20 6 19 7 17 8 16 9 15 10 14 11 6 12
REMARK SMILES IDX 7 13 8 14 9 15 13 16 11 17 10 18 12 20 4 22 21 24 18 26
REMARK H PARENT 10 19 12 21 4 23 21 25 18 27
REMARK Flexibility Score: inf
ROOT
ATOM      1  C   UNL     1      32.429  -0.715  13.641  1.00  0.00     0.180 A 
ATOM      2  C   UNL     1      33.490  -1.206  12.861  1.00  0.00     0.208 A 
ATOM      3  C   UNL     1      33.239  -1.585  11.532  1.00  0.00     0.238 A 
ATOM      4  O   UNL     1      34.181  -2.075  10.856  1.00  0.00    -0.285 OA
ATOM      5  C   UNL     1      31.937  -1.454  10.996  1.00  0.00     0.111 A 
ATOM      6  C   UNL     1      31.578  -1.769   9.650  1.00  0.00     0.134 A 
ATOM      7  C   UNL     1      30.232  -1.724   9.266  1.00  0.00     0.093 A 
ATOM      8  C   UNL     1      29.241  -1.312  10.159  1.00  0.00     0.123 A 
ATOM      9  C   UNL     1      29.588  -0.944  11.457  1.00  0.00     0.094 A 
ATOM     10  C   UNL     1      30.918  -1.013  11.881  1.00  0.00     0.146 A 
ATOM     11  O   UNL     1      31.204  -0.665  13.129  1.00  0.00    -0.452 OA
ENDROOT
BRANCH   1  12
ATOM     12  C   UNL     1      32.619  -0.273  15.042  1.00  0.00     0.025 A 
ATOM     13  C   UNL     1      32.404  -1.149  16.121  1.00  0.00     0.016 A 
ATOM     14  C   UNL     1      32.612  -0.718  17.433  1.00  0.00     0.051 A 
ATOM     15  C   UNL     1      33.052   0.585  17.688  1.00  0.00     0.157 A 
ATOM     16  C   UNL     1      33.080   1.028  15.301  1.00  0.00     0.062 A 
ATOM     17  C   UNL     1      33.289   1.462  16.618  1.00  0.00     0.158 A 
BRANCH  15  18
ATOM     18  O   UNL     1      33.249   0.988  19.008  1.00  0.00    -0.504 OA
ATOM     19  H   UNL     1      34.153   1.291  19.350  1.00  0.00     0.293 HD
ENDBRANCH  15  18
BRANCH  17  20
ATOM     20  O   UNL     1      33.734   2.761  16.864  1.00  0.00    -0.504 OA
ATOM     21  H   UNL     1      33.190   3.412  17.419  1.00  0.00     0.293 HD
ENDBRANCH  17  20
ENDBRANCH   1  12
BRANCH   2  22
ATOM     22  O   UNL     1      34.764  -1.349  13.418  1.00  0.00    -0.502 OA
ATOM     23  H   UNL     1      35.194  -0.626  13.984  1.00  0.00     0.293 HD
ENDBRANCH   2  22
BRANCH   6  24
ATOM     24  O   UNL     1      32.501  -2.102   8.655  1.00  0.00    -0.507 OA
ATOM     25  H   UNL     1      33.297  -1.539   8.397  1.00  0.00     0.293 HD
ENDBRANCH   6  24
BRANCH   8  26
ATOM     26  O   UNL     1      27.907  -1.254   9.763  1.00  0.00    -0.508 OA
ATOM     27  H   UNL     1      27.644  -0.986   8.821  1.00  0.00     0.293 HD
ENDBRANCH   8  26
TORSDOF 6
ENDMDL
MODEL 6
REMARK VINA RESULT:    -7.147      2.522      3.969
REMARK INTER + INTRA:          -8.834
REMARK INTER:                  -8.529
REMARK INTRA:                  -0.306
REMARK UNBOUND:                -0.224
REMARK SMILES O=c1c(O)c(-c2ccc(O)c(O)c2)oc2cc(O)cc(O)c12
REMARK SMILES IDX 5 1 3 2 2 3 1 4 22 5 20 6 19 7 17 8 16 9 15 10 14 11 6 12
REMARK SMILES IDX 7 13 8 14 9 15 13 16 11 17 10 18 12 20 4 22 21 24 18 26
REMARK H PARENT 10 19 12 21 4 23 21 25 18 27
REMARK Flexibility Score: inf
ROOT
ATOM      1  C   UNL     1      32.371  -0.294  11.643  1.00  0.00     0.180 A 
ATOM      2  C   UNL     1      32.715   0.903  12.295  1.00  0.00     0.208 A 
ATOM      3  C   UNL     1      33.629   0.859  13.360  1.00  0.00     0.238 A 
ATOM      4  O   UNL     1      33.891   1.926  13.975  1.00  0.00    -0.285 OA
ATOM      5  C   UNL     1      34.198  -0.376  13.750  1.00  0.00     0.111 A 
ATOM      6  C   UNL     1      35.164  -0.531  14.789  1.00  0.00     0.134 A 
ATOM      7  C   UNL     1      35.561  -1.817  15.176  1.00  0.00     0.093 A 
ATOM      8  C   UNL     1      35.077  -2.950  14.518  1.00  0.00     0.123 A 
ATOM      9  C   UNL     1      34.179  -2.806  13.462  1.00  0.00     0.094 A 
ATOM     10  C   UNL     1      33.737  -1.538  13.077  1.00  0.00     0.146 A 
ATOM     11  O   UNL     1      32.872  -1.446  12.074  1.00  0.00    -0.452 OA
ENDROOT
BRANCH   1  12
ATOM     12  C   UNL     1      31.434  -0.326  10.496  1.00  0.00     0.025 A 
ATOM     13  C   UNL     1      31.850   0.034   9.201  1.00  0.00     0.016 A 
ATOM     14  C   UNL     1      30.955  -0.026   8.130  1.00  0.00     0.051 A 
ATOM     15  C   UNL     1      29.641  -0.460   8.329  1.00  0.00     0.157 A 
ATOM     16  C   UNL     1      30.120  -0.780  10.688  1.00  0.00     0.062 A 
ATOM     17  C   UNL     1      29.220  -0.841   9.614  1.00  0.00     0.158 A 
BRANCH  15  18
ATOM     18  O   UNL     1      28.771  -0.508   7.241  1.00  0.00    -0.504 OA
ATOM     19  H   UNL     1      28.645  -1.347   6.688  1.00  0.00     0.293 HD
ENDBRANCH  15  18
BRANCH  17  20
ATOM     20  O   UNL     1      27.913  -1.280   9.819  1.00  0.00    -0.504 OA
ATOM     21  H   UNL     1      27.214  -0.685  10.248  1.00  0.00     0.293 HD
ENDBRANCH  17  20
ENDBRANCH   1  12
BRANCH   2  22
ATOM     22  O   UNL     1      32.123   2.109  11.908  1.00  0.00    -0.502 OA
ATOM     23  H   UNL     1      31.674   2.230  11.008  1.00  0.00     0.293 HD
ENDBRANCH   2  22
BRANCH   6  24
ATOM     24  O   UNL     1      35.780   0.537  15.448  1.00  0.00    -0.507 OA
ATOM     25  H   UNL     1      36.774   0.624  15.597  1.00  0.00     0.293 HD
ENDBRANCH   6  24
BRANCH   8  26
ATOM     26  O   UNL     1      35.490  -4.224  14.899  1.00  0.00    -0.508 OA
ATOM     27  H   UNL     1      34.838  -4.903  15.276  1.00  0.00     0.293 HD
ENDBRANCH   8  26
TORSDOF 6
ENDMDL
MODEL 7
REMARK VINA RESULT:    -7.113      2.494      6.888
REMARK INTER + INTRA:          -8.792
REMARK INTER:                  -8.629
REMARK INTRA:                  -0.163
REMARK UNBOUND:                -0.224
REMARK SMILES O=c1c(O)c(-c2ccc(O)c(O)c2)oc2cc(O)cc(O)c12
REMARK SMILES IDX 5 1 3 2 2 3 1 4 22 5 20 6 19 7 17 8 16 9 15 10 14 11 6 12
REMARK SMILES IDX 7 13 8 14 9 15 13 16 11 17 10 18 12 20 4 22 21 24 18 26
REMARK H PARENT 10 19 12 21 4 23 21 25 18 27
REMARK Flexibility Score: inf
ROOT
ATOM      1  C   UNL     1      32.255  -0.211  11.815  1.00  0.00     0.180 A 
ATOM      2  C   UNL     1      30.995  -0.363  12.419  1.00  0.00     0.208 A 
ATOM      3  C   UNL     1      29.881  -0.640  11.610  1.00  0.00     0.238 A 
ATOM      4  O   UNL     1      28.748  -0.721  12.151  1.00  0.00    -0.285 OA
ATOM      5  C   UNL     1      30.043  -0.778  10.211  1.00  0.00     0.111 A 
ATOM      6  C   UNL     1      28.991  -1.098   9.301  1.00  0.00     0.134 A 
ATOM      7  C   UNL     1      29.242  -1.080   7.923  1.00  0.00     0.093 A 
ATOM      8  C   UNL     1      30.521  -0.818   7.426  1.00  0.00     0.123 A 
ATOM      9  C   UNL     1      31.567  -0.564   8.309  1.00  0.00     0.094 A 
ATOM     10  C   UNL     1      31.341  -0.539   9.687  1.00  0.00     0.146 A 
ATOM     11  O   UNL     1      32.364  -0.281  10.493  1.00  0.00    -0.452 OA
ENDROOT
BRANCH   1  12
ATOM     12  C   UNL     1      33.480   0.058  12.603  1.00  0.00     0.025 A 
ATOM     13  C   UNL     1      34.539  -0.868  12.648  1.00  0.00     0.016 A 
ATOM     14  C   UNL     1      35.695  -0.582  13.379  1.00  0.00     0.051 A 
ATOM     15  C   UNL     1      35.819   0.632  14.061  1.00  0.00     0.157 A 
ATOM     16  C   UNL     1      33.617   1.284  13.273  1.00  0.00     0.062 A 
ATOM     17  C   UNL     1      34.777   1.571  14.007  1.00  0.00     0.158 A 
BRANCH  15  18
ATOM     18  O   UNL     1      36.984   0.887  14.783  1.00  0.00    -0.504 OA
ATOM     19  H   UNL     1      37.599   1.660  14.559  1.00  0.00     0.293 HD
ENDBRANCH  15  18
BRANCH  17  20
ATOM     20  O   UNL     1      34.897   2.787  14.680  1.00  0.00    -0.504 OA
ATOM     21  H   UNL     1      34.331   3.590  14.431  1.00  0.00     0.293 HD
ENDBRANCH  17  20
ENDBRANCH   1  12
BRANCH   2  22
ATOM     22  O   UNL     1      30.854  -0.201  13.800  1.00  0.00    -0.502 OA
ATOM     23  H   UNL     1      30.221   0.478  14.206  1.00  0.00     0.293 HD
ENDBRANCH   2  22
BRANCH   6  24
ATOM     24  O   UNL     1      27.702  -1.464   9.696  1.00  0.00    -0.507 OA
ATOM     25  H   UNL     1      27.097  -0.901  10.275  1.00  0.00     0.293 HD
ENDBRANCH   6  24
BRANCH   8  26
ATOM     26  O   UNL     1      30.764  -0.819   6.054  1.00  0.00    -0.508 OA
ATOM     27  H   UNL     1      30.211  -0.257   5.417  1.00  0.00     0.293 HD
ENDBRANCH   8  26
TORSDOF 6
ENDMDL
MODEL 8
REMARK VINA RESULT:    -7.096      1.652      2.095
REMARK INTER + INTRA:          -8.773
REMARK INTER:                  -9.191
REMARK INTRA:                   0.418
REMARK UNBOUND:                -0.224
REMARK SMILES O=c1c(O)c(-c2ccc(O)c(O)c2)oc2cc(O)cc(O)c12
REMARK SMILES IDX 5 1 3 2 2 3 1 4 22 5 20 6 19 7 17 8 16 9 15 10 14 11 6 12
REMARK SMILES IDX 7 13 8 14 9 15 13 16 11 17 10 18 12 20 4 22 21 24 18 26
REMARK H PARENT 10 19 12 21 4 23 21 25 18 27
REMARK Flexibility Score: inf
ROOT
ATOM      1  C   UNL     1      31.328  -0.423   8.329  1.00  0.00     0.180 A 
ATOM      2  C   UNL     1      32.104  -1.589   8.204  1.00  0.00     0.208 A 
ATOM      3  C   UNL     1      32.986  -1.934   9.241  1.00  0.00     0.238 A 
ATOM      4  O   UNL     1      33.716  -2.950   9.099  1.00  0.00    -0.285 OA
ATOM      5  C   UNL     1      33.070  -1.120  10.395  1.00  0.00     0.111 A 
ATOM      6  C   UNL     1      33.900  -1.397  11.523  1.00  0.00     0.134 A 
ATOM      7  C   UNL     1      34.001  -0.453  12.553  1.00  0.00     0.093 A 
ATOM      8  C   UNL     1      33.253   0.726  12.527  1.00  0.00     0.123 A 
ATOM      9  C   UNL     1      32.395   0.977  11.459  1.00  0.00     0.094 A 
ATOM     10  C   UNL     1      32.300   0.072  10.399  1.00  0.00     0.146 A 
ATOM     11  O   UNL     1      31.478   0.355   9.395  1.00  0.00    -0.452 OA
ENDROOT
BRANCH   1  12
ATOM     12  C   UNL     1      30.359  -0.006   7.290  1.00  0.00     0.025 A 
ATOM     13  C   UNL     1      30.397  -0.550   5.994  1.00  0.00     0.016 A 
ATOM     14  C   UNL     1      29.457  -0.160   5.036  1.00  0.00     0.051 A 
ATOM     15  C   UNL     1      28.460   0.765   5.361  1.00  0.00     0.157 A 
ATOM     16  C   UNL     1      29.344   0.907   7.618  1.00  0.00     0.062 A 
ATOM     17  C   UNL     1      28.400   1.299   6.657  1.00  0.00     0.158 A 
BRANCH  15  18
ATOM     18  O   UNL     1      27.537   1.137   4.383  1.00  0.00    -0.504 OA
ATOM     19  H   UNL     1      27.430   2.098   4.082  1.00  0.00     0.293 HD
ENDBRANCH  15  18
BRANCH  17  20
ATOM     20  O   UNL     1      27.404   2.217   6.989  1.00  0.00    -0.504 OA
ATOM     21  H   UNL     1      26.537   2.272   6.467  1.00  0.00     0.293 HD
ENDBRANCH  17  20
ENDBRANCH   1  12
BRANCH   2  22
ATOM     22  O   UNL     1      32.021  -2.367   7.046  1.00  0.00    -0.502 OA
ATOM     23  H   UNL     1      32.774  -2.416   6.369  1.00  0.00     0.293 HD
ENDBRANCH   2  22
BRANCH   6  24
ATOM     24  O   UNL     1      34.617  -2.584  11.692  1.00  0.00    -0.507 OA
ATOM     25  H   UNL     1      35.296  -2.944  11.038  1.00  0.00     0.293 HD
ENDBRANCH   6  24
BRANCH   8  26
ATOM     26  O   UNL     1      33.348   1.651  13.564  1.00  0.00    -0.508 OA
ATOM     27  H   UNL     1      32.524   2.075  13.974  1.00  0.00     0.293 HD
ENDBRANCH   8  26
TORSDOF 6
ENDMDL
MODEL 9
REMARK VINA RESULT:    -7.083      2.548      7.726
REMARK INTER + INTRA:          -8.757
REMARK INTER:                  -8.494
REMARK INTRA:                  -0.262
REMARK UNBOUND:                -0.224
REMARK SMILES O=c1c(O)c(-c2ccc(O)c(O)c2)oc2cc(O)cc(O)c12
REMARK SMILES IDX 5 1 3 2 2 3 1 4 22 5 20 6 19 7 17 8 16 9 15 10 14 11 6 12
REMARK SMILES IDX 7 13 8 14 9 15 13 16 11 17 10 18 12 20 4 22 21 24 18 26
REMARK H PARENT 10 19 12 21 4 23 21 25 18 27
REMARK Flexibility Score: inf
ROOT
ATOM      1  C   UNL     1      33.565  -1.757  11.700  1.00  0.00     0.180 A 
ATOM      2  C   UNL     1      34.156  -2.115  10.476  1.00  0.00     0.208 A 
ATOM      3  C   UNL     1      33.359  -2.153   9.320  1.00  0.00     0.238 A 
ATOM      4  O   UNL     1      33.882  -2.526   8.238  1.00  0.00    -0.285 OA
ATOM      5  C   UNL     1      31.986  -1.817   9.400  1.00  0.00     0.111 A 
ATOM      6  C   UNL     1      31.095  -1.782   8.286  1.00  0.00     0.134 A 
ATOM      7  C   UNL     1      29.728  -1.563   8.502  1.00  0.00     0.093 A 
ATOM      8  C   UNL     1      29.232  -1.313   9.783  1.00  0.00     0.123 A 
ATOM      9  C   UNL     1      30.104  -1.285  10.869  1.00  0.00     0.094 A 
ATOM     10  C   UNL     1      31.467  -1.536  10.690  1.00  0.00     0.146 A 
ATOM     11  O   UNL     1      32.261  -1.512  11.754  1.00  0.00    -0.452 OA
ENDROOT
BRANCH   1  12
ATOM     12  C   UNL     1      34.345  -1.672  12.957  1.00  0.00     0.025 A 
ATOM     13  C   UNL     1      34.273  -2.684  13.931  1.00  0.00     0.016 A 
ATOM     14  C   UNL     1      35.036  -2.594  15.098  1.00  0.00     0.051 A 
ATOM     15  C   UNL     1      35.889  -1.506  15.304  1.00  0.00     0.157 A 
ATOM     16  C   UNL     1      35.218  -0.591  13.157  1.00  0.00     0.062 A 
ATOM     17  C   UNL     1      35.984  -0.500  14.329  1.00  0.00     0.158 A 
BRANCH  15  18
ATOM     18  O   UNL     1      36.636  -1.443  16.480  1.00  0.00    -0.504 OA
ATOM     19  H   UNL     1      36.289  -1.805  17.359  1.00  0.00     0.293 HD
ENDBRANCH  15  18
BRANCH  17  20
ATOM     20  O   UNL     1      36.838   0.585  14.524  1.00  0.00    -0.504 OA
ATOM     21  H   UNL     1      36.914   1.045  15.424  1.00  0.00     0.293 HD
ENDBRANCH  17  20
ENDBRANCH   1  12
BRANCH   2  22
ATOM     22  O   UNL     1      35.508  -2.465  10.424  1.00  0.00    -0.502 OA
ATOM     23  H   UNL     1      35.874  -3.124   9.747  1.00  0.00     0.293 HD
ENDBRANCH   2  22
BRANCH   6  24
ATOM     24  O   UNL     1      31.501  -1.927   6.957  1.00  0.00    -0.507 OA
ATOM     25  H   UNL     1      32.269  -1.430   6.532  1.00  0.00     0.293 HD
ENDBRANCH   6  24
BRANCH   8  26
ATOM     26  O   UNL     1      27.874  -1.080   9.987  1.00  0.00    -0.508 OA
ATOM     27  H   UNL     1      27.167  -1.542   9.427  1.00  0.00     0.293 HD
ENDBRANCH   8  26
TORSDOF 6
ENDMDL
