MODEL 1
REMARK VINA RESULT:    -4.238      0.000      0.000
REMARK INTER + INTRA:          -7.418
REMARK INTER:                  -6.468
REMARK INTRA:                  -0.950
REMARK UNBOUND:                -0.950
REMARK SMILES O=C([O-])CCCCCCCCC(=O)[O-]
REMARK SMILES IDX 7 1 6 2 5 3 4 4 2 5 1 6 3 7 8 8 9 9 10 10 11 11 12 12 13 13
REMARK SMILES IDX 14 14
REMARK H PARENT
REMARK Flexibility Score: inf
ROOT
ATOM      1  C   UNL     1     -53.031  17.735 -27.365  1.00  0.00     0.000 C 
ENDROOT
BRANCH   1   2
ATOM      2  C   UNL     1     -54.038  17.965 -28.505  1.00  0.00     0.000 C 
BRANCH   2   3
ATOM      3  C   UNL     1     -53.470  18.848 -29.630  1.00  0.00     0.006 C 
BRANCH   3   4
ATOM      4  C   UNL     1     -52.294  18.178 -30.354  1.00  0.00     0.053 C 
BRANCH   4   5
ATOM      5  C   UNL     1     -52.759  17.301 -31.475  1.00  0.00     0.041 C 
ATOM      6  O   UNL     1     -53.954  17.357 -31.869  1.00  0.00    -0.550 OA
ATOM      7  O   UNL     1     -51.884  16.396 -32.061  1.00  0.00    -0.550 OA
ENDBRANCH   4   5
ENDBRANCH   3   4
ENDBRANCH   2   3
ENDBRANCH   1   2
BRANCH   1   8
ATOM      8  C   UNL     1     -52.618  16.259 -27.233  1.00  0.00     0.000 C 
BRANCH   8   9
ATOM      9  C   UNL     1     -53.464  15.329 -28.116  1.00  0.00     0.000 C 
BRANCH   9  10
ATOM     10  C   UNL     1     -52.610  14.352 -28.940  1.00  0.00     0.006 C 
BRANCH  10  11
ATOM     11  C   UNL     1     -51.158  14.833 -29.027  1.00  0.00     0.053 C 
BRANCH  11  12
ATOM     12  C   UNL     1     -50.225  13.669 -29.120  1.00  0.00     0.041 C 
ATOM     13  O   UNL     1     -50.423  12.639 -28.421  1.00  0.00    -0.550 OA
ATOM     14  O   UNL     1     -49.107  13.737 -29.942  1.00  0.00    -0.550 OA
ENDBRANCH  11  12
ENDBRANCH  10  11
ENDBRANCH   9  10
ENDBRANCH   8   9
ENDBRANCH   1   8
TORSDOF 9
ENDMDL
MODEL 2
REMARK VINA RESULT:    -4.231     14.040     15.532
REMARK INTER + INTRA:          -7.407
REMARK INTER:                  -6.474
REMARK INTRA:                  -0.932
REMARK UNBOUND:                -0.950
REMARK SMILES O=C([O-])CCCCCCCCC(=O)[O-]
REMARK SMILES IDX 7 1 6 2 5 3 4 4 2 5 1 6 3 7 8 8 9 9 10 10 11 11 12 12 13 13
REMARK SMILES IDX 14 14
REMARK H PARENT
REMARK Flexibility Score: inf
ROOT
ATOM      1  C   UNL     1     -38.264  21.238 -29.447  1.00  0.00     0.000 C 
ENDROOT
BRANCH   1   2
ATOM      2  C   UNL     1     -39.516  20.530 -28.903  1.00  0.00     0.000 C 
BRANCH   2   3
ATOM      3  C   UNL     1     -39.524  19.022 -29.206  1.00  0.00     0.006 C 
BRANCH   3   4
ATOM      4  C   UNL     1     -38.594  18.661 -30.372  1.00  0.00     0.053 C 
BRANCH   4   5
ATOM      5  C   UNL     1     -38.599  17.190 -30.652  1.00  0.00     0.041 C 
ATOM      6  O   UNL     1     -39.437  16.701 -31.454  1.00  0.00    -0.550 OA
ATOM      7  O   UNL     1     -37.702  16.353 -30.000  1.00  0.00    -0.550 OA
ENDBRANCH   4   5
ENDBRANCH   3   4
ENDBRANCH   2   3
ENDBRANCH   1   2
BRANCH   1   8
ATOM      8  C   UNL     1     -37.839  22.435 -28.578  1.00  0.00     0.000 C 
BRANCH   8   9
ATOM      9  C   UNL     1     -36.336  22.427 -28.259  1.00  0.00     0.000 C 
BRANCH   9  10
ATOM     10  C   UNL     1     -35.581  21.302 -28.983  1.00  0.00     0.006 C 
BRANCH  10  11
ATOM     11  C   UNL     1     -34.955  20.328 -27.980  1.00  0.00     0.053 C 
BRANCH  11  12
ATOM     12  C   UNL     1     -35.578  18.974 -28.104  1.00  0.00     0.041 C 
ATOM     13  O   UNL     1     -36.568  18.664 -27.390  1.00  0.00    -0.550 OA
ATOM     14  O   UNL     1     -35.035  18.035 -28.972  1.00  0.00    -0.550 OA
ENDBRANCH  11  12
ENDBRANCH  10  11
ENDBRANCH   9  10
ENDBRANCH   8   9
ENDBRANCH   1   8
TORSDOF 9
ENDMDL
MODEL 3
REMARK VINA RESULT:    -4.136     13.806     15.361
REMARK INTER + INTRA:          -7.262
REMARK INTER:                  -6.285
REMARK INTRA:                  -0.977
REMARK UNBOUND:                -0.950
REMARK SMILES O=C([O-])CCCCCCCCC(=O)[O-]
REMARK SMILES IDX 7 1 6 2 5 3 4 4 2 5 1 6 3 7 8 8 9 9 10 10 11 11 12 12 13 13
REMARK SMILES IDX 14 14
REMARK H PARENT
REMARK Flexibility Score: inf
ROOT
ATOM      1  C   UNL     1     -38.079  22.025 -28.645  1.00  0.00     0.000 C 
ENDROOT
BRANCH   1   2
ATOM      2  C   UNL     1     -36.792  22.328 -29.430  1.00  0.00     0.000 C 
BRANCH   2   3
ATOM      3  C   UNL     1     -36.162  21.067 -30.047  1.00  0.00     0.006 C 
BRANCH   3   4
ATOM      4  C   UNL     1     -35.102  20.441 -29.130  1.00  0.00     0.053 C 
BRANCH   4   5
ATOM      5  C   UNL     1     -35.543  19.112 -28.598  1.00  0.00     0.041 C 
ATOM      6  O   UNL     1     -36.428  19.050 -27.704  1.00  0.00    -0.550 OA
ATOM      7  O   UNL     1     -34.951  17.945 -29.062  1.00  0.00    -0.550 OA
ENDBRANCH   4   5
ENDBRANCH   3   4
ENDBRANCH   2   3
ENDBRANCH   1   2
BRANCH   1   8
ATOM      8  C   UNL     1     -39.070  21.163 -29.448  1.00  0.00     0.000 C 
BRANCH   8   9
ATOM      9  C   UNL     1     -39.876  20.206 -28.555  1.00  0.00     0.000 C 
BRANCH   9  10
ATOM     10  C   UNL     1     -39.782  18.744 -29.016  1.00  0.00     0.006 C 
BRANCH  10  11
ATOM     11  C   UNL     1     -38.824  18.603 -30.202  1.00  0.00     0.053 C 
BRANCH  11  12
ATOM     12  C   UNL     1     -38.683  17.168 -30.596  1.00  0.00     0.041 C 
ATOM     13  O   UNL     1     -39.471  16.661 -31.439  1.00  0.00    -0.550 OA
ATOM     14  O   UNL     1     -37.714  16.373 -29.997  1.00  0.00    -0.550 OA
ENDBRANCH  11  12
ENDBRANCH  10  11
ENDBRANCH   9  10
ENDBRANCH   8   9
ENDBRANCH   1   8
TORSDOF 9
ENDMDL
MODEL 4
REMARK VINA RESULT:    -4.126      1.355      2.245
REMARK INTER + INTRA:          -7.246
REMARK INTER:                  -6.325
REMARK INTRA:                  -0.922
REMARK UNBOUND:                -0.950
REMARK SMILES O=C([O-])CCCCCCCCC(=O)[O-]
REMARK SMILES IDX 7 1 6 2 5 3 4 4 2 5 1 6 3 7 8 8 9 9 10 10 11 11 12 12 13 13
REMARK SMILES IDX 14 14
REMARK H PARENT
REMARK Flexibility Score: inf
ROOT
ATOM      1  C   UNL     1     -53.690  15.540 -28.102  1.00  0.00     0.000 C 
ENDROOT
BRANCH   1   2
ATOM      2  C   UNL     1     -52.689  16.431 -27.347  1.00  0.00     0.000 C 
BRANCH   2   3
ATOM      3  C   UNL     1     -52.583  17.845 -27.945  1.00  0.00     0.006 C 
BRANCH   3   4
ATOM      4  C   UNL     1     -53.188  17.924 -29.354  1.00  0.00     0.053 C 
BRANCH   4   5
ATOM      5  C   UNL     1     -52.149  18.223 -30.389  1.00  0.00     0.041 C 
ATOM      6  O   UNL     1     -50.961  17.839 -30.223  1.00  0.00    -0.550 OA
ATOM      7  O   UNL     1     -52.483  18.956 -31.520  1.00  0.00    -0.550 OA
ENDBRANCH   4   5
ENDBRANCH   3   4
ENDBRANCH   2   3
ENDBRANCH   1   2
BRANCH   1   8
ATOM      8  C   UNL     1     -53.067  14.210 -28.559  1.00  0.00     0.000 C 
BRANCH   8   9
ATOM      9  C   UNL     1     -52.489  14.287 -29.981  1.00  0.00     0.000 C 
BRANCH   9  10
ATOM     10  C   UNL     1     -50.957  14.392 -29.994  1.00  0.00     0.006 C 
BRANCH  10  11
ATOM     11  C   UNL     1     -50.347  13.676 -28.785  1.00  0.00     0.053 C 
BRANCH  11  12
ATOM     12  C   UNL     1     -49.768  12.359 -29.191  1.00  0.00     0.041 C 
ATOM     13  O   UNL     1     -49.981  11.902 -30.346  1.00  0.00    -0.550 OA
ATOM     14  O   UNL     1     -49.034  11.610 -28.280  1.00  0.00    -0.550 OA
ENDBRANCH  11  12
ENDBRANCH  10  11
ENDBRANCH   9  10
ENDBRANCH   8   9
ENDBRANCH   1   8
TORSDOF 9
ENDMDL
MODEL 5
REMARK VINA RESULT:    -4.101      2.745      3.881
REMARK INTER + INTRA:          -7.208
REMARK INTER:                  -6.906
REMARK INTRA:                  -0.302
REMARK UNBOUND:                -0.950
REMARK SMILES O=C([O-])CCCCCCCCC(=O)[O-]
REMARK SMILES IDX 7 1 6 2 5 3 4 4 2 5 1 6 3 7 8 8 9 9 10 10 11 11 12 12 13 13
REMARK SMILES IDX 14 14
REMARK H PARENT
REMARK Flexibility Score: inf
ROOT
ATOM      1  C   UNL     1     -50.359  15.597 -30.720  1.00  0.00     0.000 C 
ENDROOT
BRANCH   1   2
ATOM      2  C   UNL     1     -51.551  15.814 -31.668  1.00  0.00     0.000 C 
BRANCH   2   3
ATOM      3  C   UNL     1     -52.383  17.056 -31.302  1.00  0.00     0.006 C 
BRANCH   3   4
ATOM      4  C   UNL     1     -51.715  17.896 -30.204  1.00  0.00     0.053 C 
BRANCH   4   5
ATOM      5  C   UNL     1     -52.662  18.202 -29.085  1.00  0.00     0.041 C 
ATOM      6  O   UNL     1     -53.734  18.821 -29.315  1.00  0.00    -0.550 OA
ATOM      7  O   UNL     1     -52.345  17.836 -27.784  1.00  0.00    -0.550 OA
ENDBRANCH   4   5
ENDBRANCH   3   4
ENDBRANCH   2   3
ENDBRANCH   1   2
BRANCH   1   8
ATOM      8  C   UNL     1     -50.563  14.396 -29.781  1.00  0.00     0.000 C 
BRANCH   8   9
ATOM      9  C   UNL     1     -49.402  13.391 -29.848  1.00  0.00     0.000 C 
BRANCH   9  10
ATOM     10  C   UNL     1     -49.798  11.992 -29.351  1.00  0.00     0.006 C 
BRANCH  10  11
ATOM     11  C   UNL     1     -48.629  11.317 -28.627  1.00  0.00     0.053 C 
BRANCH  11  12
ATOM     12  C   UNL     1     -48.287  10.017 -29.281  1.00  0.00     0.041 C 
ATOM     13  O   UNL     1     -49.201   9.269 -29.722  1.00  0.00    -0.550 OA
ATOM     14  O   UNL     1     -46.963   9.603 -29.360  1.00  0.00    -0.550 OA
ENDBRANCH  11  12
ENDBRANCH  10  11
ENDBRANCH   9  10
ENDBRANCH   8   9
ENDBRANCH   1   8
TORSDOF 9
ENDMDL
MODEL 6
REMARK VINA RESULT:    -4.082      1.455      5.104
REMARK INTER + INTRA:          -7.180
REMARK INTER:                  -6.449
REMARK INTRA:                  -0.730
REMARK UNBOUND:                -0.950
REMARK SMILES O=C([O-])CCCCCCCCC(=O)[O-]
REMARK SMILES IDX 7 1 6 2 5 3 4 4 2 5 1 6 3 7 8 8 9 9 10 10 11 11 12 12 13 13
REMARK SMILES IDX 14 14
REMARK H PARENT
REMARK Flexibility Score: inf
ROOT
ATOM      1  C   UNL     1     -53.266  14.291 -28.532  1.00  0.00     0.000 C 
ENDROOT
BRANCH   1   2
ATOM      2  C   UNL     1     -52.091  14.320 -29.524  1.00  0.00     0.000 C 
BRANCH   2   3
ATOM      3  C   UNL     1     -50.727  14.150 -28.835  1.00  0.00     0.006 C 
BRANCH   3   4
ATOM      4  C   UNL     1     -49.711  13.430 -29.733  1.00  0.00     0.053 C 
BRANCH   4   5
ATOM      5  C   UNL     1     -49.647  11.964 -29.435  1.00  0.00     0.041 C 
ATOM      6  O   UNL     1     -50.325  11.149 -30.115  1.00  0.00    -0.550 OA
ATOM      7  O   UNL     1     -48.867  11.500 -28.383  1.00  0.00    -0.550 OA
ENDBRANCH   4   5
ENDBRANCH   3   4
ENDBRANCH   2   3
ENDBRANCH   1   2
BRANCH   1   8
ATOM      8  C   UNL     1     -53.870  15.685 -28.292  1.00  0.00     0.000 C 
BRANCH   8   9
ATOM      9  C   UNL     1     -53.034  16.531 -27.319  1.00  0.00     0.000 C 
BRANCH   9  10
ATOM     10  C   UNL     1     -52.566  17.857 -27.936  1.00  0.00     0.006 C 
BRANCH  10  11
ATOM     11  C   UNL     1     -53.207  18.080 -29.309  1.00  0.00     0.053 C 
BRANCH  11  12
ATOM     12  C   UNL     1     -52.156  18.235 -30.361  1.00  0.00     0.041 C 
ATOM     13  O   UNL     1     -52.405  18.877 -31.416  1.00  0.00    -0.550 OA
ATOM     14  O   UNL     1     -50.916  17.629 -30.201  1.00  0.00    -0.550 OA
ENDBRANCH  11  12
ENDBRANCH  10  11
ENDBRANCH   9  10
ENDBRANCH   8   9
ENDBRANCH   1   8
TORSDOF 9
ENDMDL
MODEL 7
REMARK VINA RESULT:    -4.079      2.212      4.923
REMARK INTER + INTRA:          -7.175
REMARK INTER:                  -6.413
REMARK INTRA:                  -0.762
REMARK UNBOUND:                -0.950
REMARK SMILES O=C([O-])CCCCCCCCC(=O)[O-]
REMARK SMILES IDX 7 1 6 2 5 3 4 4 2 5 1 6 3 7 8 8 9 9 10 10 11 11 12 12 13 13
REMARK SMILES IDX 14 14
REMARK H PARENT
REMARK Flexibility Score: inf
ROOT
ATOM      1  C   UNL     1     -51.820  15.479 -31.306  1.00  0.00     0.000 C 
ENDROOT
BRANCH   1   2
ATOM      2  C   UNL     1     -50.345  15.615 -30.891  1.00  0.00     0.000 C 
BRANCH   2   3
ATOM      3  C   UNL     1     -49.737  14.283 -30.417  1.00  0.00     0.006 C 
BRANCH   3   4
ATOM      4  C   UNL     1     -50.401  13.769 -29.132  1.00  0.00     0.053 C 
BRANCH   4   5
ATOM      5  C   UNL     1     -51.001  12.411 -29.322  1.00  0.00     0.041 C 
ATOM      6  O   UNL     1     -50.274  11.437 -29.652  1.00  0.00    -0.550 OA
ATOM      7  O   UNL     1     -52.369  12.226 -29.170  1.00  0.00    -0.550 OA
ENDBRANCH   4   5
ENDBRANCH   3   4
ENDBRANCH   2   3
ENDBRANCH   1   2
BRANCH   1   8
ATOM      8  C   UNL     1     -52.588  16.808 -31.193  1.00  0.00     0.000 C 
BRANCH   8   9
ATOM      9  C   UNL     1     -51.850  17.843 -30.330  1.00  0.00     0.000 C 
BRANCH   9  10
ATOM     10  C   UNL     1     -52.642  18.244 -29.076  1.00  0.00     0.006 C 
BRANCH  10  11
ATOM     11  C   UNL     1     -53.707  17.195 -28.742  1.00  0.00     0.053 C 
BRANCH  11  12
ATOM     12  C   UNL     1     -53.201  16.245 -27.705  1.00  0.00     0.041 C 
ATOM     13  O   UNL     1     -53.460  15.015 -27.791  1.00  0.00    -0.550 OA
ATOM     14  O   UNL     1     -52.485  16.721 -26.614  1.00  0.00    -0.550 OA
ENDBRANCH  11  12
ENDBRANCH  10  11
ENDBRANCH   9  10
ENDBRANCH   8   9
ENDBRANCH   1   8
TORSDOF 9
ENDMDL
MODEL 8
REMARK VINA RESULT:    -4.063     14.475     16.429
REMARK INTER + INTRA:          -7.151
REMARK INTER:                  -6.113
REMARK INTRA:                  -1.038
REMARK UNBOUND:                -0.950
REMARK SMILES O=C([O-])CCCCCCCCC(=O)[O-]
REMARK SMILES IDX 7 1 6 2 5 3 4 4 2 5 1 6 3 7 8 8 9 9 10 10 11 11 12 12 13 13
REMARK SMILES IDX 14 14
REMARK H PARENT
REMARK Flexibility Score: inf
ROOT
ATOM      1  C   UNL     1     -37.517  16.778 -29.923  1.00  0.00     0.000 C 
ENDROOT
BRANCH   1   2
ATOM      2  C   UNL     1     -36.036  16.916 -30.317  1.00  0.00     0.000 C 
BRANCH   2   3
ATOM      3  C   UNL     1     -35.498  18.343 -30.113  1.00  0.00     0.006 C 
BRANCH   3   4
ATOM      4  C   UNL     1     -34.610  18.453 -28.865  1.00  0.00     0.053 C 
BRANCH   4   5
ATOM      5  C   UNL     1     -35.278  19.235 -27.776  1.00  0.00     0.041 C 
ATOM      6  O   UNL     1     -34.887  20.400 -27.502  1.00  0.00    -0.550 OA
ATOM      7  O   UNL     1     -36.308  18.664 -27.040  1.00  0.00    -0.550 OA
ENDBRANCH   4   5
ENDBRANCH   3   4
ENDBRANCH   2   3
ENDBRANCH   1   2
BRANCH   1   8
ATOM      8  C   UNL     1     -38.380  17.932 -30.463  1.00  0.00     0.000 C 
BRANCH   8   9
ATOM      9  C   UNL     1     -39.129  18.679 -29.348  1.00  0.00     0.000 C 
BRANCH   9  10
ATOM     10  C   UNL     1     -39.266  20.183 -29.628  1.00  0.00     0.006 C 
BRANCH  10  11
ATOM     11  C   UNL     1     -38.167  20.976 -28.913  1.00  0.00     0.053 C 
BRANCH  11  12
ATOM     12  C   UNL     1     -37.311  21.697 -29.905  1.00  0.00     0.041 C 
ATOM     13  O   UNL     1     -36.691  22.740 -29.567  1.00  0.00    -0.550 OA
ATOM     14  O   UNL     1     -37.236  21.248 -31.217  1.00  0.00    -0.550 OA
ENDBRANCH  11  12
ENDBRANCH  10  11
ENDBRANCH   9  10
ENDBRANCH   8   9
ENDBRANCH   1   8
TORSDOF 9
ENDMDL
MODEL 9
REMARK VINA RESULT:    -4.009      2.295      3.312
REMARK INTER + INTRA:          -7.068
REMARK INTER:                  -6.311
REMARK INTRA:                  -0.757
REMARK UNBOUND:                -0.950
REMARK SMILES O=C([O-])CCCCCCCCC(=O)[O-]
REMARK SMILES IDX 7 1 6 2 5 3 4 4 2 5 1 6 3 7 8 8 9 9 10 10 11 11 12 12 13 13
REMARK SMILES IDX 14 14
REMARK H PARENT
REMARK Flexibility Score: inf
ROOT
ATOM      1  C   UNL     1     -51.324  15.956 -31.285  1.00  0.00     0.000 C 
ENDROOT
BRANCH   1   2
ATOM      2  C   UNL     1     -52.344  17.022 -30.850  1.00  0.00     0.000 C 
BRANCH   2   3
ATOM      3  C   UNL     1     -51.839  17.884 -29.680  1.00  0.00     0.006 C 
BRANCH   3   4
ATOM      4  C   UNL     1     -52.961  18.235 -28.694  1.00  0.00     0.053 C 
BRANCH   4   5
ATOM      5  C   UNL     1     -53.085  17.211 -27.607  1.00  0.00     0.041 C 
ATOM      6  O   UNL     1     -53.925  16.278 -27.709  1.00  0.00    -0.550 OA
ATOM      7  O   UNL     1     -52.299  17.307 -26.466  1.00  0.00    -0.550 OA
ENDBRANCH   4   5
ENDBRANCH   3   4
ENDBRANCH   2   3
ENDBRANCH   1   2
BRANCH   1   8
ATOM      8  C   UNL     1     -51.870  14.524 -31.140  1.00  0.00     0.000 C 
BRANCH   8   9
ATOM      9  C   UNL     1     -51.947  14.069 -29.675  1.00  0.00     0.000 C 
BRANCH   9  10
ATOM     10  C   UNL     1     -50.599  14.180 -28.946  1.00  0.00     0.006 C 
BRANCH  10  11
ATOM     11  C   UNL     1     -49.532  13.323 -29.634  1.00  0.00     0.053 C 
BRANCH  11  12
ATOM     12  C   UNL     1     -49.607  11.908 -29.157  1.00  0.00     0.041 C 
ATOM     13  O   UNL     1     -49.064  11.576 -28.069  1.00  0.00    -0.550 OA
ATOM     14  O   UNL     1     -50.232  10.943 -29.935  1.00  0.00    -0.550 OA
ENDBRANCH  11  12
ENDBRANCH  10  11
ENDBRANCH   9  10
ENDBRANCH   8   9
ENDBRANCH   1   8
TORSDOF 9
ENDMDL
