MODEL 1
REMARK VINA RESULT:    -4.226      0.000      0.000
REMARK INTER + INTRA:          -4.789
REMARK INTER:                  -4.720
REMARK INTRA:                  -0.069
REMARK UNBOUND:                -0.069
REMARK SMILES COc1ccc(C(=O)[O-])cc1
REMARK SMILES IDX 6 1 5 2 10 3 4 4 11 5 3 6 7 7 8 8 9 9 2 10 1 11
REMARK H PARENT
REMARK Flexibility Score: inf
ROOT
ATOM      1  C   UNL     1      34.058  10.563   3.275  1.00  0.00    -0.003 A 
ATOM      2  C   UNL     1      33.855  11.837   3.835  1.00  0.00     0.014 A 
ATOM      3  C   UNL     1      34.714   9.583   4.038  1.00  0.00     0.014 A 
ATOM      4  C   UNL     1      34.300  12.124   5.129  1.00  0.00     0.047 A 
ATOM      5  C   UNL     1      35.157   9.871   5.332  1.00  0.00     0.047 A 
ATOM      6  C   UNL     1      34.956  11.138   5.889  1.00  0.00     0.118 A 
ENDROOT
BRANCH   1   7
ATOM      7  C   UNL     1      33.589  10.255   1.906  1.00  0.00     0.071 C 
ATOM      8  O   UNL     1      32.739  10.993   1.339  1.00  0.00    -0.545 OA
ATOM      9  O   UNL     1      34.080   9.147   1.226  1.00  0.00    -0.545 OA
ENDBRANCH   1   7
BRANCH   6  10
ATOM     10  O   UNL     1      35.421  11.376   7.190  1.00  0.00    -0.497 OA
ATOM     11  C   UNL     1      35.758  10.354   8.123  1.00  0.00     0.278 C 
ENDBRANCH   6  10
TORSDOF 2
ENDMDL
MODEL 2
REMARK VINA RESULT:    -4.114      1.276      2.132
REMARK INTER + INTRA:          -4.664
REMARK INTER:                  -4.599
REMARK INTRA:                  -0.066
REMARK UNBOUND:                -0.069
REMARK SMILES COc1ccc(C(=O)[O-])cc1
REMARK SMILES IDX 6 1 5 2 10 3 4 4 11 5 3 6 7 7 8 8 9 9 2 10 1 11
REMARK H PARENT
REMARK Flexibility Score: inf
ROOT
ATOM      1  C   UNL     1      34.384  10.322   3.579  1.00  0.00    -0.003 A 
ATOM      2  C   UNL     1      34.467   8.971   3.959  1.00  0.00     0.014 A 
ATOM      3  C   UNL     1      34.656  11.314   4.535  1.00  0.00     0.014 A 
ATOM      4  C   UNL     1      34.816   8.620   5.267  1.00  0.00     0.047 A 
ATOM      5  C   UNL     1      35.005  10.963   5.842  1.00  0.00     0.047 A 
ATOM      6  C   UNL     1      35.088   9.619   6.220  1.00  0.00     0.118 A 
ENDROOT
BRANCH   1   7
ATOM      7  C   UNL     1      34.016  10.697   2.196  1.00  0.00     0.071 C 
ATOM      8  O   UNL     1      33.773   9.810   1.334  1.00  0.00    -0.545 OA
ATOM      9  O   UNL     1      33.932  12.034   1.828  1.00  0.00    -0.545 OA
ENDBRANCH   1   7
BRANCH   6  10
ATOM     10  O   UNL     1      35.441   9.319   7.544  1.00  0.00    -0.497 OA
ATOM     11  C   UNL     1      35.881   8.040   7.989  1.00  0.00     0.278 C 
ENDBRANCH   6  10
TORSDOF 2
ENDMDL
MODEL 3
REMARK VINA RESULT:    -4.086      1.038      1.101
REMARK INTER + INTRA:          -4.633
REMARK INTER:                  -4.563
REMARK INTRA:                  -0.070
REMARK UNBOUND:                -0.069
REMARK SMILES COc1ccc(C(=O)[O-])cc1
REMARK SMILES IDX 6 1 5 2 10 3 4 4 11 5 3 6 7 7 8 8 9 9 2 10 1 11
REMARK H PARENT
REMARK Flexibility Score: inf
ROOT
ATOM      1  C   UNL     1      34.404  10.692   3.646  1.00  0.00    -0.003 A 
ATOM      2  C   UNL     1      34.436  11.748   4.574  1.00  0.00     0.014 A 
ATOM      3  C   UNL     1      34.746   9.399   4.076  1.00  0.00     0.014 A 
ATOM      4  C   UNL     1      34.802  11.516   5.903  1.00  0.00     0.047 A 
ATOM      5  C   UNL     1      35.112   9.168   5.405  1.00  0.00     0.047 A 
ATOM      6  C   UNL     1      35.144  10.218   6.328  1.00  0.00     0.118 A 
ENDROOT
BRANCH   1   7
ATOM      7  C   UNL     1      34.016  10.934   2.239  1.00  0.00     0.071 C 
ATOM      8  O   UNL     1      33.899  12.109   1.799  1.00  0.00    -0.545 OA
ATOM      9  O   UNL     1      33.775   9.867   1.381  1.00  0.00    -0.545 OA
ENDBRANCH   1   7
BRANCH   6  10
ATOM     10  O   UNL     1      35.519   9.933   7.649  1.00  0.00    -0.497 OA
ATOM     11  C   UNL     1      36.096   8.702   8.074  1.00  0.00     0.278 C 
ENDBRANCH   6  10
TORSDOF 2
ENDMDL
MODEL 4
REMARK VINA RESULT:    -4.051      2.243      2.808
REMARK INTER + INTRA:          -4.594
REMARK INTER:                  -4.537
REMARK INTRA:                  -0.057
REMARK UNBOUND:                -0.069
REMARK SMILES COc1ccc(C(=O)[O-])cc1
REMARK SMILES IDX 6 1 5 2 10 3 4 4 11 5 3 6 7 7 8 8 9 9 2 10 1 11
REMARK H PARENT
REMARK Flexibility Score: inf
ROOT
ATOM      1  C   UNL     1      34.483  10.151   3.223  1.00  0.00    -0.003 A 
ATOM      2  C   UNL     1      35.325  10.679   4.217  1.00  0.00     0.014 A 
ATOM      3  C   UNL     1      34.565   8.782   2.920  1.00  0.00     0.014 A 
ATOM      4  C   UNL     1      36.230   9.856   4.894  1.00  0.00     0.047 A 
ATOM      5  C   UNL     1      35.470   7.959   3.597  1.00  0.00     0.047 A 
ATOM      6  C   UNL     1      36.308   8.484   4.586  1.00  0.00     0.118 A 
ENDROOT
BRANCH   1   7
ATOM      7  C   UNL     1      33.524  11.019   2.505  1.00  0.00     0.071 C 
ATOM      8  O   UNL     1      33.931  12.001   1.828  1.00  0.00    -0.545 OA
ATOM      9  O   UNL     1      32.160  10.763   2.567  1.00  0.00    -0.545 OA
ENDBRANCH   1   7
BRANCH   6  10
ATOM     10  O   UNL     1      37.199   7.617   5.235  1.00  0.00    -0.497 OA
ATOM     11  C   UNL     1      36.816   6.406   5.879  1.00  0.00     0.278 C 
ENDBRANCH   6  10
TORSDOF 2
ENDMDL
MODEL 5
REMARK VINA RESULT:    -4.042     14.789     16.244
REMARK INTER + INTRA:          -4.584
REMARK INTER:                  -4.527
REMARK INTRA:                  -0.057
REMARK UNBOUND:                -0.069
REMARK SMILES COc1ccc(C(=O)[O-])cc1
REMARK SMILES IDX 6 1 5 2 10 3 4 4 11 5 3 6 7 7 8 8 9 9 2 10 1 11
REMARK H PARENT
REMARK Flexibility Score: inf
ROOT
ATOM      1  C   UNL     1      40.383   2.625  -7.440  1.00  0.00    -0.003 A 
ATOM      2  C   UNL     1      39.642   3.811  -7.293  1.00  0.00     0.014 A 
ATOM      3  C   UNL     1      39.956   1.670  -8.378  1.00  0.00     0.014 A 
ATOM      4  C   UNL     1      38.500   4.037  -8.067  1.00  0.00     0.047 A 
ATOM      5  C   UNL     1      38.814   1.897  -9.151  1.00  0.00     0.047 A 
ATOM      6  C   UNL     1      38.078   3.076  -9.005  1.00  0.00     0.118 A 
ENDROOT
BRANCH   1   7
ATOM      7  C   UNL     1      41.592   2.382  -6.623  1.00  0.00     0.071 C 
ATOM      8  O   UNL     1      41.491   2.030  -5.417  1.00  0.00    -0.545 OA
ATOM      9  O   UNL     1      42.857   2.538  -7.174  1.00  0.00    -0.545 OA
ENDBRANCH   1   7
BRANCH   6  10
ATOM     10  O   UNL     1      36.939   3.256  -9.805  1.00  0.00    -0.497 OA
ATOM     11  C   UNL     1      36.903   3.038 -11.212  1.00  0.00     0.278 C 
ENDBRANCH   6  10
TORSDOF 2
ENDMDL
MODEL 6
REMARK VINA RESULT:    -3.994     15.275     16.468
REMARK INTER + INTRA:          -4.530
REMARK INTER:                  -4.470
REMARK INTRA:                  -0.060
REMARK UNBOUND:                -0.069
REMARK SMILES COc1ccc(C(=O)[O-])cc1
REMARK SMILES IDX 6 1 5 2 10 3 4 4 11 5 3 6 7 7 8 8 9 9 2 10 1 11
REMARK H PARENT
REMARK Flexibility Score: inf
ROOT
ATOM      1  C   UNL     1      42.349   2.138  -6.882  1.00  0.00    -0.003 A 
ATOM      2  C   UNL     1      42.880   2.802  -8.003  1.00  0.00     0.014 A 
ATOM      3  C   UNL     1      41.012   2.375  -6.523  1.00  0.00     0.014 A 
ATOM      4  C   UNL     1      42.090   3.685  -8.746  1.00  0.00     0.047 A 
ATOM      5  C   UNL     1      40.223   3.258  -7.267  1.00  0.00     0.047 A 
ATOM      6  C   UNL     1      40.751   3.918  -8.381  1.00  0.00     0.118 A 
ENDROOT
BRANCH   1   7
ATOM      7  C   UNL     1      43.181   1.203  -6.093  1.00  0.00     0.071 C 
ATOM      8  O   UNL     1      44.125   1.633  -5.378  1.00  0.00    -0.545 OA
ATOM      9  O   UNL     1      42.932  -0.163  -6.129  1.00  0.00    -0.545 OA
ENDBRANCH   1   7
BRANCH   6  10
ATOM     10  O   UNL     1      39.919   4.794  -9.094  1.00  0.00    -0.497 OA
ATOM     11  C   UNL     1      38.522   4.595  -9.289  1.00  0.00     0.278 C 
ENDBRANCH   6  10
TORSDOF 2
ENDMDL
MODEL 7
REMARK VINA RESULT:    -3.988     14.872     15.879
REMARK INTER + INTRA:          -4.524
REMARK INTER:                  -4.469
REMARK INTRA:                  -0.055
REMARK UNBOUND:                -0.069
REMARK SMILES COc1ccc(C(=O)[O-])cc1
REMARK SMILES IDX 6 1 5 2 10 3 4 4 11 5 3 6 7 7 8 8 9 9 2 10 1 11
REMARK H PARENT
REMARK Flexibility Score: inf
ROOT
ATOM      1  C   UNL     1      37.803   3.100  -9.414  1.00  0.00    -0.003 A 
ATOM      2  C   UNL     1      38.119   4.115  -8.493  1.00  0.00     0.014 A 
ATOM      3  C   UNL     1      38.550   1.911  -9.398  1.00  0.00     0.014 A 
ATOM      4  C   UNL     1      39.161   3.943  -7.576  1.00  0.00     0.047 A 
ATOM      5  C   UNL     1      39.591   1.740  -8.481  1.00  0.00     0.047 A 
ATOM      6  C   UNL     1      39.906   2.749  -7.565  1.00  0.00     0.118 A 
ENDROOT
BRANCH   1   7
ATOM      7  C   UNL     1      36.701   3.278 -10.386  1.00  0.00     0.071 C 
ATOM      8  O   UNL     1      35.588   2.715 -10.203  1.00  0.00    -0.545 OA
ATOM      9  O   UNL     1      36.878   4.068 -11.514  1.00  0.00    -0.545 OA
ENDBRANCH   1   7
BRANCH   6  10
ATOM     10  O   UNL     1      40.960   2.529  -6.666  1.00  0.00    -0.497 OA
ATOM     11  C   UNL     1      42.309   2.286  -7.053  1.00  0.00     0.278 C 
ENDBRANCH   6  10
TORSDOF 2
ENDMDL
MODEL 8
REMARK VINA RESULT:    -3.988     15.775     17.472
REMARK INTER + INTRA:          -4.524
REMARK INTER:                  -4.458
REMARK INTRA:                  -0.066
REMARK UNBOUND:                -0.069
REMARK SMILES COc1ccc(C(=O)[O-])cc1
REMARK SMILES IDX 6 1 5 2 10 3 4 4 11 5 3 6 7 7 8 8 9 9 2 10 1 11
REMARK H PARENT
REMARK Flexibility Score: inf
ROOT
ATOM      1  C   UNL     1      42.511   2.248  -7.206  1.00  0.00    -0.003 A 
ATOM      2  C   UNL     1      41.189   2.507  -7.609  1.00  0.00     0.014 A 
ATOM      3  C   UNL     1      43.548   2.395  -8.143  1.00  0.00     0.014 A 
ATOM      4  C   UNL     1      40.910   2.904  -8.920  1.00  0.00     0.047 A 
ATOM      5  C   UNL     1      43.268   2.792  -9.453  1.00  0.00     0.047 A 
ATOM      6  C   UNL     1      41.953   3.050  -9.854  1.00  0.00     0.118 A 
ENDROOT
BRANCH   1   7
ATOM      7  C   UNL     1      42.810   1.828  -5.819  1.00  0.00     0.071 C 
ATOM      8  O   UNL     1      41.879   1.636  -4.993  1.00  0.00    -0.545 OA
ATOM      9  O   UNL     1      44.124   1.637  -5.409  1.00  0.00    -0.545 OA
ENDBRANCH   1   7
BRANCH   6  10
ATOM     10  O   UNL     1      41.725   3.445 -11.181  1.00  0.00    -0.497 OA
ATOM     11  C   UNL     1      40.445   3.462 -11.806  1.00  0.00     0.278 C 
ENDBRANCH   6  10
TORSDOF 2
ENDMDL
MODEL 9
REMARK VINA RESULT:    -3.917      3.707      4.354
REMARK INTER + INTRA:          -4.444
REMARK INTER:                  -4.393
REMARK INTRA:                  -0.051
REMARK UNBOUND:                -0.069
REMARK SMILES COc1ccc(C(=O)[O-])cc1
REMARK SMILES IDX 6 1 5 2 10 3 4 4 11 5 3 6 7 7 8 8 9 9 2 10 1 11
REMARK H PARENT
REMARK Flexibility Score: inf
ROOT
ATOM      1  C   UNL     1      34.919   8.084   4.036  1.00  0.00    -0.003 A 
ATOM      2  C   UNL     1      33.946   7.653   4.956  1.00  0.00     0.014 A 
ATOM      3  C   UNL     1      36.087   7.320   3.875  1.00  0.00     0.014 A 
ATOM      4  C   UNL     1      34.137   6.484   5.698  1.00  0.00     0.047 A 
ATOM      5  C   UNL     1      36.277   6.151   4.617  1.00  0.00     0.047 A 
ATOM      6  C   UNL     1      35.310   5.722   5.532  1.00  0.00     0.118 A 
ENDROOT
BRANCH   1   7
ATOM      7  C   UNL     1      34.720   9.321   3.249  1.00  0.00     0.071 C 
ATOM      8  O   UNL     1      35.025  10.444   3.732  1.00  0.00    -0.545 OA
ATOM      9  O   UNL     1      34.194   9.261   1.964  1.00  0.00    -0.545 OA
ENDBRANCH   1   7
BRANCH   6  10
ATOM     10  O   UNL     1      35.549   4.543   6.252  1.00  0.00    -0.497 OA
ATOM     11  C   UNL     1      35.925   4.502   7.625  1.00  0.00     0.278 C 
ENDBRANCH   6  10
TORSDOF 2
ENDMDL
