MODEL 1
REMARK VINA RESULT:    -5.254      0.000      0.000
REMARK INTER + INTRA:         -11.333
REMARK INTER:                  -9.554
REMARK INTRA:                  -1.779
REMARK UNBOUND:                -1.779
REMARK SMILES CCCCCC=CCC=CCCCCCCCC(=O)[O-]
REMARK SMILES IDX 11 1 12 2 13 3 14 4 15 5 16 6 17 7 18 8 19 9 20 10 10 11
REMARK SMILES IDX 9 12 8 13 7 14 6 15 5 16 4 17 3 18 2 19 1 20
REMARK H PARENT
REMARK Flexibility Score: inf
ROOT
ATOM      1  C   UNL     1     -20.252   5.106 -18.262  1.00  0.00     0.027 C 
ENDROOT
BRANCH   1   2
ATOM      2  C   UNL     1     -19.299   3.900 -18.232  1.00  0.00     0.004 C 
BRANCH   2   3
ATOM      3  C   UNL     1     -19.178   3.287 -16.829  1.00  0.00     0.000 C 
BRANCH   3   4
ATOM      4  C   UNL     1     -17.766   3.440 -16.245  1.00  0.00     0.000 C 
BRANCH   4   5
ATOM      5  C   UNL     1     -16.714   3.516 -17.361  1.00  0.00     0.000 C 
BRANCH   5   6
ATOM      6  C   UNL     1     -16.164   2.135 -17.751  1.00  0.00     0.006 C 
BRANCH   6   7
ATOM      7  C   UNL     1     -14.747   1.893 -17.216  1.00  0.00     0.053 C 
BRANCH   7   8
ATOM      8  C   UNL     1     -14.126   0.707 -17.883  1.00  0.00     0.041 C 
ATOM      9  O   UNL     1     -13.184   0.086 -17.323  1.00  0.00    -0.550 OA
ATOM     10  O   UNL     1     -14.573   0.303 -19.138  1.00  0.00    -0.550 OA
ENDBRANCH   7   8
ENDBRANCH   6   7
ENDBRANCH   5   6
ENDBRANCH   4   5
ENDBRANCH   3   4
ENDBRANCH   2   3
ENDBRANCH   1   2
BRANCH   1  11
ATOM     11  C   UNL     1     -19.504   6.401 -18.078  1.00  0.00    -0.031 C 
ATOM     12  C   UNL     1     -19.454   7.098 -16.928  1.00  0.00    -0.027 C 
BRANCH  12  13
ATOM     13  C   UNL     1     -20.113   6.660 -15.642  1.00  0.00     0.054 C 
BRANCH  13  14
ATOM     14  C   UNL     1     -19.084   6.477 -14.564  1.00  0.00    -0.027 C 
ATOM     15  C   UNL     1     -19.033   7.288 -13.499  1.00  0.00    -0.031 C 
BRANCH  15  16
ATOM     16  C   UNL     1     -17.956   7.165 -12.456  1.00  0.00     0.027 C 
BRANCH  16  17
ATOM     17  C   UNL     1     -16.685   6.518 -13.029  1.00  0.00     0.004 C 
BRANCH  17  18
ATOM     18  C   UNL     1     -15.767   5.949 -11.935  1.00  0.00     0.000 C 
BRANCH  18  19
ATOM     19  C   UNL     1     -14.924   4.762 -12.423  1.00  0.00    -0.003 C 
ATOM     20  C   UNL     1     -15.713   3.886 -13.390  1.00  0.00     0.004 C 
ENDBRANCH  18  19
ENDBRANCH  17  18
ENDBRANCH  16  17
ENDBRANCH  15  16
ENDBRANCH  13  14
ENDBRANCH  12  13
ENDBRANCH   1  11
TORSDOF 14
ENDMDL
MODEL 2
REMARK VINA RESULT:    -5.138      1.446      2.046
REMARK INTER + INTRA:         -11.122
REMARK INTER:                  -9.372
REMARK INTRA:                  -1.750
REMARK UNBOUND:                -1.779
REMARK SMILES CCCCCC=CCC=CCCCCCCCC(=O)[O-]
REMARK SMILES IDX 11 1 12 2 13 3 14 4 15 5 16 6 17 7 18 8 19 9 20 10 10 11
REMARK SMILES IDX 9 12 8 13 7 14 6 15 5 16 4 17 3 18 2 19 1 20
REMARK H PARENT
REMARK Flexibility Score: inf
ROOT
ATOM      1  C   UNL     1     -18.991   6.038 -18.018  1.00  0.00     0.027 C 
ENDROOT
BRANCH   1   2
ATOM      2  C   UNL     1     -19.949   5.347 -19.001  1.00  0.00     0.004 C 
BRANCH   2   3
ATOM      3  C   UNL     1     -20.592   4.087 -18.402  1.00  0.00     0.000 C 
BRANCH   3   4
ATOM      4  C   UNL     1     -20.067   3.779 -16.992  1.00  0.00     0.000 C 
BRANCH   4   5
ATOM      5  C   UNL     1     -19.752   2.285 -16.834  1.00  0.00     0.000 C 
BRANCH   5   6
ATOM      6  C   UNL     1     -18.253   2.015 -16.623  1.00  0.00     0.006 C 
BRANCH   6   7
ATOM      7  C   UNL     1     -17.439   3.305 -16.464  1.00  0.00     0.053 C 
BRANCH   7   8
ATOM      8  C   UNL     1     -16.146   3.209 -17.209  1.00  0.00     0.041 C 
ATOM      9  O   UNL     1     -15.274   2.369 -16.859  1.00  0.00    -0.550 OA
ATOM     10  O   UNL     1     -15.892   4.066 -18.276  1.00  0.00    -0.550 OA
ENDBRANCH   7   8
ENDBRANCH   6   7
ENDBRANCH   5   6
ENDBRANCH   4   5
ENDBRANCH   3   4
ENDBRANCH   2   3
ENDBRANCH   1   2
BRANCH   1  11
ATOM     11  C   UNL     1     -19.513   7.389 -17.600  1.00  0.00    -0.031 C 
ATOM     12  C   UNL     1     -20.142   7.639 -16.438  1.00  0.00    -0.027 C 
BRANCH  12  13
ATOM     13  C   UNL     1     -20.384   6.604 -15.365  1.00  0.00     0.054 C 
BRANCH  13  14
ATOM     14  C   UNL     1     -19.166   6.455 -14.499  1.00  0.00    -0.027 C 
ATOM     15  C   UNL     1     -18.882   7.337 -13.531  1.00  0.00    -0.031 C 
BRANCH  15  16
ATOM     16  C   UNL     1     -17.623   7.243 -12.714  1.00  0.00     0.027 C 
BRANCH  16  17
ATOM     17  C   UNL     1     -16.797   6.002 -13.089  1.00  0.00     0.004 C 
BRANCH  17  18
ATOM     18  C   UNL     1     -15.447   5.947 -12.354  1.00  0.00     0.000 C 
BRANCH  18  19
ATOM     19  C   UNL     1     -14.788   4.563 -12.422  1.00  0.00    -0.003 C 
ATOM     20  C   UNL     1     -15.525   3.649 -13.397  1.00  0.00     0.004 C 
ENDBRANCH  18  19
ENDBRANCH  17  18
ENDBRANCH  16  17
ENDBRANCH  15  16
ENDBRANCH  13  14
ENDBRANCH  12  13
ENDBRANCH   1  11
TORSDOF 14
ENDMDL
MODEL 3
REMARK VINA RESULT:    -5.097      2.279      5.451
REMARK INTER + INTRA:         -11.048
REMARK INTER:                  -9.495
REMARK INTRA:                  -1.552
REMARK UNBOUND:                -1.779
REMARK SMILES CCCCCC=CCC=CCCCCCCCC(=O)[O-]
REMARK SMILES IDX 11 1 12 2 13 3 14 4 15 5 16 6 17 7 18 8 19 9 20 10 10 11
REMARK SMILES IDX 9 12 8 13 7 14 6 15 5 16 4 17 3 18 2 19 1 20
REMARK H PARENT
REMARK Flexibility Score: inf
ROOT
ATOM      1  C   UNL     1     -20.917   6.151 -16.695  1.00  0.00     0.027 C 
ENDROOT
BRANCH   1   2
ATOM      2  C   UNL     1     -19.749   6.925 -16.063  1.00  0.00     0.004 C 
BRANCH   2   3
ATOM      3  C   UNL     1     -19.618   6.655 -14.556  1.00  0.00     0.000 C 
BRANCH   3   4
ATOM      4  C   UNL     1     -18.220   6.147 -14.174  1.00  0.00     0.000 C 
BRANCH   4   5
ATOM      5  C   UNL     1     -17.739   6.787 -12.864  1.00  0.00     0.000 C 
BRANCH   5   6
ATOM      6  C   UNL     1     -16.211   6.746 -12.711  1.00  0.00     0.006 C 
BRANCH   6   7
ATOM      7  C   UNL     1     -15.745   5.646 -11.749  1.00  0.00     0.053 C 
BRANCH   7   8
ATOM      8  C   UNL     1     -15.062   4.545 -12.496  1.00  0.00     0.041 C 
ATOM      9  O   UNL     1     -13.809   4.428 -12.447  1.00  0.00    -0.550 OA
ATOM     10  O   UNL     1     -15.810   3.662 -13.270  1.00  0.00    -0.550 OA
ENDBRANCH   7   8
ENDBRANCH   6   7
ENDBRANCH   5   6
ENDBRANCH   4   5
ENDBRANCH   3   4
ENDBRANCH   2   3
ENDBRANCH   1   2
BRANCH   1  11
ATOM     11  C   UNL     1     -21.348   4.998 -15.825  1.00  0.00    -0.031 C 
ATOM     12  C   UNL     1     -21.056   3.707 -16.067  1.00  0.00    -0.027 C 
BRANCH  12  13
ATOM     13  C   UNL     1     -20.222   3.231 -17.232  1.00  0.00     0.054 C 
BRANCH  13  14
ATOM     14  C   UNL     1     -18.861   2.807 -16.761  1.00  0.00    -0.027 C 
ATOM     15  C   UNL     1     -17.765   3.524 -17.046  1.00  0.00    -0.031 C 
BRANCH  15  16
ATOM     16  C   UNL     1     -16.389   3.065 -16.650  1.00  0.00     0.027 C 
BRANCH  16  17
ATOM     17  C   UNL     1     -15.448   2.987 -17.863  1.00  0.00     0.004 C 
BRANCH  17  18
ATOM     18  C   UNL     1     -14.129   2.267 -17.541  1.00  0.00     0.000 C 
BRANCH  18  19
ATOM     19  C   UNL     1     -14.328   0.785 -17.193  1.00  0.00    -0.003 C 
ATOM     20  C   UNL     1     -13.322  -0.093 -17.930  1.00  0.00     0.004 C 
ENDBRANCH  18  19
ENDBRANCH  17  18
ENDBRANCH  16  17
ENDBRANCH  15  16
ENDBRANCH  13  14
ENDBRANCH  12  13
ENDBRANCH   1  11
TORSDOF 14
ENDMDL
MODEL 4
REMARK VINA RESULT:    -5.066      4.933      8.306
REMARK INTER + INTRA:         -10.991
REMARK INTER:                  -9.266
REMARK INTRA:                  -1.725
REMARK UNBOUND:                -1.779
REMARK SMILES CCCCCC=CCC=CCCCCCCCC(=O)[O-]
REMARK SMILES IDX 11 1 12 2 13 3 14 4 15 5 16 6 17 7 18 8 19 9 20 10 10 11
REMARK SMILES IDX 9 12 8 13 7 14 6 15 5 16 4 17 3 18 2 19 1 20
REMARK H PARENT
REMARK Flexibility Score: inf
ROOT
ATOM      1  C   UNL     1     -17.499   6.854 -12.401  1.00  0.00     0.027 C 
ENDROOT
BRANCH   1   2
ATOM      2  C   UNL     1     -18.252   6.795 -13.739  1.00  0.00     0.004 C 
BRANCH   2   3
ATOM      3  C   UNL     1     -19.571   7.584 -13.702  1.00  0.00     0.000 C 
BRANCH   3   4
ATOM      4  C   UNL     1     -20.775   6.690 -13.372  1.00  0.00     0.000 C 
BRANCH   4   5
ATOM      5  C   UNL     1     -21.615   7.293 -12.237  1.00  0.00     0.000 C 
BRANCH   5   6
ATOM      6  C   UNL     1     -21.542   8.828 -12.198  1.00  0.00     0.006 C 
BRANCH   6   7
ATOM      7  C   UNL     1     -21.752   9.391 -10.787  1.00  0.00     0.053 C 
BRANCH   7   8
ATOM      8  C   UNL     1     -20.545  10.151 -10.337  1.00  0.00     0.041 C 
ATOM      9  O   UNL     1     -20.585  10.838  -9.282  1.00  0.00    -0.550 OA
ATOM     10  O   UNL     1     -19.381  10.120 -11.099  1.00  0.00    -0.550 OA
ENDBRANCH   7   8
ENDBRANCH   6   7
ENDBRANCH   5   6
ENDBRANCH   4   5
ENDBRANCH   3   4
ENDBRANCH   2   3
ENDBRANCH   1   2
BRANCH   1  11
ATOM     11  C   UNL     1     -16.006   6.835 -12.610  1.00  0.00    -0.031 C 
ATOM     12  C   UNL     1     -15.251   5.722 -12.622  1.00  0.00    -0.027 C 
BRANCH  12  13
ATOM     13  C   UNL     1     -15.799   4.324 -12.463  1.00  0.00     0.054 C 
BRANCH  13  14
ATOM     14  C   UNL     1     -15.732   3.585 -13.769  1.00  0.00    -0.027 C 
ATOM     15  C   UNL     1     -16.598   3.833 -14.760  1.00  0.00    -0.031 C 
BRANCH  15  16
ATOM     16  C   UNL     1     -16.591   3.042 -16.039  1.00  0.00     0.027 C 
BRANCH  16  17
ATOM     17  C   UNL     1     -17.906   3.212 -16.817  1.00  0.00     0.004 C 
BRANCH  17  18
ATOM     18  C   UNL     1     -18.664   4.490 -16.423  1.00  0.00     0.000 C 
BRANCH  18  19
ATOM     19  C   UNL     1     -19.268   5.221 -17.629  1.00  0.00    -0.003 C 
ATOM     20  C   UNL     1     -19.351   6.723 -17.378  1.00  0.00     0.004 C 
ENDBRANCH  18  19
ENDBRANCH  17  18
ENDBRANCH  16  17
ENDBRANCH  15  16
ENDBRANCH  13  14
ENDBRANCH  12  13
ENDBRANCH   1  11
TORSDOF 14
ENDMDL
MODEL 5
REMARK VINA RESULT:    -5.041      1.854      3.629
REMARK INTER + INTRA:         -10.946
REMARK INTER:                  -9.697
REMARK INTRA:                  -1.249
REMARK UNBOUND:                -1.779
REMARK SMILES CCCCCC=CCC=CCCCCCCCC(=O)[O-]
REMARK SMILES IDX 11 1 12 2 13 3 14 4 15 5 16 6 17 7 18 8 19 9 20 10 10 11
REMARK SMILES IDX 9 12 8 13 7 14 6 15 5 16 4 17 3 18 2 19 1 20
REMARK H PARENT
REMARK Flexibility Score: inf
ROOT
ATOM      1  C   UNL     1     -16.646   3.352 -16.482  1.00  0.00     0.027 C 
ENDROOT
BRANCH   1   2
ATOM      2  C   UNL     1     -15.823   3.252 -17.776  1.00  0.00     0.004 C 
BRANCH   2   3
ATOM      3  C   UNL     1     -15.386   1.810 -18.079  1.00  0.00     0.000 C 
BRANCH   3   4
ATOM      4  C   UNL     1     -14.142   1.397 -17.279  1.00  0.00     0.000 C 
BRANCH   4   5
ATOM      5  C   UNL     1     -13.629   0.022 -17.727  1.00  0.00     0.000 C 
BRANCH   5   6
ATOM      6  C   UNL     1     -12.961   0.061 -19.110  1.00  0.00     0.006 C 
BRANCH   6   7
ATOM      7  C   UNL     1     -11.508   0.547 -19.049  1.00  0.00     0.053 C 
BRANCH   7   8
ATOM      8  C   UNL     1     -10.576  -0.601 -18.826  1.00  0.00     0.041 C 
ATOM      9  O   UNL     1      -9.821  -0.619 -17.817  1.00  0.00    -0.550 OA
ATOM     10  O   UNL     1     -10.523  -1.642 -19.749  1.00  0.00    -0.550 OA
ENDBRANCH   7   8
ENDBRANCH   6   7
ENDBRANCH   5   6
ENDBRANCH   4   5
ENDBRANCH   3   4
ENDBRANCH   2   3
ENDBRANCH   1   2
BRANCH   1  11
ATOM     11  C   UNL     1     -17.793   2.374 -16.483  1.00  0.00    -0.031 C 
ATOM     12  C   UNL     1     -19.046   2.665 -16.877  1.00  0.00    -0.027 C 
BRANCH  12  13
ATOM     13  C   UNL     1     -19.474   4.011 -17.411  1.00  0.00     0.054 C 
BRANCH  13  14
ATOM     14  C   UNL     1     -20.053   4.850 -16.308  1.00  0.00    -0.027 C 
ATOM     15  C   UNL     1     -19.311   5.751 -15.651  1.00  0.00    -0.031 C 
BRANCH  15  16
ATOM     16  C   UNL     1     -19.858   6.537 -14.491  1.00  0.00     0.027 C 
BRANCH  16  17
ATOM     17  C   UNL     1     -18.739   7.004 -13.546  1.00  0.00     0.004 C 
BRANCH  17  18
ATOM     18  C   UNL     1     -17.470   6.145 -13.664  1.00  0.00     0.000 C 
BRANCH  18  19
ATOM     19  C   UNL     1     -16.408   6.504 -12.616  1.00  0.00    -0.003 C 
ATOM     20  C   UNL     1     -15.560   5.290 -12.253  1.00  0.00     0.004 C 
ENDBRANCH  18  19
ENDBRANCH  17  18
ENDBRANCH  16  17
ENDBRANCH  15  16
ENDBRANCH  13  14
ENDBRANCH  12  13
ENDBRANCH   1  11
TORSDOF 14
ENDMDL
MODEL 6
REMARK VINA RESULT:    -5.009      4.236      5.783
REMARK INTER + INTRA:         -10.887
REMARK INTER:                  -9.782
REMARK INTRA:                  -1.105
REMARK UNBOUND:                -1.779
REMARK SMILES CCCCCC=CCC=CCCCCCCCC(=O)[O-]
REMARK SMILES IDX 11 1 12 2 13 3 14 4 15 5 16 6 17 7 18 8 19 9 20 10 10 11
REMARK SMILES IDX 9 12 8 13 7 14 6 15 5 16 4 17 3 18 2 19 1 20
REMARK H PARENT
REMARK Flexibility Score: inf
ROOT
ATOM      1  C   UNL     1     -18.766   6.890 -13.800  1.00  0.00     0.027 C 
ENDROOT
BRANCH   1   2
ATOM      2  C   UNL     1     -18.917   5.807 -14.880  1.00  0.00     0.004 C 
BRANCH   2   3
ATOM      3  C   UNL     1     -19.479   6.369 -16.195  1.00  0.00     0.000 C 
BRANCH   3   4
ATOM      4  C   UNL     1     -20.102   5.276 -17.076  1.00  0.00     0.000 C 
BRANCH   4   5
ATOM      5  C   UNL     1     -19.907   3.887 -16.452  1.00  0.00     0.000 C 
BRANCH   5   6
ATOM      6  C   UNL     1     -19.128   2.930 -17.369  1.00  0.00     0.006 C 
BRANCH   6   7
ATOM      7  C   UNL     1     -18.007   2.190 -16.629  1.00  0.00     0.053 C 
BRANCH   7   8
ATOM      8  C   UNL     1     -16.851   3.103 -16.371  1.00  0.00     0.041 C 
ATOM      9  O   UNL     1     -16.242   3.642 -17.334  1.00  0.00    -0.550 OA
ATOM     10  O   UNL     1     -16.429   3.338 -15.066  1.00  0.00    -0.550 OA
ENDBRANCH   7   8
ENDBRANCH   6   7
ENDBRANCH   5   6
ENDBRANCH   4   5
ENDBRANCH   3   4
ENDBRANCH   2   3
ENDBRANCH   1   2
BRANCH   1  11
ATOM     11  C   UNL     1     -19.717   8.036 -14.035  1.00  0.00    -0.031 C 
ATOM     12  C   UNL     1     -20.389   8.682 -13.065  1.00  0.00    -0.027 C 
BRANCH  12  13
ATOM     13  C   UNL     1     -20.258   8.373 -11.593  1.00  0.00     0.054 C 
BRANCH  13  14
ATOM     14  C   UNL     1     -19.994   9.632 -10.816  1.00  0.00    -0.027 C 
ATOM     15  C   UNL     1     -20.821  10.043  -9.846  1.00  0.00    -0.031 C 
BRANCH  15  16
ATOM     16  C   UNL     1     -20.611  11.343  -9.120  1.00  0.00     0.027 C 
BRANCH  16  17
ATOM     17  C   UNL     1     -21.587  11.497  -7.942  1.00  0.00     0.004 C 
BRANCH  17  18
ATOM     18  C   UNL     1     -21.596  10.269  -7.018  1.00  0.00     0.000 C 
BRANCH  18  19
ATOM     19  C   UNL     1     -20.484  10.309  -5.961  1.00  0.00    -0.003 C 
ATOM     20  C   UNL     1     -20.375   8.978  -5.224  1.00  0.00     0.004 C 
ENDBRANCH  18  19
ENDBRANCH  17  18
ENDBRANCH  16  17
ENDBRANCH  15  16
ENDBRANCH  13  14
ENDBRANCH  12  13
ENDBRANCH   1  11
TORSDOF 14
ENDMDL
MODEL 7
REMARK VINA RESULT:    -4.967      4.245      8.259
REMARK INTER + INTRA:         -10.811
REMARK INTER:                  -9.784
REMARK INTRA:                  -1.028
REMARK UNBOUND:                -1.779
REMARK SMILES CCCCCC=CCC=CCCCCCCCC(=O)[O-]
REMARK SMILES IDX 11 1 12 2 13 3 14 4 15 5 16 6 17 7 18 8 19 9 20 10 10 11
REMARK SMILES IDX 9 12 8 13 7 14 6 15 5 16 4 17 3 18 2 19 1 20
REMARK H PARENT
REMARK Flexibility Score: inf
ROOT
ATOM      1  C   UNL     1     -17.798   1.940 -16.747  1.00  0.00     0.027 C 
ENDROOT
BRANCH   1   2
ATOM      2  C   UNL     1     -18.986   2.865 -17.052  1.00  0.00     0.004 C 
BRANCH   2   3
ATOM      3  C   UNL     1     -18.612   3.994 -18.026  1.00  0.00     0.000 C 
BRANCH   3   4
ATOM      4  C   UNL     1     -18.802   5.385 -17.405  1.00  0.00     0.000 C 
BRANCH   4   5
ATOM      5  C   UNL     1     -19.217   5.280 -15.930  1.00  0.00     0.000 C 
BRANCH   5   6
ATOM      6  C   UNL     1     -20.333   6.269 -15.557  1.00  0.00     0.006 C 
BRANCH   6   7
ATOM      7  C   UNL     1     -19.793   7.663 -15.215  1.00  0.00     0.053 C 
BRANCH   7   8
ATOM      8  C   UNL     1     -19.668   7.833 -13.735  1.00  0.00     0.041 C 
ATOM      9  O   UNL     1     -18.709   7.300 -13.114  1.00  0.00    -0.550 OA
ATOM     10  O   UNL     1     -20.626   8.560 -13.035  1.00  0.00    -0.550 OA
ENDBRANCH   7   8
ENDBRANCH   6   7
ENDBRANCH   5   6
ENDBRANCH   4   5
ENDBRANCH   3   4
ENDBRANCH   2   3
ENDBRANCH   1   2
BRANCH   1  11
ATOM     11  C   UNL     1     -16.546   2.730 -16.462  1.00  0.00    -0.031 C 
ATOM     12  C   UNL     1     -15.342   2.477 -17.007  1.00  0.00    -0.027 C 
BRANCH  12  13
ATOM     13  C   UNL     1     -15.081   1.383 -18.015  1.00  0.00     0.054 C 
BRANCH  13  14
ATOM     14  C   UNL     1     -13.929   0.528 -17.570  1.00  0.00    -0.027 C 
ATOM     15  C   UNL     1     -12.995   0.106 -18.432  1.00  0.00    -0.031 C 
BRANCH  15  16
ATOM     16  C   UNL     1     -11.885  -0.817 -18.013  1.00  0.00     0.027 C 
BRANCH  16  17
ATOM     17  C   UNL     1     -11.163  -1.422 -19.228  1.00  0.00     0.004 C 
BRANCH  17  18
ATOM     18  C   UNL     1      -9.791  -0.778 -19.481  1.00  0.00     0.000 C 
BRANCH  18  19
ATOM     19  C   UNL     1      -9.099  -0.322 -18.189  1.00  0.00    -0.003 C 
ATOM     20  C   UNL     1      -8.685   1.143 -18.273  1.00  0.00     0.004 C 
ENDBRANCH  18  19
ENDBRANCH  17  18
ENDBRANCH  16  17
ENDBRANCH  15  16
ENDBRANCH  13  14
ENDBRANCH  12  13
ENDBRANCH   1  11
TORSDOF 14
ENDMDL
MODEL 8
REMARK VINA RESULT:    -4.930      3.347      6.815
REMARK INTER + INTRA:         -10.743
REMARK INTER:                  -8.901
REMARK INTRA:                  -1.843
REMARK UNBOUND:                -1.779
REMARK SMILES CCCCCC=CCC=CCCCCCCCC(=O)[O-]
REMARK SMILES IDX 11 1 12 2 13 3 14 4 15 5 16 6 17 7 18 8 19 9 20 10 10 11
REMARK SMILES IDX 9 12 8 13 7 14 6 15 5 16 4 17 3 18 2 19 1 20
REMARK H PARENT
REMARK Flexibility Score: inf
ROOT
ATOM      1  C   UNL     1     -17.424   6.546 -12.972  1.00  0.00     0.027 C 
ENDROOT
BRANCH   1   2
ATOM      2  C   UNL     1     -18.183   7.672 -12.252  1.00  0.00     0.004 C 
BRANCH   2   3
ATOM      3  C   UNL     1     -19.660   7.741 -12.672  1.00  0.00     0.000 C 
BRANCH   3   4
ATOM      4  C   UNL     1     -19.832   7.748 -14.198  1.00  0.00     0.000 C 
BRANCH   4   5
ATOM      5  C   UNL     1     -20.557   6.482 -14.677  1.00  0.00     0.000 C 
BRANCH   5   6
ATOM      6  C   UNL     1     -19.813   5.771 -15.819  1.00  0.00     0.006 C 
BRANCH   6   7
ATOM      7  C   UNL     1     -19.429   6.726 -16.955  1.00  0.00     0.053 C 
BRANCH   7   8
ATOM      8  C   UNL     1     -20.621   7.051 -17.798  1.00  0.00     0.041 C 
ATOM      9  O   UNL     1     -21.422   6.141 -18.142  1.00  0.00    -0.550 OA
ATOM     10  O   UNL     1     -20.834   8.358 -18.226  1.00  0.00    -0.550 OA
ENDBRANCH   7   8
ENDBRANCH   6   7
ENDBRANCH   5   6
ENDBRANCH   4   5
ENDBRANCH   3   4
ENDBRANCH   2   3
ENDBRANCH   1   2
BRANCH   1  11
ATOM     11  C   UNL     1     -15.955   6.571 -12.634  1.00  0.00    -0.031 C 
ATOM     12  C   UNL     1     -15.194   5.476 -12.454  1.00  0.00    -0.027 C 
BRANCH  12  13
ATOM     13  C   UNL     1     -15.698   4.060 -12.600  1.00  0.00     0.054 C 
BRANCH  13  14
ATOM     14  C   UNL     1     -15.473   3.568 -14.001  1.00  0.00    -0.027 C 
ATOM     15  C   UNL     1     -16.467   3.530 -14.898  1.00  0.00    -0.031 C 
BRANCH  15  16
ATOM     16  C   UNL     1     -16.273   2.962 -16.277  1.00  0.00     0.027 C 
BRANCH  16  17
ATOM     17  C   UNL     1     -17.458   3.292 -17.197  1.00  0.00     0.004 C 
BRANCH  17  18
ATOM     18  C   UNL     1     -18.689   2.416 -16.912  1.00  0.00     0.000 C 
BRANCH  18  19
ATOM     19  C   UNL     1     -19.876   2.739 -17.830  1.00  0.00    -0.003 C 
ATOM     20  C   UNL     1     -21.203   2.453 -17.135  1.00  0.00     0.004 C 
ENDBRANCH  18  19
ENDBRANCH  17  18
ENDBRANCH  16  17
ENDBRANCH  15  16
ENDBRANCH  13  14
ENDBRANCH  12  13
ENDBRANCH   1  11
TORSDOF 14
ENDMDL
MODEL 9
REMARK VINA RESULT:    -4.919      2.635      5.629
REMARK INTER + INTRA:         -10.723
REMARK INTER:                  -9.440
REMARK INTRA:                  -1.283
REMARK UNBOUND:                -1.779
REMARK SMILES CCCCCC=CCC=CCCCCCCCC(=O)[O-]
REMARK SMILES IDX 11 1 12 2 13 3 14 4 15 5 16 6 17 7 18 8 19 9 20 10 10 11
REMARK SMILES IDX 9 12 8 13 7 14 6 15 5 16 4 17 3 18 2 19 1 20
REMARK H PARENT
REMARK Flexibility Score: inf
ROOT
ATOM      1  C   UNL     1     -14.470   1.960 -16.767  1.00  0.00     0.027 C 
ENDROOT
BRANCH   1   2
ATOM      2  C   UNL     1     -13.937   0.595 -17.229  1.00  0.00     0.004 C 
BRANCH   2   3
ATOM      3  C   UNL     1     -13.928   0.460 -18.760  1.00  0.00     0.000 C 
BRANCH   3   4
ATOM      4  C   UNL     1     -12.758  -0.398 -19.263  1.00  0.00     0.000 C 
BRANCH   4   5
ATOM      5  C   UNL     1     -11.836  -0.805 -18.105  1.00  0.00     0.000 C 
BRANCH   5   6
ATOM      6  C   UNL     1     -10.381  -0.360 -18.322  1.00  0.00     0.006 C 
BRANCH   6   7
ATOM      7  C   UNL     1     -10.280   1.024 -18.975  1.00  0.00     0.053 C 
BRANCH   7   8
ATOM      8  C   UNL     1      -9.019   1.713 -18.559  1.00  0.00     0.041 C 
ATOM      9  O   UNL     1      -8.655   2.771 -19.137  1.00  0.00    -0.550 OA
ATOM     10  O   UNL     1      -8.233   1.172 -17.546  1.00  0.00    -0.550 OA
ENDBRANCH   7   8
ENDBRANCH   6   7
ENDBRANCH   5   6
ENDBRANCH   4   5
ENDBRANCH   3   4
ENDBRANCH   2   3
ENDBRANCH   1   2
BRANCH   1  11
ATOM     11  C   UNL     1     -15.336   2.598 -17.824  1.00  0.00    -0.031 C 
ATOM     12  C   UNL     1     -16.487   3.250 -17.577  1.00  0.00    -0.027 C 
BRANCH  12  13
ATOM     13  C   UNL     1     -17.059   3.467 -16.197  1.00  0.00     0.054 C 
BRANCH  13  14
ATOM     14  C   UNL     1     -18.362   4.209 -16.283  1.00  0.00    -0.027 C 
ATOM     15  C   UNL     1     -18.747   4.821 -17.410  1.00  0.00    -0.031 C 
BRANCH  15  16
ATOM     16  C   UNL     1     -20.010   5.635 -17.482  1.00  0.00     0.027 C 
BRANCH  16  17
ATOM     17  C   UNL     1     -20.385   6.218 -16.110  1.00  0.00     0.004 C 
BRANCH  17  18
ATOM     18  C   UNL     1     -19.857   7.648 -15.910  1.00  0.00     0.000 C 
BRANCH  18  19
ATOM     19  C   UNL     1     -19.557   7.973 -14.441  1.00  0.00    -0.003 C 
ATOM     20  C   UNL     1     -18.783   6.841 -13.773  1.00  0.00     0.004 C 
ENDBRANCH  18  19
ENDBRANCH  17  18
ENDBRANCH  16  17
ENDBRANCH  15  16
ENDBRANCH  13  14
ENDBRANCH  12  13
ENDBRANCH   1  11
TORSDOF 14
ENDMDL
