MODEL 1
REMARK VINA RESULT:    -4.311      0.000      0.000
REMARK INTER + INTRA:          -7.146
REMARK INTER:                  -6.832
REMARK INTRA:                  -0.314
REMARK UNBOUND:                -0.314
REMARK SMILES CCCCCCCCCCCC(=O)[O-]
REMARK SMILES IDX 7 1 8 2 9 3 10 4 11 5 12 6 13 7 14 8 6 9 5 10 4 11 3 12 2 13
REMARK SMILES IDX 1 14
REMARK H PARENT
REMARK Flexibility Score: inf
ROOT
ATOM      1  C   UNL     1       1.371 -17.199  28.805  1.00  0.00     0.000 C 
ENDROOT
BRANCH   1   2
ATOM      2  C   UNL     1       0.452 -17.251  27.575  1.00  0.00     0.000 C 
BRANCH   2   3
ATOM      3  C   UNL     1      -0.987 -16.867  27.950  1.00  0.00     0.000 C 
BRANCH   3   4
ATOM      4  C   UNL     1      -1.940 -16.893  26.745  1.00  0.00     0.006 C 
BRANCH   4   5
ATOM      5  C   UNL     1      -2.138 -15.507  26.116  1.00  0.00     0.053 C 
BRANCH   5   6
ATOM      6  C   UNL     1      -3.520 -15.380  25.557  1.00  0.00     0.041 C 
ATOM      7  O   UNL     1      -4.495 -15.913  26.150  1.00  0.00    -0.550 OA
ATOM      8  O   UNL     1      -3.725 -14.715  24.355  1.00  0.00    -0.550 OA
ENDBRANCH   5   6
ENDBRANCH   4   5
ENDBRANCH   3   4
ENDBRANCH   2   3
ENDBRANCH   1   2
BRANCH   1   9
ATOM      9  C   UNL     1       2.707 -17.925  28.581  1.00  0.00     0.000 C 
BRANCH   9  10
ATOM     10  C   UNL     1       2.700 -19.360  29.138  1.00  0.00    -0.000 C 
BRANCH  10  11
ATOM     11  C   UNL     1       4.066 -20.053  29.002  1.00  0.00    -0.000 C 
BRANCH  11  12
ATOM     12  C   UNL     1       4.125 -21.397  29.744  1.00  0.00    -0.000 C 
BRANCH  12  13
ATOM     13  C   UNL     1       2.735 -22.038  29.827  1.00  0.00    -0.003 C 
ATOM     14  C   UNL     1       2.829 -23.515  30.196  1.00  0.00     0.004 C 
ENDBRANCH  12  13
ENDBRANCH  11  12
ENDBRANCH  10  11
ENDBRANCH   9  10
ENDBRANCH   1   9
TORSDOF 10
ENDMDL
MODEL 2
REMARK VINA RESULT:    -4.248      1.407      2.355
REMARK INTER + INTRA:          -7.045
REMARK INTER:                  -6.505
REMARK INTRA:                  -0.540
REMARK UNBOUND:                -0.314
REMARK SMILES CCCCCCCCCCCC(=O)[O-]
REMARK SMILES IDX 7 1 8 2 9 3 10 4 11 5 12 6 13 7 14 8 6 9 5 10 4 11 3 12 2 13
REMARK SMILES IDX 1 14
REMARK H PARENT
REMARK Flexibility Score: inf
ROOT
ATOM      1  C   UNL     1      -0.554 -17.269  26.902  1.00  0.00     0.000 C 
ENDROOT
BRANCH   1   2
ATOM      2  C   UNL     1      -1.993 -17.768  27.104  1.00  0.00     0.000 C 
BRANCH   2   3
ATOM      3  C   UNL     1      -2.932 -16.604  27.456  1.00  0.00     0.000 C 
BRANCH   3   4
ATOM      4  C   UNL     1      -2.709 -15.373  26.564  1.00  0.00     0.006 C 
BRANCH   4   5
ATOM      5  C   UNL     1      -3.979 -14.947  25.816  1.00  0.00     0.053 C 
BRANCH   5   6
ATOM      6  C   UNL     1      -3.706 -14.825  24.350  1.00  0.00     0.041 C 
ATOM      7  O   UNL     1      -4.095 -15.723  23.557  1.00  0.00    -0.550 OA
ATOM      8  O   UNL     1      -2.978 -13.746  23.866  1.00  0.00    -0.550 OA
ENDBRANCH   5   6
ENDBRANCH   4   5
ENDBRANCH   3   4
ENDBRANCH   2   3
ENDBRANCH   1   2
BRANCH   1   9
ATOM      9  C   UNL     1       0.252 -17.235  28.211  1.00  0.00     0.000 C 
BRANCH   9  10
ATOM     10  C   UNL     1       1.771 -17.185  27.969  1.00  0.00    -0.000 C 
BRANCH  10  11
ATOM     11  C   UNL     1       2.530 -18.274  28.743  1.00  0.00    -0.000 C 
BRANCH  11  12
ATOM     12  C   UNL     1       1.591 -19.240  29.482  1.00  0.00    -0.000 C 
BRANCH  12  13
ATOM     13  C   UNL     1       2.196 -20.647  29.551  1.00  0.00    -0.003 C 
ATOM     14  C   UNL     1       3.712 -20.605  29.379  1.00  0.00     0.004 C 
ENDBRANCH  12  13
ENDBRANCH  11  12
ENDBRANCH  10  11
ENDBRANCH   9  10
ENDBRANCH   1   9
TORSDOF 10
ENDMDL
MODEL 3
REMARK VINA RESULT:    -4.178     15.273     18.676
REMARK INTER + INTRA:          -6.934
REMARK INTER:                  -5.740
REMARK INTRA:                  -1.194
REMARK UNBOUND:                -0.314
REMARK SMILES CCCCCCCCCCCC(=O)[O-]
REMARK SMILES IDX 7 1 8 2 9 3 10 4 11 5 12 6 13 7 14 8 6 9 5 10 4 11 3 12 2 13
REMARK SMILES IDX 1 14
REMARK H PARENT
REMARK Flexibility Score: inf
ROOT
ATOM      1  C   UNL     1     -14.712  -9.256  25.422  1.00  0.00     0.000 C 
ENDROOT
BRANCH   1   2
ATOM      2  C   UNL     1     -13.319  -9.115  24.791  1.00  0.00     0.000 C 
BRANCH   2   3
ATOM      3  C   UNL     1     -12.349  -8.417  25.756  1.00  0.00     0.000 C 
BRANCH   3   4
ATOM      4  C   UNL     1     -12.784  -8.540  27.225  1.00  0.00     0.006 C 
BRANCH   4   5
ATOM      5  C   UNL     1     -11.645  -8.234  28.207  1.00  0.00     0.053 C 
BRANCH   5   6
ATOM      6  C   UNL     1     -11.484  -9.354  29.186  1.00  0.00     0.041 C 
ATOM      7  O   UNL     1     -11.614  -9.140  30.420  1.00  0.00    -0.550 OA
ATOM      8  O   UNL     1     -11.143 -10.623  28.739  1.00  0.00    -0.550 OA
ENDBRANCH   5   6
ENDBRANCH   4   5
ENDBRANCH   3   4
ENDBRANCH   2   3
ENDBRANCH   1   2
BRANCH   1   9
ATOM      9  C   UNL     1     -15.723  -8.240  24.866  1.00  0.00     0.000 C 
BRANCH   9  10
ATOM     10  C   UNL     1     -15.871  -7.000  25.765  1.00  0.00    -0.000 C 
BRANCH  10  11
ATOM     11  C   UNL     1     -15.704  -5.684  24.989  1.00  0.00    -0.000 C 
BRANCH  11  12
ATOM     12  C   UNL     1     -14.329  -5.562  24.316  1.00  0.00    -0.000 C 
BRANCH  12  13
ATOM     13  C   UNL     1     -14.465  -5.553  22.789  1.00  0.00    -0.003 C 
ATOM     14  C   UNL     1     -13.525  -6.568  22.145  1.00  0.00     0.004 C 
ENDBRANCH  12  13
ENDBRANCH  11  12
ENDBRANCH  10  11
ENDBRANCH   9  10
ENDBRANCH   1   9
TORSDOF 10
ENDMDL
MODEL 4
REMARK VINA RESULT:    -4.101     15.568     18.834
REMARK INTER + INTRA:          -6.813
REMARK INTER:                  -5.288
REMARK INTRA:                  -1.525
REMARK UNBOUND:                -0.314
REMARK SMILES CCCCCCCCCCCC(=O)[O-]
REMARK SMILES IDX 7 1 8 2 9 3 10 4 11 5 12 6 13 7 14 8 6 9 5 10 4 11 3 12 2 13
REMARK SMILES IDX 1 14
REMARK H PARENT
REMARK Flexibility Score: inf
ROOT
ATOM      1  C   UNL     1     -15.746  -7.200  26.138  1.00  0.00     0.000 C 
ENDROOT
BRANCH   1   2
ATOM      2  C   UNL     1     -15.573  -8.603  25.536  1.00  0.00     0.000 C 
BRANCH   2   3
ATOM      3  C   UNL     1     -14.273  -9.255  26.030  1.00  0.00     0.000 C 
BRANCH   3   4
ATOM      4  C   UNL     1     -13.092  -9.022  25.075  1.00  0.00     0.006 C 
BRANCH   4   5
ATOM      5  C   UNL     1     -12.020  -8.101  25.673  1.00  0.00     0.053 C 
BRANCH   5   6
ATOM      6  C   UNL     1     -11.425  -8.720  26.897  1.00  0.00     0.041 C 
ATOM      7  O   UNL     1     -10.766  -9.790  26.810  1.00  0.00    -0.550 OA
ATOM      8  O   UNL     1     -11.638  -8.142  28.142  1.00  0.00    -0.550 OA
ENDBRANCH   5   6
ENDBRANCH   4   5
ENDBRANCH   3   4
ENDBRANCH   2   3
ENDBRANCH   1   2
BRANCH   1   9
ATOM      9  C   UNL     1     -15.920  -6.111  25.068  1.00  0.00     0.000 C 
BRANCH   9  10
ATOM     10  C   UNL     1     -14.577  -5.610  24.510  1.00  0.00    -0.000 C 
BRANCH  10  11
ATOM     11  C   UNL     1     -14.512  -5.679  22.975  1.00  0.00    -0.000 C 
BRANCH  11  12
ATOM     12  C   UNL     1     -13.302  -6.478  22.468  1.00  0.00    -0.000 C 
BRANCH  12  13
ATOM     13  C   UNL     1     -13.730  -7.517  21.425  1.00  0.00    -0.003 C 
ATOM     14  C   UNL     1     -14.953  -8.300  21.895  1.00  0.00     0.004 C 
ENDBRANCH  12  13
ENDBRANCH  11  12
ENDBRANCH  10  11
ENDBRANCH   9  10
ENDBRANCH   1   9
TORSDOF 10
ENDMDL
MODEL 5
REMARK VINA RESULT:    -4.084      2.961      4.042
REMARK INTER + INTRA:          -6.785
REMARK INTER:                  -5.297
REMARK INTRA:                  -1.489
REMARK UNBOUND:                -0.314
REMARK SMILES CCCCCCCCCCCC(=O)[O-]
REMARK SMILES IDX 7 1 8 2 9 3 10 4 11 5 12 6 13 7 14 8 6 9 5 10 4 11 3 12 2 13
REMARK SMILES IDX 1 14
REMARK H PARENT
REMARK Flexibility Score: inf
ROOT
ATOM      1  C   UNL     1      -0.600 -16.758  30.228  1.00  0.00     0.000 C 
ENDROOT
BRANCH   1   2
ATOM      2  C   UNL     1       0.476 -17.212  29.229  1.00  0.00     0.000 C 
BRANCH   2   3
ATOM      3  C   UNL     1      -0.073 -17.207  27.794  1.00  0.00     0.000 C 
BRANCH   3   4
ATOM      4  C   UNL     1      -1.433 -16.500  27.682  1.00  0.00     0.006 C 
BRANCH   4   5
ATOM      5  C   UNL     1      -1.992 -16.514  26.253  1.00  0.00     0.053 C 
BRANCH   5   6
ATOM      6  C   UNL     1      -3.004 -15.427  26.077  1.00  0.00     0.041 C 
ATOM      7  O   UNL     1      -2.635 -14.225  25.997  1.00  0.00    -0.550 OA
ATOM      8  O   UNL     1      -4.357 -15.735  26.050  1.00  0.00    -0.550 OA
ENDBRANCH   5   6
ENDBRANCH   4   5
ENDBRANCH   3   4
ENDBRANCH   2   3
ENDBRANCH   1   2
BRANCH   1   9
ATOM      9  C   UNL     1      -0.761 -17.729  31.409  1.00  0.00     0.000 C 
BRANCH   9  10
ATOM     10  C   UNL     1      -0.558 -19.198  31.000  1.00  0.00    -0.000 C 
BRANCH  10  11
ATOM     11  C   UNL     1      -1.837 -19.839  30.438  1.00  0.00    -0.000 C 
BRANCH  11  12
ATOM     12  C   UNL     1      -1.616 -20.508  29.074  1.00  0.00    -0.000 C 
BRANCH  12  13
ATOM     13  C   UNL     1      -2.611 -19.977  28.035  1.00  0.00    -0.003 C 
ATOM     14  C   UNL     1      -3.717 -19.161  28.698  1.00  0.00     0.004 C 
ENDBRANCH  12  13
ENDBRANCH  11  12
ENDBRANCH  10  11
ENDBRANCH   9  10
ENDBRANCH   1   9
TORSDOF 10
ENDMDL
MODEL 6
REMARK VINA RESULT:    -4.084     13.553     15.841
REMARK INTER + INTRA:          -6.785
REMARK INTER:                  -5.258
REMARK INTRA:                  -1.527
REMARK UNBOUND:                -0.314
REMARK SMILES CCCCCCCCCCCC(=O)[O-]
REMARK SMILES IDX 7 1 8 2 9 3 10 4 11 5 12 6 13 7 14 8 6 9 5 10 4 11 3 12 2 13
REMARK SMILES IDX 1 14
REMARK H PARENT
REMARK Flexibility Score: inf
ROOT
ATOM      1  C   UNL     1     -13.801  -8.733  26.581  1.00  0.00     0.000 C 
ENDROOT
BRANCH   1   2
ATOM      2  C   UNL     1     -12.457  -8.509  25.871  1.00  0.00     0.000 C 
BRANCH   2   3
ATOM      3  C   UNL     1     -11.296  -8.523  26.877  1.00  0.00     0.000 C 
BRANCH   3   4
ATOM      4  C   UNL     1     -11.677  -7.899  28.229  1.00  0.00     0.006 C 
BRANCH   4   5
ATOM      5  C   UNL     1     -11.396  -8.835  29.413  1.00  0.00     0.053 C 
BRANCH   5   6
ATOM      6  C   UNL     1     -11.294  -8.052  30.684  1.00  0.00     0.041 C 
ATOM      7  O   UNL     1     -11.201  -8.648  31.789  1.00  0.00    -0.550 OA
ATOM      8  O   UNL     1     -11.350  -6.665  30.652  1.00  0.00    -0.550 OA
ENDBRANCH   5   6
ENDBRANCH   4   5
ENDBRANCH   3   4
ENDBRANCH   2   3
ENDBRANCH   1   2
BRANCH   1   9
ATOM      9  C   UNL     1     -14.340 -10.160  26.396  1.00  0.00     0.000 C 
BRANCH   9  10
ATOM     10  C   UNL     1     -13.933 -11.100  27.544  1.00  0.00    -0.000 C 
BRANCH  10  11
ATOM     11  C   UNL     1     -12.992 -12.225  27.081  1.00  0.00    -0.000 C 
BRANCH  11  12
ATOM     12  C   UNL     1     -11.572 -12.082  27.650  1.00  0.00    -0.000 C 
BRANCH  12  13
ATOM     13  C   UNL     1     -10.520 -12.286  26.554  1.00  0.00    -0.003 C 
ATOM     14  C   UNL     1     -11.051 -11.849  25.192  1.00  0.00     0.004 C 
ENDBRANCH  12  13
ENDBRANCH  11  12
ENDBRANCH  10  11
ENDBRANCH   9  10
ENDBRANCH   1   9
TORSDOF 10
ENDMDL
MODEL 7
REMARK VINA RESULT:    -4.061      2.213      3.326
REMARK INTER + INTRA:          -6.749
REMARK INTER:                  -5.835
REMARK INTRA:                  -0.914
REMARK UNBOUND:                -0.314
REMARK SMILES CCCCCCCCCCCC(=O)[O-]
REMARK SMILES IDX 7 1 8 2 9 3 10 4 11 5 12 6 13 7 14 8 6 9 5 10 4 11 3 12 2 13
REMARK SMILES IDX 1 14
REMARK H PARENT
REMARK Flexibility Score: inf
ROOT
ATOM      1  C   UNL     1      -2.596 -20.139  29.631  1.00  0.00     0.000 C 
ENDROOT
BRANCH   1   2
ATOM      2  C   UNL     1      -3.263 -19.200  28.614  1.00  0.00     0.000 C 
BRANCH   2   3
ATOM      3  C   UNL     1      -2.249 -18.720  27.565  1.00  0.00     0.000 C 
BRANCH   3   4
ATOM      4  C   UNL     1      -1.905 -17.229  27.713  1.00  0.00     0.006 C 
BRANCH   4   5
ATOM      5  C   UNL     1      -1.699 -16.533  26.361  1.00  0.00     0.053 C 
BRANCH   5   6
ATOM      6  C   UNL     1      -2.785 -15.533  26.118  1.00  0.00     0.041 C 
ATOM      7  O   UNL     1      -3.813 -15.525  26.846  1.00  0.00    -0.550 OA
ATOM      8  O   UNL     1      -2.686 -14.643  25.056  1.00  0.00    -0.550 OA
ENDBRANCH   5   6
ENDBRANCH   4   5
ENDBRANCH   3   4
ENDBRANCH   2   3
ENDBRANCH   1   2
BRANCH   1   9
ATOM      9  C   UNL     1      -1.237 -20.669  29.148  1.00  0.00     0.000 C 
BRANCH   9  10
ATOM     10  C   UNL     1      -0.190 -20.726  30.274  1.00  0.00    -0.000 C 
BRANCH  10  11
ATOM     11  C   UNL     1       1.143 -20.071  29.877  1.00  0.00    -0.000 C 
BRANCH  11  12
ATOM     12  C   UNL     1       0.967 -18.640  29.349  1.00  0.00    -0.000 C 
BRANCH  12  13
ATOM     13  C   UNL     1       2.251 -18.144  28.672  1.00  0.00    -0.003 C 
ATOM     14  C   UNL     1       3.406 -19.114  28.902  1.00  0.00     0.004 C 
ENDBRANCH  12  13
ENDBRANCH  11  12
ENDBRANCH  10  11
ENDBRANCH   9  10
ENDBRANCH   1   9
TORSDOF 10
ENDMDL
MODEL 8
REMARK VINA RESULT:    -4.060      3.854      5.924
REMARK INTER + INTRA:          -6.748
REMARK INTER:                  -5.268
REMARK INTRA:                  -1.480
REMARK UNBOUND:                -0.314
REMARK SMILES CCCCCCCCCCCC(=O)[O-]
REMARK SMILES IDX 7 1 8 2 9 3 10 4 11 5 12 6 13 7 14 8 6 9 5 10 4 11 3 12 2 13
REMARK SMILES IDX 1 14
REMARK H PARENT
REMARK Flexibility Score: inf
ROOT
ATOM      1  C   UNL     1      -0.904 -18.823  30.615  1.00  0.00     0.000 C 
ENDROOT
BRANCH   1   2
ATOM      2  C   UNL     1      -2.059 -19.738  30.178  1.00  0.00     0.000 C 
BRANCH   2   3
ATOM      3  C   UNL     1      -1.739 -20.422  28.840  1.00  0.00     0.000 C 
BRANCH   3   4
ATOM      4  C   UNL     1      -2.941 -20.440  27.882  1.00  0.00     0.006 C 
BRANCH   4   5
ATOM      5  C   UNL     1      -4.286 -20.403  28.619  1.00  0.00     0.053 C 
BRANCH   5   6
ATOM      6  C   UNL     1      -5.129 -21.574  28.227  1.00  0.00     0.041 C 
ATOM      7  O   UNL     1      -6.138 -21.887  28.913  1.00  0.00    -0.550 OA
ATOM      8  O   UNL     1      -4.774 -22.350  27.131  1.00  0.00    -0.550 OA
ENDBRANCH   5   6
ENDBRANCH   4   5
ENDBRANCH   3   4
ENDBRANCH   2   3
ENDBRANCH   1   2
BRANCH   1   9
ATOM      9  C   UNL     1       0.344 -18.979  29.732  1.00  0.00     0.000 C 
BRANCH   9  10
ATOM     10  C   UNL     1       0.797 -17.647  29.108  1.00  0.00    -0.000 C 
BRANCH  10  11
ATOM     11  C   UNL     1      -0.365 -16.866  28.473  1.00  0.00    -0.000 C 
BRANCH  11  12
ATOM     12  C   UNL     1      -0.598 -17.242  27.002  1.00  0.00    -0.000 C 
BRANCH  12  13
ATOM     13  C   UNL     1      -2.030 -16.901  26.571  1.00  0.00    -0.003 C 
ATOM     14  C   UNL     1      -2.956 -16.781  27.777  1.00  0.00     0.004 C 
ENDBRANCH  12  13
ENDBRANCH  11  12
ENDBRANCH  10  11
ENDBRANCH   9  10
ENDBRANCH   1   9
TORSDOF 10
ENDMDL
MODEL 9
REMARK VINA RESULT:    -4.022      1.934      3.498
REMARK INTER + INTRA:          -6.687
REMARK INTER:                  -5.827
REMARK INTRA:                  -0.860
REMARK UNBOUND:                -0.314
REMARK SMILES CCCCCCCCCCCC(=O)[O-]
REMARK SMILES IDX 7 1 8 2 9 3 10 4 11 5 12 6 13 7 14 8 6 9 5 10 4 11 3 12 2 13
REMARK SMILES IDX 1 14
REMARK H PARENT
REMARK Flexibility Score: inf
ROOT
ATOM      1  C   UNL     1       0.634 -19.900  30.018  1.00  0.00     0.000 C 
ENDROOT
BRANCH   1   2
ATOM      2  C   UNL     1       2.053 -19.651  29.483  1.00  0.00     0.000 C 
BRANCH   2   3
ATOM      3  C   UNL     1       2.131 -18.307  28.744  1.00  0.00     0.000 C 
BRANCH   3   4
ATOM      4  C   UNL     1       0.794 -17.550  28.748  1.00  0.00     0.006 C 
BRANCH   4   5
ATOM      5  C   UNL     1       0.277 -17.253  27.334  1.00  0.00     0.053 C 
BRANCH   5   6
ATOM      6  C   UNL     1      -1.198 -17.005  27.359  1.00  0.00     0.041 C 
ATOM      7  O   UNL     1      -1.931 -17.624  28.175  1.00  0.00    -0.550 OA
ATOM      8  O   UNL     1      -1.770 -16.126  26.448  1.00  0.00    -0.550 OA
ENDBRANCH   5   6
ENDBRANCH   4   5
ENDBRANCH   3   4
ENDBRANCH   2   3
ENDBRANCH   1   2
BRANCH   1   9
ATOM      9  C   UNL     1       0.173 -21.354  29.826  1.00  0.00     0.000 C 
BRANCH   9  10
ATOM     10  C   UNL     1      -0.016 -22.096  31.161  1.00  0.00    -0.000 C 
BRANCH  10  11
ATOM     11  C   UNL     1       0.941 -23.289  31.315  1.00  0.00    -0.000 C 
BRANCH  11  12
ATOM     12  C   UNL     1       1.823 -23.506  30.075  1.00  0.00    -0.000 C 
BRANCH  12  13
ATOM     13  C   UNL     1       3.300 -23.629  30.469  1.00  0.00    -0.003 C 
ATOM     14  C   UNL     1       4.125 -22.490  29.877  1.00  0.00     0.004 C 
ENDBRANCH  12  13
ENDBRANCH  11  12
ENDBRANCH  10  11
ENDBRANCH   9  10
ENDBRANCH   1   9
TORSDOF 10
ENDMDL
