MODEL 1
REMARK VINA RESULT:    -4.512      0.000      0.000
REMARK INTER + INTRA:          -4.512
REMARK INTER:                  -4.512
REMARK INTRA:                   0.000
REMARK UNBOUND:                 0.000
REMARK SMILES CC(C)=C1CC[C@@H](C)CC1=O
REMARK SMILES IDX 8 1 7 2 6 3 5 4 4 5 2 6 1 7 3 8 10 9 11 10 9 11
REMARK H PARENT
REMARK Flexibility Score: inf
ROOT
ATOM      1  C   UNL     1     -14.756  -0.349 -11.699  1.00  0.00     0.008 C 
ATOM      2  C   UNL     1     -14.115   1.031 -11.885  1.00  0.00    -0.006 C 
ATOM      3  C   UNL     1     -15.113   2.013 -12.517  1.00  0.00     0.008 C 
ATOM      4  C   UNL     1     -14.521   3.424 -12.615  1.00  0.00     0.039 C 
ATOM      5  C   UNL     1     -13.166   3.443 -13.308  1.00  0.00    -0.006 C 
ATOM      6  C   UNL     1     -12.765   4.512 -14.055  1.00  0.00    -0.070 C 
ATOM      7  C   UNL     1     -11.446   4.519 -14.793  1.00  0.00     0.039 C 
ATOM      8  C   UNL     1     -13.643   5.734 -14.210  1.00  0.00     0.039 C 
ATOM      9  C   UNL     1     -12.270   2.281 -13.026  1.00  0.00     0.159 C 
ATOM     10  O   UNL     1     -11.017   2.413 -12.999  1.00  0.00    -0.295 OA
ATOM     11  C   UNL     1     -12.856   0.926 -12.759  1.00  0.00     0.084 C 
ENDROOT
TORSDOF 0
ENDMDL
MODEL 2
REMARK VINA RESULT:    -4.396      8.255      9.451
REMARK INTER + INTRA:          -4.396
REMARK INTER:                  -4.396
REMARK INTRA:                   0.000
REMARK UNBOUND:                 0.000
REMARK SMILES CC(C)=C1CC[C@@H](C)CC1=O
REMARK SMILES IDX 8 1 7 2 6 3 5 4 4 5 2 6 1 7 3 8 10 9 11 10 9 11
REMARK H PARENT
REMARK Flexibility Score: inf
ROOT
ATOM      1  C   UNL     1     -16.421   5.555 -22.132  1.00  0.00     0.008 C 
ATOM      2  C   UNL     1     -16.036   4.091 -21.890  1.00  0.00    -0.006 C 
ATOM      3  C   UNL     1     -17.061   3.147 -22.537  1.00  0.00     0.008 C 
ATOM      4  C   UNL     1     -16.637   1.680 -22.392  1.00  0.00     0.039 C 
ATOM      5  C   UNL     1     -16.323   1.302 -20.952  1.00  0.00    -0.006 C 
ATOM      6  C   UNL     1     -16.552   0.040 -20.482  1.00  0.00    -0.070 C 
ATOM      7  C   UNL     1     -16.298  -0.331 -19.040  1.00  0.00     0.039 C 
ATOM      8  C   UNL     1     -17.109  -1.041 -21.381  1.00  0.00     0.039 C 
ATOM      9  C   UNL     1     -15.650   2.352 -20.130  1.00  0.00     0.159 C 
ATOM     10  O   UNL     1     -14.833   2.048 -19.220  1.00  0.00    -0.295 OA
ATOM     11  C   UNL     1     -15.935   3.803 -20.385  1.00  0.00     0.084 C 
ENDROOT
TORSDOF 0
ENDMDL
MODEL 3
REMARK VINA RESULT:    -4.377      1.642      4.661
REMARK INTER + INTRA:          -4.377
REMARK INTER:                  -4.377
REMARK INTRA:                   0.000
REMARK UNBOUND:                 0.000
REMARK SMILES CC(C)=C1CC[C@@H](C)CC1=O
REMARK SMILES IDX 8 1 7 2 6 3 5 4 4 5 2 6 1 7 3 8 10 9 11 10 9 11
REMARK H PARENT
REMARK Flexibility Score: inf
ROOT
ATOM      1  C   UNL     1     -10.947   4.367 -14.578  1.00  0.00     0.008 C 
ATOM      2  C   UNL     1     -11.645   3.560 -13.477  1.00  0.00    -0.006 C 
ATOM      3  C   UNL     1     -11.203   2.089 -13.520  1.00  0.00     0.008 C 
ATOM      4  C   UNL     1     -11.814   1.289 -12.362  1.00  0.00     0.039 C 
ATOM      5  C   UNL     1     -13.325   1.442 -12.279  1.00  0.00    -0.006 C 
ATOM      6  C   UNL     1     -14.119   0.429 -11.825  1.00  0.00    -0.070 C 
ATOM      7  C   UNL     1     -15.624   0.549 -11.791  1.00  0.00     0.039 C 
ATOM      8  C   UNL     1     -13.526  -0.885 -11.365  1.00  0.00     0.039 C 
ATOM      9  C   UNL     1     -13.866   2.795 -12.612  1.00  0.00     0.159 C 
ATOM     10  O   UNL     1     -14.903   3.242 -12.052  1.00  0.00    -0.295 OA
ATOM     11  C   UNL     1     -13.170   3.654 -13.626  1.00  0.00     0.084 C 
ENDROOT
TORSDOF 0
ENDMDL
MODEL 4
REMARK VINA RESULT:    -4.175      4.471      6.719
REMARK INTER + INTRA:          -4.175
REMARK INTER:                  -4.175
REMARK INTRA:                   0.000
REMARK UNBOUND:                 0.000
REMARK SMILES CC(C)=C1CC[C@@H](C)CC1=O
REMARK SMILES IDX 8 1 7 2 6 3 5 4 4 5 2 6 1 7 3 8 10 9 11 10 9 11
REMARK H PARENT
REMARK Flexibility Score: inf
ROOT
ATOM      1  C   UNL     1     -12.810   5.250 -14.479  1.00  0.00     0.008 C 
ATOM      2  C   UNL     1     -13.399   6.650 -14.687  1.00  0.00    -0.006 C 
ATOM      3  C   UNL     1     -13.821   6.849 -16.151  1.00  0.00     0.008 C 
ATOM      4  C   UNL     1     -14.506   8.206 -16.355  1.00  0.00     0.039 C 
ATOM      5  C   UNL     1     -13.675   9.365 -15.824  1.00  0.00    -0.006 C 
ATOM      6  C   UNL     1     -13.718  10.598 -16.410  1.00  0.00    -0.070 C 
ATOM      7  C   UNL     1     -12.856  11.740 -15.928  1.00  0.00     0.039 C 
ATOM      8  C   UNL     1     -14.609  10.868 -17.602  1.00  0.00     0.039 C 
ATOM      9  C   UNL     1     -12.910   9.103 -14.568  1.00  0.00     0.159 C 
ATOM     10  O   UNL     1     -12.698  10.017 -13.727  1.00  0.00    -0.295 OA
ATOM     11  C   UNL     1     -12.382   7.727 -14.283  1.00  0.00     0.084 C 
ENDROOT
TORSDOF 0
ENDMDL
MODEL 5
REMARK VINA RESULT:    -4.173      9.172     11.567
REMARK INTER + INTRA:          -4.173
REMARK INTER:                  -4.173
REMARK INTRA:                   0.000
REMARK UNBOUND:                 0.000
REMARK SMILES CC(C)=C1CC[C@@H](C)CC1=O
REMARK SMILES IDX 8 1 7 2 6 3 5 4 4 5 2 6 1 7 3 8 10 9 11 10 9 11
REMARK H PARENT
REMARK Flexibility Score: inf
ROOT
ATOM      1  C   UNL     1     -14.760  16.129 -13.601  1.00  0.00     0.008 C 
ATOM      2  C   UNL     1     -14.130  15.076 -14.520  1.00  0.00    -0.006 C 
ATOM      3  C   UNL     1     -14.455  15.376 -15.992  1.00  0.00     0.008 C 
ATOM      4  C   UNL     1     -13.747  14.391 -16.930  1.00  0.00     0.039 C 
ATOM      5  C   UNL     1     -14.009  12.938 -16.559  1.00  0.00    -0.006 C 
ATOM      6  C   UNL     1     -14.059  11.960 -17.510  1.00  0.00    -0.070 C 
ATOM      7  C   UNL     1     -14.374  10.524 -17.159  1.00  0.00     0.039 C 
ATOM      8  C   UNL     1     -13.836  12.275 -18.972  1.00  0.00     0.039 C 
ATOM      9  C   UNL     1     -14.091  12.640 -15.097  1.00  0.00     0.159 C 
ATOM     10  O   UNL     1     -13.710  11.532 -14.633  1.00  0.00    -0.295 OA
ATOM     11  C   UNL     1     -14.627  13.671 -14.148  1.00  0.00     0.084 C 
ENDROOT
TORSDOF 0
ENDMDL
MODEL 6
REMARK VINA RESULT:    -4.093      8.449     10.537
REMARK INTER + INTRA:          -4.093
REMARK INTER:                  -4.093
REMARK INTRA:                   0.000
REMARK UNBOUND:                 0.000
REMARK SMILES CC(C)=C1CC[C@@H](C)CC1=O
REMARK SMILES IDX 8 1 7 2 6 3 5 4 4 5 2 6 1 7 3 8 10 9 11 10 9 11
REMARK H PARENT
REMARK Flexibility Score: inf
ROOT
ATOM      1  C   UNL     1      -8.338  14.419  -8.523  1.00  0.00     0.008 C 
ATOM      2  C   UNL     1      -8.535  13.322  -9.575  1.00  0.00    -0.006 C 
ATOM      3  C   UNL     1      -9.996  13.281 -10.050  1.00  0.00     0.008 C 
ATOM      4  C   UNL     1     -10.187  12.258 -11.177  1.00  0.00     0.039 C 
ATOM      5  C   UNL     1      -9.652  10.880 -10.813  1.00  0.00    -0.006 C 
ATOM      6  C   UNL     1     -10.230   9.743 -11.298  1.00  0.00    -0.070 C 
ATOM      7  C   UNL     1      -9.743   8.369 -10.900  1.00  0.00     0.039 C 
ATOM      8  C   UNL     1     -11.416   9.804 -12.235  1.00  0.00     0.039 C 
ATOM      9  C   UNL     1      -8.401  10.858  -9.996  1.00  0.00     0.159 C 
ATOM     10  O   UNL     1      -7.555   9.932 -10.121  1.00  0.00    -0.295 OA
ATOM     11  C   UNL     1      -8.128  11.954  -9.009  1.00  0.00     0.084 C 
ENDROOT
TORSDOF 0
ENDMDL
MODEL 7
REMARK VINA RESULT:    -4.087     15.581     16.734
REMARK INTER + INTRA:          -4.087
REMARK INTER:                  -4.087
REMARK INTRA:                   0.000
REMARK UNBOUND:                 0.000
REMARK SMILES CC(C)=C1CC[C@@H](C)CC1=O
REMARK SMILES IDX 8 1 7 2 6 3 5 4 4 5 2 6 1 7 3 8 10 9 11 10 9 11
REMARK H PARENT
REMARK Flexibility Score: inf
ROOT
ATOM      1  C   UNL     1      -7.001   7.599 -26.244  1.00  0.00     0.008 C 
ATOM      2  C   UNL     1      -6.231   8.923 -26.164  1.00  0.00    -0.006 C 
ATOM      3  C   UNL     1      -4.764   8.674 -25.781  1.00  0.00     0.008 C 
ATOM      4  C   UNL     1      -3.955   9.977 -25.796  1.00  0.00     0.039 C 
ATOM      5  C   UNL     1      -4.599  11.074 -24.961  1.00  0.00    -0.006 C 
ATOM      6  C   UNL     1      -3.844  12.011 -24.316  1.00  0.00    -0.070 C 
ATOM      7  C   UNL     1      -4.469  13.071 -23.439  1.00  0.00     0.039 C 
ATOM      8  C   UNL     1      -2.336  12.009 -24.419  1.00  0.00     0.039 C 
ATOM      9  C   UNL     1      -6.092  11.129 -24.988  1.00  0.00     0.159 C 
ATOM     10  O   UNL     1      -6.709  12.223 -24.888  1.00  0.00    -0.295 OA
ATOM     11  C   UNL     1      -6.887   9.866 -25.146  1.00  0.00     0.084 C 
ENDROOT
TORSDOF 0
ENDMDL
MODEL 8
REMARK VINA RESULT:    -4.065     12.519     14.985
REMARK INTER + INTRA:          -4.065
REMARK INTER:                  -4.065
REMARK INTRA:                   0.000
REMARK UNBOUND:                 0.000
REMARK SMILES CC(C)=C1CC[C@@H](C)CC1=O
REMARK SMILES IDX 8 1 7 2 6 3 5 4 4 5 2 6 1 7 3 8 10 9 11 10 9 11
REMARK H PARENT
REMARK Flexibility Score: inf
ROOT
ATOM      1  C   UNL     1      -0.421  14.702 -11.647  1.00  0.00     0.008 C 
ATOM      2  C   UNL     1      -1.172  13.420 -12.024  1.00  0.00    -0.006 C 
ATOM      3  C   UNL     1      -2.095  12.975 -10.878  1.00  0.00     0.008 C 
ATOM      4  C   UNL     1      -2.930  11.753 -11.278  1.00  0.00     0.039 C 
ATOM      5  C   UNL     1      -2.077  10.613 -11.817  1.00  0.00    -0.006 C 
ATOM      6  C   UNL     1      -2.436   9.309 -11.633  1.00  0.00    -0.070 C 
ATOM      7  C   UNL     1      -1.569   8.169 -12.114  1.00  0.00     0.039 C 
ATOM      8  C   UNL     1      -3.708   8.941 -10.902  1.00  0.00     0.039 C 
ATOM      9  C   UNL     1      -0.901  11.011 -12.648  1.00  0.00     0.159 C 
ATOM     10  O   UNL     1      -0.495  10.287 -13.597  1.00  0.00    -0.295 OA
ATOM     11  C   UNL     1      -0.182  12.298 -12.367  1.00  0.00     0.084 C 
ENDROOT
TORSDOF 0
ENDMDL
MODEL 9
REMARK VINA RESULT:    -4.052      7.711      9.909
REMARK INTER + INTRA:          -4.052
REMARK INTER:                  -4.052
REMARK INTRA:                   0.000
REMARK UNBOUND:                 0.000
REMARK SMILES CC(C)=C1CC[C@@H](C)CC1=O
REMARK SMILES IDX 8 1 7 2 6 3 5 4 4 5 2 6 1 7 3 8 10 9 11 10 9 11
REMARK H PARENT
REMARK Flexibility Score: inf
ROOT
ATOM      1  C   UNL     1      -3.169   9.154 -12.101  1.00  0.00     0.008 C 
ATOM      2  C   UNL     1      -4.425   8.739 -11.326  1.00  0.00    -0.006 C 
ATOM      3  C   UNL     1      -5.074   7.503 -11.967  1.00  0.00     0.008 C 
ATOM      4  C   UNL     1      -6.273   7.013 -11.145  1.00  0.00     0.039 C 
ATOM      5  C   UNL     1      -7.278   8.120 -10.861  1.00  0.00    -0.006 C 
ATOM      6  C   UNL     1      -8.613   7.856 -10.749  1.00  0.00    -0.070 C 
ATOM      7  C   UNL     1      -9.626   8.954 -10.524  1.00  0.00     0.039 C 
ATOM      8  C   UNL     1      -9.147   6.448 -10.883  1.00  0.00     0.039 C 
ATOM      9  C   UNL     1      -6.706   9.475 -10.601  1.00  0.00     0.159 C 
ATOM     10  O   UNL     1      -7.267  10.283  -9.814  1.00  0.00    -0.295 OA
ATOM     11  C   UNL     1      -5.433   9.896 -11.276  1.00  0.00     0.084 C 
ENDROOT
TORSDOF 0
ENDMDL
