MODEL 1
REMARK VINA RESULT:    -4.128      0.000      0.000
REMARK INTER + INTRA:          -6.985
REMARK INTER:                  -5.938
REMARK INTRA:                  -1.048
REMARK UNBOUND:                -1.048
REMARK SMILES O=C(CO)[C@H](O)[C@H](O)[C@H](O)CO
REMARK SMILES IDX 7 1 9 2 11 3 12 4 10 6 5 8 2 9 1 10 3 11 4 12 6 14 8 16
REMARK H PARENT 12 5 10 7 4 13 6 15 8 17
REMARK Flexibility Score: inf
ROOT
ATOM      1  C   UNL     1      47.704   7.551 112.444  1.00  0.00     0.181 C 
ENDROOT
BRANCH   1   2
ATOM      2  C   UNL     1      48.345   6.205 111.986  1.00  0.00     0.171 C 
BRANCH   2   3
ATOM      3  C   UNL     1      49.462   6.330 110.930  1.00  0.00     0.190 C 
BRANCH   3   4
ATOM      4  O   UNL     1      48.941   6.509 109.639  1.00  0.00    -0.394 OA
ATOM      5  H   UNL     1      49.447   5.905 109.035  1.00  0.00     0.210 HD
ENDBRANCH   3   4
ENDBRANCH   2   3
BRANCH   2   6
ATOM      6  O   UNL     1      48.746   5.410 113.075  1.00  0.00    -0.388 OA
ATOM      7  H   UNL     1      48.110   4.655 113.160  1.00  0.00     0.211 HD
ENDBRANCH   2   6
ENDBRANCH   1   2
BRANCH   1   8
ATOM      8  C   UNL     1      46.459   7.411 113.359  1.00  0.00     0.214 C 
BRANCH   8   9
ATOM      9  C   UNL     1      46.717   8.053 114.712  1.00  0.00     0.189 C 
ATOM     10  O   UNL     1      45.833   8.726 115.222  1.00  0.00    -0.294 OA
BRANCH   9  11
ATOM     11  C   UNL     1      48.017   7.898 115.466  1.00  0.00     0.234 C 
BRANCH  11  12
ATOM     12  O   UNL     1      48.288   6.564 115.801  1.00  0.00    -0.388 OA
ATOM     13  H   UNL     1      49.052   6.280 115.235  1.00  0.00     0.211 HD
ENDBRANCH  11  12
ENDBRANCH   9  11
ENDBRANCH   8   9
BRANCH   8  14
ATOM     14  O   UNL     1      46.170   6.052 113.564  1.00  0.00    -0.382 OA
ATOM     15  H   UNL     1      45.296   6.012 114.034  1.00  0.00     0.211 HD
ENDBRANCH   8  14
ENDBRANCH   1   8
BRANCH   1  16
ATOM     16  O   UNL     1      47.359   8.295 111.302  1.00  0.00    -0.387 OA
ATOM     17  H   UNL     1      48.027   8.079 110.599  1.00  0.00     0.211 HD
ENDBRANCH   1  16
TORSDOF 10
ENDMDL
MODEL 2
REMARK VINA RESULT:    -4.048      2.703      4.039
REMARK INTER + INTRA:          -6.870
REMARK INTER:                  -5.957
REMARK INTRA:                  -0.913
REMARK UNBOUND:                -1.048
REMARK SMILES O=C(CO)[C@H](O)[C@H](O)[C@H](O)CO
REMARK SMILES IDX 7 1 9 2 11 3 12 4 10 6 5 8 2 9 1 10 3 11 4 12 6 14 8 16
REMARK H PARENT 12 5 10 7 4 13 6 15 8 17
REMARK Flexibility Score: inf
ROOT
ATOM      1  C   UNL     1      45.202   8.027 114.994  1.00  0.00     0.181 C 
ENDROOT
BRANCH   1   2
ATOM      2  C   UNL     1      45.393   7.093 113.760  1.00  0.00     0.171 C 
BRANCH   2   3
ATOM      3  C   UNL     1      46.794   7.127 113.115  1.00  0.00     0.190 C 
BRANCH   3   4
ATOM      4  O   UNL     1      46.891   8.124 112.132  1.00  0.00    -0.394 OA
ATOM      5  H   UNL     1      47.519   7.788 111.440  1.00  0.00     0.210 HD
ENDBRANCH   3   4
ENDBRANCH   2   3
BRANCH   2   6
ATOM      6  O   UNL     1      44.972   5.776 114.020  1.00  0.00    -0.388 OA
ATOM      7  H   UNL     1      45.724   5.286 114.440  1.00  0.00     0.211 HD
ENDBRANCH   2   6
ENDBRANCH   1   2
BRANCH   1   8
ATOM      8  C   UNL     1      43.748   8.511 115.236  1.00  0.00     0.214 C 
BRANCH   8   9
ATOM      9  C   UNL     1      43.701   9.499 116.390  1.00  0.00     0.189 C 
ATOM     10  O   UNL     1      43.524  10.682 116.144  1.00  0.00    -0.294 OA
BRANCH   9  11
ATOM     11  C   UNL     1      43.859   9.089 117.835  1.00  0.00     0.234 C 
BRANCH  11  12
ATOM     12  O   UNL     1      42.893   8.155 118.238  1.00  0.00    -0.388 OA
ATOM     13  H   UNL     1      42.161   8.201 117.569  1.00  0.00     0.211 HD
ENDBRANCH  11  12
ENDBRANCH   9  11
ENDBRANCH   8   9
BRANCH   8  14
ATOM     14  O   UNL     1      42.930   7.417 115.559  1.00  0.00    -0.382 OA
ATOM     15  H   UNL     1      42.006   7.660 115.290  1.00  0.00     0.211 HD
ENDBRANCH   8  14
ENDBRANCH   1   8
BRANCH   1  16
ATOM     16  O   UNL     1      46.044   9.143 114.846  1.00  0.00    -0.387 OA
ATOM     17  H   UNL     1      46.881   8.946 115.344  1.00  0.00     0.211 HD
ENDBRANCH   1  16
TORSDOF 10
ENDMDL
MODEL 3
REMARK VINA RESULT:    -4.038      1.293      4.060
REMARK INTER + INTRA:          -6.857
REMARK INTER:                  -5.782
REMARK INTRA:                  -1.074
REMARK UNBOUND:                -1.048
REMARK SMILES O=C(CO)[C@H](O)[C@H](O)[C@H](O)CO
REMARK SMILES IDX 7 1 9 2 11 3 12 4 10 6 5 8 2 9 1 10 3 11 4 12 6 14 8 16
REMARK H PARENT 12 5 10 7 4 13 6 15 8 17
REMARK Flexibility Score: inf
ROOT
ATOM      1  C   UNL     1      47.081   7.347 112.428  1.00  0.00     0.181 C 
ENDROOT
BRANCH   1   2
ATOM      2  C   UNL     1      46.259   7.928 113.618  1.00  0.00     0.171 C 
BRANCH   2   3
ATOM      3  C   UNL     1      45.204   6.977 114.220  1.00  0.00     0.190 C 
BRANCH   3   4
ATOM      4  O   UNL     1      45.393   5.653 113.795  1.00  0.00    -0.394 OA
ATOM      5  H   UNL     1      45.479   5.675 112.807  1.00  0.00     0.210 HD
ENDBRANCH   3   4
ENDBRANCH   2   3
BRANCH   2   6
ATOM      6  O   UNL     1      47.084   8.486 114.612  1.00  0.00    -0.388 OA
ATOM      7  H   UNL     1      47.098   7.870 115.387  1.00  0.00     0.211 HD
ENDBRANCH   2   6
ENDBRANCH   1   2
BRANCH   1   8
ATOM      8  C   UNL     1      48.473   6.774 112.805  1.00  0.00     0.214 C 
BRANCH   8   9
ATOM      9  C   UNL     1      48.899   5.709 111.809  1.00  0.00     0.189 C 
ATOM     10  O   UNL     1      49.351   6.061 110.730  1.00  0.00    -0.294 OA
BRANCH   9  11
ATOM     11  C   UNL     1      48.794   4.228 112.087  1.00  0.00     0.234 C 
BRANCH  11  12
ATOM     12  O   UNL     1      47.510   3.849 112.505  1.00  0.00    -0.388 OA
ATOM     13  H   UNL     1      47.233   3.097 111.919  1.00  0.00     0.211 HD
ENDBRANCH  11  12
ENDBRANCH   9  11
ENDBRANCH   8   9
BRANCH   8  14
ATOM     14  O   UNL     1      48.416   6.187 114.080  1.00  0.00    -0.382 OA
ATOM     15  H   UNL     1      47.673   6.631 114.568  1.00  0.00     0.211 HD
ENDBRANCH   8  14
ENDBRANCH   1   8
BRANCH   1  16
ATOM     16  O   UNL     1      47.241   8.353 111.459  1.00  0.00    -0.387 OA
ATOM     17  H   UNL     1      48.157   8.721 111.568  1.00  0.00     0.211 HD
ENDBRANCH   1  16
TORSDOF 10
ENDMDL
MODEL 4
REMARK VINA RESULT:    -4.002      6.065      8.271
REMARK INTER + INTRA:          -6.805
REMARK INTER:                  -5.815
REMARK INTRA:                  -0.989
REMARK UNBOUND:                -1.048
REMARK SMILES O=C(CO)[C@H](O)[C@H](O)[C@H](O)CO
REMARK SMILES IDX 7 1 9 2 11 3 12 4 10 6 5 8 2 9 1 10 3 11 4 12 6 14 8 16
REMARK H PARENT 12 5 10 7 4 13 6 15 8 17
REMARK Flexibility Score: inf
ROOT
ATOM      1  C   UNL     1      43.019   9.444 118.801  1.00  0.00     0.181 C 
ENDROOT
BRANCH   1   2
ATOM      2  C   UNL     1      44.011   9.427 117.598  1.00  0.00     0.171 C 
BRANCH   2   3
ATOM      3  C   UNL     1      44.043   8.115 116.786  1.00  0.00     0.190 C 
BRANCH   3   4
ATOM      4  O   UNL     1      42.754   7.698 116.419  1.00  0.00    -0.394 OA
ATOM      5  H   UNL     1      42.668   7.849 115.442  1.00  0.00     0.210 HD
ENDBRANCH   3   4
ENDBRANCH   2   3
BRANCH   2   6
ATOM      6  O   UNL     1      43.856  10.551 116.766  1.00  0.00    -0.388 OA
ATOM      7  H   UNL     1      43.462  11.283 117.302  1.00  0.00     0.211 HD
ENDBRANCH   2   6
ENDBRANCH   1   2
BRANCH   1   8
ATOM      8  C   UNL     1      43.496  10.251 120.038  1.00  0.00     0.214 C 
BRANCH   8   9
ATOM      9  C   UNL     1      42.492  11.338 120.384  1.00  0.00     0.189 C 
ATOM     10  O   UNL     1      41.539  11.052 121.094  1.00  0.00    -0.294 OA
BRANCH   9  11
ATOM     11  C   UNL     1      42.614  12.762 119.897  1.00  0.00     0.234 C 
BRANCH  11  12
ATOM     12  O   UNL     1      42.715  12.845 118.501  1.00  0.00    -0.388 OA
ATOM     13  H   UNL     1      42.617  11.920 118.155  1.00  0.00     0.211 HD
ENDBRANCH  11  12
ENDBRANCH   9  11
ENDBRANCH   8   9
BRANCH   8  14
ATOM     14  O   UNL     1      44.729  10.863 119.759  1.00  0.00    -0.382 OA
ATOM     15  H   UNL     1      45.435  10.267 120.122  1.00  0.00     0.211 HD
ENDBRANCH   8  14
ENDBRANCH   1   8
BRANCH   1  16
ATOM     16  O   UNL     1      42.757   8.118 119.186  1.00  0.00    -0.387 OA
ATOM     17  H   UNL     1      42.062   8.150 119.895  1.00  0.00     0.211 HD
ENDBRANCH   1  16
TORSDOF 10
ENDMDL
MODEL 5
REMARK VINA RESULT:    -3.955      4.224      6.627
REMARK INTER + INTRA:          -6.737
REMARK INTER:                  -5.738
REMARK INTRA:                  -0.999
REMARK UNBOUND:                -1.048
REMARK SMILES O=C(CO)[C@H](O)[C@H](O)[C@H](O)CO
REMARK SMILES IDX 7 1 9 2 11 3 12 4 10 6 5 8 2 9 1 10 3 11 4 12 6 14 8 16
REMARK H PARENT 12 5 10 7 4 13 6 15 8 17
REMARK Flexibility Score: inf
ROOT
ATOM      1  C   UNL     1      44.058   7.686 116.297  1.00  0.00     0.181 C 
ENDROOT
BRANCH   1   2
ATOM      2  C   UNL     1      44.432   8.118 117.748  1.00  0.00     0.171 C 
BRANCH   2   3
ATOM      3  C   UNL     1      43.369   8.961 118.482  1.00  0.00     0.190 C 
BRANCH   3   4
ATOM      4  O   UNL     1      42.413   8.155 119.120  1.00  0.00    -0.394 OA
ATOM      5  H   UNL     1      42.210   7.403 118.504  1.00  0.00     0.210 HD
ENDBRANCH   3   4
ENDBRANCH   2   3
BRANCH   2   6
ATOM      6  O   UNL     1      44.865   7.031 118.530  1.00  0.00    -0.388 OA
ATOM      7  H   UNL     1      44.071   6.503 118.796  1.00  0.00     0.211 HD
ENDBRANCH   2   6
ENDBRANCH   1   2
BRANCH   1   8
ATOM      8  C   UNL     1      44.616   8.598 115.173  1.00  0.00     0.214 C 
BRANCH   8   9
ATOM      9  C   UNL     1      43.560   9.593 114.721  1.00  0.00     0.189 C 
ATOM     10  O   UNL     1      43.282  10.529 115.454  1.00  0.00    -0.294 OA
BRANCH   9  11
ATOM     11  C   UNL     1      42.835   9.485 113.400  1.00  0.00     0.234 C 
BRANCH  11  12
ATOM     12  O   UNL     1      42.081   8.307 113.297  1.00  0.00    -0.388 OA
ATOM     13  H   UNL     1      42.321   7.748 114.082  1.00  0.00     0.211 HD
ENDBRANCH  11  12
ENDBRANCH   9  11
ENDBRANCH   8   9
BRANCH   8  14
ATOM     14  O   UNL     1      44.988   7.816 114.067  1.00  0.00    -0.382 OA
ATOM     15  H   UNL     1      44.285   7.942 113.377  1.00  0.00     0.211 HD
ENDBRANCH   8  14
ENDBRANCH   1   8
BRANCH   1  16
ATOM     16  O   UNL     1      42.657   7.627 116.194  1.00  0.00    -0.387 OA
ATOM     17  H   UNL     1      42.332   7.057 116.940  1.00  0.00     0.211 HD
ENDBRANCH   1  16
TORSDOF 10
ENDMDL
MODEL 6
REMARK VINA RESULT:    -3.908      5.350      8.432
REMARK INTER + INTRA:          -6.669
REMARK INTER:                  -5.757
REMARK INTRA:                  -0.912
REMARK UNBOUND:                -1.048
REMARK SMILES O=C(CO)[C@H](O)[C@H](O)[C@H](O)CO
REMARK SMILES IDX 7 1 9 2 11 3 12 4 10 6 5 8 2 9 1 10 3 11 4 12 6 14 8 16
REMARK H PARENT 12 5 10 7 4 13 6 15 8 17
REMARK Flexibility Score: inf
ROOT
ATOM      1  C   UNL     1      43.435   9.103 118.922  1.00  0.00     0.181 C 
ENDROOT
BRANCH   1   2
ATOM      2  C   UNL     1      42.629  10.298 119.516  1.00  0.00     0.171 C 
BRANCH   2   3
ATOM      3  C   UNL     1      41.882  10.003 120.833  1.00  0.00     0.190 C 
BRANCH   3   4
ATOM      4  O   UNL     1      40.781   9.157 120.630  1.00  0.00    -0.394 OA
ATOM      5  H   UNL     1      40.036   9.725 120.302  1.00  0.00     0.210 HD
ENDBRANCH   3   4
ENDBRANCH   2   3
BRANCH   2   6
ATOM      6  O   UNL     1      43.405  11.468 119.609  1.00  0.00    -0.388 OA
ATOM      7  H   UNL     1      44.017  11.499 118.831  1.00  0.00     0.211 HD
ENDBRANCH   2   6
ENDBRANCH   1   2
BRANCH   1   8
ATOM      8  C   UNL     1      44.022   9.342 117.506  1.00  0.00     0.214 C 
BRANCH   8   9
ATOM      9  C   UNL     1      44.351   8.018 116.835  1.00  0.00     0.189 C 
ATOM     10  O   UNL     1      45.220   7.312 117.323  1.00  0.00    -0.294 OA
BRANCH   9  11
ATOM     11  C   UNL     1      43.651   7.526 115.590  1.00  0.00     0.234 C 
BRANCH  11  12
ATOM     12  O   UNL     1      42.306   7.202 115.823  1.00  0.00    -0.388 OA
ATOM     13  H   UNL     1      41.805   7.475 115.010  1.00  0.00     0.211 HD
ENDBRANCH  11  12
ENDBRANCH   9  11
ENDBRANCH   8   9
BRANCH   8  14
ATOM     14  O   UNL     1      45.205  10.092 117.602  1.00  0.00    -0.382 OA
ATOM     15  H   UNL     1      45.165  10.583 118.464  1.00  0.00     0.211 HD
ENDBRANCH   8  14
ENDBRANCH   1   8
BRANCH   1  16
ATOM     16  O   UNL     1      42.603   7.970 118.894  1.00  0.00    -0.387 OA
ATOM     17  H   UNL     1      42.900   7.408 118.131  1.00  0.00     0.211 HD
ENDBRANCH   1  16
TORSDOF 10
ENDMDL
MODEL 7
REMARK VINA RESULT:    -3.908      3.716      5.352
REMARK INTER + INTRA:          -6.669
REMARK INTER:                  -5.433
REMARK INTRA:                  -1.235
REMARK UNBOUND:                -1.048
REMARK SMILES O=C(CO)[C@H](O)[C@H](O)[C@H](O)CO
REMARK SMILES IDX 7 1 9 2 11 3 12 4 10 6 5 8 2 9 1 10 3 11 4 12 6 14 8 16
REMARK H PARENT 12 5 10 7 4 13 6 15 8 17
REMARK Flexibility Score: inf
ROOT
ATOM      1  C   UNL     1      43.622   8.915 115.295  1.00  0.00     0.181 C 
ENDROOT
BRANCH   1   2
ATOM      2  C   UNL     1      44.472   8.501 114.055  1.00  0.00     0.171 C 
BRANCH   2   3
ATOM      3  C   UNL     1      44.710   6.985 113.893  1.00  0.00     0.190 C 
BRANCH   3   4
ATOM      4  O   UNL     1      45.629   6.498 114.835  1.00  0.00    -0.394 OA
ATOM      5  H   UNL     1      46.417   7.101 114.810  1.00  0.00     0.210 HD
ENDBRANCH   3   4
ENDBRANCH   2   3
BRANCH   2   6
ATOM      6  O   UNL     1      43.996   9.083 112.866  1.00  0.00    -0.388 OA
ATOM      7  H   UNL     1      44.663   8.922 112.152  1.00  0.00     0.211 HD
ENDBRANCH   2   6
ENDBRANCH   1   2
BRANCH   1   8
ATOM      8  C   UNL     1      44.421   9.561 116.457  1.00  0.00     0.214 C 
BRANCH   8   9
ATOM      9  C   UNL     1      44.703   8.537 117.544  1.00  0.00     0.189 C 
ATOM     10  O   UNL     1      45.519   7.655 117.323  1.00  0.00    -0.294 OA
BRANCH   9  11
ATOM     11  C   UNL     1      44.025   8.557 118.893  1.00  0.00     0.234 C 
BRANCH  11  12
ATOM     12  O   UNL     1      42.665   8.223 118.816  1.00  0.00    -0.388 OA
ATOM     13  H   UNL     1      42.159   9.066 118.952  1.00  0.00     0.211 HD
ENDBRANCH  11  12
ENDBRANCH   9  11
ENDBRANCH   8   9
BRANCH   8  14
ATOM     14  O   UNL     1      43.676  10.609 117.021  1.00  0.00    -0.382 OA
ATOM     15  H   UNL     1      44.230  11.430 116.943  1.00  0.00     0.211 HD
ENDBRANCH   8  14
ENDBRANCH   1   8
BRANCH   1  16
ATOM     16  O   UNL     1      42.944   7.780 115.773  1.00  0.00    -0.387 OA
ATOM     17  H   UNL     1      43.600   7.245 116.293  1.00  0.00     0.211 HD
ENDBRANCH   1  16
TORSDOF 10
ENDMDL
MODEL 8
REMARK VINA RESULT:    -3.900      3.137      6.030
REMARK INTER + INTRA:          -6.658
REMARK INTER:                  -5.371
REMARK INTRA:                  -1.287
REMARK UNBOUND:                -1.048
REMARK SMILES O=C(CO)[C@H](O)[C@H](O)[C@H](O)CO
REMARK SMILES IDX 7 1 9 2 11 3 12 4 10 6 5 8 2 9 1 10 3 11 4 12 6 14 8 16
REMARK H PARENT 12 5 10 7 4 13 6 15 8 17
REMARK Flexibility Score: inf
ROOT
ATOM      1  C   UNL     1      45.023   7.605 117.271  1.00  0.00     0.181 C 
ENDROOT
BRANCH   1   2
ATOM      2  C   UNL     1      44.833   8.641 118.421  1.00  0.00     0.171 C 
BRANCH   2   3
ATOM      3  C   UNL     1      43.634   9.597 118.259  1.00  0.00     0.190 C 
BRANCH   3   4
ATOM      4  O   UNL     1      43.795  10.454 117.160  1.00  0.00    -0.394 OA
ATOM      5  H   UNL     1      44.639  10.956 117.305  1.00  0.00     0.210 HD
ENDBRANCH   3   4
ENDBRANCH   2   3
BRANCH   2   6
ATOM      6  O   UNL     1      44.847   8.033 119.690  1.00  0.00    -0.388 OA
ATOM      7  H   UNL     1      44.368   7.168 119.626  1.00  0.00     0.211 HD
ENDBRANCH   2   6
ENDBRANCH   1   2
BRANCH   1   8
ATOM      8  C   UNL     1      46.147   7.945 116.256  1.00  0.00     0.214 C 
BRANCH   8   9
ATOM      9  C   UNL     1      45.555   8.273 114.896  1.00  0.00     0.189 C 
ATOM     10  O   UNL     1      45.000   9.351 114.741  1.00  0.00    -0.294 OA
BRANCH   9  11
ATOM     11  C   UNL     1      45.620   7.331 113.717  1.00  0.00     0.234 C 
BRANCH  11  12
ATOM     12  O   UNL     1      45.081   6.070 114.007  1.00  0.00    -0.388 OA
ATOM     13  H   UNL     1      45.768   5.402 113.745  1.00  0.00     0.211 HD
ENDBRANCH  11  12
ENDBRANCH   9  11
ENDBRANCH   8   9
BRANCH   8  14
ATOM     14  O   UNL     1      47.004   6.842 116.109  1.00  0.00    -0.382 OA
ATOM     15  H   UNL     1      46.439   6.075 115.827  1.00  0.00     0.211 HD
ENDBRANCH   8  14
ENDBRANCH   1   8
BRANCH   1  16
ATOM     16  O   UNL     1      43.804   7.469 116.584  1.00  0.00    -0.387 OA
ATOM     17  H   UNL     1      43.949   6.807 115.858  1.00  0.00     0.211 HD
ENDBRANCH   1  16
TORSDOF 10
ENDMDL
MODEL 9
REMARK VINA RESULT:    -3.893      3.809      6.895
REMARK INTER + INTRA:          -6.648
REMARK INTER:                  -5.754
REMARK INTRA:                  -0.893
REMARK UNBOUND:                -1.048
REMARK SMILES O=C(CO)[C@H](O)[C@H](O)[C@H](O)CO
REMARK SMILES IDX 7 1 9 2 11 3 12 4 10 6 5 8 2 9 1 10 3 11 4 12 6 14 8 16
REMARK H PARENT 12 5 10 7 4 13 6 15 8 17
REMARK Flexibility Score: inf
ROOT
ATOM      1  C   UNL     1      43.764   9.397 117.049  1.00  0.00     0.181 C 
ENDROOT
BRANCH   1   2
ATOM      2  C   UNL     1      43.556   9.184 118.580  1.00  0.00     0.171 C 
BRANCH   2   3
ATOM      3  C   UNL     1      43.306  10.468 119.398  1.00  0.00     0.190 C 
BRANCH   3   4
ATOM      4  O   UNL     1      43.033  11.568 118.570  1.00  0.00    -0.394 OA
ATOM      5  H   UNL     1      42.046  11.632 118.488  1.00  0.00     0.210 HD
ENDBRANCH   3   4
ENDBRANCH   2   3
BRANCH   2   6
ATOM      6  O   UNL     1      42.592   8.197 118.853  1.00  0.00    -0.388 OA
ATOM      7  H   UNL     1      41.910   8.222 118.135  1.00  0.00     0.211 HD
ENDBRANCH   2   6
ENDBRANCH   1   2
BRANCH   1   8
ATOM      8  C   UNL     1      43.953   8.098 116.223  1.00  0.00     0.214 C 
BRANCH   8   9
ATOM      9  C   UNL     1      44.429   8.425 114.817  1.00  0.00     0.189 C 
ATOM     10  O   UNL     1      44.127   9.504 114.331  1.00  0.00    -0.294 OA
BRANCH   9  11
ATOM     11  C   UNL     1      45.266   7.480 113.987  1.00  0.00     0.234 C 
BRANCH  11  12
ATOM     12  O   UNL     1      44.993   6.133 114.268  1.00  0.00    -0.388 OA
ATOM     13  H   UNL     1      44.052   6.096 114.584  1.00  0.00     0.211 HD
ENDBRANCH  11  12
ENDBRANCH   9  11
ENDBRANCH   8   9
BRANCH   8  14
ATOM     14  O   UNL     1      42.729   7.415 116.125  1.00  0.00    -0.382 OA
ATOM     15  H   UNL     1      42.026   8.039 116.444  1.00  0.00     0.211 HD
ENDBRANCH   8  14
ENDBRANCH   1   8
BRANCH   1  16
ATOM     16  O   UNL     1      44.879  10.233 116.860  1.00  0.00    -0.387 OA
ATOM     17  H   UNL     1      45.005  10.335 115.880  1.00  0.00     0.211 HD
ENDBRANCH   1  16
TORSDOF 10
ENDMDL
