MODEL 1
REMARK VINA RESULT:    -6.297      0.000      0.000
REMARK INTER + INTRA:          -8.028
REMARK INTER:                  -7.769
REMARK INTRA:                  -0.259
REMARK UNBOUND:                -0.259
REMARK SMILES O=c1c(O)c(-c2cc(O)c(O)c(O)c2)oc2cc(O)cc(O)c12
REMARK SMILES IDX 5 1 3 2 2 3 1 4 23 5 21 6 20 7 18 8 17 9 16 10 15 11 6 12
REMARK SMILES IDX 7 13 8 14 14 15 10 16 12 17 9 18 11 20 13 22 4 24 22 26
REMARK SMILES IDX 19 28
REMARK H PARENT 9 19 11 21 13 23 4 25 22 27 19 29
REMARK Flexibility Score: inf
ROOT
ATOM      1  C   UNL     1     163.313 157.438 163.653  1.00  0.00     0.180 A 
ATOM      2  C   UNL     1     164.126 156.875 162.654  1.00  0.00     0.208 A 
ATOM      3  C   UNL     1     163.942 155.527 162.306  1.00  0.00     0.238 A 
ATOM      4  O   UNL     1     164.622 155.050 161.361  1.00  0.00    -0.285 OA
ATOM      5  C   UNL     1     162.986 154.745 162.997  1.00  0.00     0.111 A 
ATOM      6  C   UNL     1     162.746 153.357 162.759  1.00  0.00     0.134 A 
ATOM      7  C   UNL     1     161.701 152.711 163.432  1.00  0.00     0.093 A 
ATOM      8  C   UNL     1     160.930 153.382 164.379  1.00  0.00     0.123 A 
ATOM      9  C   UNL     1     161.192 154.724 164.661  1.00  0.00     0.094 A 
ATOM     10  C   UNL     1     162.202 155.406 163.978  1.00  0.00     0.146 A 
ATOM     11  O   UNL     1     162.403 156.688 164.262  1.00  0.00    -0.452 OA
ENDROOT
BRANCH   1  12
ATOM     12  C   UNL     1     163.438 158.855 164.064  1.00  0.00     0.029 A 
ATOM     13  C   UNL     1     162.440 159.796 163.759  1.00  0.00     0.062 A 
ATOM     14  C   UNL     1     162.564 161.125 164.177  1.00  0.00     0.162 A 
ATOM     15  C   UNL     1     164.546 159.256 164.825  1.00  0.00     0.062 A 
ATOM     16  C   UNL     1     163.688 161.527 164.920  1.00  0.00     0.200 A 
ATOM     17  C   UNL     1     164.679 160.586 165.247  1.00  0.00     0.162 A 
BRANCH  14  18
ATOM     18  O   UNL     1     161.556 162.032 163.850  1.00  0.00    -0.504 OA
ATOM     19  H   UNL     1     160.697 161.743 163.398  1.00  0.00     0.293 HD
ENDBRANCH  14  18
BRANCH  16  20
ATOM     20  O   UNL     1     163.805 162.856 165.329  1.00  0.00    -0.502 OA
ATOM     21  H   UNL     1     163.104 163.308 165.904  1.00  0.00     0.293 HD
ENDBRANCH  16  20
BRANCH  17  22
ATOM     22  O   UNL     1     165.792 160.975 165.990  1.00  0.00    -0.504 OA
ATOM     23  H   UNL     1     166.097 161.941 166.024  1.00  0.00     0.293 HD
ENDBRANCH  17  22
ENDBRANCH   1  12
BRANCH   2  24
ATOM     24  O   UNL     1     165.116 157.643 162.036  1.00  0.00    -0.502 OA
ATOM     25  H   UNL     1     165.185 158.646 162.163  1.00  0.00     0.293 HD
ENDBRANCH   2  24
BRANCH   6  26
ATOM     26  O   UNL     1     163.514 152.566 161.899  1.00  0.00    -0.507 OA
ATOM     27  H   UNL     1     164.369 152.097 162.153  1.00  0.00     0.293 HD
ENDBRANCH   6  26
BRANCH   8  28
ATOM     28  O   UNL     1     159.909 152.704 165.041  1.00  0.00    -0.508 OA
ATOM     29  H   UNL     1     158.940 152.987 164.955  1.00  0.00     0.293 HD
ENDBRANCH   8  28
TORSDOF 7
ENDMDL
MODEL 2
REMARK VINA RESULT:    -6.264      0.113      1.756
REMARK INTER + INTRA:          -7.988
REMARK INTER:                  -7.777
REMARK INTRA:                  -0.211
REMARK UNBOUND:                -0.259
REMARK SMILES O=c1c(O)c(-c2cc(O)c(O)c(O)c2)oc2cc(O)cc(O)c12
REMARK SMILES IDX 5 1 3 2 2 3 1 4 23 5 21 6 20 7 18 8 17 9 16 10 15 11 6 12
REMARK SMILES IDX 7 13 8 14 14 15 10 16 12 17 9 18 11 20 13 22 4 24 22 26
REMARK SMILES IDX 19 28
REMARK H PARENT 9 19 11 21 13 23 4 25 22 27 19 29
REMARK Flexibility Score: inf
ROOT
ATOM      1  C   UNL     1     163.316 157.438 163.655  1.00  0.00     0.180 A 
ATOM      2  C   UNL     1     164.121 156.869 162.652  1.00  0.00     0.208 A 
ATOM      3  C   UNL     1     163.927 155.522 162.307  1.00  0.00     0.238 A 
ATOM      4  O   UNL     1     164.599 155.041 161.358  1.00  0.00    -0.285 OA
ATOM      5  C   UNL     1     162.972 154.745 163.006  1.00  0.00     0.111 A 
ATOM      6  C   UNL     1     162.723 153.359 162.771  1.00  0.00     0.134 A 
ATOM      7  C   UNL     1     161.679 152.719 163.451  1.00  0.00     0.093 A 
ATOM      8  C   UNL     1     160.917 153.396 164.402  1.00  0.00     0.123 A 
ATOM      9  C   UNL     1     161.187 154.736 164.680  1.00  0.00     0.094 A 
ATOM     10  C   UNL     1     162.197 155.412 163.990  1.00  0.00     0.146 A 
ATOM     11  O   UNL     1     162.406 156.694 164.271  1.00  0.00    -0.452 OA
ENDROOT
BRANCH   1  12
ATOM     12  C   UNL     1     163.451 158.855 164.064  1.00  0.00     0.029 A 
ATOM     13  C   UNL     1     164.616 159.328 164.690  1.00  0.00     0.062 A 
ATOM     14  C   UNL     1     164.736 160.675 165.048  1.00  0.00     0.162 A 
ATOM     15  C   UNL     1     162.420 159.758 163.768  1.00  0.00     0.062 A 
ATOM     16  C   UNL     1     163.690 161.572 164.769  1.00  0.00     0.200 A 
ATOM     17  C   UNL     1     162.530 161.110 164.123  1.00  0.00     0.162 A 
BRANCH  14  18
ATOM     18  O   UNL     1     165.905 161.106 165.674  1.00  0.00    -0.504 OA
ATOM     19  H   UNL     1     166.716 160.507 165.772  1.00  0.00     0.293 HD
ENDBRANCH  14  18
BRANCH  16  20
ATOM     20  O   UNL     1     163.816 162.913 165.133  1.00  0.00    -0.502 OA
ATOM     21  H   UNL     1     164.398 163.560 164.615  1.00  0.00     0.293 HD
ENDBRANCH  16  20
BRANCH  17  22
ATOM     22  O   UNL     1     161.492 161.995 163.837  1.00  0.00    -0.504 OA
ATOM     23  H   UNL     1     160.634 162.001 164.377  1.00  0.00     0.293 HD
ENDBRANCH  17  22
ENDBRANCH   1  12
BRANCH   2  24
ATOM     24  O   UNL     1     165.110 157.632 162.027  1.00  0.00    -0.502 OA
ATOM     25  H   UNL     1     164.975 158.607 161.785  1.00  0.00     0.293 HD
ENDBRANCH   2  24
BRANCH   6  26
ATOM     26  O   UNL     1     163.482 152.563 161.907  1.00  0.00    -0.507 OA
ATOM     27  H   UNL     1     163.180 151.685 161.514  1.00  0.00     0.293 HD
ENDBRANCH   6  26
BRANCH   8  28
ATOM     28  O   UNL     1     159.898 152.723 165.071  1.00  0.00    -0.508 OA
ATOM     29  H   UNL     1     159.557 151.823 164.754  1.00  0.00     0.293 HD
ENDBRANCH   8  28
TORSDOF 7
ENDMDL
MODEL 3
REMARK VINA RESULT:    -5.870      1.288      6.955
REMARK INTER + INTRA:          -7.502
REMARK INTER:                  -7.705
REMARK INTRA:                   0.204
REMARK UNBOUND:                -0.259
REMARK SMILES O=c1c(O)c(-c2cc(O)c(O)c(O)c2)oc2cc(O)cc(O)c12
REMARK SMILES IDX 5 1 3 2 2 3 1 4 23 5 21 6 20 7 18 8 17 9 16 10 15 11 6 12
REMARK SMILES IDX 7 13 8 14 14 15 10 16 12 17 9 18 11 20 13 22 4 24 22 26
REMARK SMILES IDX 19 28
REMARK H PARENT 9 19 11 21 13 23 4 25 22 27 19 29
REMARK Flexibility Score: inf
ROOT
ATOM      1  C   UNL     1     163.329 156.169 163.523  1.00  0.00     0.180 A 
ATOM      2  C   UNL     1     164.714 156.309 163.323  1.00  0.00     0.208 A 
ATOM      3  C   UNL     1     165.277 157.595 163.337  1.00  0.00     0.238 A 
ATOM      4  O   UNL     1     166.526 157.706 163.231  1.00  0.00    -0.285 OA
ATOM      5  C   UNL     1     164.444 158.728 163.496  1.00  0.00     0.111 A 
ATOM      6  C   UNL     1     164.900 160.081 163.481  1.00  0.00     0.134 A 
ATOM      7  C   UNL     1     163.999 161.118 163.754  1.00  0.00     0.093 A 
ATOM      8  C   UNL     1     162.648 160.858 163.978  1.00  0.00     0.123 A 
ATOM      9  C   UNL     1     162.180 159.544 163.939  1.00  0.00     0.094 A 
ATOM     10  C   UNL     1     163.062 158.485 163.708  1.00  0.00     0.146 A 
ATOM     11  O   UNL     1     162.577 157.248 163.702  1.00  0.00    -0.452 OA
ENDROOT
BRANCH   1  12
ATOM     12  C   UNL     1     162.665 154.846 163.536  1.00  0.00     0.029 A 
ATOM     13  C   UNL     1     163.119 153.791 162.726  1.00  0.00     0.062 A 
ATOM     14  C   UNL     1     162.493 152.541 162.768  1.00  0.00     0.162 A 
ATOM     15  C   UNL     1     161.596 154.620 164.417  1.00  0.00     0.062 A 
ATOM     16  C   UNL     1     161.409 152.326 163.636  1.00  0.00     0.200 A 
ATOM     17  C   UNL     1     160.963 153.370 164.466  1.00  0.00     0.162 A 
BRANCH  14  18
ATOM     18  O   UNL     1     162.969 151.520 161.945  1.00  0.00    -0.504 OA
ATOM     19  H   UNL     1     162.755 150.545 162.117  1.00  0.00     0.293 HD
ENDBRANCH  14  18
BRANCH  16  20
ATOM     20  O   UNL     1     160.789 151.077 163.669  1.00  0.00    -0.502 OA
ATOM     21  H   UNL     1     159.795 150.963 163.507  1.00  0.00     0.293 HD
ENDBRANCH  16  20
BRANCH  17  22
ATOM     22  O   UNL     1     159.893 153.163 165.335  1.00  0.00    -0.504 OA
ATOM     23  H   UNL     1     159.786 152.295 165.848  1.00  0.00     0.293 HD
ENDBRANCH  17  22
ENDBRANCH   1  12
BRANCH   2  24
ATOM     24  O   UNL     1     165.508 155.183 163.092  1.00  0.00    -0.502 OA
ATOM     25  H   UNL     1     165.829 154.924 162.166  1.00  0.00     0.293 HD
ENDBRANCH   2  24
BRANCH   6  26
ATOM     26  O   UNL     1     166.212 160.461 163.180  1.00  0.00    -0.507 OA
ATOM     27  H   UNL     1     166.911 159.858 162.777  1.00  0.00     0.293 HD
ENDBRANCH   6  26
BRANCH   8  28
ATOM     28  O   UNL     1     161.777 161.915 164.229  1.00  0.00    -0.508 OA
ATOM     29  H   UNL     1     160.776 161.772 164.304  1.00  0.00     0.293 HD
ENDBRANCH   8  28
TORSDOF 7
ENDMDL
MODEL 4
REMARK VINA RESULT:    -5.602      1.330      2.904
REMARK INTER + INTRA:          -7.171
REMARK INTER:                  -6.930
REMARK INTRA:                  -0.241
REMARK UNBOUND:                -0.259
REMARK SMILES O=c1c(O)c(-c2cc(O)c(O)c(O)c2)oc2cc(O)cc(O)c12
REMARK SMILES IDX 5 1 3 2 2 3 1 4 23 5 21 6 20 7 18 8 17 9 16 10 15 11 6 12
REMARK SMILES IDX 7 13 8 14 14 15 10 16 12 17 9 18 11 20 13 22 4 24 22 26
REMARK SMILES IDX 19 28
REMARK H PARENT 9 19 11 21 13 23 4 25 22 27 19 29
REMARK Flexibility Score: inf
ROOT
ATOM      1  C   UNL     1     163.393 156.946 163.945  1.00  0.00     0.180 A 
ATOM      2  C   UNL     1     162.539 156.142 164.720  1.00  0.00     0.208 A 
ATOM      3  C   UNL     1     162.465 154.766 164.445  1.00  0.00     0.238 A 
ATOM      4  O   UNL     1     161.756 154.041 165.189  1.00  0.00    -0.285 OA
ATOM      5  C   UNL     1     163.202 154.223 163.365  1.00  0.00     0.111 A 
ATOM      6  C   UNL     1     163.169 152.852 162.967  1.00  0.00     0.134 A 
ATOM      7  C   UNL     1     164.022 152.407 161.949  1.00  0.00     0.093 A 
ATOM      8  C   UNL     1     164.859 153.291 161.273  1.00  0.00     0.123 A 
ATOM      9  C   UNL     1     164.860 154.644 161.615  1.00  0.00     0.094 A 
ATOM     10  C   UNL     1     164.048 155.112 162.652  1.00  0.00     0.146 A 
ATOM     11  O   UNL     1     164.096 156.403 162.960  1.00  0.00    -0.452 OA
ENDROOT
BRANCH   1  12
ATOM     12  C   UNL     1     163.535 158.401 164.184  1.00  0.00     0.029 A 
ATOM     13  C   UNL     1     162.481 159.292 163.922  1.00  0.00     0.062 A 
ATOM     14  C   UNL     1     162.625 160.660 164.176  1.00  0.00     0.162 A 
ATOM     15  C   UNL     1     164.725 158.895 164.738  1.00  0.00     0.062 A 
ATOM     16  C   UNL     1     163.828 161.153 164.710  1.00  0.00     0.200 A 
ATOM     17  C   UNL     1     164.879 160.264 164.996  1.00  0.00     0.162 A 
BRANCH  14  18
ATOM     18  O   UNL     1     161.558 161.514 163.897  1.00  0.00    -0.504 OA
ATOM     19  H   UNL     1     161.523 162.076 163.056  1.00  0.00     0.293 HD
ENDBRANCH  14  18
BRANCH  16  20
ATOM     20  O   UNL     1     163.964 162.519 164.957  1.00  0.00    -0.502 OA
ATOM     21  H   UNL     1     164.537 162.877 165.712  1.00  0.00     0.293 HD
ENDBRANCH  16  20
BRANCH  17  22
ATOM     22  O   UNL     1     166.072 160.745 165.533  1.00  0.00    -0.504 OA
ATOM     23  H   UNL     1     166.473 160.349 166.375  1.00  0.00     0.293 HD
ENDBRANCH  17  22
ENDBRANCH   1  12
BRANCH   2  24
ATOM     24  O   UNL     1     161.762 156.711 165.732  1.00  0.00    -0.502 OA
ATOM     25  H   UNL     1     161.492 157.687 165.727  1.00  0.00     0.293 HD
ENDBRANCH   2  24
BRANCH   6  26
ATOM     26  O   UNL     1     162.305 151.898 163.516  1.00  0.00    -0.507 OA
ATOM     27  H   UNL     1     161.830 151.989 164.400  1.00  0.00     0.293 HD
ENDBRANCH   6  26
BRANCH   8  28
ATOM     28  O   UNL     1     165.682 152.817 160.254  1.00  0.00    -0.508 OA
ATOM     29  H   UNL     1     166.692 152.870 160.319  1.00  0.00     0.293 HD
ENDBRANCH   8  28
TORSDOF 7
ENDMDL
MODEL 5
REMARK VINA RESULT:    -5.556      2.097      6.997
REMARK INTER + INTRA:          -7.115
REMARK INTER:                  -6.815
REMARK INTRA:                  -0.300
REMARK UNBOUND:                -0.259
REMARK SMILES O=c1c(O)c(-c2cc(O)c(O)c(O)c2)oc2cc(O)cc(O)c12
REMARK SMILES IDX 5 1 3 2 2 3 1 4 23 5 21 6 20 7 18 8 17 9 16 10 15 11 6 12
REMARK SMILES IDX 7 13 8 14 14 15 10 16 12 17 9 18 11 20 13 22 4 24 22 26
REMARK SMILES IDX 19 28
REMARK H PARENT 9 19 11 21 13 23 4 25 22 27 19 29
REMARK Flexibility Score: inf
ROOT
ATOM      1  C   UNL     1     164.149 155.090 162.536  1.00  0.00     0.180 A 
ATOM      2  C   UNL     1     165.148 154.904 161.564  1.00  0.00     0.208 A 
ATOM      3  C   UNL     1     165.994 155.978 161.245  1.00  0.00     0.238 A 
ATOM      4  O   UNL     1     166.932 155.784 160.429  1.00  0.00    -0.285 OA
ATOM      5  C   UNL     1     165.796 157.238 161.859  1.00  0.00     0.111 A 
ATOM      6  C   UNL     1     166.565 158.409 161.578  1.00  0.00     0.134 A 
ATOM      7  C   UNL     1     166.347 159.574 162.324  1.00  0.00     0.093 A 
ATOM      8  C   UNL     1     165.349 159.632 163.295  1.00  0.00     0.123 A 
ATOM      9  C   UNL     1     164.555 158.512 163.540  1.00  0.00     0.094 A 
ATOM     10  C   UNL     1     164.773 157.323 162.839  1.00  0.00     0.146 A 
ATOM     11  O   UNL     1     164.008 156.274 163.119  1.00  0.00    -0.452 OA
ENDROOT
BRANCH   1  12
ATOM     12  C   UNL     1     163.228 154.001 162.937  1.00  0.00     0.029 A 
ATOM     13  C   UNL     1     161.905 153.951 162.465  1.00  0.00     0.062 A 
ATOM     14  C   UNL     1     161.057 152.902 162.835  1.00  0.00     0.162 A 
ATOM     15  C   UNL     1     163.701 152.966 163.757  1.00  0.00     0.062 A 
ATOM     16  C   UNL     1     161.529 151.879 163.676  1.00  0.00     0.200 A 
ATOM     17  C   UNL     1     162.858 151.911 164.134  1.00  0.00     0.162 A 
BRANCH  14  18
ATOM     18  O   UNL     1     159.749 152.890 162.352  1.00  0.00    -0.504 OA
ATOM     19  H   UNL     1     159.084 153.620 162.576  1.00  0.00     0.293 HD
ENDBRANCH  14  18
BRANCH  16  20
ATOM     20  O   UNL     1     160.675 150.839 164.043  1.00  0.00    -0.502 OA
ATOM     21  H   UNL     1     160.682 150.437 164.973  1.00  0.00     0.293 HD
ENDBRANCH  16  20
BRANCH  17  22
ATOM     22  O   UNL     1     163.335 150.896 164.961  1.00  0.00    -0.504 OA
ATOM     23  H   UNL     1     162.708 150.243 165.417  1.00  0.00     0.293 HD
ENDBRANCH  17  22
ENDBRANCH   1  12
BRANCH   2  24
ATOM     24  O   UNL     1     165.278 153.674 160.915  1.00  0.00    -0.502 OA
ATOM     25  H   UNL     1     166.029 153.479 160.263  1.00  0.00     0.293 HD
ENDBRANCH   2  24
BRANCH   6  26
ATOM     26  O   UNL     1     167.528 158.489 160.567  1.00  0.00    -0.507 OA
ATOM     27  H   UNL     1     167.602 157.855 159.787  1.00  0.00     0.293 HD
ENDBRANCH   6  26
BRANCH   8  28
ATOM     28  O   UNL     1     165.150 160.813 164.007  1.00  0.00    -0.508 OA
ATOM     29  H   UNL     1     165.816 161.135 164.699  1.00  0.00     0.293 HD
ENDBRANCH   8  28
TORSDOF 7
ENDMDL
MODEL 6
REMARK VINA RESULT:    -5.539      1.365      3.350
REMARK INTER + INTRA:          -7.093
REMARK INTER:                  -7.037
REMARK INTRA:                  -0.056
REMARK UNBOUND:                -0.259
REMARK SMILES O=c1c(O)c(-c2cc(O)c(O)c(O)c2)oc2cc(O)cc(O)c12
REMARK SMILES IDX 5 1 3 2 2 3 1 4 23 5 21 6 20 7 18 8 17 9 16 10 15 11 6 12
REMARK SMILES IDX 7 13 8 14 14 15 10 16 12 17 9 18 11 20 13 22 4 24 22 26
REMARK SMILES IDX 19 28
REMARK H PARENT 9 19 11 21 13 23 4 25 22 27 19 29
REMARK Flexibility Score: inf
ROOT
ATOM      1  C   UNL     1     163.412 157.174 163.735  1.00  0.00     0.180 A 
ATOM      2  C   UNL     1     162.515 156.438 164.529  1.00  0.00     0.208 A 
ATOM      3  C   UNL     1     162.397 155.054 164.318  1.00  0.00     0.238 A 
ATOM      4  O   UNL     1     161.649 154.391 165.081  1.00  0.00    -0.285 OA
ATOM      5  C   UNL     1     163.134 154.434 163.281  1.00  0.00     0.111 A 
ATOM      6  C   UNL     1     163.059 153.047 162.948  1.00  0.00     0.134 A 
ATOM      7  C   UNL     1     163.914 152.524 161.969  1.00  0.00     0.093 A 
ATOM      8  C   UNL     1     164.795 153.345 161.269  1.00  0.00     0.123 A 
ATOM      9  C   UNL     1     164.839 154.712 161.547  1.00  0.00     0.094 A 
ATOM     10  C   UNL     1     164.025 155.257 162.544  1.00  0.00     0.146 A 
ATOM     11  O   UNL     1     164.114 156.559 162.791  1.00  0.00    -0.452 OA
ENDROOT
BRANCH   1  12
ATOM     12  C   UNL     1     163.603 158.632 163.907  1.00  0.00     0.029 A 
ATOM     13  C   UNL     1     164.881 159.187 164.086  1.00  0.00     0.062 A 
ATOM     14  C   UNL     1     165.044 160.570 164.223  1.00  0.00     0.162 A 
ATOM     15  C   UNL     1     162.492 159.486 163.833  1.00  0.00     0.062 A 
ATOM     16  C   UNL     1     163.925 161.418 164.170  1.00  0.00     0.200 A 
ATOM     17  C   UNL     1     162.645 160.872 163.970  1.00  0.00     0.162 A 
BRANCH  14  18
ATOM     18  O   UNL     1     166.329 161.083 164.405  1.00  0.00    -0.504 OA
ATOM     19  H   UNL     1     166.729 161.220 165.325  1.00  0.00     0.293 HD
ENDBRANCH  14  18
BRANCH  16  20
ATOM     20  O   UNL     1     164.097 162.796 164.312  1.00  0.00    -0.502 OA
ATOM     21  H   UNL     1     164.749 163.320 163.742  1.00  0.00     0.293 HD
ENDBRANCH  16  20
BRANCH  17  22
ATOM     22  O   UNL     1     161.532 161.708 163.909  1.00  0.00    -0.504 OA
ATOM     23  H   UNL     1     161.278 162.193 163.056  1.00  0.00     0.293 HD
ENDBRANCH  17  22
ENDBRANCH   1  12
BRANCH   2  24
ATOM     24  O   UNL     1     161.741 157.082 165.497  1.00  0.00    -0.502 OA
ATOM     25  H   UNL     1     161.898 156.959 166.490  1.00  0.00     0.293 HD
ENDBRANCH   2  24
BRANCH   6  26
ATOM     26  O   UNL     1     162.151 152.152 163.523  1.00  0.00    -0.507 OA
ATOM     27  H   UNL     1     161.158 152.304 163.598  1.00  0.00     0.293 HD
ENDBRANCH   6  26
BRANCH   8  28
ATOM     28  O   UNL     1     165.620 152.794 160.291  1.00  0.00    -0.508 OA
ATOM     29  H   UNL     1     165.494 153.006 159.308  1.00  0.00     0.293 HD
ENDBRANCH   8  28
TORSDOF 7
ENDMDL
MODEL 7
REMARK VINA RESULT:    -5.504      1.738      7.237
REMARK INTER + INTRA:          -7.050
REMARK INTER:                  -7.483
REMARK INTRA:                   0.433
REMARK UNBOUND:                -0.259
REMARK SMILES O=c1c(O)c(-c2cc(O)c(O)c(O)c2)oc2cc(O)cc(O)c12
REMARK SMILES IDX 5 1 3 2 2 3 1 4 23 5 21 6 20 7 18 8 17 9 16 10 15 11 6 12
REMARK SMILES IDX 7 13 8 14 14 15 10 16 12 17 9 18 11 20 13 22 4 24 22 26
REMARK SMILES IDX 19 28
REMARK H PARENT 9 19 11 21 13 23 4 25 22 27 19 29
REMARK Flexibility Score: inf
ROOT
ATOM      1  C   UNL     1     163.178 156.336 163.636  1.00  0.00     0.180 A 
ATOM      2  C   UNL     1     162.555 157.425 164.271  1.00  0.00     0.208 A 
ATOM      3  C   UNL     1     163.152 158.694 164.187  1.00  0.00     0.238 A 
ATOM      4  O   UNL     1     162.551 159.676 164.694  1.00  0.00    -0.285 OA
ATOM      5  C   UNL     1     164.389 158.848 163.518  1.00  0.00     0.111 A 
ATOM      6  C   UNL     1     165.107 160.078 163.409  1.00  0.00     0.134 A 
ATOM      7  C   UNL     1     166.271 160.132 162.632  1.00  0.00     0.093 A 
ATOM      8  C   UNL     1     166.778 158.992 162.013  1.00  0.00     0.123 A 
ATOM      9  C   UNL     1     166.116 157.772 162.157  1.00  0.00     0.094 A 
ATOM     10  C   UNL     1     164.931 157.694 162.894  1.00  0.00     0.146 A 
ATOM     11  O   UNL     1     164.322 156.517 162.988  1.00  0.00    -0.452 OA
ENDROOT
BRANCH   1  12
ATOM     12  C   UNL     1     162.603 154.972 163.667  1.00  0.00     0.029 A 
ATOM     13  C   UNL     1     161.495 154.663 164.476  1.00  0.00     0.062 A 
ATOM     14  C   UNL     1     160.950 153.375 164.475  1.00  0.00     0.162 A 
ATOM     15  C   UNL     1     163.135 153.980 162.831  1.00  0.00     0.062 A 
ATOM     16  C   UNL     1     161.502 152.379 163.652  1.00  0.00     0.200 A 
ATOM     17  C   UNL     1     162.596 152.686 162.824  1.00  0.00     0.162 A 
BRANCH  14  18
ATOM     18  O   UNL     1     159.855 153.106 165.295  1.00  0.00    -0.504 OA
ATOM     19  H   UNL     1     159.080 153.751 165.390  1.00  0.00     0.293 HD
ENDBRANCH  14  18
BRANCH  16  20
ATOM     20  O   UNL     1     160.954 151.095 163.660  1.00  0.00    -0.502 OA
ATOM     21  H   UNL     1     161.437 150.305 164.072  1.00  0.00     0.293 HD
ENDBRANCH  16  20
BRANCH  17  22
ATOM     22  O   UNL     1     163.144 151.705 161.999  1.00  0.00    -0.504 OA
ATOM     23  H   UNL     1     163.491 151.923 161.072  1.00  0.00     0.293 HD
ENDBRANCH  17  22
ENDBRANCH   1  12
BRANCH   2  24
ATOM     24  O   UNL     1     161.373 157.237 164.991  1.00  0.00    -0.502 OA
ATOM     25  H   UNL     1     160.590 157.877 164.928  1.00  0.00     0.293 HD
ENDBRANCH   2  24
BRANCH   6  26
ATOM     26  O   UNL     1     164.738 161.259 164.060  1.00  0.00    -0.507 OA
ATOM     27  H   UNL     1     164.531 162.132 163.602  1.00  0.00     0.293 HD
ENDBRANCH   6  26
BRANCH   8  28
ATOM     28  O   UNL     1     167.948 159.080 161.261  1.00  0.00    -0.508 OA
ATOM     29  H   UNL     1     168.603 159.843 161.385  1.00  0.00     0.293 HD
ENDBRANCH   8  28
TORSDOF 7
ENDMDL
MODEL 8
REMARK VINA RESULT:    -5.474      1.764      7.328
REMARK INTER + INTRA:          -7.013
REMARK INTER:                  -7.143
REMARK INTRA:                   0.130
REMARK UNBOUND:                -0.259
REMARK SMILES O=c1c(O)c(-c2cc(O)c(O)c(O)c2)oc2cc(O)cc(O)c12
REMARK SMILES IDX 5 1 3 2 2 3 1 4 23 5 21 6 20 7 18 8 17 9 16 10 15 11 6 12
REMARK SMILES IDX 7 13 8 14 14 15 10 16 12 17 9 18 11 20 13 22 4 24 22 26
REMARK SMILES IDX 19 28
REMARK H PARENT 9 19 11 21 13 23 4 25 22 27 19 29
REMARK Flexibility Score: inf
ROOT
ATOM      1  C   UNL     1     163.326 157.250 163.636  1.00  0.00     0.180 A 
ATOM      2  C   UNL     1     162.252 157.565 164.486  1.00  0.00     0.208 A 
ATOM      3  C   UNL     1     162.108 158.886 164.940  1.00  0.00     0.238 A 
ATOM      4  O   UNL     1     161.104 159.176 165.640  1.00  0.00    -0.285 OA
ATOM      5  C   UNL     1     163.070 159.861 164.586  1.00  0.00     0.111 A 
ATOM      6  C   UNL     1     163.050 161.220 165.026  1.00  0.00     0.134 A 
ATOM      7  C   UNL     1     163.997 162.123 164.525  1.00  0.00     0.093 A 
ATOM      8  C   UNL     1     164.999 161.705 163.652  1.00  0.00     0.123 A 
ATOM      9  C   UNL     1     165.063 160.368 163.259  1.00  0.00     0.094 A 
ATOM     10  C   UNL     1     164.110 159.452 163.710  1.00  0.00     0.146 A 
ATOM     11  O   UNL     1     164.195 158.193 163.294  1.00  0.00    -0.452 OA
ENDROOT
BRANCH   1  12
ATOM     12  C   UNL     1     163.536 155.884 163.104  1.00  0.00     0.029 A 
ATOM     13  C   UNL     1     163.958 155.670 161.781  1.00  0.00     0.062 A 
ATOM     14  C   UNL     1     164.174 154.373 161.303  1.00  0.00     0.162 A 
ATOM     15  C   UNL     1     163.366 154.780 163.954  1.00  0.00     0.062 A 
ATOM     16  C   UNL     1     163.980 153.270 162.152  1.00  0.00     0.200 A 
ATOM     17  C   UNL     1     163.579 153.477 163.483  1.00  0.00     0.162 A 
BRANCH  14  18
ATOM     18  O   UNL     1     164.587 154.201 159.982  1.00  0.00    -0.504 OA
ATOM     19  H   UNL     1     164.344 154.859 159.251  1.00  0.00     0.293 HD
ENDBRANCH  14  18
BRANCH  16  20
ATOM     20  O   UNL     1     164.194 151.980 161.666  1.00  0.00    -0.502 OA
ATOM     21  H   UNL     1     164.846 151.787 160.915  1.00  0.00     0.293 HD
ENDBRANCH  16  20
BRANCH  17  22
ATOM     22  O   UNL     1     163.393 152.388 164.333  1.00  0.00    -0.504 OA
ATOM     23  H   UNL     1     163.468 151.434 163.999  1.00  0.00     0.293 HD
ENDBRANCH  17  22
ENDBRANCH   1  12
BRANCH   2  24
ATOM     24  O   UNL     1     161.356 156.570 164.886  1.00  0.00    -0.502 OA
ATOM     25  H   UNL     1     160.533 156.329 164.346  1.00  0.00     0.293 HD
ENDBRANCH   2  24
BRANCH   6  26
ATOM     26  O   UNL     1     162.146 161.725 165.965  1.00  0.00    -0.507 OA
ATOM     27  H   UNL     1     161.143 161.712 165.868  1.00  0.00     0.293 HD
ENDBRANCH   6  26
BRANCH   8  28
ATOM     28  O   UNL     1     165.934 162.627 163.187  1.00  0.00    -0.508 OA
ATOM     29  H   UNL     1     165.779 163.159 162.338  1.00  0.00     0.293 HD
ENDBRANCH   8  28
TORSDOF 7
ENDMDL
MODEL 9
REMARK VINA RESULT:    -5.461      1.303      7.041
REMARK INTER + INTRA:          -6.997
REMARK INTER:                  -6.713
REMARK INTRA:                  -0.284
REMARK UNBOUND:                -0.259
REMARK SMILES O=c1c(O)c(-c2cc(O)c(O)c(O)c2)oc2cc(O)cc(O)c12
REMARK SMILES IDX 5 1 3 2 2 3 1 4 23 5 21 6 20 7 18 8 17 9 16 10 15 11 6 12
REMARK SMILES IDX 7 13 8 14 14 15 10 16 12 17 9 18 11 20 13 22 4 24 22 26
REMARK SMILES IDX 19 28
REMARK H PARENT 9 19 11 21 13 23 4 25 22 27 19 29
REMARK Flexibility Score: inf
ROOT
ATOM      1  C   UNL     1     163.409 156.518 164.358  1.00  0.00     0.180 A 
ATOM      2  C   UNL     1     164.580 156.701 165.114  1.00  0.00     0.208 A 
ATOM      3  C   UNL     1     165.054 158.005 165.329  1.00  0.00     0.238 A 
ATOM      4  O   UNL     1     166.060 158.165 166.067  1.00  0.00    -0.285 OA
ATOM      5  C   UNL     1     164.385 159.104 164.741  1.00  0.00     0.111 A 
ATOM      6  C   UNL     1     164.803 160.466 164.854  1.00  0.00     0.134 A 
ATOM      7  C   UNL     1     164.002 161.481 164.317  1.00  0.00     0.093 A 
ATOM      8  C   UNL     1     162.834 161.184 163.617  1.00  0.00     0.123 A 
ATOM      9  C   UNL     1     162.445 159.854 163.451  1.00  0.00     0.094 A 
ATOM     10  C   UNL     1     163.202 158.821 164.009  1.00  0.00     0.146 A 
ATOM     11  O   UNL     1     162.784 157.571 163.846  1.00  0.00    -0.452 OA
ENDROOT
BRANCH   1  12
ATOM     12  C   UNL     1     162.839 155.175 164.101  1.00  0.00     0.029 A 
ATOM     13  C   UNL     1     161.661 154.747 164.735  1.00  0.00     0.062 A 
ATOM     14  C   UNL     1     161.124 153.484 164.462  1.00  0.00     0.162 A 
ATOM     15  C   UNL     1     163.454 154.335 163.161  1.00  0.00     0.062 A 
ATOM     16  C   UNL     1     161.757 152.637 163.536  1.00  0.00     0.200 A 
ATOM     17  C   UNL     1     162.924 153.068 162.881  1.00  0.00     0.162 A 
BRANCH  14  18
ATOM     18  O   UNL     1     159.956 153.091 165.115  1.00  0.00    -0.504 OA
ATOM     19  H   UNL     1     159.132 153.679 165.147  1.00  0.00     0.293 HD
ENDBRANCH  14  18
BRANCH  16  20
ATOM     20  O   UNL     1     161.216 151.378 163.272  1.00  0.00    -0.502 OA
ATOM     21  H   UNL     1     160.905 150.758 164.011  1.00  0.00     0.293 HD
ENDBRANCH  16  20
BRANCH  17  22
ATOM     22  O   UNL     1     163.552 152.236 161.956  1.00  0.00    -0.504 OA
ATOM     23  H   UNL     1     164.557 152.251 161.824  1.00  0.00     0.293 HD
ENDBRANCH  17  22
ENDBRANCH   1  12
BRANCH   2  24
ATOM     24  O   UNL     1     165.269 155.597 165.622  1.00  0.00    -0.502 OA
ATOM     25  H   UNL     1     165.492 154.786 165.056  1.00  0.00     0.293 HD
ENDBRANCH   2  24
BRANCH   6  26
ATOM     26  O   UNL     1     165.998 160.870 165.456  1.00  0.00    -0.507 OA
ATOM     27  H   UNL     1     166.197 160.813 166.442  1.00  0.00     0.293 HD
ENDBRANCH   6  26
BRANCH   8  28
ATOM     28  O   UNL     1     162.071 162.218 163.081  1.00  0.00    -0.508 OA
ATOM     29  H   UNL     1     161.100 162.351 163.340  1.00  0.00     0.293 HD
ENDBRANCH   8  28
TORSDOF 7
ENDMDL
