MODEL 1
REMARK VINA RESULT:    -4.774      0.000      0.000
REMARK INTER + INTRA:          -9.602
REMARK INTER:                  -8.682
REMARK INTRA:                  -0.920
REMARK UNBOUND:                -0.920
REMARK SMILES CCCCCCCCCCCCCC[C@@H](C)C(=O)[O-]
REMARK SMILES IDX 9 1 10 2 11 3 12 4 13 5 14 6 15 7 16 8 17 9 18 10 19 11 8 12
REMARK SMILES IDX 7 13 6 14 5 15 4 16 3 17 2 18 1 19
REMARK H PARENT
REMARK Flexibility Score: inf
ROOT
ATOM      1  C   UNL     1     -25.634 -11.583  33.940  1.00  0.00     0.000 C 
ENDROOT
BRANCH   1   2
ATOM      2  C   UNL     1     -27.117 -11.359  33.591  1.00  0.00     0.000 C 
BRANCH   2   3
ATOM      3  C   UNL     1     -27.975 -11.001  34.816  1.00  0.00     0.000 C 
BRANCH   3   4
ATOM      4  C   UNL     1     -28.375  -9.516  34.843  1.00  0.00     0.000 C 
BRANCH   4   5
ATOM      5  C   UNL     1     -29.172  -9.090  33.597  1.00  0.00     0.001 C 
BRANCH   5   6
ATOM      6  C   UNL     1     -30.537  -8.460  33.962  1.00  0.00     0.009 C 
BRANCH   6   7
ATOM      7  C   UNL     1     -31.364  -7.949  32.760  1.00  0.00     0.032 C 
ATOM      8  C   UNL     1     -32.406  -8.966  32.277  1.00  0.00     0.014 C 
BRANCH   7   9
ATOM      9  C   UNL     1     -31.988  -6.606  33.049  1.00  0.00     0.044 C 
ATOM     10  O   UNL     1     -32.042  -6.184  34.234  1.00  0.00    -0.550 OA
ATOM     11  O   UNL     1     -32.547  -5.843  32.029  1.00  0.00    -0.550 OA
ENDBRANCH   7   9
ENDBRANCH   6   7
ENDBRANCH   5   6
ENDBRANCH   4   5
ENDBRANCH   3   4
ENDBRANCH   2   3
ENDBRANCH   1   2
BRANCH   1  12
ATOM     12  C   UNL     1     -24.637 -11.298  32.800  1.00  0.00     0.000 C 
BRANCH  12  13
ATOM     13  C   UNL     1     -24.097 -12.580  32.143  1.00  0.00    -0.000 C 
BRANCH  13  14
ATOM     14  C   UNL     1     -22.559 -12.643  32.129  1.00  0.00    -0.000 C 
BRANCH  14  15
ATOM     15  C   UNL     1     -21.940 -13.774  32.974  1.00  0.00    -0.000 C 
BRANCH  15  16
ATOM     16  C   UNL     1     -21.157 -13.313  34.219  1.00  0.00    -0.000 C 
BRANCH  16  17
ATOM     17  C   UNL     1     -21.917 -13.450  35.551  1.00  0.00    -0.000 C 
BRANCH  17  18
ATOM     18  C   UNL     1     -22.707 -12.186  35.917  1.00  0.00    -0.003 C 
ATOM     19  C   UNL     1     -22.866 -12.055  37.429  1.00  0.00     0.004 C 
ENDBRANCH  17  18
ENDBRANCH  16  17
ENDBRANCH  15  16
ENDBRANCH  14  15
ENDBRANCH  13  14
ENDBRANCH  12  13
ENDBRANCH   1  12
TORSDOF 14
ENDMDL
MODEL 2
REMARK VINA RESULT:    -4.554      1.697      2.443
REMARK INTER + INTRA:          -9.202
REMARK INTER:                  -8.423
REMARK INTRA:                  -0.779
REMARK UNBOUND:                -0.920
REMARK SMILES CCCCCCCCCCCCCC[C@@H](C)C(=O)[O-]
REMARK SMILES IDX 9 1 10 2 11 3 12 4 13 5 14 6 15 7 16 8 17 9 18 10 19 11 8 12
REMARK SMILES IDX 7 13 6 14 5 15 4 16 3 17 2 18 1 19
REMARK H PARENT
REMARK Flexibility Score: inf
ROOT
ATOM      1  C   UNL     1     -27.182 -11.484  33.382  1.00  0.00     0.000 C 
ENDROOT
BRANCH   1   2
ATOM      2  C   UNL     1     -27.797 -11.451  34.793  1.00  0.00     0.000 C 
BRANCH   2   3
ATOM      3  C   UNL     1     -28.330 -10.063  35.185  1.00  0.00     0.000 C 
BRANCH   3   4
ATOM      4  C   UNL     1     -28.085  -9.007  34.094  1.00  0.00     0.000 C 
BRANCH   4   5
ATOM      5  C   UNL     1     -29.339  -8.718  33.250  1.00  0.00     0.001 C 
BRANCH   5   6
ATOM      6  C   UNL     1     -30.618  -8.622  34.116  1.00  0.00     0.009 C 
BRANCH   6   7
ATOM      7  C   UNL     1     -31.708  -7.671  33.571  1.00  0.00     0.032 C 
ATOM      8  C   UNL     1     -31.407  -7.170  32.152  1.00  0.00     0.014 C 
BRANCH   7   9
ATOM      9  C   UNL     1     -33.080  -8.290  33.665  1.00  0.00     0.044 C 
ATOM     10  O   UNL     1     -33.232  -9.514  33.416  1.00  0.00    -0.550 OA
ATOM     11  O   UNL     1     -34.192  -7.517  33.981  1.00  0.00    -0.550 OA
ENDBRANCH   7   9
ENDBRANCH   6   7
ENDBRANCH   5   6
ENDBRANCH   4   5
ENDBRANCH   3   4
ENDBRANCH   2   3
ENDBRANCH   1   2
BRANCH   1  12
ATOM     12  C   UNL     1     -25.646 -11.592  33.333  1.00  0.00     0.000 C 
BRANCH  12  13
ATOM     13  C   UNL     1     -25.010 -11.735  34.726  1.00  0.00    -0.000 C 
BRANCH  13  14
ATOM     14  C   UNL     1     -23.473 -11.676  34.691  1.00  0.00    -0.000 C 
BRANCH  14  15
ATOM     15  C   UNL     1     -22.760 -12.401  35.850  1.00  0.00    -0.000 C 
BRANCH  15  16
ATOM     16  C   UNL     1     -22.887 -11.724  37.228  1.00  0.00    -0.000 C 
BRANCH  16  17
ATOM     17  C   UNL     1     -21.876 -12.207  38.284  1.00  0.00    -0.000 C 
BRANCH  17  18
ATOM     18  C   UNL     1     -21.857 -11.321  39.538  1.00  0.00    -0.003 C 
ATOM     19  C   UNL     1     -23.139 -10.502  39.653  1.00  0.00     0.004 C 
ENDBRANCH  17  18
ENDBRANCH  16  17
ENDBRANCH  15  16
ENDBRANCH  14  15
ENDBRANCH  13  14
ENDBRANCH  12  13
ENDBRANCH   1  12
TORSDOF 14
ENDMDL
MODEL 3
REMARK VINA RESULT:    -4.489      4.845      9.691
REMARK INTER + INTRA:          -9.082
REMARK INTER:                  -8.306
REMARK INTRA:                  -0.776
REMARK UNBOUND:                -0.920
REMARK SMILES CCCCCCCCCCCCCC[C@@H](C)C(=O)[O-]
REMARK SMILES IDX 9 1 10 2 11 3 12 4 13 5 14 6 15 7 16 8 17 9 18 10 19 11 8 12
REMARK SMILES IDX 7 13 6 14 5 15 4 16 3 17 2 18 1 19
REMARK H PARENT
REMARK Flexibility Score: inf
ROOT
ATOM      1  C   UNL     1     -25.526 -11.313  33.534  1.00  0.00     0.000 C 
ENDROOT
BRANCH   1   2
ATOM      2  C   UNL     1     -24.020 -11.543  33.756  1.00  0.00     0.000 C 
BRANCH   2   3
ATOM      3  C   UNL     1     -23.676 -11.918  35.208  1.00  0.00     0.000 C 
BRANCH   3   4
ATOM      4  C   UNL     1     -22.300 -12.593  35.333  1.00  0.00     0.000 C 
BRANCH   4   5
ATOM      5  C   UNL     1     -21.924 -12.914  36.790  1.00  0.00     0.001 C 
BRANCH   5   6
ATOM      6  C   UNL     1     -22.458 -11.852  37.780  1.00  0.00     0.009 C 
BRANCH   6   7
ATOM      7  C   UNL     1     -22.986 -12.414  39.121  1.00  0.00     0.032 C 
ATOM      8  C   UNL     1     -23.821 -13.689  38.947  1.00  0.00     0.014 C 
BRANCH   7   9
ATOM      9  C   UNL     1     -21.869 -12.611  40.116  1.00  0.00     0.044 C 
ATOM     10  O   UNL     1     -21.396 -11.618  40.729  1.00  0.00    -0.550 OA
ATOM     11  O   UNL     1     -21.321 -13.870  40.336  1.00  0.00    -0.550 OA
ENDBRANCH   7   9
ENDBRANCH   6   7
ENDBRANCH   5   6
ENDBRANCH   4   5
ENDBRANCH   3   4
ENDBRANCH   2   3
ENDBRANCH   1   2
BRANCH   1  12
ATOM     12  C   UNL     1     -26.423 -11.584  34.757  1.00  0.00     0.000 C 
BRANCH  12  13
ATOM     13  C   UNL     1     -27.903 -11.251  34.502  1.00  0.00    -0.000 C 
BRANCH  13  14
ATOM     14  C   UNL     1     -28.261  -9.801  34.872  1.00  0.00    -0.000 C 
BRANCH  14  15
ATOM     15  C   UNL     1     -29.003  -9.007  33.777  1.00  0.00    -0.000 C 
BRANCH  15  16
ATOM     16  C   UNL     1     -30.456  -8.619  34.115  1.00  0.00    -0.000 C 
BRANCH  16  17
ATOM     17  C   UNL     1     -31.376  -8.428  32.896  1.00  0.00    -0.000 C 
BRANCH  17  18
ATOM     18  C   UNL     1     -31.641  -6.950  32.577  1.00  0.00    -0.003 C 
ATOM     19  C   UNL     1     -32.336  -6.252  33.743  1.00  0.00     0.004 C 
ENDBRANCH  17  18
ENDBRANCH  16  17
ENDBRANCH  15  16
ENDBRANCH  14  15
ENDBRANCH  13  14
ENDBRANCH  12  13
ENDBRANCH   1  12
TORSDOF 14
ENDMDL
MODEL 4
REMARK VINA RESULT:    -4.223      7.723     10.596
REMARK INTER + INTRA:          -8.600
REMARK INTER:                  -6.319
REMARK INTRA:                  -2.280
REMARK UNBOUND:                -0.920
REMARK SMILES CCCCCCCCCCCCCC[C@@H](C)C(=O)[O-]
REMARK SMILES IDX 9 1 10 2 11 3 12 4 13 5 14 6 15 7 16 8 17 9 18 10 19 11 8 12
REMARK SMILES IDX 7 13 6 14 5 15 4 16 3 17 2 18 1 19
REMARK H PARENT
REMARK Flexibility Score: inf
ROOT
ATOM      1  C   UNL     1     -23.458 -11.388  39.377  1.00  0.00     0.000 C 
ENDROOT
BRANCH   1   2
ATOM      2  C   UNL     1     -21.958 -11.044  39.344  1.00  0.00     0.000 C 
BRANCH   2   3
ATOM      3  C   UNL     1     -21.236 -11.373  40.662  1.00  0.00     0.000 C 
BRANCH   3   4
ATOM      4  C   UNL     1     -19.793 -11.855  40.440  1.00  0.00     0.000 C 
BRANCH   4   5
ATOM      5  C   UNL     1     -19.446 -13.103  41.270  1.00  0.00     0.001 C 
BRANCH   5   6
ATOM      6  C   UNL     1     -20.591 -13.504  42.230  1.00  0.00     0.009 C 
BRANCH   6   7
ATOM      7  C   UNL     1     -21.380 -14.768  41.816  1.00  0.00     0.032 C 
ATOM      8  C   UNL     1     -20.507 -16.029  41.772  1.00  0.00     0.014 C 
BRANCH   7   9
ATOM      9  C   UNL     1     -22.601 -14.965  42.681  1.00  0.00     0.044 C 
ATOM     10  O   UNL     1     -23.545 -14.135  42.627  1.00  0.00    -0.550 OA
ATOM     11  O   UNL     1     -22.681 -16.030  43.571  1.00  0.00    -0.550 OA
ENDBRANCH   7   9
ENDBRANCH   6   7
ENDBRANCH   5   6
ENDBRANCH   4   5
ENDBRANCH   3   4
ENDBRANCH   2   3
ENDBRANCH   1   2
BRANCH   1  12
ATOM     12  C   UNL     1     -23.883 -12.574  38.490  1.00  0.00     0.000 C 
BRANCH  12  13
ATOM     13  C   UNL     1     -23.390 -13.929  39.024  1.00  0.00    -0.000 C 
BRANCH  13  14
ATOM     14  C   UNL     1     -22.474 -14.665  38.029  1.00  0.00    -0.000 C 
BRANCH  14  15
ATOM     15  C   UNL     1     -20.979 -14.296  38.114  1.00  0.00    -0.000 C 
BRANCH  15  16
ATOM     16  C   UNL     1     -20.471 -13.347  37.011  1.00  0.00    -0.000 C 
BRANCH  16  17
ATOM     17  C   UNL     1     -21.454 -13.121  35.848  1.00  0.00    -0.000 C 
BRANCH  17  18
ATOM     18  C   UNL     1     -20.856 -13.496  34.484  1.00  0.00    -0.003 C 
ATOM     19  C   UNL     1     -21.943 -13.603  33.418  1.00  0.00     0.004 C 
ENDBRANCH  17  18
ENDBRANCH  16  17
ENDBRANCH  15  16
ENDBRANCH  14  15
ENDBRANCH  13  14
ENDBRANCH  12  13
ENDBRANCH   1  12
TORSDOF 14
ENDMDL
MODEL 5
REMARK VINA RESULT:    -4.196      7.177      9.742
REMARK INTER + INTRA:          -8.551
REMARK INTER:                  -6.091
REMARK INTRA:                  -2.460
REMARK UNBOUND:                -0.920
REMARK SMILES CCCCCCCCCCCCCC[C@@H](C)C(=O)[O-]
REMARK SMILES IDX 9 1 10 2 11 3 12 4 13 5 14 6 15 7 16 8 17 9 18 10 19 11 8 12
REMARK SMILES IDX 7 13 6 14 5 15 4 16 3 17 2 18 1 19
REMARK H PARENT
REMARK Flexibility Score: inf
ROOT
ATOM      1  C   UNL     1     -22.496 -10.902  39.171  1.00  0.00     0.000 C 
ENDROOT
BRANCH   1   2
ATOM      2  C   UNL     1     -21.175 -11.148  39.922  1.00  0.00     0.000 C 
BRANCH   2   3
ATOM      3  C   UNL     1     -20.029 -11.591  38.996  1.00  0.00     0.000 C 
BRANCH   3   4
ATOM      4  C   UNL     1     -19.701 -13.087  39.135  1.00  0.00     0.000 C 
BRANCH   4   5
ATOM      5  C   UNL     1     -20.241 -13.927  37.965  1.00  0.00     0.001 C 
BRANCH   5   6
ATOM      6  C   UNL     1     -20.320 -13.117  36.650  1.00  0.00     0.009 C 
BRANCH   6   7
ATOM      7  C   UNL     1     -21.549 -13.427  35.763  1.00  0.00     0.032 C 
ATOM      8  C   UNL     1     -22.619 -12.329  35.822  1.00  0.00     0.014 C 
BRANCH   7   9
ATOM      9  C   UNL     1     -21.143 -13.734  34.343  1.00  0.00     0.044 C 
ATOM     10  O   UNL     1     -19.933 -13.951  34.072  1.00  0.00    -0.550 OA
ATOM     11  O   UNL     1     -22.082 -13.739  33.317  1.00  0.00    -0.550 OA
ENDBRANCH   7   9
ENDBRANCH   6   7
ENDBRANCH   5   6
ENDBRANCH   4   5
ENDBRANCH   3   4
ENDBRANCH   2   3
ENDBRANCH   1   2
BRANCH   1  12
ATOM     12  C   UNL     1     -23.675 -11.796  39.599  1.00  0.00     0.000 C 
BRANCH  12  13
ATOM     13  C   UNL     1     -23.634 -13.192  38.953  1.00  0.00    -0.000 C 
BRANCH  13  14
ATOM     14  C   UNL     1     -23.216 -14.295  39.942  1.00  0.00    -0.000 C 
BRANCH  14  15
ATOM     15  C   UNL     1     -22.970 -13.822  41.389  1.00  0.00    -0.000 C 
BRANCH  15  16
ATOM     16  C   UNL     1     -22.256 -14.839  42.301  1.00  0.00    -0.000 C 
BRANCH  16  17
ATOM     17  C   UNL     1     -21.019 -15.512  41.678  1.00  0.00    -0.000 C 
BRANCH  17  18
ATOM     18  C   UNL     1     -19.702 -15.029  42.303  1.00  0.00    -0.003 C 
ATOM     19  C   UNL     1     -19.865 -13.649  42.934  1.00  0.00     0.004 C 
ENDBRANCH  17  18
ENDBRANCH  16  17
ENDBRANCH  15  16
ENDBRANCH  14  15
ENDBRANCH  13  14
ENDBRANCH  12  13
ENDBRANCH   1  12
TORSDOF 14
ENDMDL
MODEL 6
REMARK VINA RESULT:    -4.043      7.276      9.885
REMARK INTER + INTRA:          -8.272
REMARK INTER:                  -6.099
REMARK INTRA:                  -2.173
REMARK UNBOUND:                -0.920
REMARK SMILES CCCCCCCCCCCCCC[C@@H](C)C(=O)[O-]
REMARK SMILES IDX 9 1 10 2 11 3 12 4 13 5 14 6 15 7 16 8 17 9 18 10 19 11 8 12
REMARK SMILES IDX 7 13 6 14 5 15 4 16 3 17 2 18 1 19
REMARK H PARENT
REMARK Flexibility Score: inf
ROOT
ATOM      1  C   UNL     1     -21.418 -13.842  42.270  1.00  0.00     0.000 C 
ENDROOT
BRANCH   1   2
ATOM      2  C   UNL     1     -22.601 -14.295  41.395  1.00  0.00     0.000 C 
BRANCH   2   3
ATOM      3  C   UNL     1     -22.157 -14.898  40.051  1.00  0.00     0.000 C 
BRANCH   3   4
ATOM      4  C   UNL     1     -22.934 -14.316  38.858  1.00  0.00     0.000 C 
BRANCH   4   5
ATOM      5  C   UNL     1     -22.189 -14.484  37.522  1.00  0.00     0.001 C 
BRANCH   5   6
ATOM      6  C   UNL     1     -22.196 -13.186  36.681  1.00  0.00     0.009 C 
BRANCH   6   7
ATOM      7  C   UNL     1     -20.882 -12.890  35.921  1.00  0.00     0.032 C 
ATOM      8  C   UNL     1     -19.646 -13.477  36.616  1.00  0.00     0.014 C 
BRANCH   7   9
ATOM      9  C   UNL     1     -20.968 -13.323  34.478  1.00  0.00     0.044 C 
ATOM     10  O   UNL     1     -19.934 -13.310  33.760  1.00  0.00    -0.550 OA
ATOM     11  O   UNL     1     -22.183 -13.694  33.915  1.00  0.00    -0.550 OA
ENDBRANCH   7   9
ENDBRANCH   6   7
ENDBRANCH   5   6
ENDBRANCH   4   5
ENDBRANCH   3   4
ENDBRANCH   2   3
ENDBRANCH   1   2
BRANCH   1  12
ATOM     12  C   UNL     1     -20.044 -13.839  41.574  1.00  0.00     0.000 C 
BRANCH  12  13
ATOM     13  C   UNL     1     -19.355 -12.464  41.612  1.00  0.00    -0.000 C 
BRANCH  13  14
ATOM     14  C   UNL     1     -19.184 -11.842  40.215  1.00  0.00    -0.000 C 
BRANCH  14  15
ATOM     15  C   UNL     1     -20.494 -11.597  39.439  1.00  0.00    -0.000 C 
BRANCH  15  16
ATOM     16  C   UNL     1     -21.576 -10.811  40.205  1.00  0.00    -0.000 C 
BRANCH  16  17
ATOM     17  C   UNL     1     -22.972 -10.831  39.557  1.00  0.00    -0.000 C 
BRANCH  17  18
ATOM     18  C   UNL     1     -23.722  -9.501  39.722  1.00  0.00    -0.003 C 
ATOM     19  C   UNL     1     -25.008  -9.691  40.520  1.00  0.00     0.004 C 
ENDBRANCH  17  18
ENDBRANCH  16  17
ENDBRANCH  15  16
ENDBRANCH  14  15
ENDBRANCH  13  14
ENDBRANCH  12  13
ENDBRANCH   1  12
TORSDOF 14
ENDMDL
MODEL 7
REMARK VINA RESULT:    -4.020      7.301      9.943
REMARK INTER + INTRA:          -8.230
REMARK INTER:                  -6.052
REMARK INTRA:                  -2.178
REMARK UNBOUND:                -0.920
REMARK SMILES CCCCCCCCCCCCCC[C@@H](C)C(=O)[O-]
REMARK SMILES IDX 9 1 10 2 11 3 12 4 13 5 14 6 15 7 16 8 17 9 18 10 19 11 8 12
REMARK SMILES IDX 7 13 6 14 5 15 4 16 3 17 2 18 1 19
REMARK H PARENT
REMARK Flexibility Score: inf
ROOT
ATOM      1  C   UNL     1     -22.103 -11.511  40.299  1.00  0.00     0.000 C 
ENDROOT
BRANCH   1   2
ATOM      2  C   UNL     1     -23.073 -11.250  39.131  1.00  0.00     0.000 C 
BRANCH   2   3
ATOM      3  C   UNL     1     -23.886 -12.494  38.736  1.00  0.00     0.000 C 
BRANCH   3   4
ATOM      4  C   UNL     1     -23.271 -13.797  39.271  1.00  0.00     0.000 C 
BRANCH   4   5
ATOM      5  C   UNL     1     -22.600 -14.637  38.170  1.00  0.00     0.001 C 
BRANCH   5   6
ATOM      6  C   UNL     1     -21.093 -14.318  38.027  1.00  0.00     0.009 C 
BRANCH   6   7
ATOM      7  C   UNL     1     -20.758 -13.156  37.064  1.00  0.00     0.032 C 
ATOM      8  C   UNL     1     -19.270 -13.099  36.693  1.00  0.00     0.014 C 
BRANCH   7   9
ATOM      9  C   UNL     1     -21.638 -13.181  35.839  1.00  0.00     0.044 C 
ATOM     10  O   UNL     1     -21.467 -14.072  34.966  1.00  0.00    -0.550 OA
ATOM     11  O   UNL     1     -22.608 -12.207  35.635  1.00  0.00    -0.550 OA
ENDBRANCH   7   9
ENDBRANCH   6   7
ENDBRANCH   5   6
ENDBRANCH   4   5
ENDBRANCH   3   4
ENDBRANCH   2   3
ENDBRANCH   1   2
BRANCH   1  12
ATOM     12  C   UNL     1     -20.714 -10.858  40.162  1.00  0.00     0.000 C 
BRANCH  12  13
ATOM     13  C   UNL     1     -19.562 -11.872  40.269  1.00  0.00    -0.000 C 
BRANCH  13  14
ATOM     14  C   UNL     1     -19.200 -12.213  41.726  1.00  0.00    -0.000 C 
BRANCH  14  15
ATOM     15  C   UNL     1     -19.446 -13.678  42.139  1.00  0.00    -0.000 C 
BRANCH  15  16
ATOM     16  C   UNL     1     -20.433 -13.876  43.306  1.00  0.00    -0.000 C 
BRANCH  16  17
ATOM     17  C   UNL     1     -20.968 -15.311  43.466  1.00  0.00    -0.000 C 
BRANCH  17  18
ATOM     18  C   UNL     1     -22.261 -15.555  42.676  1.00  0.00    -0.003 C 
ATOM     19  C   UNL     1     -23.221 -14.377  42.814  1.00  0.00     0.004 C 
ENDBRANCH  17  18
ENDBRANCH  16  17
ENDBRANCH  15  16
ENDBRANCH  14  15
ENDBRANCH  13  14
ENDBRANCH  12  13
ENDBRANCH   1  12
TORSDOF 14
ENDMDL
MODEL 8
REMARK VINA RESULT:    -4.014      7.467     11.289
REMARK INTER + INTRA:          -8.220
REMARK INTER:                  -6.496
REMARK INTRA:                  -1.724
REMARK UNBOUND:                -0.920
REMARK SMILES CCCCCCCCCCCCCC[C@@H](C)C(=O)[O-]
REMARK SMILES IDX 9 1 10 2 11 3 12 4 13 5 14 6 15 7 16 8 17 9 18 10 19 11 8 12
REMARK SMILES IDX 7 13 6 14 5 15 4 16 3 17 2 18 1 19
REMARK H PARENT
REMARK Flexibility Score: inf
ROOT
ATOM      1  C   UNL     1     -22.889 -13.905  41.899  1.00  0.00     0.000 C 
ENDROOT
BRANCH   1   2
ATOM      2  C   UNL     1     -21.489 -14.354  41.442  1.00  0.00     0.000 C 
BRANCH   2   3
ATOM      3  C   UNL     1     -21.515 -15.173  40.140  1.00  0.00     0.000 C 
BRANCH   3   4
ATOM      4  C   UNL     1     -20.693 -14.522  39.016  1.00  0.00     0.000 C 
BRANCH   4   5
ATOM      5  C   UNL     1     -21.568 -13.983  37.871  1.00  0.00     0.001 C 
BRANCH   5   6
ATOM      6  C   UNL     1     -21.504 -12.441  37.761  1.00  0.00     0.009 C 
BRANCH   6   7
ATOM      7  C   UNL     1     -22.790 -11.700  38.194  1.00  0.00     0.032 C 
ATOM      8  C   UNL     1     -23.993 -12.638  38.358  1.00  0.00     0.014 C 
BRANCH   7   9
ATOM      9  C   UNL     1     -22.559 -10.867  39.430  1.00  0.00     0.044 C 
ATOM     10  O   UNL     1     -21.545 -11.079  40.146  1.00  0.00    -0.550 OA
ATOM     11  O   UNL     1     -23.474  -9.894  39.818  1.00  0.00    -0.550 OA
ENDBRANCH   7   9
ENDBRANCH   6   7
ENDBRANCH   5   6
ENDBRANCH   4   5
ENDBRANCH   3   4
ENDBRANCH   2   3
ENDBRANCH   1   2
BRANCH   1  12
ATOM     12  C   UNL     1     -23.437 -14.622  43.149  1.00  0.00     0.000 C 
BRANCH  12  13
ATOM     13  C   UNL     1     -22.591 -15.839  43.560  1.00  0.00    -0.000 C 
BRANCH  13  14
ATOM     14  C   UNL     1     -22.219 -15.831  45.054  1.00  0.00    -0.000 C 
BRANCH  14  15
ATOM     15  C   UNL     1     -21.370 -14.628  45.513  1.00  0.00    -0.000 C 
BRANCH  15  16
ATOM     16  C   UNL     1     -21.797 -13.995  46.853  1.00  0.00    -0.000 C 
BRANCH  16  17
ATOM     17  C   UNL     1     -23.202 -14.392  47.339  1.00  0.00    -0.000 C 
BRANCH  17  18
ATOM     18  C   UNL     1     -24.113 -13.180  47.576  1.00  0.00    -0.003 C 
ATOM     19  C   UNL     1     -25.162 -13.055  46.474  1.00  0.00     0.004 C 
ENDBRANCH  17  18
ENDBRANCH  16  17
ENDBRANCH  15  16
ENDBRANCH  14  15
ENDBRANCH  13  14
ENDBRANCH  12  13
ENDBRANCH   1  12
TORSDOF 14
ENDMDL
MODEL 9
REMARK VINA RESULT:    -3.979      7.435     11.214
REMARK INTER + INTRA:          -8.155
REMARK INTER:                  -6.074
REMARK INTRA:                  -2.081
REMARK UNBOUND:                -0.920
REMARK SMILES CCCCCCCCCCCCCC[C@@H](C)C(=O)[O-]
REMARK SMILES IDX 9 1 10 2 11 3 12 4 13 5 14 6 15 7 16 8 17 9 18 10 19 11 8 12
REMARK SMILES IDX 7 13 6 14 5 15 4 16 3 17 2 18 1 19
REMARK H PARENT
REMARK Flexibility Score: inf
ROOT
ATOM      1  C   UNL     1     -22.797 -13.791  41.982  1.00  0.00     0.000 C 
ENDROOT
BRANCH   1   2
ATOM      2  C   UNL     1     -21.262 -13.786  41.868  1.00  0.00     0.000 C 
BRANCH   2   3
ATOM      3  C   UNL     1     -20.759 -14.293  40.506  1.00  0.00     0.000 C 
BRANCH   3   4
ATOM      4  C   UNL     1     -21.864 -14.979  39.686  1.00  0.00     0.000 C 
BRANCH   4   5
ATOM      5  C   UNL     1     -22.011 -14.389  38.272  1.00  0.00     0.001 C 
BRANCH   5   6
ATOM      6  C   UNL     1     -21.593 -12.901  38.212  1.00  0.00     0.009 C 
BRANCH   6   7
ATOM      7  C   UNL     1     -22.758 -11.889  38.311  1.00  0.00     0.032 C 
ATOM      8  C   UNL     1     -24.136 -12.556  38.223  1.00  0.00     0.014 C 
BRANCH   7   9
ATOM      9  C   UNL     1     -22.635 -11.022  39.540  1.00  0.00     0.044 C 
ATOM     10  O   UNL     1     -21.504 -10.826  40.055  1.00  0.00    -0.550 OA
ATOM     11  O   UNL     1     -23.761 -10.469  40.140  1.00  0.00    -0.550 OA
ENDBRANCH   7   9
ENDBRANCH   6   7
ENDBRANCH   5   6
ENDBRANCH   4   5
ENDBRANCH   3   4
ENDBRANCH   2   3
ENDBRANCH   1   2
BRANCH   1  12
ATOM     12  C   UNL     1     -23.371 -14.633  43.138  1.00  0.00     0.000 C 
BRANCH  12  13
ATOM     13  C   UNL     1     -22.496 -15.850  43.484  1.00  0.00    -0.000 C 
BRANCH  13  14
ATOM     14  C   UNL     1     -22.118 -15.909  44.975  1.00  0.00    -0.000 C 
BRANCH  14  15
ATOM     15  C   UNL     1     -22.529 -14.678  45.808  1.00  0.00    -0.000 C 
BRANCH  15  16
ATOM     16  C   UNL     1     -21.572 -14.313  46.959  1.00  0.00    -0.000 C 
BRANCH  16  17
ATOM     17  C   UNL     1     -20.085 -14.597  46.682  1.00  0.00    -0.000 C 
BRANCH  17  18
ATOM     18  C   UNL     1     -19.424 -13.513  45.819  1.00  0.00    -0.003 C 
ATOM     19  C   UNL     1     -18.875 -14.101  44.522  1.00  0.00     0.004 C 
ENDBRANCH  17  18
ENDBRANCH  16  17
ENDBRANCH  15  16
ENDBRANCH  14  15
ENDBRANCH  13  14
ENDBRANCH  12  13
ENDBRANCH   1  12
TORSDOF 14
ENDMDL
