MODEL 1
REMARK VINA RESULT:    -3.561      0.000      0.000
REMARK INTER + INTRA:          -7.739
REMARK INTER:                  -6.268
REMARK INTRA:                  -1.471
REMARK UNBOUND:                -1.471
REMARK SMILES CCCCCCCCCCCCCCC(=O)[O-]
REMARK SMILES IDX 9 1 10 2 11 3 12 4 13 5 14 6 15 7 16 8 17 9 8 10 7 11 6 12
REMARK SMILES IDX 5 13 4 14 3 15 2 16 1 17
REMARK H PARENT
REMARK Flexibility Score: inf
ROOT
ATOM      1  C   UNL     1     112.171  55.497 230.360  1.00  0.00     0.000 C 
ENDROOT
BRANCH   1   2
ATOM      2  C   UNL     1     113.168  55.664 231.517  1.00  0.00     0.000 C 
BRANCH   2   3
ATOM      3  C   UNL     1     113.694  54.303 231.989  1.00  0.00     0.000 C 
BRANCH   3   4
ATOM      4  C   UNL     1     112.714  53.178 231.624  1.00  0.00     0.000 C 
BRANCH   4   5
ATOM      5  C   UNL     1     111.809  52.771 232.801  1.00  0.00     0.006 C 
BRANCH   5   6
ATOM      6  C   UNL     1     110.345  53.217 232.658  1.00  0.00     0.053 C 
BRANCH   6   7
ATOM      7  C   UNL     1     109.387  52.103 232.943  1.00  0.00     0.041 C 
ATOM      8  O   UNL     1     108.312  52.332 233.557  1.00  0.00    -0.550 OA
ATOM      9  O   UNL     1     109.664  50.816 232.498  1.00  0.00    -0.550 OA
ENDBRANCH   6   7
ENDBRANCH   5   6
ENDBRANCH   4   5
ENDBRANCH   3   4
ENDBRANCH   2   3
ENDBRANCH   1   2
BRANCH   1  10
ATOM     10  C   UNL     1     112.705  56.062 229.033  1.00  0.00     0.000 C 
BRANCH  10  11
ATOM     11  C   UNL     1     113.706  55.120 228.348  1.00  0.00    -0.000 C 
BRANCH  11  12
ATOM     12  C   UNL     1     113.039  53.784 227.982  1.00  0.00    -0.000 C 
BRANCH  12  13
ATOM     13  C   UNL     1     113.470  53.262 226.603  1.00  0.00    -0.000 C 
BRANCH  13  14
ATOM     14  C   UNL     1     112.450  53.596 225.500  1.00  0.00    -0.000 C 
BRANCH  14  15
ATOM     15  C   UNL     1     111.005  53.273 225.914  1.00  0.00    -0.000 C 
BRANCH  15  16
ATOM     16  C   UNL     1     110.020  54.394 225.550  1.00  0.00    -0.003 C 
ATOM     17  C   UNL     1     110.134  55.564 226.525  1.00  0.00     0.004 C 
ENDBRANCH  15  16
ENDBRANCH  14  15
ENDBRANCH  13  14
ENDBRANCH  12  13
ENDBRANCH  11  12
ENDBRANCH  10  11
ENDBRANCH   1  10
TORSDOF 13
ENDMDL
MODEL 2
REMARK VINA RESULT:    -3.492      1.019      2.045
REMARK INTER + INTRA:          -7.616
REMARK INTER:                  -6.091
REMARK INTRA:                  -1.525
REMARK UNBOUND:                -1.471
REMARK SMILES CCCCCCCCCCCCCCC(=O)[O-]
REMARK SMILES IDX 9 1 10 2 11 3 12 4 13 5 14 6 15 7 16 8 17 9 8 10 7 11 6 12
REMARK SMILES IDX 5 13 4 14 3 15 2 16 1 17
REMARK H PARENT
REMARK Flexibility Score: inf
ROOT
ATOM      1  C   UNL     1     113.456  54.686 228.642  1.00  0.00     0.000 C 
ENDROOT
BRANCH   1   2
ATOM      2  C   UNL     1     113.241  54.723 230.163  1.00  0.00     0.000 C 
BRANCH   2   3
ATOM      3  C   UNL     1     112.546  53.445 230.650  1.00  0.00     0.000 C 
BRANCH   3   4
ATOM      4  C   UNL     1     112.866  53.173 232.127  1.00  0.00     0.000 C 
BRANCH   4   5
ATOM      5  C   UNL     1     111.760  53.666 233.078  1.00  0.00     0.006 C 
BRANCH   5   6
ATOM      6  C   UNL     1     110.337  53.542 232.511  1.00  0.00     0.053 C 
BRANCH   6   7
ATOM      7  C   UNL     1     109.574  52.421 233.145  1.00  0.00     0.041 C 
ATOM      8  O   UNL     1     108.850  52.636 234.152  1.00  0.00    -0.550 OA
ATOM      9  O   UNL     1     109.636  51.143 232.602  1.00  0.00    -0.550 OA
ENDBRANCH   6   7
ENDBRANCH   5   6
ENDBRANCH   4   5
ENDBRANCH   3   4
ENDBRANCH   2   3
ENDBRANCH   1   2
BRANCH   1  10
ATOM     10  C   UNL     1     113.077  53.331 228.024  1.00  0.00     0.000 C 
BRANCH  10  11
ATOM     11  C   UNL     1     113.292  53.291 226.504  1.00  0.00    -0.000 C 
BRANCH  11  12
ATOM     12  C   UNL     1     111.989  53.614 225.757  1.00  0.00    -0.000 C 
BRANCH  12  13
ATOM     13  C   UNL     1     112.029  54.979 225.052  1.00  0.00    -0.000 C 
BRANCH  13  14
ATOM     14  C   UNL     1     110.950  55.945 225.573  1.00  0.00    -0.000 C 
BRANCH  14  15
ATOM     15  C   UNL     1     110.066  55.311 226.659  1.00  0.00    -0.000 C 
BRANCH  15  16
ATOM     16  C   UNL     1     109.905  56.212 227.893  1.00  0.00    -0.003 C 
ATOM     17  C   UNL     1     111.045  57.224 227.986  1.00  0.00     0.004 C 
ENDBRANCH  15  16
ENDBRANCH  14  15
ENDBRANCH  13  14
ENDBRANCH  12  13
ENDBRANCH  11  12
ENDBRANCH  10  11
ENDBRANCH   1  10
TORSDOF 13
ENDMDL
MODEL 3
REMARK VINA RESULT:    -3.474      2.923      6.541
REMARK INTER + INTRA:          -7.585
REMARK INTER:                  -6.383
REMARK INTRA:                  -1.202
REMARK UNBOUND:                -1.471
REMARK SMILES CCCCCCCCCCCCCCC(=O)[O-]
REMARK SMILES IDX 9 1 10 2 11 3 12 4 13 5 14 6 15 7 16 8 17 9 8 10 7 11 6 12
REMARK SMILES IDX 5 13 4 14 3 15 2 16 1 17
REMARK H PARENT
REMARK Flexibility Score: inf
ROOT
ATOM      1  C   UNL     1     112.389  54.644 229.918  1.00  0.00     0.000 C 
ENDROOT
BRANCH   1   2
ATOM      2  C   UNL     1     113.336  54.567 228.711  1.00  0.00     0.000 C 
BRANCH   2   3
ATOM      3  C   UNL     1     113.013  53.349 227.837  1.00  0.00     0.000 C 
BRANCH   3   4
ATOM      4  C   UNL     1     113.487  53.567 226.392  1.00  0.00     0.000 C 
BRANCH   4   5
ATOM      5  C   UNL     1     112.335  53.516 225.373  1.00  0.00     0.006 C 
BRANCH   5   6
ATOM      6  C   UNL     1     110.940  53.723 225.984  1.00  0.00     0.053 C 
BRANCH   6   7
ATOM      7  C   UNL     1     109.874  53.015 225.205  1.00  0.00     0.041 C 
ATOM      8  O   UNL     1     109.278  53.604 224.266  1.00  0.00    -0.550 OA
ATOM      9  O   UNL     1     109.565  51.692 225.495  1.00  0.00    -0.550 OA
ENDBRANCH   6   7
ENDBRANCH   5   6
ENDBRANCH   4   5
ENDBRANCH   3   4
ENDBRANCH   2   3
ENDBRANCH   1   2
BRANCH   1  10
ATOM     10  C   UNL     1     112.643  53.524 230.941  1.00  0.00     0.000 C 
BRANCH  10  11
ATOM     11  C   UNL     1     113.610  53.946 232.056  1.00  0.00    -0.000 C 
BRANCH  11  12
ATOM     12  C   UNL     1     113.510  52.994 233.258  1.00  0.00    -0.000 C 
BRANCH  12  13
ATOM     13  C   UNL     1     112.822  53.637 234.472  1.00  0.00    -0.000 C 
BRANCH  13  14
ATOM     14  C   UNL     1     111.344  53.228 234.599  1.00  0.00    -0.000 C 
BRANCH  14  15
ATOM     15  C   UNL     1     110.393  54.238 233.938  1.00  0.00    -0.000 C 
BRANCH  15  16
ATOM     16  C   UNL     1     109.599  53.629 232.771  1.00  0.00    -0.003 C 
ATOM     17  C   UNL     1     109.767  52.112 232.726  1.00  0.00     0.004 C 
ENDBRANCH  15  16
ENDBRANCH  14  15
ENDBRANCH  13  14
ENDBRANCH  12  13
ENDBRANCH  11  12
ENDBRANCH  10  11
ENDBRANCH   1  10
TORSDOF 13
ENDMDL
MODEL 4
REMARK VINA RESULT:    -3.405      0.963      1.725
REMARK INTER + INTRA:          -7.463
REMARK INTER:                  -6.112
REMARK INTRA:                  -1.351
REMARK UNBOUND:                -1.471
REMARK SMILES CCCCCCCCCCCCCCC(=O)[O-]
REMARK SMILES IDX 9 1 10 2 11 3 12 4 13 5 14 6 15 7 16 8 17 9 8 10 7 11 6 12
REMARK SMILES IDX 5 13 4 14 3 15 2 16 1 17
REMARK H PARENT
REMARK Flexibility Score: inf
ROOT
ATOM      1  C   UNL     1     113.396  54.835 228.719  1.00  0.00     0.000 C 
ENDROOT
BRANCH   1   2
ATOM      2  C   UNL     1     113.368  54.707 230.250  1.00  0.00     0.000 C 
BRANCH   2   3
ATOM      3  C   UNL     1     112.610  53.446 230.681  1.00  0.00     0.000 C 
BRANCH   3   4
ATOM      4  C   UNL     1     112.892  53.111 232.153  1.00  0.00     0.000 C 
BRANCH   4   5
ATOM      5  C   UNL     1     111.770  53.579 233.097  1.00  0.00     0.006 C 
BRANCH   5   6
ATOM      6  C   UNL     1     110.360  53.511 232.487  1.00  0.00     0.053 C 
BRANCH   6   7
ATOM      7  C   UNL     1     109.551  52.393 233.066  1.00  0.00     0.041 C 
ATOM      8  O   UNL     1     108.756  52.612 234.017  1.00  0.00    -0.550 OA
ATOM      9  O   UNL     1     109.648  51.114 232.531  1.00  0.00    -0.550 OA
ENDBRANCH   6   7
ENDBRANCH   5   6
ENDBRANCH   4   5
ENDBRANCH   3   4
ENDBRANCH   2   3
ENDBRANCH   1   2
BRANCH   1  10
ATOM     10  C   UNL     1     112.921  53.557 228.010  1.00  0.00     0.000 C 
BRANCH  10  11
ATOM     11  C   UNL     1     113.675  53.290 226.699  1.00  0.00    -0.000 C 
BRANCH  11  12
ATOM     12  C   UNL     1     112.778  53.574 225.484  1.00  0.00    -0.000 C 
BRANCH  12  13
ATOM     13  C   UNL     1     112.947  55.001 224.940  1.00  0.00    -0.000 C 
BRANCH  13  14
ATOM     14  C   UNL     1     111.614  55.768 224.867  1.00  0.00    -0.000 C 
BRANCH  14  15
ATOM     15  C   UNL     1     110.398  54.860 225.111  1.00  0.00    -0.000 C 
BRANCH  15  16
ATOM     16  C   UNL     1     109.465  55.400 226.206  1.00  0.00    -0.003 C 
ATOM     17  C   UNL     1     110.252  56.159 227.272  1.00  0.00     0.004 C 
ENDBRANCH  15  16
ENDBRANCH  14  15
ENDBRANCH  13  14
ENDBRANCH  12  13
ENDBRANCH  11  12
ENDBRANCH  10  11
ENDBRANCH   1  10
TORSDOF 13
ENDMDL
MODEL 5
REMARK VINA RESULT:    -3.341      1.546      2.533
REMARK INTER + INTRA:          -7.351
REMARK INTER:                  -5.692
REMARK INTRA:                  -1.659
REMARK UNBOUND:                -1.471
REMARK SMILES CCCCCCCCCCCCCCC(=O)[O-]
REMARK SMILES IDX 9 1 10 2 11 3 12 4 13 5 14 6 15 7 16 8 17 9 8 10 7 11 6 12
REMARK SMILES IDX 5 13 4 14 3 15 2 16 1 17
REMARK H PARENT
REMARK Flexibility Score: inf
ROOT
ATOM      1  C   UNL     1     113.144  52.715 232.382  1.00  0.00     0.000 C 
ENDROOT
BRANCH   1   2
ATOM      2  C   UNL     1     113.757  53.685 233.404  1.00  0.00     0.000 C 
BRANCH   2   3
ATOM      3  C   UNL     1     113.125  53.495 234.789  1.00  0.00     0.000 C 
BRANCH   3   4
ATOM      4  C   UNL     1     111.839  54.323 234.924  1.00  0.00     0.000 C 
BRANCH   4   5
ATOM      5  C   UNL     1     110.568  53.455 234.916  1.00  0.00     0.006 C 
BRANCH   5   6
ATOM      6  C   UNL     1     109.659  53.675 233.695  1.00  0.00     0.053 C 
BRANCH   6   7
ATOM      7  C   UNL     1     109.021  52.401 233.233  1.00  0.00     0.041 C 
ATOM      8  O   UNL     1     107.774  52.250 233.319  1.00  0.00    -0.550 OA
ATOM      9  O   UNL     1     109.800  51.396 232.674  1.00  0.00    -0.550 OA
ENDBRANCH   6   7
ENDBRANCH   5   6
ENDBRANCH   4   5
ENDBRANCH   3   4
ENDBRANCH   2   3
ENDBRANCH   1   2
BRANCH   1  10
ATOM     10  C   UNL     1     112.337  53.438 231.291  1.00  0.00     0.000 C 
BRANCH  10  11
ATOM     11  C   UNL     1     112.871  54.846 230.992  1.00  0.00    -0.000 C 
BRANCH  11  12
ATOM     12  C   UNL     1     113.516  54.902 229.598  1.00  0.00    -0.000 C 
BRANCH  12  13
ATOM     13  C   UNL     1     112.995  53.807 228.656  1.00  0.00    -0.000 C 
BRANCH  13  14
ATOM     14  C   UNL     1     112.357  54.381 227.378  1.00  0.00    -0.000 C 
BRANCH  14  15
ATOM     15  C   UNL     1     111.903  55.839 227.549  1.00  0.00    -0.000 C 
BRANCH  15  16
ATOM     16  C   UNL     1     110.378  55.973 227.681  1.00  0.00    -0.003 C 
ATOM     17  C   UNL     1     109.980  56.330 229.111  1.00  0.00     0.004 C 
ENDBRANCH  15  16
ENDBRANCH  14  15
ENDBRANCH  13  14
ENDBRANCH  12  13
ENDBRANCH  11  12
ENDBRANCH  10  11
ENDBRANCH   1  10
TORSDOF 13
ENDMDL
MODEL 6
REMARK VINA RESULT:    -3.295      3.018      6.023
REMARK INTER + INTRA:          -7.270
REMARK INTER:                  -5.780
REMARK INTRA:                  -1.490
REMARK UNBOUND:                -1.471
REMARK SMILES CCCCCCCCCCCCCCC(=O)[O-]
REMARK SMILES IDX 9 1 10 2 11 3 12 4 13 5 14 6 15 7 16 8 17 9 8 10 7 11 6 12
REMARK SMILES IDX 5 13 4 14 3 15 2 16 1 17
REMARK H PARENT
REMARK Flexibility Score: inf
ROOT
ATOM      1  C   UNL     1     112.611  53.489 230.715  1.00  0.00     0.000 C 
ENDROOT
BRANCH   1   2
ATOM      2  C   UNL     1     113.300  54.698 230.064  1.00  0.00     0.000 C 
BRANCH   2   3
ATOM      3  C   UNL     1     112.945  54.796 228.575  1.00  0.00     0.000 C 
BRANCH   3   4
ATOM      4  C   UNL     1     113.087  53.431 227.885  1.00  0.00     0.000 C 
BRANCH   4   5
ATOM      5  C   UNL     1     112.498  53.419 226.463  1.00  0.00     0.006 C 
BRANCH   5   6
ATOM      6  C   UNL     1     111.217  54.253 226.300  1.00  0.00     0.053 C 
BRANCH   6   7
ATOM      7  C   UNL     1     110.176  53.535 225.498  1.00  0.00     0.041 C 
ATOM      8  O   UNL     1     110.033  52.290 225.615  1.00  0.00    -0.550 OA
ATOM      9  O   UNL     1     109.340  54.248 224.647  1.00  0.00    -0.550 OA
ENDBRANCH   6   7
ENDBRANCH   5   6
ENDBRANCH   4   5
ENDBRANCH   3   4
ENDBRANCH   2   3
ENDBRANCH   1   2
BRANCH   1  10
ATOM     10  C   UNL     1     113.154  53.184 232.121  1.00  0.00     0.000 C 
BRANCH  10  11
ATOM     11  C   UNL     1     112.042  53.059 233.172  1.00  0.00    -0.000 C 
BRANCH  11  12
ATOM     12  C   UNL     1     110.789  52.405 232.570  1.00  0.00    -0.000 C 
BRANCH  12  13
ATOM     13  C   UNL     1     109.505  53.198 232.858  1.00  0.00    -0.000 C 
BRANCH  13  14
ATOM     14  C   UNL     1     109.790  54.655 233.267  1.00  0.00    -0.000 C 
BRANCH  14  15
ATOM     15  C   UNL     1     109.126  55.672 232.325  1.00  0.00    -0.000 C 
BRANCH  15  16
ATOM     16  C   UNL     1     109.836  55.773 230.966  1.00  0.00    -0.003 C 
ATOM     17  C   UNL     1     110.350  57.189 230.719  1.00  0.00     0.004 C 
ENDBRANCH  15  16
ENDBRANCH  14  15
ENDBRANCH  13  14
ENDBRANCH  12  13
ENDBRANCH  11  12
ENDBRANCH  10  11
ENDBRANCH   1  10
TORSDOF 13
ENDMDL
MODEL 7
REMARK VINA RESULT:    -3.271      2.844      5.426
REMARK INTER + INTRA:          -7.228
REMARK INTER:                  -6.126
REMARK INTRA:                  -1.102
REMARK UNBOUND:                -1.471
REMARK SMILES CCCCCCCCCCCCCCC(=O)[O-]
REMARK SMILES IDX 9 1 10 2 11 3 12 4 13 5 14 6 15 7 16 8 17 9 8 10 7 11 6 12
REMARK SMILES IDX 5 13 4 14 3 15 2 16 1 17
REMARK H PARENT
REMARK Flexibility Score: inf
ROOT
ATOM      1  C   UNL     1     109.311  53.569 233.398  1.00  0.00     0.000 C 
ENDROOT
BRANCH   1   2
ATOM      2  C   UNL     1     108.590  52.300 232.918  1.00  0.00     0.000 C 
BRANCH   2   3
ATOM      3  C   UNL     1     109.598  51.219 232.507  1.00  0.00     0.000 C 
BRANCH   3   4
ATOM      4  C   UNL     1     108.882  49.911 232.140  1.00  0.00     0.000 C 
BRANCH   4   5
ATOM      5  C   UNL     1     107.389  50.116 231.824  1.00  0.00     0.006 C 
BRANCH   5   6
ATOM      6  C   UNL     1     106.629  48.822 231.491  1.00  0.00     0.053 C 
BRANCH   6   7
ATOM      7  C   UNL     1     105.475  48.594 232.418  1.00  0.00     0.041 C 
ATOM      8  O   UNL     1     104.296  48.611 231.978  1.00  0.00    -0.550 OA
ATOM      9  O   UNL     1     105.705  48.326 233.762  1.00  0.00    -0.550 OA
ENDBRANCH   6   7
ENDBRANCH   5   6
ENDBRANCH   4   5
ENDBRANCH   3   4
ENDBRANCH   2   3
ENDBRANCH   1   2
BRANCH   1  10
ATOM     10  C   UNL     1     110.423  53.268 234.416  1.00  0.00     0.000 C 
BRANCH  10  11
ATOM     11  C   UNL     1     111.675  54.130 234.199  1.00  0.00    -0.000 C 
BRANCH  11  12
ATOM     12  C   UNL     1     112.920  53.250 234.004  1.00  0.00    -0.000 C 
BRANCH  12  13
ATOM     13  C   UNL     1     113.101  52.789 232.550  1.00  0.00    -0.000 C 
BRANCH  13  14
ATOM     14  C   UNL     1     113.212  53.967 231.566  1.00  0.00    -0.000 C 
BRANCH  14  15
ATOM     15  C   UNL     1     112.258  53.827 230.369  1.00  0.00    -0.000 C 
BRANCH  15  16
ATOM     16  C   UNL     1     112.972  53.996 229.019  1.00  0.00    -0.003 C 
ATOM     17  C   UNL     1     113.107  55.472 228.650  1.00  0.00     0.004 C 
ENDBRANCH  15  16
ENDBRANCH  14  15
ENDBRANCH  13  14
ENDBRANCH  12  13
ENDBRANCH  11  12
ENDBRANCH  10  11
ENDBRANCH   1  10
TORSDOF 13
ENDMDL
MODEL 8
REMARK VINA RESULT:    -3.254     15.995     18.835
REMARK INTER + INTRA:          -7.197
REMARK INTER:                  -4.896
REMARK INTRA:                  -2.301
REMARK UNBOUND:                -1.471
REMARK SMILES CCCCCCCCCCCCCCC(=O)[O-]
REMARK SMILES IDX 9 1 10 2 11 3 12 4 13 5 14 6 15 7 16 8 17 9 8 10 7 11 6 12
REMARK SMILES IDX 5 13 4 14 3 15 2 16 1 17
REMARK H PARENT
REMARK Flexibility Score: inf
ROOT
ATOM      1  C   UNL     1      95.012  64.875 225.963  1.00  0.00     0.000 C 
ENDROOT
BRANCH   1   2
ATOM      2  C   UNL     1      95.362  65.685 224.705  1.00  0.00     0.000 C 
BRANCH   2   3
ATOM      3  C   UNL     1      96.252  64.870 223.758  1.00  0.00     0.000 C 
BRANCH   3   4
ATOM      4  C   UNL     1      96.991  63.759 224.519  1.00  0.00     0.000 C 
BRANCH   4   5
ATOM      5  C   UNL     1      98.516  63.968 224.548  1.00  0.00     0.006 C 
BRANCH   5   6
ATOM      6  C   UNL     1      98.959  65.424 224.326  1.00  0.00     0.053 C 
BRANCH   6   7
ATOM      7  C   UNL     1     100.330  65.509 223.730  1.00  0.00     0.041 C 
ATOM      8  O   UNL     1     101.011  66.561 223.855  1.00  0.00    -0.550 OA
ATOM      9  O   UNL     1     100.871  64.414 223.069  1.00  0.00    -0.550 OA
ENDBRANCH   6   7
ENDBRANCH   5   6
ENDBRANCH   4   5
ENDBRANCH   3   4
ENDBRANCH   2   3
ENDBRANCH   1   2
BRANCH   1  10
ATOM     10  C   UNL     1      95.394  65.605 227.261  1.00  0.00     0.000 C 
BRANCH  10  11
ATOM     11  C   UNL     1      96.691  66.416 227.125  1.00  0.00    -0.000 C 
BRANCH  11  12
ATOM     12  C   UNL     1      97.856  65.710 227.837  1.00  0.00    -0.000 C 
BRANCH  12  13
ATOM     13  C   UNL     1      97.404  64.489 228.653  1.00  0.00    -0.000 C 
BRANCH  13  14
ATOM     14  C   UNL     1      98.062  63.183 228.176  1.00  0.00    -0.000 C 
BRANCH  14  15
ATOM     15  C   UNL     1      97.032  62.121 227.757  1.00  0.00    -0.000 C 
BRANCH  15  16
ATOM     16  C   UNL     1      97.664  60.952 226.988  1.00  0.00    -0.003 C 
ATOM     17  C   UNL     1      99.171  61.146 226.836  1.00  0.00     0.004 C 
ENDBRANCH  15  16
ENDBRANCH  14  15
ENDBRANCH  13  14
ENDBRANCH  12  13
ENDBRANCH  11  12
ENDBRANCH  10  11
ENDBRANCH   1  10
TORSDOF 13
ENDMDL
MODEL 9
REMARK VINA RESULT:    -3.243      1.732      2.563
REMARK INTER + INTRA:          -7.179
REMARK INTER:                  -6.561
REMARK INTRA:                  -0.618
REMARK UNBOUND:                -1.471
REMARK SMILES CCCCCCCCCCCCCCC(=O)[O-]
REMARK SMILES IDX 9 1 10 2 11 3 12 4 13 5 14 6 15 7 16 8 17 9 8 10 7 11 6 12
REMARK SMILES IDX 5 13 4 14 3 15 2 16 1 17
REMARK H PARENT
REMARK Flexibility Score: inf
ROOT
ATOM      1  C   UNL     1     112.825  54.657 228.404  1.00  0.00     0.000 C 
ENDROOT
BRANCH   1   2
ATOM      2  C   UNL     1     113.271  54.614 229.874  1.00  0.00     0.000 C 
BRANCH   2   3
ATOM      3  C   UNL     1     112.594  53.456 230.618  1.00  0.00     0.000 C 
BRANCH   3   4
ATOM      4  C   UNL     1     113.041  53.410 232.087  1.00  0.00     0.000 C 
BRANCH   4   5
ATOM      5  C   UNL     1     111.888  53.081 233.051  1.00  0.00     0.006 C 
BRANCH   5   6
ATOM      6  C   UNL     1     110.490  53.158 232.415  1.00  0.00     0.053 C 
BRANCH   6   7
ATOM      7  C   UNL     1     109.502  52.281 233.121  1.00  0.00     0.041 C 
ATOM      8  O   UNL     1     109.005  52.643 234.219  1.00  0.00    -0.550 OA
ATOM      9  O   UNL     1     109.105  51.080 232.547  1.00  0.00    -0.550 OA
ENDBRANCH   6   7
ENDBRANCH   5   6
ENDBRANCH   4   5
ENDBRANCH   3   4
ENDBRANCH   2   3
ENDBRANCH   1   2
BRANCH   1  10
ATOM     10  C   UNL     1     113.279  53.421 227.611  1.00  0.00     0.000 C 
BRANCH  10  11
ATOM     11  C   UNL     1     112.822  53.454 226.146  1.00  0.00    -0.000 C 
BRANCH  11  12
ATOM     12  C   UNL     1     111.384  53.986 226.033  1.00  0.00    -0.000 C 
BRANCH  12  13
ATOM     13  C   UNL     1     110.397  52.928 225.515  1.00  0.00    -0.000 C 
BRANCH  13  14
ATOM     14  C   UNL     1     109.438  53.487 224.448  1.00  0.00    -0.000 C 
BRANCH  14  15
ATOM     15  C   UNL     1     108.598  52.388 223.778  1.00  0.00    -0.000 C 
BRANCH  15  16
ATOM     16  C   UNL     1     108.054  52.813 222.405  1.00  0.00    -0.003 C 
ATOM     17  C   UNL     1     108.459  54.247 222.073  1.00  0.00     0.004 C 
ENDBRANCH  15  16
ENDBRANCH  14  15
ENDBRANCH  13  14
ENDBRANCH  12  13
ENDBRANCH  11  12
ENDBRANCH  10  11
ENDBRANCH   1  10
TORSDOF 13
ENDMDL
