MODEL 1
REMARK VINA RESULT:    -1.641      0.000      0.000
REMARK INTER + INTRA:          -2.421
REMARK INTER:                  -1.977
REMARK INTRA:                  -0.444
REMARK UNBOUND:                -0.444
REMARK SMILES Oc1cc(O)c2c(c1)O[C@H](c1ccc(O)c(O)c1)[C@@H](O)C2
REMARK SMILES IDX 21 1 19 2 10 3 9 4 7 5 8 6 2 7 3 8 4 9 6 10 20 11 11 13
REMARK SMILES IDX 18 14 12 15 16 16 13 17 14 18 17 19 15 21 5 23 1 25
REMARK H PARENT 20 12 17 20 15 22 5 24 1 26
REMARK Flexibility Score: inf
ROOT
ATOM      1  C   UNL     1      -9.086  19.076 -15.800  1.00  0.00     0.079 C 
ATOM      2  C   UNL     1      -9.959  20.077 -16.582  1.00  0.00     0.164 C 
ATOM      3  C   UNL     1     -11.105  20.638 -15.711  1.00  0.00     0.232 C 
ATOM      4  O   UNL     1     -10.606  21.123 -14.460  1.00  0.00    -0.482 OA
ATOM      5  C   UNL     1      -9.488  20.583 -13.811  1.00  0.00     0.131 A 
ATOM      6  C   UNL     1      -9.149  21.063 -12.544  1.00  0.00     0.093 A 
ATOM      7  C   UNL     1      -8.056  20.529 -11.855  1.00  0.00     0.122 A 
ATOM      8  C   UNL     1      -7.306  19.504 -12.434  1.00  0.00     0.092 A 
ATOM      9  C   UNL     1      -7.632  19.006 -13.700  1.00  0.00     0.126 A 
ATOM     10  C   UNL     1      -8.711  19.574 -14.422  1.00  0.00     0.039 A 
ENDROOT
BRANCH   2  11
ATOM     11  O   UNL     1      -9.174  21.123 -17.103  1.00  0.00    -0.389 OA
ATOM     12  H   UNL     1      -9.560  21.982 -16.792  1.00  0.00     0.211 HD
ENDBRANCH   2  11
BRANCH   3  13
ATOM     13  C   UNL     1     -12.209  19.616 -15.512  1.00  0.00    -0.001 A 
ATOM     14  C   UNL     1     -12.402  18.617 -16.483  1.00  0.00     0.057 A 
ATOM     15  C   UNL     1     -13.012  19.601 -14.355  1.00  0.00     0.012 A 
ATOM     16  C   UNL     1     -13.390  17.636 -16.316  1.00  0.00     0.157 A 
ATOM     17  C   UNL     1     -13.997  18.623 -14.189  1.00  0.00     0.050 A 
ATOM     18  C   UNL     1     -14.190  17.640 -15.168  1.00  0.00     0.157 A 
BRANCH  16  19
ATOM     19  O   UNL     1     -13.580  16.653 -17.286  1.00  0.00    -0.504 OA
ATOM     20  H   UNL     1     -14.261  15.913 -17.164  1.00  0.00     0.293 HD
ENDBRANCH  16  19
BRANCH  18  21
ATOM     21  O   UNL     1     -15.170  16.665 -15.004  1.00  0.00    -0.504 OA
ATOM     22  H   UNL     1     -15.324  15.944 -15.700  1.00  0.00     0.293 HD
ENDBRANCH  18  21
ENDBRANCH   3  13
BRANCH   9  23
ATOM     23  O   UNL     1      -6.877  17.944 -14.202  1.00  0.00    -0.507 OA
ATOM     24  H   UNL     1      -7.026  16.980 -13.937  1.00  0.00     0.293 HD
ENDBRANCH   9  23
BRANCH   7  25
ATOM     25  O   UNL     1      -7.709  21.006 -10.593  1.00  0.00    -0.508 OA
ATOM     26  H   UNL     1      -6.939  20.606 -10.069  1.00  0.00     0.293 HD
ENDBRANCH   7  25
TORSDOF 6
ENDMDL
MODEL 2
REMARK VINA RESULT:    -0.816      2.123      5.824
REMARK INTER + INTRA:          -1.427
REMARK INTER:                  -1.425
REMARK INTRA:                  -0.001
REMARK UNBOUND:                -0.444
REMARK SMILES Oc1cc(O)c2c(c1)O[C@H](c1ccc(O)c(O)c1)[C@@H](O)C2
REMARK SMILES IDX 21 1 19 2 10 3 9 4 7 5 8 6 2 7 3 8 4 9 6 10 20 11 11 13
REMARK SMILES IDX 18 14 12 15 16 16 13 17 14 18 17 19 15 21 5 23 1 25
REMARK H PARENT 20 12 17 20 15 22 5 24 1 26
REMARK Flexibility Score: inf
ROOT
ATOM      1  C   UNL     1     -11.232  17.533 -13.984  1.00  0.00     0.079 C 
ATOM      2  C   UNL     1     -10.120  17.860 -12.968  1.00  0.00     0.164 C 
ATOM      3  C   UNL     1      -9.804  19.372 -12.934  1.00  0.00     0.232 C 
ATOM      4  O   UNL     1     -11.000  20.141 -12.785  1.00  0.00    -0.482 OA
ATOM      5  C   UNL     1     -12.247  19.739 -13.284  1.00  0.00     0.131 A 
ATOM      6  C   UNL     1     -13.329  20.615 -13.174  1.00  0.00     0.093 A 
ATOM      7  C   UNL     1     -14.581  20.258 -13.684  1.00  0.00     0.122 A 
ATOM      8  C   UNL     1     -14.746  19.025 -14.316  1.00  0.00     0.092 A 
ATOM      9  C   UNL     1     -13.672  18.136 -14.441  1.00  0.00     0.126 A 
ATOM     10  C   UNL     1     -12.414  18.472 -13.885  1.00  0.00     0.039 A 
ENDROOT
BRANCH   2  11
ATOM     11  O   UNL     1     -10.465  17.396 -11.684  1.00  0.00    -0.389 OA
ATOM     12  H   UNL     1     -11.175  16.711 -11.784  1.00  0.00     0.211 HD
ENDBRANCH   2  11
BRANCH   3  13
ATOM     13  C   UNL     1      -9.010  19.805 -14.153  1.00  0.00    -0.001 A 
ATOM     14  C   UNL     1      -9.693  20.108 -15.344  1.00  0.00     0.057 A 
ATOM     15  C   UNL     1      -7.612  19.970 -14.113  1.00  0.00     0.012 A 
ATOM     16  C   UNL     1      -8.996  20.544 -16.479  1.00  0.00     0.157 A 
ATOM     17  C   UNL     1      -6.917  20.405 -15.245  1.00  0.00     0.050 A 
ATOM     18  C   UNL     1      -7.606  20.691 -16.430  1.00  0.00     0.157 A 
BRANCH  16  19
ATOM     19  O   UNL     1      -9.680  20.837 -17.659  1.00  0.00    -0.504 OA
ATOM     20  H   UNL     1      -9.363  20.488 -18.556  1.00  0.00     0.293 HD
ENDBRANCH  16  19
BRANCH  18  21
ATOM     21  O   UNL     1      -6.915  21.125 -17.560  1.00  0.00    -0.504 OA
ATOM     22  H   UNL     1      -7.104  22.026 -17.983  1.00  0.00     0.293 HD
ENDBRANCH  18  21
ENDBRANCH   3  13
BRANCH   9  23
ATOM     23  O   UNL     1     -13.887  16.941 -15.130  1.00  0.00    -0.507 OA
ATOM     24  H   UNL     1     -13.146  16.296 -15.372  1.00  0.00     0.293 HD
ENDBRANCH   9  23
BRANCH   7  25
ATOM     25  O   UNL     1     -15.666  21.125 -13.575  1.00  0.00    -0.508 OA
ATOM     26  H   UNL     1     -16.010  21.432 -12.672  1.00  0.00     0.293 HD
ENDBRANCH   7  25
TORSDOF 6
ENDMDL
MODEL 3
REMARK VINA RESULT:     0.912      2.008      6.320
REMARK INTER + INTRA:           0.655
REMARK INTER:                   0.534
REMARK INTRA:                   0.121
REMARK UNBOUND:                -0.444
REMARK SMILES Oc1cc(O)c2c(c1)O[C@H](c1ccc(O)c(O)c1)[C@@H](O)C2
REMARK SMILES IDX 21 1 19 2 10 3 9 4 7 5 8 6 2 7 3 8 4 9 6 10 20 11 11 13
REMARK SMILES IDX 18 14 12 15 16 16 13 17 14 18 17 19 15 21 5 23 1 25
REMARK H PARENT 20 12 17 20 15 22 5 24 1 26
REMARK Flexibility Score: inf
ROOT
ATOM      1  C   UNL     1     -12.881  19.748 -15.952  1.00  0.00     0.079 C 
ATOM      2  C   UNL     1     -12.385  20.845 -16.914  1.00  0.00     0.164 C 
ATOM      3  C   UNL     1     -10.998  20.504 -17.504  1.00  0.00     0.232 C 
ATOM      4  O   UNL     1     -10.984  19.179 -18.044  1.00  0.00    -0.482 OA
ATOM      5  C   UNL     1     -11.763  18.129 -17.539  1.00  0.00     0.131 A 
ATOM      6  C   UNL     1     -11.595  16.850 -18.074  1.00  0.00     0.093 A 
ATOM      7  C   UNL     1     -12.336  15.773 -17.577  1.00  0.00     0.122 A 
ATOM      8  C   UNL     1     -13.240  15.977 -16.533  1.00  0.00     0.092 A 
ATOM      9  C   UNL     1     -13.418  17.250 -15.980  1.00  0.00     0.126 A 
ATOM     10  C   UNL     1     -12.705  18.353 -16.510  1.00  0.00     0.039 A 
ENDROOT
BRANCH   2  11
ATOM     11  O   UNL     1     -13.320  21.068 -17.942  1.00  0.00    -0.389 OA
ATOM     12  H   UNL     1     -14.066  20.426 -17.824  1.00  0.00     0.211 HD
ENDBRANCH   2  11
BRANCH   3  13
ATOM     13  C   UNL     1      -9.892  20.702 -16.483  1.00  0.00    -0.001 A 
ATOM     14  C   UNL     1     -10.196  20.604 -15.115  1.00  0.00     0.057 A 
ATOM     15  C   UNL     1      -8.555  20.924 -16.867  1.00  0.00     0.012 A 
ATOM     16  C   UNL     1      -9.193  20.747 -14.145  1.00  0.00     0.157 A 
ATOM     17  C   UNL     1      -7.555  21.066 -15.901  1.00  0.00     0.050 A 
ATOM     18  C   UNL     1      -7.870  20.980 -14.539  1.00  0.00     0.157 A 
BRANCH  16  19
ATOM     19  O   UNL     1      -9.503  20.655 -12.789  1.00  0.00    -0.504 OA
ATOM     20  H   UNL     1      -8.800  20.415 -12.100  1.00  0.00     0.293 HD
ENDBRANCH  16  19
BRANCH  18  21
ATOM     21  O   UNL     1      -6.875  21.122 -13.574  1.00  0.00    -0.504 OA
ATOM     22  H   UNL     1      -5.892  21.071 -13.815  1.00  0.00     0.293 HD
ENDBRANCH  18  21
ENDBRANCH   3  13
BRANCH   9  23
ATOM     23  O   UNL     1     -14.297  17.380 -14.903  1.00  0.00    -0.507 OA
ATOM     24  H   UNL     1     -14.953  16.661 -14.629  1.00  0.00     0.293 HD
ENDBRANCH   9  23
BRANCH   7  25
ATOM     25  O   UNL     1     -12.176  14.495 -18.109  1.00  0.00    -0.508 OA
ATOM     26  H   UNL     1     -12.278  13.667 -17.534  1.00  0.00     0.293 HD
ENDBRANCH   7  25
TORSDOF 6
ENDMDL
