MODEL 1
REMARK VINA RESULT:    -4.913      0.000      0.000
REMARK INTER + INTRA:          -5.218
REMARK INTER:                  -5.201
REMARK INTRA:                  -0.018
REMARK UNBOUND:                -0.018
REMARK SMILES O=C([O-])c1cccnc1
REMARK SMILES IDX 4 1 5 2 9 3 6 4 8 5 7 6 2 7 1 8 3 9
REMARK H PARENT
REMARK Flexibility Score: inf
ROOT
ATOM      1  C   UNL     1       7.143  -2.323  31.386  1.00  0.00     0.016 A 
ATOM      2  C   UNL     1       7.951  -3.470  31.307  1.00  0.00     0.013 A 
ATOM      3  C   UNL     1       7.550  -1.275  32.228  1.00  0.00     0.120 A 
ATOM      4  C   UNL     1       9.127  -3.549  32.053  1.00  0.00     0.021 A 
ATOM      5  N   UNL     1       8.702  -1.378  32.944  1.00  0.00    -0.264 NA
ATOM      6  C   UNL     1       9.490  -2.482  32.875  1.00  0.00     0.111 A 
ENDROOT
BRANCH   1   7
ATOM      7  C   UNL     1       5.893  -2.227  30.600  1.00  0.00     0.073 C 
ATOM      8  O   UNL     1       4.957  -3.050  30.783  1.00  0.00    -0.545 OA
ATOM      9  O   UNL     1       5.735  -1.226  29.649  1.00  0.00    -0.545 OA
ENDBRANCH   1   7
TORSDOF 1
ENDMDL
MODEL 2
REMARK VINA RESULT:    -4.644      2.746      3.588
REMARK INTER + INTRA:          -4.934
REMARK INTER:                  -4.910
REMARK INTRA:                  -0.024
REMARK UNBOUND:                -0.018
REMARK SMILES O=C([O-])c1cccnc1
REMARK SMILES IDX 4 1 5 2 9 3 6 4 8 5 7 6 2 7 1 8 3 9
REMARK H PARENT
REMARK Flexibility Score: inf
ROOT
ATOM      1  C   UNL     1       7.848  -2.660  31.726  1.00  0.00     0.016 A 
ATOM      2  C   UNL     1       7.278  -3.521  30.774  1.00  0.00     0.013 A 
ATOM      3  C   UNL     1       7.212  -1.434  31.984  1.00  0.00     0.120 A 
ATOM      4  C   UNL     1       6.107  -3.153  30.110  1.00  0.00     0.021 A 
ATOM      5  N   UNL     1       6.071  -1.100  31.322  1.00  0.00    -0.264 NA
ATOM      6  C   UNL     1       5.512  -1.925  30.400  1.00  0.00     0.111 A 
ENDROOT
BRANCH   1   7
ATOM      7  C   UNL     1       9.089  -3.039  32.437  1.00  0.00     0.073 C 
ATOM      8  O   UNL     1       9.600  -4.178  32.269  1.00  0.00    -0.545 OA
ATOM      9  O   UNL     1       9.708  -2.143  33.301  1.00  0.00    -0.545 OA
ENDBRANCH   1   7
TORSDOF 1
ENDMDL
MODEL 3
REMARK VINA RESULT:    -4.640      0.918      1.601
REMARK INTER + INTRA:          -4.929
REMARK INTER:                  -4.911
REMARK INTRA:                  -0.018
REMARK UNBOUND:                -0.018
REMARK SMILES O=C([O-])c1cccnc1
REMARK SMILES IDX 4 1 5 2 9 3 6 4 8 5 7 6 2 7 1 8 3 9
REMARK H PARENT
REMARK Flexibility Score: inf
ROOT
ATOM      1  C   UNL     1       7.104  -2.332  31.359  1.00  0.00     0.016 A 
ATOM      2  C   UNL     1       7.517  -1.275  32.187  1.00  0.00     0.013 A 
ATOM      3  C   UNL     1       7.913  -3.479  31.286  1.00  0.00     0.120 A 
ATOM      4  C   UNL     1       8.704  -1.378  32.914  1.00  0.00     0.021 A 
ATOM      5  N   UNL     1       9.066  -3.553  32.005  1.00  0.00    -0.264 NA
ATOM      6  C   UNL     1       9.474  -2.537  32.808  1.00  0.00     0.111 A 
ENDROOT
BRANCH   1   7
ATOM      7  C   UNL     1       5.848  -2.235  30.584  1.00  0.00     0.073 C 
ATOM      8  O   UNL     1       4.915  -3.060  30.772  1.00  0.00    -0.545 OA
ATOM      9  O   UNL     1       5.680  -1.231  29.637  1.00  0.00    -0.545 OA
ENDBRANCH   1   7
TORSDOF 1
ENDMDL
MODEL 4
REMARK VINA RESULT:    -4.626      2.824      3.955
REMARK INTER + INTRA:          -4.914
REMARK INTER:                  -4.890
REMARK INTRA:                  -0.024
REMARK UNBOUND:                -0.018
REMARK SMILES O=C([O-])c1cccnc1
REMARK SMILES IDX 4 1 5 2 9 3 6 4 8 5 7 6 2 7 1 8 3 9
REMARK H PARENT
REMARK Flexibility Score: inf
ROOT
ATOM      1  C   UNL     1       6.393  -2.359  30.343  1.00  0.00     0.016 A 
ATOM      2  C   UNL     1       6.395  -3.548  29.595  1.00  0.00     0.013 A 
ATOM      3  C   UNL     1       5.661  -1.263  29.854  1.00  0.00     0.120 A 
ATOM      4  C   UNL     1       5.680  -3.624  28.399  1.00  0.00     0.021 A 
ATOM      5  N   UNL     1       4.973  -1.364  28.685  1.00  0.00    -0.264 NA
ATOM      6  C   UNL     1       4.968  -2.509  27.955  1.00  0.00     0.111 A 
ENDROOT
BRANCH   1   7
ATOM      7  C   UNL     1       7.146  -2.266  31.612  1.00  0.00     0.073 C 
ATOM      8  O   UNL     1       8.002  -3.139  31.914  1.00  0.00    -0.545 OA
ATOM      9  O   UNL     1       6.920  -1.212  32.490  1.00  0.00    -0.545 OA
ENDBRANCH   1   7
TORSDOF 1
ENDMDL
MODEL 5
REMARK VINA RESULT:    -4.552      9.183      9.738
REMARK INTER + INTRA:          -4.836
REMARK INTER:                  -4.820
REMARK INTRA:                  -0.016
REMARK UNBOUND:                -0.018
REMARK SMILES O=C([O-])c1cccnc1
REMARK SMILES IDX 4 1 5 2 9 3 6 4 8 5 7 6 2 7 1 8 3 9
REMARK H PARENT
REMARK Flexibility Score: inf
ROOT
ATOM      1  C   UNL     1       7.071  -7.669  23.403  1.00  0.00     0.016 A 
ATOM      2  C   UNL     1       6.762  -8.769  24.219  1.00  0.00     0.013 A 
ATOM      3  C   UNL     1       7.075  -6.387  23.980  1.00  0.00     0.120 A 
ATOM      4  C   UNL     1       6.468  -8.577  25.570  1.00  0.00     0.021 A 
ATOM      5  N   UNL     1       6.786  -6.228  25.300  1.00  0.00    -0.264 NA
ATOM      6  C   UNL     1       6.485  -7.285  26.098  1.00  0.00     0.111 A 
ENDROOT
BRANCH   1   7
ATOM      7  C   UNL     1       7.384  -7.859  21.970  1.00  0.00     0.073 C 
ATOM      8  O   UNL     1       6.488  -7.721  21.095  1.00  0.00    -0.545 OA
ATOM      9  O   UNL     1       8.673  -8.193  21.568  1.00  0.00    -0.545 OA
ENDBRANCH   1   7
TORSDOF 1
ENDMDL
MODEL 6
REMARK VINA RESULT:    -4.533      2.846      4.027
REMARK INTER + INTRA:          -4.816
REMARK INTER:                  -4.792
REMARK INTRA:                  -0.023
REMARK UNBOUND:                -0.018
REMARK SMILES O=C([O-])c1cccnc1
REMARK SMILES IDX 4 1 5 2 9 3 6 4 8 5 7 6 2 7 1 8 3 9
REMARK H PARENT
REMARK Flexibility Score: inf
ROOT
ATOM      1  C   UNL     1       7.285  -2.668  31.396  1.00  0.00     0.016 A 
ATOM      2  C   UNL     1       6.293  -1.751  31.781  1.00  0.00     0.013 A 
ATOM      3  C   UNL     1       7.026  -3.512  30.302  1.00  0.00     0.120 A 
ATOM      4  C   UNL     1       5.085  -1.692  31.084  1.00  0.00     0.021 A 
ATOM      5  N   UNL     1       5.841  -3.433  29.639  1.00  0.00    -0.264 NA
ATOM      6  C   UNL     1       4.875  -2.551  30.004  1.00  0.00     0.111 A 
ENDROOT
BRANCH   1   7
ATOM      7  C   UNL     1       8.569  -2.740  32.126  1.00  0.00     0.073 C 
ATOM      8  O   UNL     1       8.934  -1.794  32.873  1.00  0.00    -0.545 OA
ATOM      9  O   UNL     1       9.390  -3.855  32.000  1.00  0.00    -0.545 OA
ENDBRANCH   1   7
TORSDOF 1
ENDMDL
MODEL 7
REMARK VINA RESULT:    -4.478      8.635      9.336
REMARK INTER + INTRA:          -4.757
REMARK INTER:                  -4.741
REMARK INTRA:                  -0.017
REMARK UNBOUND:                -0.018
REMARK SMILES O=C([O-])c1cccnc1
REMARK SMILES IDX 4 1 5 2 9 3 6 4 8 5 7 6 2 7 1 8 3 9
REMARK H PARENT
REMARK Flexibility Score: inf
ROOT
ATOM      1  C   UNL     1       6.943  -6.803  24.370  1.00  0.00     0.016 A 
ATOM      2  C   UNL     1       6.940  -8.200  24.225  1.00  0.00     0.013 A 
ATOM      3  C   UNL     1       6.823  -6.012  23.215  1.00  0.00     0.120 A 
ATOM      4  C   UNL     1       6.819  -8.773  22.958  1.00  0.00     0.021 A 
ATOM      5  N   UNL     1       6.705  -6.595  21.991  1.00  0.00    -0.264 NA
ATOM      6  C   UNL     1       6.702  -7.945  21.841  1.00  0.00     0.111 A 
ENDROOT
BRANCH   1   7
ATOM      7  C   UNL     1       7.071  -6.184  25.707  1.00  0.00     0.073 C 
ATOM      8  O   UNL     1       8.180  -6.172  26.303  1.00  0.00    -0.545 OA
ATOM      9  O   UNL     1       5.967  -5.608  26.325  1.00  0.00    -0.545 OA
ENDBRANCH   1   7
TORSDOF 1
ENDMDL
MODEL 8
REMARK VINA RESULT:    -4.468      3.476      4.247
REMARK INTER + INTRA:          -4.747
REMARK INTER:                  -4.724
REMARK INTRA:                  -0.023
REMARK UNBOUND:                -0.018
REMARK SMILES O=C([O-])c1cccnc1
REMARK SMILES IDX 4 1 5 2 9 3 6 4 8 5 7 6 2 7 1 8 3 9
REMARK H PARENT
REMARK Flexibility Score: inf
ROOT
ATOM      1  C   UNL     1       9.521  -1.527  33.175  1.00  0.00     0.016 A 
ATOM      2  C   UNL     1       9.980  -2.825  32.897  1.00  0.00     0.013 A 
ATOM      3  C   UNL     1       8.282  -1.128  32.645  1.00  0.00     0.120 A 
ATOM      4  C   UNL     1       9.212  -3.686  32.112  1.00  0.00     0.021 A 
ATOM      5  N   UNL     1       7.553  -1.988  31.883  1.00  0.00    -0.264 NA
ATOM      6  C   UNL     1       7.988  -3.245  31.608  1.00  0.00     0.111 A 
ENDROOT
BRANCH   1   7
ATOM      7  C   UNL     1      10.326  -0.605  34.005  1.00  0.00     0.073 C 
ATOM      8  O   UNL     1      11.565  -0.787  34.146  1.00  0.00    -0.545 OA
ATOM      9  O   UNL     1       9.727   0.476  34.641  1.00  0.00    -0.545 OA
ENDBRANCH   1   7
TORSDOF 1
ENDMDL
MODEL 9
REMARK VINA RESULT:    -4.405      9.162      9.971
REMARK INTER + INTRA:          -4.681
REMARK INTER:                  -4.660
REMARK INTRA:                  -0.021
REMARK UNBOUND:                -0.018
REMARK SMILES O=C([O-])c1cccnc1
REMARK SMILES IDX 4 1 5 2 9 3 6 4 8 5 7 6 2 7 1 8 3 9
REMARK H PARENT
REMARK Flexibility Score: inf
ROOT
ATOM      1  C   UNL     1       7.087  -7.337  23.908  1.00  0.00     0.016 A 
ATOM      2  C   UNL     1       6.696  -6.191  23.195  1.00  0.00     0.013 A 
ATOM      3  C   UNL     1       7.802  -8.336  23.226  1.00  0.00     0.120 A 
ATOM      4  C   UNL     1       7.019  -6.064  21.843  1.00  0.00     0.021 A 
ATOM      5  N   UNL     1       8.104  -8.187  21.908  1.00  0.00    -0.264 NA
ATOM      6  C   UNL     1       7.731  -7.084  21.210  1.00  0.00     0.111 A 
ENDROOT
BRANCH   1   7
ATOM      7  C   UNL     1       6.751  -7.483  25.341  1.00  0.00     0.073 C 
ATOM      8  O   UNL     1       6.837  -6.499  26.122  1.00  0.00    -0.545 OA
ATOM      9  O   UNL     1       6.334  -8.710  25.844  1.00  0.00    -0.545 OA
ENDBRANCH   1   7
TORSDOF 1
ENDMDL
