MODEL 1
REMARK VINA RESULT:    -3.681      0.000      0.000
REMARK INTER + INTRA:          -5.223
REMARK INTER:                  -5.187
REMARK INTRA:                  -0.036
REMARK UNBOUND:                -0.036
REMARK SMILES CC1=CCC(=C(C)C)C(=O)CC(C)=CCC1
REMARK SMILES IDX 12 1 14 2 13 3 15 4 16 5 2 6 1 7 3 8 11 10 9 11 10 12 5 13
REMARK SMILES IDX 6 14 7 15 8 16 4 17
REMARK H PARENT
REMARK Flexibility Score: 60.00
ROOT
ATOM      1  C   UNL     1      -7.297   4.220  16.344  1.00  0.00    -0.070 C 
ATOM      2  C   UNL     1      -7.383   5.505  16.757  1.00  0.00    -0.027 C 
ATOM      3  C   UNL     1      -8.545   3.559  15.818  1.00  0.00     0.039 C 
ENDROOT
BRANCH   2   4
ATOM      4  C   UNL     1      -6.278   6.268  17.443  1.00  0.00     0.032 C 
BRANCH   4   5
ATOM      5  C   UNL     1      -5.687   7.304  16.479  1.00  0.00     0.034 C 
BRANCH   5   6
ATOM      6  C   UNL     1      -4.173   7.321  16.504  1.00  0.00    -0.077 C 
ATOM      7  C   UNL     1      -3.476   8.199  17.514  1.00  0.00     0.039 C 
ATOM      8  C   UNL     1      -3.399   6.534  15.714  1.00  0.00    -0.023 CG0
ATOM      9  G   UNL     1      -3.858   5.621  14.592  1.00  0.00     0.000 G0
ENDBRANCH   5   6
ENDBRANCH   4   5
ENDBRANCH   2   4
BRANCH   1  10
ATOM     10  C   UNL     1      -6.010   3.421  16.367  1.00  0.00     0.111 C 
BRANCH  10  11
ATOM     11  C   UNL     1      -5.271   3.504  15.053  1.00  0.00     0.163 C 
ATOM     12  O   UNL     1      -5.844   3.018  14.040  1.00  0.00    -0.294 OA
BRANCH  11  13
ATOM     13  C   UNL     1      -3.923   4.145  14.892  1.00  0.00    -0.002 C 
ATOM     14  C   UNL     1      -2.789   3.379  14.854  1.00  0.00    -0.069 C 
ATOM     15  C   UNL     1      -1.446   3.955  14.465  1.00  0.00     0.039 C 
ATOM     16  C   UNL     1      -2.807   1.919  15.251  1.00  0.00     0.039 C 
BRANCH  13  17
ATOM     17  C   UNL     1      -3.876   5.639  14.593  1.00  0.00     0.066 CG0
ATOM     18  G   UNL     1      -3.402   6.540  15.719  1.00  0.00     0.000 G0
ENDBRANCH  13  17
ENDBRANCH  11  13
ENDBRANCH  10  11
ENDBRANCH   1  10
TORSDOF 0
ENDMDL
MODEL 2
REMARK VINA RESULT:    -3.616      2.522      4.719
REMARK INTER + INTRA:          -5.131
REMARK INTER:                  -5.050
REMARK INTRA:                  -0.082
REMARK UNBOUND:                -0.036
REMARK SMILES CC1=CCC(=C(C)C)C(=O)CC(C)=CCC1
REMARK SMILES IDX 12 1 14 2 13 3 15 4 16 5 2 6 1 7 3 8 11 10 9 11 10 12 5 13
REMARK SMILES IDX 6 14 7 15 8 16 4 17
REMARK H PARENT
REMARK Flexibility Score: 60.00
ROOT
ATOM      1  C   UNL     1      -6.069   3.113  14.997  1.00  0.00    -0.070 C 
ATOM      2  C   UNL     1      -5.447   2.110  14.337  1.00  0.00    -0.027 C 
ATOM      3  C   UNL     1      -6.542   2.850  16.404  1.00  0.00     0.039 C 
ENDROOT
BRANCH   2   4
ATOM      4  C   UNL     1      -5.044   2.151  12.884  1.00  0.00     0.032 C 
BRANCH   4   5
ATOM      5  C   UNL     1      -3.647   2.769  12.750  1.00  0.00     0.034 C 
BRANCH   5   6
ATOM      6  C   UNL     1      -3.549   3.733  11.585  1.00  0.00    -0.077 C 
ATOM      7  C   UNL     1      -3.659   3.185  10.183  1.00  0.00     0.039 C 
ATOM      8  C   UNL     1      -3.439   5.077  11.729  1.00  0.00    -0.023 CG0
ATOM      9  G   UNL     1      -3.254   5.854  13.020  1.00  0.00     0.000 G0
ENDBRANCH   5   6
ENDBRANCH   4   5
ENDBRANCH   2   4
BRANCH   1  10
ATOM     10  C   UNL     1      -6.295   4.489  14.403  1.00  0.00     0.111 C 
BRANCH  10  11
ATOM     11  C   UNL     1      -5.170   5.438  14.733  1.00  0.00     0.163 C 
ATOM     12  O   UNL     1      -4.755   5.445  15.923  1.00  0.00    -0.294 OA
BRANCH  11  13
ATOM     13  C   UNL     1      -4.518   6.343  13.727  1.00  0.00    -0.002 C 
ATOM     14  C   UNL     1      -4.958   7.628  13.559  1.00  0.00    -0.069 C 
ATOM     15  C   UNL     1      -4.191   8.636  12.734  1.00  0.00     0.039 C 
ATOM     16  C   UNL     1      -6.268   8.098  14.152  1.00  0.00     0.039 C 
BRANCH  13  17
ATOM     17  C   UNL     1      -3.251   5.847  13.040  1.00  0.00     0.066 CG0
ATOM     18  G   UNL     1      -3.440   5.081  11.743  1.00  0.00     0.000 G0
ENDBRANCH  13  17
ENDBRANCH  11  13
ENDBRANCH  10  11
ENDBRANCH   1  10
TORSDOF 0
ENDMDL
MODEL 3
REMARK VINA RESULT:    -3.612      2.674      4.538
REMARK INTER + INTRA:          -5.126
REMARK INTER:                  -4.978
REMARK INTRA:                  -0.148
REMARK UNBOUND:                -0.036
REMARK SMILES CC1=CCC(=C(C)C)C(=O)CC(C)=CCC1
REMARK SMILES IDX 12 1 14 2 13 3 15 4 16 5 2 6 1 7 3 8 11 10 9 11 10 12 5 13
REMARK SMILES IDX 6 14 7 15 8 16 4 17
REMARK H PARENT
REMARK Flexibility Score: 60.00
ROOT
ATOM      1  C   UNL     1      -3.986   6.472  12.974  1.00  0.00    -0.070 C 
ATOM      2  C   UNL     1      -4.938   6.899  13.834  1.00  0.00    -0.027 C 
ATOM      3  C   UNL     1      -2.727   7.291  12.845  1.00  0.00     0.039 C 
ENDROOT
BRANCH   2   4
ATOM      4  C   UNL     1      -6.309   6.289  13.979  1.00  0.00     0.032 C 
BRANCH   4   5
ATOM      5  C   UNL     1      -6.332   5.344  15.186  1.00  0.00     0.034 C 
BRANCH   5   6
ATOM      6  C   UNL     1      -7.085   4.060  14.903  1.00  0.00    -0.077 C 
ATOM      7  C   UNL     1      -8.593   4.083  14.936  1.00  0.00     0.039 C 
ATOM      8  C   UNL     1      -6.480   2.898  14.547  1.00  0.00    -0.023 CG0
ATOM      9  G   UNL     1      -4.991   2.610  14.500  1.00  0.00     0.000 G0
ENDBRANCH   5   6
ENDBRANCH   4   5
ENDBRANCH   2   4
BRANCH   1  10
ATOM     10  C   UNL     1      -4.114   5.206  12.150  1.00  0.00     0.111 C 
BRANCH  10  11
ATOM     11  C   UNL     1      -3.544   4.007  12.868  1.00  0.00     0.163 C 
ATOM     12  O   UNL     1      -2.355   4.094  13.278  1.00  0.00    -0.294 OA
BRANCH  11  13
ATOM     13  C   UNL     1      -4.317   2.746  13.131  1.00  0.00    -0.002 C 
ATOM     14  C   UNL     1      -4.266   1.702  12.248  1.00  0.00    -0.069 C 
ATOM     15  C   UNL     1      -4.836   0.342  12.582  1.00  0.00     0.039 C 
ATOM     16  C   UNL     1      -3.679   1.866  10.863  1.00  0.00     0.039 C 
BRANCH  13  17
ATOM     17  C   UNL     1      -5.005   2.603  14.484  1.00  0.00     0.066 CG0
ATOM     18  G   UNL     1      -6.493   2.899  14.522  1.00  0.00     0.000 G0
ENDBRANCH  13  17
ENDBRANCH  11  13
ENDBRANCH  10  11
ENDBRANCH   1  10
TORSDOF 0
ENDMDL
MODEL 4
REMARK VINA RESULT:    -3.602      1.736      4.699
REMARK INTER + INTRA:          -5.112
REMARK INTER:                  -5.201
REMARK INTRA:                   0.088
REMARK UNBOUND:                -0.036
REMARK SMILES CC1=CCC(=C(C)C)C(=O)CC(C)=CCC1
REMARK SMILES IDX 12 1 14 2 13 3 15 4 16 5 2 6 1 7 3 8 11 10 9 11 10 12 5 13
REMARK SMILES IDX 6 14 7 15 8 16 4 17
REMARK H PARENT
REMARK Flexibility Score: 60.00
ROOT
ATOM      1  C   UNL     1      -3.610   4.443  15.123  1.00  0.00    -0.070 C 
ATOM      2  C   UNL     1      -4.157   3.267  15.509  1.00  0.00    -0.027 C 
ATOM      3  C   UNL     1      -2.281   4.835  15.715  1.00  0.00     0.039 C 
ENDROOT
BRANCH   2   4
ATOM      4  C   UNL     1      -5.537   2.791  15.133  1.00  0.00     0.032 C 
BRANCH   4   5
ATOM      5  C   UNL     1      -6.489   2.964  16.323  1.00  0.00     0.034 C 
BRANCH   5   6
ATOM      6  C   UNL     1      -7.499   4.072  16.101  1.00  0.00    -0.077 C 
ATOM      7  C   UNL     1      -8.810   3.732  15.437  1.00  0.00     0.039 C 
ATOM      8  C   UNL     1      -7.322   5.347  16.531  1.00  0.00    -0.023 CG0
ATOM      9  G   UNL     1      -6.078   5.941  17.166  1.00  0.00     0.000 G0
ENDBRANCH   5   6
ENDBRANCH   4   5
ENDBRANCH   2   4
BRANCH   1  10
ATOM     10  C   UNL     1      -4.256   5.372  14.115  1.00  0.00     0.111 C 
BRANCH  10  11
ATOM     11  C   UNL     1      -5.178   6.368  14.775  1.00  0.00     0.163 C 
ATOM     12  O   UNL     1      -6.041   6.925  14.043  1.00  0.00    -0.294 OA
BRANCH  11  13
ATOM     13  C   UNL     1      -5.132   6.706  16.238  1.00  0.00    -0.002 C 
ATOM     14  C   UNL     1      -4.374   7.753  16.686  1.00  0.00    -0.069 C 
ATOM     15  C   UNL     1      -4.478   8.269  18.104  1.00  0.00     0.039 C 
ATOM     16  C   UNL     1      -3.346   8.421  15.800  1.00  0.00     0.039 C 
BRANCH  13  17
ATOM     17  C   UNL     1      -6.090   5.969  17.168  1.00  0.00     0.066 CG0
ATOM     18  G   UNL     1      -7.312   5.342  16.522  1.00  0.00     0.000 G0
ENDBRANCH  13  17
ENDBRANCH  11  13
ENDBRANCH  10  11
ENDBRANCH   1  10
TORSDOF 0
ENDMDL
MODEL 5
REMARK VINA RESULT:    -3.601      2.225      4.232
REMARK INTER + INTRA:          -5.110
REMARK INTER:                  -5.093
REMARK INTRA:                  -0.017
REMARK UNBOUND:                -0.036
REMARK SMILES CC1=CCC(=C(C)C)C(=O)CC(C)=CCC1
REMARK SMILES IDX 12 1 14 2 13 3 15 4 16 5 2 6 1 7 3 8 11 10 9 11 10 12 5 13
REMARK SMILES IDX 6 14 7 15 8 16 4 17
REMARK H PARENT
REMARK Flexibility Score: 60.00
ROOT
ATOM      1  C   UNL     1      -6.558   5.338  16.124  1.00  0.00    -0.070 C 
ATOM      2  C   UNL     1      -6.676   4.032  16.455  1.00  0.00    -0.027 C 
ATOM      3  C   UNL     1      -6.802   6.367  17.198  1.00  0.00     0.039 C 
ENDROOT
BRANCH   2   4
ATOM      4  C   UNL     1      -6.612   2.884  15.479  1.00  0.00     0.032 C 
BRANCH   4   5
ATOM      5  C   UNL     1      -5.156   2.438  15.296  1.00  0.00     0.034 C 
BRANCH   5   6
ATOM      6  C   UNL     1      -4.784   2.262  13.838  1.00  0.00    -0.077 C 
ATOM      7  C   UNL     1      -5.419   1.137  13.060  1.00  0.00     0.039 C 
ATOM      8  C   UNL     1      -3.960   3.106  13.166  1.00  0.00    -0.023 CG0
ATOM      9  G   UNL     1      -3.162   4.264  13.737  1.00  0.00     0.000 G0
ENDBRANCH   5   6
ENDBRANCH   4   5
ENDBRANCH   2   4
BRANCH   1  10
ATOM     10  C   UNL     1      -6.176   5.815  14.737  1.00  0.00     0.111 C 
BRANCH  10  11
ATOM     11  C   UNL     1      -4.712   6.171  14.646  1.00  0.00     0.163 C 
ATOM     12  O   UNL     1      -4.246   6.918  15.549  1.00  0.00    -0.294 OA
BRANCH  11  13
ATOM     13  C   UNL     1      -3.796   5.670  13.567  1.00  0.00    -0.002 C 
ATOM     14  C   UNL     1      -3.406   6.496  12.548  1.00  0.00    -0.069 C 
ATOM     15  C   UNL     1      -2.313   6.109  11.577  1.00  0.00     0.039 C 
ATOM     16  C   UNL     1      -4.085   7.825  12.303  1.00  0.00     0.039 C 
BRANCH  13  17
ATOM     17  C   UNL     1      -3.179   4.287  13.742  1.00  0.00     0.066 CG0
ATOM     18  G   UNL     1      -3.959   3.120  13.164  1.00  0.00     0.000 G0
ENDBRANCH  13  17
ENDBRANCH  11  13
ENDBRANCH  10  11
ENDBRANCH   1  10
TORSDOF 0
ENDMDL
MODEL 6
REMARK VINA RESULT:    -3.513      2.366      2.719
REMARK INTER + INTRA:          -4.987
REMARK INTER:                  -5.437
REMARK INTRA:                   0.450
REMARK UNBOUND:                -0.036
REMARK SMILES CC1=CCC(=C(C)C)C(=O)CC(C)=CCC1
REMARK SMILES IDX 12 1 14 2 13 3 15 4 16 5 2 6 1 7 3 8 11 10 9 11 10 12 5 13
REMARK SMILES IDX 6 14 7 15 8 16 4 17
REMARK H PARENT
REMARK Flexibility Score: 60.00
ROOT
ATOM      1  C   UNL     1      -6.494   3.442  15.292  1.00  0.00    -0.070 C 
ATOM      2  C   UNL     1      -6.897   4.728  15.167  1.00  0.00    -0.027 C 
ATOM      3  C   UNL     1      -6.486   2.832  16.670  1.00  0.00     0.039 C 
ENDROOT
BRANCH   2   4
ATOM      4  C   UNL     1      -6.829   5.535  13.896  1.00  0.00     0.032 C 
BRANCH   4   5
ATOM      5  C   UNL     1      -5.972   6.787  14.121  1.00  0.00     0.034 C 
BRANCH   5   6
ATOM      6  C   UNL     1      -4.564   6.452  14.571  1.00  0.00    -0.077 C 
ATOM      7  C   UNL     1      -4.071   7.016  15.880  1.00  0.00     0.039 C 
ATOM      8  C   UNL     1      -3.740   5.611  13.897  1.00  0.00    -0.023 CG0
ATOM      9  G   UNL     1      -3.983   4.971  12.542  1.00  0.00     0.000 G0
ENDBRANCH   5   6
ENDBRANCH   4   5
ENDBRANCH   2   4
BRANCH   1  10
ATOM     10  C   UNL     1      -6.070   2.584  14.117  1.00  0.00     0.111 C 
BRANCH  10  11
ATOM     11  C   UNL     1      -4.611   2.772  13.779  1.00  0.00     0.163 C 
ATOM     12  O   UNL     1      -3.768   2.316  14.598  1.00  0.00    -0.294 OA
BRANCH  11  13
ATOM     13  C   UNL     1      -4.124   3.444  12.527  1.00  0.00    -0.002 C 
ATOM     14  C   UNL     1      -3.969   2.730  11.370  1.00  0.00    -0.069 C 
ATOM     15  C   UNL     1      -3.707   3.403  10.042  1.00  0.00     0.039 C 
ATOM     16  C   UNL     1      -3.999   1.217  11.365  1.00  0.00     0.039 C 
BRANCH  13  17
ATOM     17  C   UNL     1      -3.987   4.962  12.542  1.00  0.00     0.066 CG0
ATOM     18  G   UNL     1      -3.734   5.605  13.893  1.00  0.00     0.000 G0
ENDBRANCH  13  17
ENDBRANCH  11  13
ENDBRANCH  10  11
ENDBRANCH   1  10
TORSDOF 0
ENDMDL
MODEL 7
REMARK VINA RESULT:    -3.492      1.721      3.961
REMARK INTER + INTRA:          -4.957
REMARK INTER:                  -4.776
REMARK INTRA:                  -0.181
REMARK UNBOUND:                -0.036
REMARK SMILES CC1=CCC(=C(C)C)C(=O)CC(C)=CCC1
REMARK SMILES IDX 12 1 14 2 13 3 15 4 16 5 2 6 1 7 3 8 11 10 9 11 10 12 5 13
REMARK SMILES IDX 6 14 7 15 8 16 4 17
REMARK H PARENT
REMARK Flexibility Score: 60.00
ROOT
ATOM      1  C   UNL     1      -7.326   3.912  14.989  1.00  0.00    -0.070 C 
ATOM      2  C   UNL     1      -6.467   2.870  14.912  1.00  0.00    -0.027 C 
ATOM      3  C   UNL     1      -8.683   3.669  15.600  1.00  0.00     0.039 C 
ENDROOT
BRANCH   2   4
ATOM      4  C   UNL     1      -5.136   2.899  14.204  1.00  0.00     0.032 C 
BRANCH   4   5
ATOM      5  C   UNL     1      -4.015   3.160  15.217  1.00  0.00     0.034 C 
BRANCH   5   6
ATOM      6  C   UNL     1      -2.968   4.119  14.688  1.00  0.00    -0.077 C 
ATOM      7  C   UNL     1      -1.951   3.606  13.699  1.00  0.00     0.039 C 
ATOM      8  C   UNL     1      -2.934   5.440  14.997  1.00  0.00    -0.023 CG0
ATOM      9  G   UNL     1      -3.804   6.174  16.001  1.00  0.00     0.000 G0
ENDBRANCH   5   6
ENDBRANCH   4   5
ENDBRANCH   2   4
BRANCH   1  10
ATOM     10  C   UNL     1      -6.987   5.310  14.513  1.00  0.00     0.111 C 
BRANCH  10  11
ATOM     11  C   UNL     1      -6.359   6.142  15.605  1.00  0.00     0.163 C 
ATOM     12  O   UNL     1      -6.972   6.201  16.705  1.00  0.00    -0.294 OA
BRANCH  11  13
ATOM     13  C   UNL     1      -5.055   6.871  15.455  1.00  0.00    -0.002 C 
ATOM     14  C   UNL     1      -5.028   8.160  14.998  1.00  0.00    -0.069 C 
ATOM     15  C   UNL     1      -3.773   9.003  15.051  1.00  0.00     0.039 C 
ATOM     16  C   UNL     1      -6.243   8.801  14.365  1.00  0.00     0.039 C 
BRANCH  13  17
ATOM     17  C   UNL     1      -3.798   6.198  15.995  1.00  0.00     0.066 CG0
ATOM     18  G   UNL     1      -2.948   5.444  14.987  1.00  0.00     0.000 G0
ENDBRANCH  13  17
ENDBRANCH  11  13
ENDBRANCH  10  11
ENDBRANCH   1  10
TORSDOF 0
ENDMDL
MODEL 8
REMARK VINA RESULT:    -3.469      7.466     10.144
REMARK INTER + INTRA:          -4.925
REMARK INTER:                  -5.375
REMARK INTRA:                   0.451
REMARK UNBOUND:                -0.036
REMARK SMILES CC1=CCC(=C(C)C)C(=O)CC(C)=CCC1
REMARK SMILES IDX 12 1 14 2 13 3 15 4 16 5 2 6 1 7 3 8 11 10 9 11 10 12 5 13
REMARK SMILES IDX 6 14 7 15 8 16 4 17
REMARK H PARENT
REMARK Flexibility Score: 60.00
ROOT
ATOM      1  C   UNL     1      -2.938  -3.014  10.914  1.00  0.00    -0.070 C 
ATOM      2  C   UNL     1      -1.648  -3.418  10.961  1.00  0.00    -0.027 C 
ATOM      3  C   UNL     1      -4.007  -4.068  10.779  1.00  0.00     0.039 C 
ENDROOT
BRANCH   2   4
ATOM      4  C   UNL     1      -0.454  -2.497  10.947  1.00  0.00     0.032 C 
BRANCH   4   5
ATOM      5  C   UNL     1       0.398  -2.771   9.701  1.00  0.00     0.034 C 
BRANCH   5   6
ATOM      6  C   UNL     1      -0.426  -2.793   8.430  1.00  0.00    -0.077 C 
ATOM      7  C   UNL     1      -0.528  -4.085   7.657  1.00  0.00     0.039 C 
ATOM      8  C   UNL     1      -1.140  -1.731   7.979  1.00  0.00    -0.023 CG0
ATOM      9  G   UNL     1      -1.153  -0.322   8.543  1.00  0.00     0.000 G0
ENDBRANCH   5   6
ENDBRANCH   4   5
ENDBRANCH   2   4
BRANCH   1  10
ATOM     10  C   UNL     1      -3.362  -1.562  11.008  1.00  0.00     0.111 C 
BRANCH  10  11
ATOM     11  C   UNL     1      -3.419  -0.902   9.652  1.00  0.00     0.163 C 
ATOM     12  O   UNL     1      -4.353  -1.254   8.881  1.00  0.00    -0.294 OA
BRANCH  11  13
ATOM     13  C   UNL     1      -2.451   0.150   9.194  1.00  0.00    -0.002 C 
ATOM     14  C   UNL     1      -2.657   1.467   9.502  1.00  0.00    -0.069 C 
ATOM     15  C   UNL     1      -1.600   2.521   9.264  1.00  0.00     0.039 C 
ATOM     16  C   UNL     1      -3.981   1.952  10.052  1.00  0.00     0.039 C 
BRANCH  13  17
ATOM     17  C   UNL     1      -1.153  -0.314   8.542  1.00  0.00     0.066 CG0
ATOM     18  G   UNL     1      -1.145  -1.724   7.979  1.00  0.00     0.000 G0
ENDBRANCH  13  17
ENDBRANCH  11  13
ENDBRANCH  10  11
ENDBRANCH   1  10
TORSDOF 0
ENDMDL
MODEL 9
REMARK VINA RESULT:    -3.361      2.106      3.837
REMARK INTER + INTRA:          -4.772
REMARK INTER:                  -5.014
REMARK INTRA:                   0.242
REMARK UNBOUND:                -0.036
REMARK SMILES CC1=CCC(=C(C)C)C(=O)CC(C)=CCC1
REMARK SMILES IDX 12 1 14 2 13 3 15 4 16 5 2 6 1 7 3 8 11 10 9 11 10 12 5 13
REMARK SMILES IDX 6 14 7 15 8 16 4 17
REMARK H PARENT
REMARK Flexibility Score: 60.00
ROOT
ATOM      1  C   UNL     1      -3.440   4.658  12.812  1.00  0.00    -0.070 C 
ATOM      2  C   UNL     1      -4.154   5.633  13.420  1.00  0.00    -0.027 C 
ATOM      3  C   UNL     1      -1.970   4.897  12.579  1.00  0.00     0.039 C 
ENDROOT
BRANCH   2   4
ATOM      4  C   UNL     1      -5.652   5.624  13.598  1.00  0.00     0.032 C 
BRANCH   4   5
ATOM      5  C   UNL     1      -5.998   5.747  15.087  1.00  0.00     0.034 C 
BRANCH   5   6
ATOM      6  C   UNL     1      -6.524   4.451  15.669  1.00  0.00    -0.077 C 
ATOM      7  C   UNL     1      -8.014   4.285  15.837  1.00  0.00     0.039 C 
ATOM      8  C   UNL     1      -5.733   3.394  15.985  1.00  0.00    -0.023 CG0
ATOM      9  G   UNL     1      -4.217   3.337  15.960  1.00  0.00     0.000 G0
ENDBRANCH   5   6
ENDBRANCH   4   5
ENDBRANCH   2   4
BRANCH   1  10
ATOM     10  C   UNL     1      -4.038   3.337  12.374  1.00  0.00     0.111 C 
BRANCH  10  11
ATOM     11  C   UNL     1      -4.299   2.420  13.544  1.00  0.00     0.163 C 
ATOM     12  O   UNL     1      -5.169   1.521  13.385  1.00  0.00    -0.294 OA
BRANCH  11  13
ATOM     13  C   UNL     1      -3.572   2.510  14.855  1.00  0.00    -0.002 C 
ATOM     14  C   UNL     1      -2.306   2.008  14.984  1.00  0.00    -0.069 C 
ATOM     15  C   UNL     1      -1.456   2.281  16.204  1.00  0.00     0.039 C 
ATOM     16  C   UNL     1      -1.703   1.105  13.931  1.00  0.00     0.039 C 
BRANCH  13  17
ATOM     17  C   UNL     1      -4.212   3.333  15.968  1.00  0.00     0.066 CG0
ATOM     18  G   UNL     1      -5.729   3.388  15.981  1.00  0.00     0.000 G0
ENDBRANCH  13  17
ENDBRANCH  11  13
ENDBRANCH  10  11
ENDBRANCH   1  10
TORSDOF 0
ENDMDL
