MODEL 1
REMARK VINA RESULT:    -6.282      0.000      0.000
REMARK INTER + INTRA:         -10.409
REMARK INTER:                  -9.220
REMARK INTRA:                  -1.189
REMARK UNBOUND:                -1.189
REMARK SMILES Cc1cc2c(C(C)C)c(O)c(O)c(C=O)c2c(O)c1-c1c(C)cc2c(C(C)C)c(O)c(O)c(C=O)c2c1O
REMARK SMILES IDX 1 1 2 2 3 3 4 4 16 5 13 6 11 7 9 8 5 9 17 10 19 11 20 12
REMARK SMILES IDX 37 13 21 14 36 15 23 16 22 17 24 18 33 19 25 20 31 21 29 22
REMARK SMILES IDX 38 23 34 25 35 26 26 27 27 28 28 29 32 30 30 32 18 34 6 36
REMARK SMILES IDX 7 37 8 38 14 39 15 40 10 41 12 43
REMARK H PARENT 38 24 32 31 30 33 18 35 10 42 12 44
REMARK Flexibility Score: inf
ROOT
ATOM      1  C   UNL     1      11.929 -28.266 -24.713  1.00  0.00     0.045 C 
ATOM      2  C   UNL     1      11.176 -27.288 -23.845  1.00  0.00    -0.039 A 
ATOM      3  C   UNL     1      10.936 -27.605 -22.507  1.00  0.00     0.013 A 
ATOM      4  C   UNL     1      10.227 -26.733 -21.651  1.00  0.00    -0.006 A 
ATOM      5  C   UNL     1       9.869 -25.442 -22.138  1.00  0.00     0.039 A 
ATOM      6  C   UNL     1       9.373 -24.472 -21.219  1.00  0.00     0.072 A 
ATOM      7  C   UNL     1       9.180 -24.813 -19.867  1.00  0.00     0.169 A 
ATOM      8  C   UNL     1       9.473 -26.114 -19.410  1.00  0.00     0.162 A 
ATOM      9  C   UNL     1       9.899 -27.112 -20.315  1.00  0.00     0.008 A 
ATOM     10  C   UNL     1       9.993 -25.179 -23.534  1.00  0.00     0.132 A 
ATOM     11  C   UNL     1      10.665 -26.091 -24.374  1.00  0.00     0.031 A 
ENDROOT
BRANCH  11  12
ATOM     12  C   UNL     1      10.838 -25.789 -25.820  1.00  0.00     0.031 A 
ATOM     13  C   UNL     1      11.984 -25.098 -26.270  1.00  0.00     0.132 A 
ATOM     14  C   UNL     1       9.836 -26.159 -26.732  1.00  0.00    -0.039 A 
ATOM     15  C   UNL     1      12.146 -24.786 -27.656  1.00  0.00     0.039 A 
ATOM     16  C   UNL     1       9.988 -25.852 -28.084  1.00  0.00     0.013 A 
ATOM     17  C   UNL     1       8.580 -26.857 -26.265  1.00  0.00     0.045 C 
ATOM     18  C   UNL     1      11.146 -25.216 -28.581  1.00  0.00    -0.006 A 
ATOM     19  C   UNL     1      13.253 -24.026 -28.142  1.00  0.00     0.072 A 
ATOM     20  C   UNL     1      11.302 -24.962 -29.979  1.00  0.00     0.008 A 
ATOM     21  C   UNL     1      13.306 -23.652 -29.501  1.00  0.00     0.169 A 
ATOM     22  C   UNL     1      12.322 -24.081 -30.396  1.00  0.00     0.162 A 
BRANCH  13  23
ATOM     23  O   UNL     1      12.952 -24.712 -25.337  1.00  0.00    -0.507 OA
ATOM     24  H   UNL     1      13.002 -23.793 -24.916  1.00  0.00     0.293 HD
ENDBRANCH  13  23
BRANCH  19  25
ATOM     25  C   UNL     1      14.355 -23.594 -27.259  1.00  0.00     0.264 C 
ATOM     26  O   UNL     1      15.438 -24.235 -27.228  1.00  0.00    -0.298 OA
ENDBRANCH  19  25
BRANCH  20  27
ATOM     27  C   UNL     1      10.377 -25.605 -31.030  1.00  0.00     0.017 C 
ATOM     28  C   UNL     1       9.611 -24.533 -31.811  1.00  0.00     0.012 C 
ATOM     29  C   UNL     1      11.095 -26.582 -31.978  1.00  0.00     0.012 C 
ENDBRANCH  20  27
BRANCH  21  30
ATOM     30  O   UNL     1      14.352 -22.870 -30.005  1.00  0.00    -0.504 OA
ATOM     31  H   UNL     1      14.279 -22.281 -30.825  1.00  0.00     0.293 HD
ENDBRANCH  21  30
BRANCH  22  32
ATOM     32  O   UNL     1      12.358 -23.630 -31.717  1.00  0.00    -0.504 OA
ATOM     33  H   UNL     1      13.031 -22.952 -32.051  1.00  0.00     0.293 HD
ENDBRANCH  22  32
ENDBRANCH  11  12
BRANCH  10  34
ATOM     34  O   UNL     1       9.412 -24.034 -24.090  1.00  0.00    -0.507 OA
ATOM     35  H   UNL     1       9.544 -23.099 -23.723  1.00  0.00     0.293 HD
ENDBRANCH  10  34
BRANCH   9  36
ATOM     36  C   UNL     1      10.018 -28.573 -19.842  1.00  0.00     0.017 C 
ATOM     37  C   UNL     1      11.121 -28.722 -18.789  1.00  0.00     0.012 C 
ATOM     38  C   UNL     1       8.689 -29.177 -19.352  1.00  0.00     0.012 C 
ENDBRANCH   9  36
BRANCH   6  39
ATOM     39  C   UNL     1       9.181 -23.053 -21.606  1.00  0.00     0.264 C 
ATOM     40  O   UNL     1       9.890 -22.141 -21.106  1.00  0.00    -0.298 OA
ENDBRANCH   6  39
BRANCH   8  41
ATOM     41  O   UNL     1       9.390 -26.430 -18.051  1.00  0.00    -0.504 OA
ATOM     42  H   UNL     1       9.633 -27.323 -17.650  1.00  0.00     0.293 HD
ENDBRANCH   8  41
BRANCH   7  43
ATOM     43  O   UNL     1       8.698 -23.829 -18.996  1.00  0.00    -0.504 OA
ATOM     44  H   UNL     1       9.052 -23.660 -18.066  1.00  0.00     0.293 HD
ENDBRANCH   7  43
TORSDOF 11
ENDMDL
MODEL 2
REMARK VINA RESULT:    -6.161      6.718     10.219
REMARK INTER + INTRA:         -10.231
REMARK INTER:                  -8.834
REMARK INTRA:                  -1.397
REMARK UNBOUND:                -1.189
REMARK SMILES Cc1cc2c(C(C)C)c(O)c(O)c(C=O)c2c(O)c1-c1c(C)cc2c(C(C)C)c(O)c(O)c(C=O)c2c1O
REMARK SMILES IDX 1 1 2 2 3 3 4 4 16 5 13 6 11 7 9 8 5 9 17 10 19 11 20 12
REMARK SMILES IDX 37 13 21 14 36 15 23 16 22 17 24 18 33 19 25 20 31 21 29 22
REMARK SMILES IDX 38 23 34 25 35 26 26 27 27 28 28 29 32 30 30 32 18 34 6 36
REMARK SMILES IDX 7 37 8 38 14 39 15 40 10 41 12 43
REMARK H PARENT 38 24 32 31 30 33 18 35 10 42 12 44
REMARK Flexibility Score: inf
ROOT
ATOM      1  C   UNL     1      14.455 -23.435 -27.188  1.00  0.00     0.045 C 
ATOM      2  C   UNL     1      14.051 -23.227 -28.627  1.00  0.00    -0.039 A 
ATOM      3  C   UNL     1      12.925 -23.886 -29.124  1.00  0.00     0.013 A 
ATOM      4  C   UNL     1      12.507 -23.738 -30.465  1.00  0.00    -0.006 A 
ATOM      5  C   UNL     1      13.177 -22.786 -31.287  1.00  0.00     0.039 A 
ATOM      6  C   UNL     1      12.618 -22.454 -32.555  1.00  0.00     0.072 A 
ATOM      7  C   UNL     1      11.458 -23.110 -33.008  1.00  0.00     0.169 A 
ATOM      8  C   UNL     1      10.841 -24.100 -32.217  1.00  0.00     0.162 A 
ATOM      9  C   UNL     1      11.416 -24.495 -30.988  1.00  0.00     0.008 A 
ATOM     10  C   UNL     1      14.402 -22.221 -30.821  1.00  0.00     0.132 A 
ATOM     11  C   UNL     1      14.819 -22.426 -29.489  1.00  0.00     0.031 A 
ENDROOT
BRANCH  11  12
ATOM     12  C   UNL     1      16.070 -21.794 -28.991  1.00  0.00     0.031 A 
ATOM     13  C   UNL     1      17.280 -22.522 -28.980  1.00  0.00     0.132 A 
ATOM     14  C   UNL     1      16.033 -20.481 -28.493  1.00  0.00    -0.039 A 
ATOM     15  C   UNL     1      18.480 -21.927 -28.483  1.00  0.00     0.039 A 
ATOM     16  C   UNL     1      17.202 -19.898 -28.004  1.00  0.00     0.013 A 
ATOM     17  C   UNL     1      14.741 -19.701 -28.452  1.00  0.00     0.045 C 
ATOM     18  C   UNL     1      18.443 -20.572 -28.030  1.00  0.00    -0.006 A 
ATOM     19  C   UNL     1      19.708 -22.651 -28.387  1.00  0.00     0.072 A 
ATOM     20  C   UNL     1      19.636 -19.932 -27.573  1.00  0.00     0.008 A 
ATOM     21  C   UNL     1      20.833 -22.050 -27.786  1.00  0.00     0.169 A 
ATOM     22  C   UNL     1      20.783 -20.723 -27.350  1.00  0.00     0.162 A 
BRANCH  13  23
ATOM     23  O   UNL     1      17.281 -23.839 -29.451  1.00  0.00    -0.507 OA
ATOM     24  H   UNL     1      16.494 -24.281 -29.908  1.00  0.00     0.293 HD
ENDBRANCH  13  23
BRANCH  19  25
ATOM     25  C   UNL     1      19.841 -24.035 -28.884  1.00  0.00     0.264 C 
ATOM     26  O   UNL     1      19.883 -25.002 -28.078  1.00  0.00    -0.298 OA
ENDBRANCH  19  25
BRANCH  20  27
ATOM     27  C   UNL     1      19.692 -18.418 -27.300  1.00  0.00     0.017 C 
ATOM     28  C   UNL     1      19.810 -18.138 -25.799  1.00  0.00     0.012 C 
ATOM     29  C   UNL     1      20.788 -17.681 -28.093  1.00  0.00     0.012 C 
ENDBRANCH  20  27
BRANCH  21  30
ATOM     30  O   UNL     1      22.040 -22.743 -27.634  1.00  0.00    -0.504 OA
ATOM     31  H   UNL     1      22.145 -23.593 -27.095  1.00  0.00     0.293 HD
ENDBRANCH  21  30
BRANCH  22  32
ATOM     32  O   UNL     1      21.887 -20.181 -26.688  1.00  0.00    -0.504 OA
ATOM     33  H   UNL     1      22.686 -19.793 -27.174  1.00  0.00     0.293 HD
ENDBRANCH  22  32
ENDBRANCH  11  12
BRANCH  10  34
ATOM     34  O   UNL     1      15.221 -21.496 -31.694  1.00  0.00    -0.507 OA
ATOM     35  H   UNL     1      16.064 -21.867 -32.114  1.00  0.00     0.293 HD
ENDBRANCH  10  34
BRANCH   9  36
ATOM     36  C   UNL     1      10.850 -25.713 -30.235  1.00  0.00     0.017 C 
ATOM     37  C   UNL     1       9.496 -25.384 -29.597  1.00  0.00     0.012 C 
ATOM     38  C   UNL     1      10.771 -26.991 -31.090  1.00  0.00     0.012 C 
ENDBRANCH   9  36
BRANCH   6  39
ATOM     39  C   UNL     1      13.136 -21.328 -33.369  1.00  0.00     0.264 C 
ATOM     40  O   UNL     1      13.785 -21.536 -34.428  1.00  0.00    -0.298 OA
ENDBRANCH   6  39
BRANCH   8  41
ATOM     41  O   UNL     1       9.629 -24.676 -32.608  1.00  0.00    -0.504 OA
ATOM     42  H   UNL     1       9.073 -24.375 -33.394  1.00  0.00     0.293 HD
ENDBRANCH   8  41
BRANCH   7  43
ATOM     43  O   UNL     1      10.936 -22.750 -34.257  1.00  0.00    -0.504 OA
ATOM     44  H   UNL     1      10.461 -23.381 -34.886  1.00  0.00     0.293 HD
ENDBRANCH   7  43
TORSDOF 11
ENDMDL
MODEL 3
REMARK VINA RESULT:    -6.094      4.572      8.496
REMARK INTER + INTRA:         -10.133
REMARK INTER:                  -8.715
REMARK INTRA:                  -1.418
REMARK UNBOUND:                -1.189
REMARK SMILES Cc1cc2c(C(C)C)c(O)c(O)c(C=O)c2c(O)c1-c1c(C)cc2c(C(C)C)c(O)c(O)c(C=O)c2c1O
REMARK SMILES IDX 1 1 2 2 3 3 4 4 16 5 13 6 11 7 9 8 5 9 17 10 19 11 20 12
REMARK SMILES IDX 37 13 21 14 36 15 23 16 22 17 24 18 33 19 25 20 31 21 29 22
REMARK SMILES IDX 38 23 34 25 35 26 26 27 27 28 28 29 32 30 30 32 18 34 6 36
REMARK SMILES IDX 7 37 8 38 14 39 15 40 10 41 12 43
REMARK H PARENT 38 24 32 31 30 33 18 35 10 42 12 44
REMARK Flexibility Score: inf
ROOT
ATOM      1  C   UNL     1      15.005 -24.747 -25.231  1.00  0.00     0.045 C 
ATOM      2  C   UNL     1      14.199 -24.594 -26.498  1.00  0.00    -0.039 A 
ATOM      3  C   UNL     1      12.968 -25.241 -26.608  1.00  0.00     0.013 A 
ATOM      4  C   UNL     1      12.176 -25.142 -27.774  1.00  0.00    -0.006 A 
ATOM      5  C   UNL     1      12.590 -24.250 -28.805  1.00  0.00     0.039 A 
ATOM      6  C   UNL     1      11.689 -23.961 -29.870  1.00  0.00     0.072 A 
ATOM      7  C   UNL     1      10.437 -24.602 -29.929  1.00  0.00     0.169 A 
ATOM      8  C   UNL     1      10.064 -25.534 -28.941  1.00  0.00     0.162 A 
ATOM      9  C   UNL     1      10.969 -25.890 -27.915  1.00  0.00     0.008 A 
ATOM     10  C   UNL     1      13.906 -23.702 -28.749  1.00  0.00     0.132 A 
ATOM     11  C   UNL     1      14.693 -23.858 -27.588  1.00  0.00     0.031 A 
ENDROOT
BRANCH  11  12
ATOM     12  C   UNL     1      16.044 -23.241 -27.512  1.00  0.00     0.031 A 
ATOM     13  C   UNL     1      17.178 -23.952 -27.962  1.00  0.00     0.132 A 
ATOM     14  C   UNL     1      16.193 -21.962 -26.951  1.00  0.00    -0.039 A 
ATOM     15  C   UNL     1      18.481 -23.373 -27.872  1.00  0.00     0.039 A 
ATOM     16  C   UNL     1      17.464 -21.395 -26.857  1.00  0.00     0.013 A 
ATOM     17  C   UNL     1      15.001 -21.202 -26.420  1.00  0.00     0.045 C 
ATOM     18  C   UNL     1      18.614 -22.050 -27.350  1.00  0.00    -0.006 A 
ATOM     19  C   UNL     1      19.660 -24.086 -28.249  1.00  0.00     0.072 A 
ATOM     20  C   UNL     1      19.898 -21.424 -27.292  1.00  0.00     0.008 A 
ATOM     21  C   UNL     1      20.929 -23.509 -28.035  1.00  0.00     0.169 A 
ATOM     22  C   UNL     1      21.044 -22.212 -27.526  1.00  0.00     0.162 A 
BRANCH  13  23
ATOM     23  O   UNL     1      17.006 -25.238 -28.486  1.00  0.00    -0.507 OA
ATOM     24  H   UNL     1      16.106 -25.653 -28.691  1.00  0.00     0.293 HD
ENDBRANCH  13  23
BRANCH  19  25
ATOM     25  C   UNL     1      19.603 -25.435 -28.846  1.00  0.00     0.264 C 
ATOM     26  O   UNL     1      19.888 -26.451 -28.159  1.00  0.00    -0.298 OA
ENDBRANCH  19  25
BRANCH  20  27
ATOM     27  C   UNL     1      20.058 -19.928 -26.961  1.00  0.00     0.017 C 
ATOM     28  C   UNL     1      20.625 -19.740 -25.551  1.00  0.00     0.012 C 
ATOM     29  C   UNL     1      20.876 -19.143 -28.003  1.00  0.00     0.012 C 
ENDBRANCH  20  27
BRANCH  21  30
ATOM     30  O   UNL     1      22.109 -24.195 -28.350  1.00  0.00    -0.504 OA
ATOM     31  H   UNL     1      23.010 -23.752 -28.470  1.00  0.00     0.293 HD
ENDBRANCH  21  30
BRANCH  22  32
ATOM     32  O   UNL     1      22.312 -21.697 -27.251  1.00  0.00    -0.504 OA
ATOM     33  H   UNL     1      23.003 -22.193 -26.701  1.00  0.00     0.293 HD
ENDBRANCH  22  32
ENDBRANCH  11  12
BRANCH  10  34
ATOM     34  O   UNL     1      14.444 -23.043 -29.860  1.00  0.00    -0.507 OA
ATOM     35  H   UNL     1      13.903 -22.775 -30.672  1.00  0.00     0.293 HD
ENDBRANCH  10  34
BRANCH   9  36
ATOM     36  C   UNL     1      10.630 -27.054 -26.965  1.00  0.00     0.017 C 
ATOM     37  C   UNL     1       9.511 -26.662 -25.994  1.00  0.00     0.012 C 
ATOM     38  C   UNL     1      10.306 -28.374 -27.691  1.00  0.00     0.012 C 
ENDBRANCH   9  36
BRANCH   6  39
ATOM     39  C   UNL     1      11.962 -22.889 -30.859  1.00  0.00     0.264 C 
ATOM     40  O   UNL     1      12.302 -23.166 -32.040  1.00  0.00    -0.298 OA
ENDBRANCH   6  39
BRANCH   8  41
ATOM     41  O   UNL     1       8.783 -26.092 -28.930  1.00  0.00    -0.504 OA
ATOM     42  H   UNL     1       8.247 -26.293 -28.098  1.00  0.00     0.293 HD
ENDBRANCH   8  41
BRANCH   7  43
ATOM     43  O   UNL     1       9.577 -24.284 -30.988  1.00  0.00    -0.504 OA
ATOM     44  H   UNL     1       8.688 -24.730 -31.161  1.00  0.00     0.293 HD
ENDBRANCH   7  43
TORSDOF 11
ENDMDL
MODEL 4
REMARK VINA RESULT:    -5.987      4.091      9.454
REMARK INTER + INTRA:          -9.977
REMARK INTER:                  -8.636
REMARK INTRA:                  -1.340
REMARK UNBOUND:                -1.189
REMARK SMILES Cc1cc2c(C(C)C)c(O)c(O)c(C=O)c2c(O)c1-c1c(C)cc2c(C(C)C)c(O)c(O)c(C=O)c2c1O
REMARK SMILES IDX 1 1 2 2 3 3 4 4 16 5 13 6 11 7 9 8 5 9 17 10 19 11 20 12
REMARK SMILES IDX 37 13 21 14 36 15 23 16 22 17 24 18 33 19 25 20 31 21 29 22
REMARK SMILES IDX 38 23 34 25 35 26 26 27 27 28 28 29 32 30 30 32 18 34 6 36
REMARK SMILES IDX 7 37 8 38 14 39 15 40 10 41 12 43
REMARK H PARENT 38 24 32 31 30 33 18 35 10 42 12 44
REMARK Flexibility Score: inf
ROOT
ATOM      1  C   UNL     1      15.053 -21.822 -25.740  1.00  0.00     0.045 C 
ATOM      2  C   UNL     1      16.234 -22.475 -26.415  1.00  0.00    -0.039 A 
ATOM      3  C   UNL     1      17.465 -21.817 -26.427  1.00  0.00     0.013 A 
ATOM      4  C   UNL     1      18.601 -22.375 -27.053  1.00  0.00    -0.006 A 
ATOM      5  C   UNL     1      18.514 -23.701 -27.567  1.00  0.00     0.039 A 
ATOM      6  C   UNL     1      19.708 -24.361 -27.981  1.00  0.00     0.072 A 
ATOM      7  C   UNL     1      20.940 -23.681 -27.942  1.00  0.00     0.169 A 
ATOM      8  C   UNL     1      21.005 -22.346 -27.496  1.00  0.00     0.162 A 
ATOM      9  C   UNL     1      19.826 -21.649 -27.147  1.00  0.00     0.008 A 
ATOM     10  C   UNL     1      17.229 -24.310 -27.675  1.00  0.00     0.132 A 
ATOM     11  C   UNL     1      16.102 -23.705 -27.080  1.00  0.00     0.031 A 
ENDROOT
BRANCH  11  12
ATOM     12  C   UNL     1      14.772 -24.368 -27.150  1.00  0.00     0.031 A 
ATOM     13  C   UNL     1      13.904 -24.109 -28.233  1.00  0.00     0.132 A 
ATOM     14  C   UNL     1      14.366 -25.221 -26.112  1.00  0.00    -0.039 A 
ATOM     15  C   UNL     1      12.617 -24.726 -28.296  1.00  0.00     0.039 A 
ATOM     16  C   UNL     1      13.109 -25.823 -26.166  1.00  0.00     0.013 A 
ATOM     17  C   UNL     1      15.259 -25.475 -24.920  1.00  0.00     0.045 C 
ATOM     18  C   UNL     1      12.237 -25.636 -27.261  1.00  0.00    -0.006 A 
ATOM     19  C   UNL     1      11.681 -24.436 -29.335  1.00  0.00     0.072 A 
ATOM     20  C   UNL     1      10.976 -26.306 -27.319  1.00  0.00     0.008 A 
ATOM     21  C   UNL     1      10.384 -24.988 -29.287  1.00  0.00     0.169 A 
ATOM     22  C   UNL     1      10.027 -25.878 -28.271  1.00  0.00     0.162 A 
BRANCH  13  23
ATOM     23  O   UNL     1      14.319 -23.228 -29.238  1.00  0.00    -0.507 OA
ATOM     24  H   UNL     1      14.872 -22.397 -29.073  1.00  0.00     0.293 HD
ENDBRANCH  13  23
BRANCH  19  25
ATOM     25  C   UNL     1      12.018 -23.551 -30.468  1.00  0.00     0.264 C 
ATOM     26  O   UNL     1      11.557 -22.380 -30.522  1.00  0.00    -0.298 OA
ENDBRANCH  19  25
BRANCH  20  27
ATOM     27  C   UNL     1      10.625 -27.461 -26.362  1.00  0.00     0.017 C 
ATOM     28  C   UNL     1      11.493 -28.689 -26.648  1.00  0.00     0.012 C 
ATOM     29  C   UNL     1      10.679 -27.074 -24.872  1.00  0.00     0.012 C 
ENDBRANCH  20  27
BRANCH  21  30
ATOM     30  O   UNL     1       9.425 -24.691 -30.264  1.00  0.00    -0.504 OA
ATOM     31  H   UNL     1       8.505 -25.110 -30.304  1.00  0.00     0.293 HD
ENDBRANCH  21  30
BRANCH  22  32
ATOM     32  O   UNL     1       8.713 -26.346 -28.204  1.00  0.00    -0.504 OA
ATOM     33  H   UNL     1       8.339 -27.035 -28.845  1.00  0.00     0.293 HD
ENDBRANCH  22  32
ENDBRANCH  11  12
BRANCH  10  34
ATOM     34  O   UNL     1      17.066 -25.490 -28.410  1.00  0.00    -0.507 OA
ATOM     35  H   UNL     1      17.117 -25.536 -29.420  1.00  0.00     0.293 HD
ENDBRANCH  10  34
BRANCH   9  36
ATOM     36  C   UNL     1      19.888 -20.137 -26.860  1.00  0.00     0.017 C 
ATOM     37  C   UNL     1      20.585 -19.860 -25.524  1.00  0.00     0.012 C 
ATOM     38  C   UNL     1      20.514 -19.313 -28.001  1.00  0.00     0.012 C 
ENDBRANCH   9  36
BRANCH   6  39
ATOM     39  C   UNL     1      19.727 -25.804 -28.325  1.00  0.00     0.264 C 
ATOM     40  O   UNL     1      19.846 -26.186 -29.519  1.00  0.00    -0.298 OA
ENDBRANCH   6  39
BRANCH   8  41
ATOM     41  O   UNL     1      22.236 -21.701 -27.349  1.00  0.00    -0.504 OA
ATOM     42  H   UNL     1      23.049 -22.100 -26.903  1.00  0.00     0.293 HD
ENDBRANCH   8  41
BRANCH   7  43
ATOM     43  O   UNL     1      22.090 -24.367 -28.351  1.00  0.00    -0.504 OA
ATOM     44  H   UNL     1      22.926 -23.928 -28.709  1.00  0.00     0.293 HD
ENDBRANCH   7  43
TORSDOF 11
ENDMDL
MODEL 5
REMARK VINA RESULT:    -5.900      6.695      9.932
REMARK INTER + INTRA:          -9.848
REMARK INTER:                  -8.565
REMARK INTRA:                  -1.283
REMARK UNBOUND:                -1.189
REMARK SMILES Cc1cc2c(C(C)C)c(O)c(O)c(C=O)c2c(O)c1-c1c(C)cc2c(C(C)C)c(O)c(O)c(C=O)c2c1O
REMARK SMILES IDX 1 1 2 2 3 3 4 4 16 5 13 6 11 7 9 8 5 9 17 10 19 11 20 12
REMARK SMILES IDX 37 13 21 14 36 15 23 16 22 17 24 18 33 19 25 20 31 21 29 22
REMARK SMILES IDX 38 23 34 25 35 26 26 27 27 28 28 29 32 30 30 32 18 34 6 36
REMARK SMILES IDX 7 37 8 38 14 39 15 40 10 41 12 43
REMARK H PARENT 38 24 32 31 30 33 18 35 10 42 12 44
REMARK Flexibility Score: inf
ROOT
ATOM      1  C   UNL     1      14.545 -19.865 -28.100  1.00  0.00     0.045 C 
ATOM      2  C   UNL     1      15.893 -20.528 -28.246  1.00  0.00    -0.039 A 
ATOM      3  C   UNL     1      17.039 -19.849 -27.830  1.00  0.00     0.013 A 
ATOM      4  C   UNL     1      18.326 -20.416 -27.952  1.00  0.00    -0.006 A 
ATOM      5  C   UNL     1      18.437 -21.768 -28.389  1.00  0.00     0.039 A 
ATOM      6  C   UNL     1      19.698 -22.424 -28.288  1.00  0.00     0.072 A 
ATOM      7  C   UNL     1      20.826 -21.720 -27.826  1.00  0.00     0.169 A 
ATOM      8  C   UNL     1      20.720 -20.363 -27.461  1.00  0.00     0.162 A 
ATOM      9  C   UNL     1      19.498 -19.672 -27.619  1.00  0.00     0.008 A 
ATOM     10  C   UNL     1      17.286 -22.406 -28.940  1.00  0.00     0.132 A 
ATOM     11  C   UNL     1      16.019 -21.793 -28.845  1.00  0.00     0.031 A 
ENDROOT
BRANCH  11  12
ATOM     12  C   UNL     1      14.812 -22.484 -29.374  1.00  0.00     0.031 A 
ATOM     13  C   UNL     1      14.358 -22.219 -30.684  1.00  0.00     0.132 A 
ATOM     14  C   UNL     1      14.102 -23.370 -28.548  1.00  0.00    -0.039 A 
ATOM     15  C   UNL     1      13.187 -22.864 -31.190  1.00  0.00     0.039 A 
ATOM     16  C   UNL     1      12.956 -23.999 -29.036  1.00  0.00     0.013 A 
ATOM     17  C   UNL     1      14.543 -23.632 -27.127  1.00  0.00     0.045 C 
ATOM     18  C   UNL     1      12.504 -23.806 -30.360  1.00  0.00    -0.006 A 
ATOM     19  C   UNL     1      12.653 -22.571 -32.482  1.00  0.00     0.072 A 
ATOM     20  C   UNL     1      11.358 -24.503 -30.854  1.00  0.00     0.008 A 
ATOM     21  C   UNL     1      11.434 -23.153 -32.887  1.00  0.00     0.169 A 
ATOM     22  C   UNL     1      10.778 -24.074 -32.066  1.00  0.00     0.162 A 
BRANCH  13  23
ATOM     23  O   UNL     1      15.064 -21.306 -31.474  1.00  0.00    -0.507 OA
ATOM     24  H   UNL     1      14.818 -20.330 -31.573  1.00  0.00     0.293 HD
ENDBRANCH  13  23
BRANCH  19  25
ATOM     25  C   UNL     1      13.329 -21.652 -33.419  1.00  0.00     0.264 C 
ATOM     26  O   UNL     1      12.892 -20.484 -33.596  1.00  0.00    -0.298 OA
ENDBRANCH  19  25
BRANCH  20  27
ATOM     27  C   UNL     1      10.737 -25.687 -30.090  1.00  0.00     0.017 C 
ATOM     28  C   UNL     1       9.372 -25.305 -29.510  1.00  0.00     0.012 C 
ATOM     29  C   UNL     1      10.651 -26.985 -30.914  1.00  0.00     0.012 C 
ENDBRANCH  20  27
BRANCH  21  30
ATOM     30  O   UNL     1      10.856 -22.855 -34.128  1.00  0.00    -0.504 OA
ATOM     31  H   UNL     1      10.900 -21.948 -34.573  1.00  0.00     0.293 HD
ENDBRANCH  21  30
BRANCH  22  32
ATOM     32  O   UNL     1       9.534 -24.573 -32.458  1.00  0.00    -0.504 OA
ATOM     33  H   UNL     1       9.205 -24.547 -33.415  1.00  0.00     0.293 HD
ENDBRANCH  22  32
ENDBRANCH  11  12
BRANCH  10  34
ATOM     34  O   UNL     1      17.411 -23.624 -29.617  1.00  0.00    -0.507 OA
ATOM     35  H   UNL     1      17.261 -23.734 -30.612  1.00  0.00     0.293 HD
ENDBRANCH  10  34
BRANCH   9  36
ATOM     36  C   UNL     1      19.449 -18.147 -27.411  1.00  0.00     0.017 C 
ATOM     37  C   UNL     1      19.540 -17.792 -25.923  1.00  0.00     0.012 C 
ATOM     38  C   UNL     1      20.493 -17.374 -28.237  1.00  0.00     0.012 C 
ENDBRANCH   9  36
BRANCH   6  39
ATOM     39  C   UNL     1      19.843 -23.882 -28.522  1.00  0.00     0.264 C 
ATOM     40  O   UNL     1      19.722 -24.707 -27.577  1.00  0.00    -0.298 OA
ENDBRANCH   6  39
BRANCH   8  41
ATOM     41  O   UNL     1      21.806 -19.688 -26.897  1.00  0.00    -0.504 OA
ATOM     42  H   UNL     1      21.747 -18.810 -26.402  1.00  0.00     0.293 HD
ENDBRANCH   8  41
BRANCH   7  43
ATOM     43  O   UNL     1      22.045 -22.404 -27.735  1.00  0.00    -0.504 OA
ATOM     44  H   UNL     1      22.837 -22.098 -27.189  1.00  0.00     0.293 HD
ENDBRANCH   7  43
TORSDOF 11
ENDMDL
MODEL 6
REMARK VINA RESULT:    -5.777      4.245      9.540
REMARK INTER + INTRA:          -9.668
REMARK INTER:                  -8.391
REMARK INTRA:                  -1.277
REMARK UNBOUND:                -1.189
REMARK SMILES Cc1cc2c(C(C)C)c(O)c(O)c(C=O)c2c(O)c1-c1c(C)cc2c(C(C)C)c(O)c(O)c(C=O)c2c1O
REMARK SMILES IDX 1 1 2 2 3 3 4 4 16 5 13 6 11 7 9 8 5 9 17 10 19 11 20 12
REMARK SMILES IDX 37 13 21 14 36 15 23 16 22 17 24 18 33 19 25 20 31 21 29 22
REMARK SMILES IDX 38 23 34 25 35 26 26 27 27 28 28 29 32 30 30 32 18 34 6 36
REMARK SMILES IDX 7 37 8 38 14 39 15 40 10 41 12 43
REMARK H PARENT 38 24 32 31 30 33 18 35 10 42 12 44
REMARK Flexibility Score: inf
ROOT
ATOM      1  C   UNL     1      15.468 -23.109 -24.901  1.00  0.00     0.045 C 
ATOM      2  C   UNL     1      16.574 -23.582 -25.812  1.00  0.00    -0.039 A 
ATOM      3  C   UNL     1      17.747 -22.832 -25.912  1.00  0.00     0.013 A 
ATOM      4  C   UNL     1      18.810 -23.221 -26.756  1.00  0.00    -0.006 A 
ATOM      5  C   UNL     1      18.730 -24.481 -27.416  1.00  0.00     0.039 A 
ATOM      6  C   UNL     1      19.888 -24.991 -28.073  1.00  0.00     0.072 A 
ATOM      7  C   UNL     1      21.068 -24.224 -28.120  1.00  0.00     0.169 A 
ATOM      8  C   UNL     1      21.115 -22.949 -27.523  1.00  0.00     0.162 A 
ATOM      9  C   UNL     1      19.960 -22.393 -26.928  1.00  0.00     0.008 A 
ATOM     10  C   UNL     1      17.483 -25.174 -27.420  1.00  0.00     0.132 A 
ATOM     11  C   UNL     1      16.421 -24.734 -26.602  1.00  0.00     0.031 A 
ENDROOT
BRANCH  11  12
ATOM     12  C   UNL     1      15.140 -25.488 -26.569  1.00  0.00     0.031 A 
ATOM     13  C   UNL     1      14.074 -25.117 -27.417  1.00  0.00     0.132 A 
ATOM     14  C   UNL     1      14.980 -26.546 -25.660  1.00  0.00    -0.039 A 
ATOM     15  C   UNL     1      12.833 -25.824 -27.375  1.00  0.00     0.039 A 
ATOM     16  C   UNL     1      13.769 -27.237 -25.613  1.00  0.00     0.013 A 
ATOM     17  C   UNL     1      16.091 -26.930 -24.711  1.00  0.00     0.045 C 
ATOM     18  C   UNL     1      12.701 -26.934 -26.485  1.00  0.00    -0.006 A 
ATOM     19  C   UNL     1      11.707 -25.437 -28.164  1.00  0.00     0.072 A 
ATOM     20  C   UNL     1      11.489 -27.692 -26.454  1.00  0.00     0.008 A 
ATOM     21  C   UNL     1      10.473 -26.100 -28.001  1.00  0.00     0.169 A 
ATOM     22  C   UNL     1      10.359 -27.186 -27.129  1.00  0.00     0.162 A 
BRANCH  13  23
ATOM     23  O   UNL     1      14.248 -24.037 -28.290  1.00  0.00    -0.507 OA
ATOM     24  H   UNL     1      13.761 -23.934 -29.171  1.00  0.00     0.293 HD
ENDBRANCH  13  23
BRANCH  19  25
ATOM     25  C   UNL     1      11.780 -24.336 -29.146  1.00  0.00     0.264 C 
ATOM     26  O   UNL     1      11.812 -24.583 -30.381  1.00  0.00    -0.298 OA
ENDBRANCH  19  25
BRANCH  20  27
ATOM     27  C   UNL     1      11.386 -29.026 -25.691  1.00  0.00     0.017 C 
ATOM     28  C   UNL     1      12.195 -30.120 -26.392  1.00  0.00     0.012 C 
ATOM     29  C   UNL     1      11.759 -28.923 -24.200  1.00  0.00     0.012 C 
ENDBRANCH  20  27
BRANCH  21  30
ATOM     30  O   UNL     1       9.335 -25.719 -28.723  1.00  0.00    -0.504 OA
ATOM     31  H   UNL     1       9.331 -25.519 -29.715  1.00  0.00     0.293 HD
ENDBRANCH  21  30
BRANCH  22  32
ATOM     32  O   UNL     1       9.107 -27.772 -26.930  1.00  0.00    -0.504 OA
ATOM     33  H   UNL     1       8.511 -27.548 -26.143  1.00  0.00     0.293 HD
ENDBRANCH  22  32
ENDBRANCH  11  12
BRANCH  10  34
ATOM     34  O   UNL     1      17.288 -26.269 -28.269  1.00  0.00    -0.507 OA
ATOM     35  H   UNL     1      16.377 -26.602 -28.560  1.00  0.00     0.293 HD
ENDBRANCH  10  34
BRANCH   9  36
ATOM     36  C   UNL     1      19.970 -20.925 -26.463  1.00  0.00     0.017 C 
ATOM     37  C   UNL     1      20.885 -20.739 -25.248  1.00  0.00     0.012 C 
ATOM     38  C   UNL     1      20.309 -19.922 -27.581  1.00  0.00     0.012 C 
ENDBRANCH   9  36
BRANCH   6  39
ATOM     39  C   UNL     1      19.946 -26.378 -28.596  1.00  0.00     0.264 C 
ATOM     40  O   UNL     1      19.955 -26.606 -29.835  1.00  0.00    -0.298 OA
ENDBRANCH   6  39
BRANCH   8  41
ATOM     41  O   UNL     1      22.312 -22.228 -27.468  1.00  0.00    -0.504 OA
ATOM     42  H   UNL     1      22.423 -21.324 -27.034  1.00  0.00     0.293 HD
ENDBRANCH   8  41
BRANCH   7  43
ATOM     43  O   UNL     1      22.185 -24.764 -28.769  1.00  0.00    -0.504 OA
ATOM     44  H   UNL     1      23.058 -24.995 -28.316  1.00  0.00     0.293 HD
ENDBRANCH   7  43
TORSDOF 11
ENDMDL
MODEL 7
REMARK VINA RESULT:    -5.630      1.486      9.159
REMARK INTER + INTRA:          -9.451
REMARK INTER:                  -8.814
REMARK INTRA:                  -0.637
REMARK UNBOUND:                -1.189
REMARK SMILES Cc1cc2c(C(C)C)c(O)c(O)c(C=O)c2c(O)c1-c1c(C)cc2c(C(C)C)c(O)c(O)c(C=O)c2c1O
REMARK SMILES IDX 1 1 2 2 3 3 4 4 16 5 13 6 11 7 9 8 5 9 17 10 19 11 20 12
REMARK SMILES IDX 37 13 21 14 36 15 23 16 22 17 24 18 33 19 25 20 31 21 29 22
REMARK SMILES IDX 38 23 34 25 35 26 26 27 27 28 28 29 32 30 30 32 18 34 6 36
REMARK SMILES IDX 7 37 8 38 14 39 15 40 10 41 12 43
REMARK H PARENT 38 24 32 31 30 33 18 35 10 42 12 44
REMARK Flexibility Score: inf
ROOT
ATOM      1  C   UNL     1      13.610 -24.490 -25.065  1.00  0.00     0.045 C 
ATOM      2  C   UNL     1      12.658 -24.778 -26.200  1.00  0.00    -0.039 A 
ATOM      3  C   UNL     1      12.971 -24.332 -27.485  1.00  0.00     0.013 A 
ATOM      4  C   UNL     1      12.112 -24.562 -28.583  1.00  0.00    -0.006 A 
ATOM      5  C   UNL     1      10.966 -25.387 -28.390  1.00  0.00     0.039 A 
ATOM      6  C   UNL     1      10.229 -25.822 -29.530  1.00  0.00     0.072 A 
ATOM      7  C   UNL     1      10.597 -25.385 -30.817  1.00  0.00     0.169 A 
ATOM      8  C   UNL     1      11.692 -24.515 -30.991  1.00  0.00     0.162 A 
ATOM      9  C   UNL     1      12.393 -24.014 -29.870  1.00  0.00     0.008 A 
ATOM     10  C   UNL     1      10.580 -25.722 -27.058  1.00  0.00     0.132 A 
ATOM     11  C   UNL     1      11.437 -25.436 -25.975  1.00  0.00     0.031 A 
ENDROOT
BRANCH  11  12
ATOM     12  C   UNL     1      11.056 -25.833 -24.594  1.00  0.00     0.031 A 
ATOM     13  C   UNL     1      10.417 -24.908 -23.738  1.00  0.00     0.132 A 
ATOM     14  C   UNL     1      11.371 -27.120 -24.129  1.00  0.00    -0.039 A 
ATOM     15  C   UNL     1      10.067 -25.277 -22.403  1.00  0.00     0.039 A 
ATOM     16  C   UNL     1      11.035 -27.483 -22.825  1.00  0.00     0.013 A 
ATOM     17  C   UNL     1      12.096 -28.109 -25.011  1.00  0.00     0.045 C 
ATOM     18  C   UNL     1      10.343 -26.608 -21.959  1.00  0.00    -0.006 A 
ATOM     19  C   UNL     1       9.486 -24.352 -21.483  1.00  0.00     0.072 A 
ATOM     20  C   UNL     1       9.962 -27.022 -20.646  1.00  0.00     0.008 A 
ATOM     21  C   UNL     1       9.264 -24.737 -20.145  1.00  0.00     0.169 A 
ATOM     22  C   UNL     1       9.536 -26.042 -19.725  1.00  0.00     0.162 A 
BRANCH  13  23
ATOM     23  O   UNL     1      10.145 -23.622 -24.215  1.00  0.00    -0.507 OA
ATOM     24  H   UNL     1      10.314 -22.773 -23.691  1.00  0.00     0.293 HD
ENDBRANCH  13  23
BRANCH  19  25
ATOM     25  C   UNL     1       9.120 -22.978 -21.881  1.00  0.00     0.264 C 
ATOM     26  O   UNL     1       9.850 -22.003 -21.557  1.00  0.00    -0.298 OA
ENDBRANCH  19  25
BRANCH  20  27
ATOM     27  C   UNL     1      10.025 -28.498 -20.210  1.00  0.00     0.017 C 
ATOM     28  C   UNL     1      11.172 -28.726 -19.221  1.00  0.00     0.012 C 
ATOM     29  C   UNL     1       8.695 -29.043 -19.658  1.00  0.00     0.012 C 
ENDBRANCH  20  27
BRANCH  21  30
ATOM     30  O   UNL     1       8.737 -23.844 -19.203  1.00  0.00    -0.504 OA
ATOM     31  H   UNL     1       9.298 -23.247 -18.610  1.00  0.00     0.293 HD
ENDBRANCH  21  30
BRANCH  22  32
ATOM     32  O   UNL     1       9.380 -26.372 -18.377  1.00  0.00    -0.504 OA
ATOM     33  H   UNL     1      10.148 -26.375 -17.717  1.00  0.00     0.293 HD
ENDBRANCH  22  32
ENDBRANCH  11  12
BRANCH  10  34
ATOM     34  O   UNL     1       9.329 -26.297 -26.810  1.00  0.00    -0.507 OA
ATOM     35  H   UNL     1       8.454 -25.790 -26.867  1.00  0.00     0.293 HD
ENDBRANCH  10  34
BRANCH   9  36
ATOM     36  C   UNL     1      13.450 -22.910 -30.060  1.00  0.00     0.017 C 
ATOM     37  C   UNL     1      12.787 -21.542 -30.253  1.00  0.00     0.012 C 
ATOM     38  C   UNL     1      14.511 -22.867 -28.945  1.00  0.00     0.012 C 
ENDBRANCH   9  36
BRANCH   6  39
ATOM     39  C   UNL     1       9.160 -26.845 -29.428  1.00  0.00     0.264 C 
ATOM     40  O   UNL     1       9.341 -28.019 -29.848  1.00  0.00    -0.298 OA
ENDBRANCH   6  39
BRANCH   8  41
ATOM     41  O   UNL     1      12.131 -24.165 -32.270  1.00  0.00    -0.504 OA
ATOM     42  H   UNL     1      13.097 -24.031 -32.533  1.00  0.00     0.293 HD
ENDBRANCH   8  41
BRANCH   7  43
ATOM     43  O   UNL     1       9.852 -25.842 -31.911  1.00  0.00    -0.504 OA
ATOM     44  H   UNL     1       9.443 -26.762 -31.985  1.00  0.00     0.293 HD
ENDBRANCH   7  43
TORSDOF 11
ENDMDL
MODEL 8
REMARK VINA RESULT:    -5.597      5.091      9.237
REMARK INTER + INTRA:          -9.403
REMARK INTER:                  -8.198
REMARK INTRA:                  -1.205
REMARK UNBOUND:                -1.189
REMARK SMILES Cc1cc2c(C(C)C)c(O)c(O)c(C=O)c2c(O)c1-c1c(C)cc2c(C(C)C)c(O)c(O)c(C=O)c2c1O
REMARK SMILES IDX 1 1 2 2 3 3 4 4 16 5 13 6 11 7 9 8 5 9 17 10 19 11 20 12
REMARK SMILES IDX 37 13 21 14 36 15 23 16 22 17 24 18 33 19 25 20 31 21 29 22
REMARK SMILES IDX 38 23 34 25 35 26 26 27 27 28 28 29 32 30 30 32 18 34 6 36
REMARK SMILES IDX 7 37 8 38 14 39 15 40 10 41 12 43
REMARK H PARENT 38 24 32 31 30 33 18 35 10 42 12 44
REMARK Flexibility Score: inf
ROOT
ATOM      1  C   UNL     1      15.547 -23.687 -24.057  1.00  0.00     0.045 C 
ATOM      2  C   UNL     1      16.650 -23.750 -25.086  1.00  0.00    -0.039 A 
ATOM      3  C   UNL     1      17.812 -23.003 -24.890  1.00  0.00     0.013 A 
ATOM      4  C   UNL     1      18.871 -23.015 -25.824  1.00  0.00    -0.006 A 
ATOM      5  C   UNL     1      18.799 -23.917 -26.925  1.00  0.00     0.039 A 
ATOM      6  C   UNL     1      19.955 -24.112 -27.735  1.00  0.00     0.072 A 
ATOM      7  C   UNL     1      21.126 -23.371 -27.484  1.00  0.00     0.169 A 
ATOM      8  C   UNL     1      21.165 -22.431 -26.435  1.00  0.00     0.162 A 
ATOM      9  C   UNL     1      20.010 -22.170 -25.664  1.00  0.00     0.008 A 
ATOM     10  C   UNL     1      17.560 -24.571 -27.194  1.00  0.00     0.132 A 
ATOM     11  C   UNL     1      16.501 -24.502 -26.264  1.00  0.00     0.031 A 
ENDROOT
BRANCH  11  12
ATOM     12  C   UNL     1      15.229 -25.227 -26.523  1.00  0.00     0.031 A 
ATOM     13  C   UNL     1      15.102 -26.589 -26.171  1.00  0.00     0.132 A 
ATOM     14  C   UNL     1      14.168 -24.562 -27.158  1.00  0.00    -0.039 A 
ATOM     15  C   UNL     1      13.889 -27.296 -26.436  1.00  0.00     0.039 A 
ATOM     16  C   UNL     1      12.984 -25.250 -27.423  1.00  0.00     0.013 A 
ATOM     17  C   UNL     1      14.299 -23.120 -27.586  1.00  0.00     0.045 C 
ATOM     18  C   UNL     1      12.796 -26.594 -27.033  1.00  0.00    -0.006 A 
ATOM     19  C   UNL     1      13.743 -28.691 -26.162  1.00  0.00     0.072 A 
ATOM     20  C   UNL     1      11.554 -27.261 -27.267  1.00  0.00     0.008 A 
ATOM     21  C   UNL     1      12.565 -29.363 -26.547  1.00  0.00     0.169 A 
ATOM     22  C   UNL     1      11.504 -28.664 -27.127  1.00  0.00     0.162 A 
BRANCH  13  23
ATOM     23  O   UNL     1      16.186 -27.237 -25.569  1.00  0.00    -0.507 OA
ATOM     24  H   UNL     1      17.127 -26.866 -25.543  1.00  0.00     0.293 HD
ENDBRANCH  13  23
BRANCH  19  25
ATOM     25  C   UNL     1      14.805 -29.473 -25.497  1.00  0.00     0.264 C 
ATOM     26  O   UNL     1      15.554 -30.232 -26.168  1.00  0.00    -0.298 OA
ENDBRANCH  19  25
BRANCH  20  27
ATOM     27  C   UNL     1      10.286 -26.493 -27.686  1.00  0.00     0.017 C 
ATOM     28  C   UNL     1       9.962 -26.740 -29.162  1.00  0.00     0.012 C 
ATOM     29  C   UNL     1       9.065 -26.770 -26.791  1.00  0.00     0.012 C 
ENDBRANCH  20  27
BRANCH  21  30
ATOM     30  O   UNL     1      12.404 -30.738 -26.335  1.00  0.00    -0.504 OA
ATOM     31  H   UNL     1      12.645 -31.450 -27.012  1.00  0.00     0.293 HD
ENDBRANCH  21  30
BRANCH  22  32
ATOM     32  O   UNL     1      10.382 -29.369 -27.569  1.00  0.00    -0.504 OA
ATOM     33  H   UNL     1       9.508 -28.920 -27.812  1.00  0.00     0.293 HD
ENDBRANCH  22  32
ENDBRANCH  11  12
BRANCH  10  34
ATOM     34  O   UNL     1      17.368 -25.249 -28.403  1.00  0.00    -0.507 OA
ATOM     35  H   UNL     1      17.687 -24.904 -29.300  1.00  0.00     0.293 HD
ENDBRANCH  10  34
BRANCH   9  36
ATOM     36  C   UNL     1      20.007 -21.001 -24.661  1.00  0.00     0.017 C 
ATOM     37  C   UNL     1      19.154 -19.837 -25.175  1.00  0.00     0.012 C 
ATOM     38  C   UNL     1      19.599 -21.409 -23.233  1.00  0.00     0.012 C 
ENDBRANCH   9  36
BRANCH   6  39
ATOM     39  C   UNL     1      20.023 -25.182 -28.760  1.00  0.00     0.264 C 
ATOM     40  O   UNL     1      20.830 -26.142 -28.645  1.00  0.00    -0.298 OA
ENDBRANCH   6  39
BRANCH   8  41
ATOM     41  O   UNL     1      22.354 -21.772 -26.109  1.00  0.00    -0.504 OA
ATOM     42  H   UNL     1      22.439 -20.780 -25.946  1.00  0.00     0.293 HD
ENDBRANCH   8  41
BRANCH   7  43
ATOM     43  O   UNL     1      22.243 -23.597 -28.298  1.00  0.00    -0.504 OA
ATOM     44  H   UNL     1      22.231 -24.128 -29.157  1.00  0.00     0.293 HD
ENDBRANCH   7  43
TORSDOF 11
ENDMDL
MODEL 9
REMARK VINA RESULT:    -5.522      7.852     11.388
REMARK INTER + INTRA:          -9.293
REMARK INTER:                  -8.059
REMARK INTRA:                  -1.234
REMARK UNBOUND:                -1.189
REMARK SMILES Cc1cc2c(C(C)C)c(O)c(O)c(C=O)c2c(O)c1-c1c(C)cc2c(C(C)C)c(O)c(O)c(C=O)c2c1O
REMARK SMILES IDX 1 1 2 2 3 3 4 4 16 5 13 6 11 7 9 8 5 9 17 10 19 11 20 12
REMARK SMILES IDX 37 13 21 14 36 15 23 16 22 17 24 18 33 19 25 20 31 21 29 22
REMARK SMILES IDX 38 23 34 25 35 26 26 27 27 28 28 29 32 30 30 32 18 34 6 36
REMARK SMILES IDX 7 37 8 38 14 39 15 40 10 41 12 43
REMARK H PARENT 38 24 32 31 30 33 18 35 10 42 12 44
REMARK Flexibility Score: inf
ROOT
ATOM      1  C   UNL     1      17.825 -21.669 -24.137  1.00  0.00     0.045 C 
ATOM      2  C   UNL     1      18.459 -22.734 -24.998  1.00  0.00    -0.039 A 
ATOM      3  C   UNL     1      18.183 -24.077 -24.740  1.00  0.00     0.013 A 
ATOM      4  C   UNL     1      18.757 -25.116 -25.506  1.00  0.00    -0.006 A 
ATOM      5  C   UNL     1      19.529 -24.771 -26.652  1.00  0.00     0.039 A 
ATOM      6  C   UNL     1      19.910 -25.798 -27.563  1.00  0.00     0.072 A 
ATOM      7  C   UNL     1      19.580 -27.140 -27.292  1.00  0.00     0.169 A 
ATOM      8  C   UNL     1      18.874 -27.479 -26.120  1.00  0.00     0.162 A 
ATOM      9  C   UNL     1      18.549 -26.487 -25.168  1.00  0.00     0.008 A 
ATOM     10  C   UNL     1      19.920 -23.410 -26.830  1.00  0.00     0.132 A 
ATOM     11  C   UNL     1      19.366 -22.398 -26.018  1.00  0.00     0.031 A 
ENDROOT
BRANCH  11  12
ATOM     12  C   UNL     1      19.735 -20.975 -26.240  1.00  0.00     0.031 A 
ATOM     13  C   UNL     1      18.902 -20.136 -27.012  1.00  0.00     0.132 A 
ATOM     14  C   UNL     1      20.938 -20.479 -25.712  1.00  0.00    -0.039 A 
ATOM     15  C   UNL     1      19.262 -18.773 -27.247  1.00  0.00     0.039 A 
ATOM     16  C   UNL     1      21.296 -19.150 -25.942  1.00  0.00     0.013 A 
ATOM     17  C   UNL     1      21.867 -21.372 -24.924  1.00  0.00     0.045 C 
ATOM     18  C   UNL     1      20.462 -18.265 -26.658  1.00  0.00    -0.006 A 
ATOM     19  C   UNL     1      18.486 -17.911 -28.080  1.00  0.00     0.072 A 
ATOM     20  C   UNL     1      20.825 -16.893 -26.834  1.00  0.00     0.008 A 
ATOM     21  C   UNL     1      18.946 -16.609 -28.368  1.00  0.00     0.169 A 
ATOM     22  C   UNL     1      20.119 -16.125 -27.784  1.00  0.00     0.162 A 
BRANCH  13  23
ATOM     23  O   UNL     1      17.726 -20.663 -27.555  1.00  0.00    -0.507 OA
ATOM     24  H   UNL     1      16.796 -20.335 -27.325  1.00  0.00     0.293 HD
ENDBRANCH  13  23
BRANCH  19  25
ATOM     25  C   UNL     1      17.207 -18.344 -28.679  1.00  0.00     0.264 C 
ATOM     26  O   UNL     1      16.111 -17.966 -28.187  1.00  0.00    -0.298 OA
ENDBRANCH  19  25
BRANCH  20  27
ATOM     27  C   UNL     1      21.971 -16.248 -26.033  1.00  0.00     0.017 C 
ATOM     28  C   UNL     1      23.208 -16.052 -26.915  1.00  0.00     0.012 C 
ATOM     29  C   UNL     1      21.577 -14.940 -25.323  1.00  0.00     0.012 C 
ENDBRANCH  20  27
BRANCH  21  30
ATOM     30  O   UNL     1      18.235 -15.751 -29.216  1.00  0.00    -0.504 OA
ATOM     31  H   UNL     1      18.142 -15.887 -30.214  1.00  0.00     0.293 HD
ENDBRANCH  21  30
BRANCH  22  32
ATOM     32  O   UNL     1      20.592 -14.862 -28.148  1.00  0.00    -0.504 OA
ATOM     33  H   UNL     1      19.983 -14.066 -28.295  1.00  0.00     0.293 HD
ENDBRANCH  22  32
ENDBRANCH  11  12
BRANCH  10  34
ATOM     34  O   UNL     1      20.888 -23.073 -27.783  1.00  0.00    -0.507 OA
ATOM     35  H   UNL     1      21.668 -22.454 -27.599  1.00  0.00     0.293 HD
ENDBRANCH  10  34
BRANCH   9  36
ATOM     36  C   UNL     1      17.963 -26.898 -23.804  1.00  0.00     0.017 C 
ATOM     37  C   UNL     1      16.523 -27.401 -23.954  1.00  0.00     0.012 C 
ATOM     38  C   UNL     1      18.833 -27.908 -23.033  1.00  0.00     0.012 C 
ENDBRANCH   9  36
BRANCH   6  39
ATOM     39  C   UNL     1      20.526 -25.492 -28.877  1.00  0.00     0.264 C 
ATOM     40  O   UNL     1      21.734 -25.766 -29.108  1.00  0.00    -0.298 OA
ENDBRANCH   6  39
BRANCH   8  41
ATOM     41  O   UNL     1      18.446 -28.791 -25.897  1.00  0.00    -0.504 OA
ATOM     42  H   UNL     1      17.533 -29.149 -26.134  1.00  0.00     0.293 HD
ENDBRANCH   8  41
BRANCH   7  43
ATOM     43  O   UNL     1      19.965 -28.119 -28.216  1.00  0.00    -0.504 OA
ATOM     44  H   UNL     1      20.785 -28.065 -28.803  1.00  0.00     0.293 HD
ENDBRANCH   7  43
TORSDOF 11
ENDMDL
