MODEL 1
REMARK VINA RESULT:    -5.091      0.000      0.000
REMARK INTER + INTRA:          -5.091
REMARK INTER:                  -5.091
REMARK INTRA:                   0.000
REMARK UNBOUND:                 0.000
REMARK SMILES CC1=CC[C@H]2[C@H](C1)C2(C)C
REMARK SMILES IDX 1 1 2 2 3 3 4 4 5 5 6 6 7 7 8 8 9 9 10 10
REMARK H PARENT
REMARK Flexibility Score: inf
ROOT
ATOM      1  C   UNL     1     -16.318 -41.149 213.419  1.00  0.00     0.039 C 
ATOM      2  C   UNL     1     -16.557 -40.049 212.424  1.00  0.00    -0.077 C 
ATOM      3  C   UNL     1     -16.581 -38.753 212.850  1.00  0.00    -0.028 C 
ATOM      4  C   UNL     1     -16.794 -37.588 211.884  1.00  0.00     0.031 C 
ATOM      5  C   UNL     1     -16.384 -38.058 210.484  1.00  0.00     0.003 C 
ATOM      6  C   UNL     1     -17.412 -39.228 210.243  1.00  0.00     0.003 C 
ATOM      7  C   UNL     1     -16.704 -40.397 210.937  1.00  0.00     0.034 C 
ATOM      8  C   UNL     1     -17.072 -38.241 209.149  1.00  0.00    -0.029 C 
ATOM      9  C   UNL     1     -18.135 -37.194 208.803  1.00  0.00     0.012 C 
ATOM     10  C   UNL     1     -16.223 -38.792 208.000  1.00  0.00     0.012 C 
ENDROOT
TORSDOF 0
ENDMDL
MODEL 2
REMARK VINA RESULT:    -4.598      1.613      4.191
REMARK INTER + INTRA:          -4.598
REMARK INTER:                  -4.598
REMARK INTRA:                   0.000
REMARK UNBOUND:                 0.000
REMARK SMILES CC1=CC[C@H]2[C@H](C1)C2(C)C
REMARK SMILES IDX 1 1 2 2 3 3 4 4 5 5 6 6 7 7 8 8 9 9 10 10
REMARK H PARENT
REMARK Flexibility Score: inf
ROOT
ATOM      1  C   UNL     1     -20.125 -37.621 207.187  1.00  0.00     0.039 C 
ATOM      2  C   UNL     1     -19.391 -37.982 208.447  1.00  0.00    -0.077 C 
ATOM      3  C   UNL     1     -20.012 -38.751 209.389  1.00  0.00    -0.028 C 
ATOM      4  C   UNL     1     -19.311 -39.173 210.679  1.00  0.00     0.031 C 
ATOM      5  C   UNL     1     -17.800 -39.116 210.432  1.00  0.00     0.003 C 
ATOM      6  C   UNL     1     -17.600 -37.585 210.120  1.00  0.00     0.003 C 
ATOM      7  C   UNL     1     -17.934 -37.538 208.625  1.00  0.00     0.034 C 
ATOM      8  C   UNL     1     -16.630 -38.342 210.999  1.00  0.00    -0.029 C 
ATOM      9  C   UNL     1     -16.689 -38.060 212.502  1.00  0.00     0.012 C 
ATOM     10  C   UNL     1     -15.254 -38.615 210.384  1.00  0.00     0.012 C 
ENDROOT
TORSDOF 0
ENDMDL
MODEL 3
REMARK VINA RESULT:    -4.586      1.104      4.190
REMARK INTER + INTRA:          -4.586
REMARK INTER:                  -4.586
REMARK INTRA:                   0.000
REMARK UNBOUND:                 0.000
REMARK SMILES CC1=CC[C@H]2[C@H](C1)C2(C)C
REMARK SMILES IDX 1 1 2 2 3 3 4 4 5 5 6 6 7 7 8 8 9 9 10 10
REMARK H PARENT
REMARK Flexibility Score: inf
ROOT
ATOM      1  C   UNL     1     -17.729 -38.088 206.805  1.00  0.00     0.039 C 
ATOM      2  C   UNL     1     -17.208 -38.385 208.183  1.00  0.00    -0.077 C 
ATOM      3  C   UNL     1     -15.984 -38.973 208.326  1.00  0.00    -0.028 C 
ATOM      4  C   UNL     1     -15.389 -39.276 209.700  1.00  0.00     0.031 C 
ATOM      5  C   UNL     1     -16.051 -38.339 210.716  1.00  0.00     0.003 C 
ATOM      6  C   UNL     1     -17.557 -38.788 210.607  1.00  0.00     0.003 C 
ATOM      7  C   UNL     1     -18.030 -37.961 209.407  1.00  0.00     0.034 C 
ATOM      8  C   UNL     1     -16.916 -38.500 211.946  1.00  0.00    -0.029 C 
ATOM      9  C   UNL     1     -16.589 -39.705 212.834  1.00  0.00     0.012 C 
ATOM     10  C   UNL     1     -17.381 -37.217 212.641  1.00  0.00     0.012 C 
ENDROOT
TORSDOF 0
ENDMDL
MODEL 4
REMARK VINA RESULT:    -4.574      1.042      3.869
REMARK INTER + INTRA:          -4.574
REMARK INTER:                  -4.574
REMARK INTRA:                   0.000
REMARK UNBOUND:                 0.000
REMARK SMILES CC1=CC[C@H]2[C@H](C1)C2(C)C
REMARK SMILES IDX 1 1 2 2 3 3 4 4 5 5 6 6 7 7 8 8 9 9 10 10
REMARK H PARENT
REMARK Flexibility Score: inf
ROOT
ATOM      1  C   UNL     1     -15.280 -39.540 207.017  1.00  0.00     0.039 C 
ATOM      2  C   UNL     1     -15.982 -39.098 208.269  1.00  0.00    -0.077 C 
ATOM      3  C   UNL     1     -17.150 -38.398 208.173  1.00  0.00    -0.028 C 
ATOM      4  C   UNL     1     -17.925 -37.943 209.409  1.00  0.00     0.031 C 
ATOM      5  C   UNL     1     -17.528 -38.855 210.574  1.00  0.00     0.003 C 
ATOM      6  C   UNL     1     -15.987 -38.547 210.690  1.00  0.00     0.003 C 
ATOM      7  C   UNL     1     -15.411 -39.499 209.635  1.00  0.00     0.034 C 
ATOM      8  C   UNL     1     -16.858 -38.679 211.919  1.00  0.00    -0.029 C 
ATOM      9  C   UNL     1     -17.204 -37.389 212.667  1.00  0.00     0.012 C 
ATOM     10  C   UNL     1     -16.637 -39.943 212.755  1.00  0.00     0.012 C 
ENDROOT
TORSDOF 0
ENDMDL
MODEL 5
REMARK VINA RESULT:    -4.488      1.696      2.911
REMARK INTER + INTRA:          -4.488
REMARK INTER:                  -4.488
REMARK INTRA:                   0.000
REMARK UNBOUND:                 0.000
REMARK SMILES CC1=CC[C@H]2[C@H](C1)C2(C)C
REMARK SMILES IDX 1 1 2 2 3 3 4 4 5 5 6 6 7 7 8 8 9 9 10 10
REMARK H PARENT
REMARK Flexibility Score: inf
ROOT
ATOM      1  C   UNL     1     -16.774 -38.029 212.640  1.00  0.00     0.039 C 
ATOM      2  C   UNL     1     -17.501 -38.272 211.348  1.00  0.00    -0.077 C 
ATOM      3  C   UNL     1     -18.421 -39.279 211.274  1.00  0.00    -0.028 C 
ATOM      4  C   UNL     1     -19.211 -39.560 209.997  1.00  0.00     0.031 C 
ATOM      5  C   UNL     1     -19.230 -38.274 209.163  1.00  0.00     0.003 C 
ATOM      6  C   UNL     1     -17.693 -38.072 208.881  1.00  0.00     0.003 C 
ATOM      7  C   UNL     1     -17.247 -37.344 210.154  1.00  0.00     0.034 C 
ATOM      8  C   UNL     1     -18.727 -37.849 207.801  1.00  0.00    -0.029 C 
ATOM      9  C   UNL     1     -18.823 -38.908 206.700  1.00  0.00     0.012 C 
ATOM     10  C   UNL     1     -18.961 -36.389 207.400  1.00  0.00     0.012 C 
ENDROOT
TORSDOF 0
ENDMDL
MODEL 6
REMARK VINA RESULT:    -4.478      1.707      2.368
REMARK INTER + INTRA:          -4.478
REMARK INTER:                  -4.478
REMARK INTRA:                   0.000
REMARK UNBOUND:                 0.000
REMARK SMILES CC1=CC[C@H]2[C@H](C1)C2(C)C
REMARK SMILES IDX 1 1 2 2 3 3 4 4 5 5 6 6 7 7 8 8 9 9 10 10
REMARK H PARENT
REMARK Flexibility Score: inf
ROOT
ATOM      1  C   UNL     1     -16.685 -38.958 213.006  1.00  0.00     0.039 C 
ATOM      2  C   UNL     1     -17.261 -38.624 211.659  1.00  0.00    -0.077 C 
ATOM      3  C   UNL     1     -16.702 -37.622 210.920  1.00  0.00    -0.028 C 
ATOM      4  C   UNL     1     -17.225 -37.252 209.532  1.00  0.00     0.031 C 
ATOM      5  C   UNL     1     -17.960 -38.472 208.967  1.00  0.00     0.003 C 
ATOM      6  C   UNL     1     -19.123 -38.640 210.017  1.00  0.00     0.003 C 
ATOM      7  C   UNL     1     -18.424 -39.458 211.109  1.00  0.00     0.034 C 
ATOM      8  C   UNL     1     -19.374 -38.790 208.533  1.00  0.00    -0.029 C 
ATOM      9  C   UNL     1     -20.125 -37.651 207.837  1.00  0.00     0.012 C 
ATOM     10  C   UNL     1     -19.647 -40.217 208.049  1.00  0.00     0.012 C 
ENDROOT
TORSDOF 0
ENDMDL
MODEL 7
REMARK VINA RESULT:    -4.345      1.154      3.978
REMARK INTER + INTRA:          -4.345
REMARK INTER:                  -4.345
REMARK INTRA:                   0.000
REMARK UNBOUND:                 0.000
REMARK SMILES CC1=CC[C@H]2[C@H](C1)C2(C)C
REMARK SMILES IDX 1 1 2 2 3 3 4 4 5 5 6 6 7 7 8 8 9 9 10 10
REMARK H PARENT
REMARK Flexibility Score: inf
ROOT
ATOM      1  C   UNL     1     -17.966 -37.197 208.757  1.00  0.00     0.039 C 
ATOM      2  C   UNL     1     -17.590 -38.090 209.906  1.00  0.00    -0.077 C 
ATOM      3  C   UNL     1     -17.066 -37.540 211.040  1.00  0.00    -0.028 C 
ATOM      4  C   UNL     1     -16.687 -38.392 212.251  1.00  0.00     0.031 C 
ATOM      5  C   UNL     1     -17.498 -39.691 212.183  1.00  0.00     0.003 C 
ATOM      6  C   UNL     1     -16.971 -40.308 210.833  1.00  0.00     0.003 C 
ATOM      7  C   UNL     1     -17.863 -39.596 209.810  1.00  0.00     0.034 C 
ATOM      8  C   UNL     1     -17.186 -41.166 212.059  1.00  0.00    -0.029 C 
ATOM      9  C   UNL     1     -15.936 -41.643 212.802  1.00  0.00     0.012 C 
ATOM     10  C   UNL     1     -18.380 -42.124 211.996  1.00  0.00     0.012 C 
ENDROOT
TORSDOF 0
ENDMDL
MODEL 8
REMARK VINA RESULT:    -4.286     11.846     13.584
REMARK INTER + INTRA:          -4.286
REMARK INTER:                  -4.286
REMARK INTRA:                   0.000
REMARK UNBOUND:                 0.000
REMARK SMILES CC1=CC[C@H]2[C@H](C1)C2(C)C
REMARK SMILES IDX 1 1 2 2 3 3 4 4 5 5 6 6 7 7 8 8 9 9 10 10
REMARK H PARENT
REMARK Flexibility Score: inf
ROOT
ATOM      1  C   UNL     1      -7.118 -39.197 213.871  1.00  0.00     0.039 C 
ATOM      2  C   UNL     1      -6.193 -39.187 215.055  1.00  0.00    -0.077 C 
ATOM      3  C   UNL     1      -5.110 -38.355 215.054  1.00  0.00    -0.028 C 
ATOM      4  C   UNL     1      -4.147 -38.280 216.238  1.00  0.00     0.031 C 
ATOM      5  C   UNL     1      -4.895 -38.765 217.484  1.00  0.00     0.003 C 
ATOM      6  C   UNL     1      -5.227 -40.251 217.079  1.00  0.00     0.003 C 
ATOM      7  C   UNL     1      -6.517 -40.061 216.273  1.00  0.00     0.034 C 
ATOM      8  C   UNL     1      -4.749 -39.902 218.471  1.00  0.00    -0.029 C 
ATOM      9  C   UNL     1      -3.311 -40.287 218.828  1.00  0.00     0.012 C 
ATOM     10  C   UNL     1      -5.803 -40.000 219.578  1.00  0.00     0.012 C 
ENDROOT
TORSDOF 0
ENDMDL
MODEL 9
REMARK VINA RESULT:    -4.065     12.196     13.492
REMARK INTER + INTRA:          -4.065
REMARK INTER:                  -4.065
REMARK INTRA:                   0.000
REMARK UNBOUND:                 0.000
REMARK SMILES CC1=CC[C@H]2[C@H](C1)C2(C)C
REMARK SMILES IDX 1 1 2 2 3 3 4 4 5 5 6 6 7 7 8 8 9 9 10 10
REMARK H PARENT
REMARK Flexibility Score: inf
ROOT
ATOM      1  C   UNL     1      -1.852 -39.875 213.112  1.00  0.00     0.039 C 
ATOM      2  C   UNL     1      -2.928 -39.680 214.142  1.00  0.00    -0.077 C 
ATOM      3  C   UNL     1      -2.867 -38.605 214.982  1.00  0.00    -0.028 C 
ATOM      4  C   UNL     1      -3.944 -38.338 216.032  1.00  0.00     0.031 C 
ATOM      5  C   UNL     1      -5.228 -39.042 215.579  1.00  0.00     0.003 C 
ATOM      6  C   UNL     1      -4.763 -40.547 215.572  1.00  0.00     0.003 C 
ATOM      7  C   UNL     1      -4.113 -40.654 214.188  1.00  0.00     0.034 C 
ATOM      8  C   UNL     1      -6.116 -40.144 216.114  1.00  0.00    -0.029 C 
ATOM      9  C   UNL     1      -6.292 -40.172 217.634  1.00  0.00     0.012 C 
ATOM     10  C   UNL     1      -7.319 -40.544 215.255  1.00  0.00     0.012 C 
ENDROOT
TORSDOF 0
ENDMDL
