MODEL 1
REMARK VINA RESULT:    -6.569      0.000      0.000
REMARK INTER + INTRA:          -7.218
REMARK INTER:                  -6.953
REMARK INTRA:                  -0.265
REMARK UNBOUND:                -0.265
REMARK SMILES O=c1cc(-c2ccccc2)oc2ccccc12
REMARK SMILES IDX 4 1 3 2 2 3 1 4 17 5 16 6 15 7 14 8 13 9 12 10 11 11 5 12
REMARK SMILES IDX 8 13 7 14 9 15 6 16 10 17
REMARK H PARENT
REMARK Flexibility Score: inf
ROOT
ATOM      1  C   UNL     1     -31.386   8.588 -19.730  1.00  0.00     0.138 A 
ATOM      2  C   UNL     1     -30.798   8.875 -18.480  1.00  0.00     0.100 A 
ATOM      3  C   UNL     1     -29.724   9.764 -18.411  1.00  0.00     0.193 A 
ATOM      4  O   UNL     1     -29.199  10.021 -17.294  1.00  0.00    -0.289 OA
ATOM      5  C   UNL     1     -29.244  10.359 -19.587  1.00  0.00     0.065 A 
ATOM      6  C   UNL     1     -28.165  11.262 -19.588  1.00  0.00     0.016 A 
ATOM      7  C   UNL     1     -27.727  11.827 -20.791  1.00  0.00     0.001 A 
ATOM      8  C   UNL     1     -28.357  11.496 -21.994  1.00  0.00     0.004 A 
ATOM      9  C   UNL     1     -29.429  10.599 -22.001  1.00  0.00     0.048 A 
ATOM     10  C   UNL     1     -29.876  10.028 -20.805  1.00  0.00     0.138 A 
ATOM     11  O   UNL     1     -30.896   9.177 -20.822  1.00  0.00    -0.456 OA
ENDROOT
BRANCH   1  12
ATOM     12  C   UNL     1     -32.538   7.649 -19.891  1.00  0.00     0.017 A 
ATOM     13  C   UNL     1     -34.705   5.885 -20.293  1.00  0.00     0.000 A 
ATOM     14  C   UNL     1     -34.048   6.444 -21.388  1.00  0.00     0.001 A 
ATOM     15  C   UNL     1     -34.291   6.198 -18.999  1.00  0.00     0.001 A 
ATOM     16  C   UNL     1     -32.974   7.318 -21.192  1.00  0.00     0.012 A 
ATOM     17  C   UNL     1     -33.217   7.072 -18.794  1.00  0.00     0.012 A 
ENDBRANCH   1  12
TORSDOF 1
ENDMDL
MODEL 2
REMARK VINA RESULT:    -6.311      3.969      8.065
REMARK INTER + INTRA:          -6.945
REMARK INTER:                  -6.700
REMARK INTRA:                  -0.245
REMARK UNBOUND:                -0.265
REMARK SMILES O=c1cc(-c2ccccc2)oc2ccccc12
REMARK SMILES IDX 4 1 3 2 2 3 1 4 17 5 16 6 15 7 14 8 13 9 12 10 11 11 5 12
REMARK SMILES IDX 8 13 7 14 9 15 6 16 10 17
REMARK H PARENT
REMARK Flexibility Score: inf
ROOT
ATOM      1  C   UNL     1     -26.306  12.148 -17.517  1.00  0.00     0.138 A 
ATOM      2  C   UNL     1     -26.222  12.620 -18.844  1.00  0.00     0.100 A 
ATOM      3  C   UNL     1     -27.142  12.172 -19.794  1.00  0.00     0.193 A 
ATOM      4  O   UNL     1     -27.067  12.594 -20.980  1.00  0.00    -0.289 OA
ATOM      5  C   UNL     1     -28.135  11.258 -19.415  1.00  0.00     0.065 A 
ATOM      6  C   UNL     1     -29.092  10.765 -20.323  1.00  0.00     0.016 A 
ATOM      7  C   UNL     1     -30.062   9.855 -19.891  1.00  0.00     0.001 A 
ATOM      8  C   UNL     1     -30.084   9.429 -18.559  1.00  0.00     0.004 A 
ATOM      9  C   UNL     1     -29.138   9.913 -17.652  1.00  0.00     0.048 A 
ATOM     10  C   UNL     1     -28.163  10.825 -18.072  1.00  0.00     0.138 A 
ATOM     11  O   UNL     1     -27.267  11.279 -17.202  1.00  0.00    -0.456 OA
ENDROOT
BRANCH   1  12
ATOM     12  C   UNL     1     -25.362  12.578 -16.440  1.00  0.00     0.017 A 
ATOM     13  C   UNL     1     -23.503  13.376 -14.470  1.00  0.00     0.000 A 
ATOM     14  C   UNL     1     -23.063  13.038 -15.749  1.00  0.00     0.001 A 
ATOM     15  C   UNL     1     -24.863  13.319 -14.165  1.00  0.00     0.001 A 
ATOM     16  C   UNL     1     -23.981  12.642 -16.727  1.00  0.00     0.012 A 
ATOM     17  C   UNL     1     -25.788  12.924 -15.138  1.00  0.00     0.012 A 
ENDBRANCH   1  12
TORSDOF 1
ENDMDL
MODEL 3
REMARK VINA RESULT:    -6.306      3.917      5.879
REMARK INTER + INTRA:          -6.939
REMARK INTER:                  -6.719
REMARK INTRA:                  -0.220
REMARK UNBOUND:                -0.265
REMARK SMILES O=c1cc(-c2ccccc2)oc2ccccc12
REMARK SMILES IDX 4 1 3 2 2 3 1 4 17 5 16 6 15 7 14 8 13 9 12 10 11 11 5 12
REMARK SMILES IDX 8 13 7 14 9 15 6 16 10 17
REMARK H PARENT
REMARK Flexibility Score: inf
ROOT
ATOM      1  C   UNL     1     -27.367  10.273 -17.522  1.00  0.00     0.138 A 
ATOM      2  C   UNL     1     -26.472   9.228 -17.212  1.00  0.00     0.100 A 
ATOM      3  C   UNL     1     -25.439   9.453 -16.300  1.00  0.00     0.193 A 
ATOM      4  O   UNL     1     -24.639   8.518 -16.023  1.00  0.00    -0.289 OA
ATOM      5  C   UNL     1     -25.306  10.716 -15.706  1.00  0.00     0.065 A 
ATOM      6  C   UNL     1     -24.287  11.009 -14.780  1.00  0.00     0.016 A 
ATOM      7  C   UNL     1     -24.201  12.287 -14.217  1.00  0.00     0.001 A 
ATOM      8  C   UNL     1     -25.123  13.276 -14.572  1.00  0.00     0.004 A 
ATOM      9  C   UNL     1     -26.137  12.992 -15.491  1.00  0.00     0.048 A 
ATOM     10  C   UNL     1     -26.234  11.718 -16.060  1.00  0.00     0.138 A 
ATOM     11  O   UNL     1     -27.201  11.458 -16.933  1.00  0.00    -0.456 OA
ENDROOT
BRANCH   1  12
ATOM     12  C   UNL     1     -28.498  10.116 -18.487  1.00  0.00     0.017 A 
ATOM     13  C   UNL     1     -30.577   9.857 -20.380  1.00  0.00     0.000 A 
ATOM     14  C   UNL     1     -29.341  10.373 -20.767  1.00  0.00     0.001 A 
ATOM     15  C   UNL     1     -30.785   9.470 -19.056  1.00  0.00     0.001 A 
ATOM     16  C   UNL     1     -28.309  10.502 -19.832  1.00  0.00     0.012 A 
ATOM     17  C   UNL     1     -29.758   9.596 -18.114  1.00  0.00     0.012 A 
ENDBRANCH   1  12
TORSDOF 1
ENDMDL
MODEL 4
REMARK VINA RESULT:    -6.301      4.024      7.935
REMARK INTER + INTRA:          -6.935
REMARK INTER:                  -6.704
REMARK INTRA:                  -0.231
REMARK UNBOUND:                -0.265
REMARK SMILES O=c1cc(-c2ccccc2)oc2ccccc12
REMARK SMILES IDX 4 1 3 2 2 3 1 4 17 5 16 6 15 7 14 8 13 9 12 10 11 11 5 12
REMARK SMILES IDX 8 13 7 14 9 15 6 16 10 17
REMARK H PARENT
REMARK Flexibility Score: inf
ROOT
ATOM      1  C   UNL     1     -26.187  11.384 -17.124  1.00  0.00     0.138 A 
ATOM      2  C   UNL     1     -26.021  10.010 -17.401  1.00  0.00     0.100 A 
ATOM      3  C   UNL     1     -26.923   9.365 -18.249  1.00  0.00     0.193 A 
ATOM      4  O   UNL     1     -26.775   8.137 -18.497  1.00  0.00    -0.289 OA
ATOM      5  C   UNL     1     -27.982  10.091 -18.812  1.00  0.00     0.065 A 
ATOM      6  C   UNL     1     -28.926   9.502 -19.674  1.00  0.00     0.016 A 
ATOM      7  C   UNL     1     -29.962  10.274 -20.208  1.00  0.00     0.001 A 
ATOM      8  C   UNL     1     -30.066  11.631 -19.889  1.00  0.00     0.004 A 
ATOM      9  C   UNL     1     -29.132  12.224 -19.034  1.00  0.00     0.048 A 
ATOM     10  C   UNL     1     -28.091  11.462 -18.494  1.00  0.00     0.138 A 
ATOM     11  O   UNL     1     -27.209  12.034 -17.682  1.00  0.00    -0.456 OA
ENDROOT
BRANCH   1  12
ATOM     12  C   UNL     1     -25.267  12.149 -16.227  1.00  0.00     0.017 A 
ATOM     13  C   UNL     1     -23.606  13.610 -14.473  1.00  0.00     0.000 A 
ATOM     14  C   UNL     1     -24.949  13.411 -14.159  1.00  0.00     0.001 A 
ATOM     15  C   UNL     1     -23.084  13.087 -15.656  1.00  0.00     0.001 A 
ATOM     16  C   UNL     1     -25.774  12.688 -15.025  1.00  0.00     0.012 A 
ATOM     17  C   UNL     1     -23.903  12.363 -16.529  1.00  0.00     0.012 A 
ENDBRANCH   1  12
TORSDOF 1
ENDMDL
MODEL 5
REMARK VINA RESULT:    -6.250      4.463      6.457
REMARK INTER + INTRA:          -6.881
REMARK INTER:                  -6.653
REMARK INTRA:                  -0.228
REMARK UNBOUND:                -0.265
REMARK SMILES O=c1cc(-c2ccccc2)oc2ccccc12
REMARK SMILES IDX 4 1 3 2 2 3 1 4 17 5 16 6 15 7 14 8 13 9 12 10 11 11 5 12
REMARK SMILES IDX 8 13 7 14 9 15 6 16 10 17
REMARK H PARENT
REMARK Flexibility Score: inf
ROOT
ATOM      1  C   UNL     1     -26.652  10.151 -18.714  1.00  0.00     0.138 A 
ATOM      2  C   UNL     1     -27.735  11.019 -18.460  1.00  0.00     0.100 A 
ATOM      3  C   UNL     1     -28.558  11.419 -19.514  1.00  0.00     0.193 A 
ATOM      4  O   UNL     1     -29.526  12.195 -19.288  1.00  0.00    -0.289 OA
ATOM      5  C   UNL     1     -28.296  10.953 -20.810  1.00  0.00     0.065 A 
ATOM      6  C   UNL     1     -29.085  11.319 -21.917  1.00  0.00     0.016 A 
ATOM      7  C   UNL     1     -28.779  10.823 -23.188  1.00  0.00     0.001 A 
ATOM      8  C   UNL     1     -27.689   9.966 -23.366  1.00  0.00     0.004 A 
ATOM      9  C   UNL     1     -26.900   9.599 -22.273  1.00  0.00     0.048 A 
ATOM     10  C   UNL     1     -27.197  10.088 -20.996  1.00  0.00     0.138 A 
ATOM     11  O   UNL     1     -26.440   9.733 -19.963  1.00  0.00    -0.456 OA
ENDROOT
BRANCH   1  12
ATOM     12  C   UNL     1     -25.723   9.675 -17.643  1.00  0.00     0.017 A 
ATOM     13  C   UNL     1     -23.897   8.829 -15.663  1.00  0.00     0.000 A 
ATOM     14  C   UNL     1     -23.483   9.702 -16.667  1.00  0.00     0.001 A 
ATOM     15  C   UNL     1     -25.215   8.373 -15.638  1.00  0.00     0.001 A 
ATOM     16  C   UNL     1     -24.385  10.123 -17.649  1.00  0.00     0.012 A 
ATOM     17  C   UNL     1     -26.124   8.789 -16.617  1.00  0.00     0.012 A 
ENDBRANCH   1  12
TORSDOF 1
ENDMDL
MODEL 6
REMARK VINA RESULT:    -6.229      3.730      5.781
REMARK INTER + INTRA:          -6.859
REMARK INTER:                  -6.621
REMARK INTRA:                  -0.238
REMARK UNBOUND:                -0.265
REMARK SMILES O=c1cc(-c2ccccc2)oc2ccccc12
REMARK SMILES IDX 4 1 3 2 2 3 1 4 17 5 16 6 15 7 14 8 13 9 12 10 11 11 5 12
REMARK SMILES IDX 8 13 7 14 9 15 6 16 10 17
REMARK H PARENT
REMARK Flexibility Score: inf
ROOT
ATOM      1  C   UNL     1     -27.652  10.330 -17.865  1.00  0.00     0.138 A 
ATOM      2  C   UNL     1     -27.134  11.616 -17.603  1.00  0.00     0.100 A 
ATOM      3  C   UNL     1     -26.108  11.768 -16.669  1.00  0.00     0.193 A 
ATOM      4  O   UNL     1     -25.645  12.918 -16.435  1.00  0.00    -0.289 OA
ATOM      5  C   UNL     1     -25.607  10.640 -16.004  1.00  0.00     0.065 A 
ATOM      6  C   UNL     1     -24.575  10.724 -15.050  1.00  0.00     0.016 A 
ATOM      7  C   UNL     1     -24.112   9.566 -14.417  1.00  0.00     0.001 A 
ATOM      8  C   UNL     1     -24.673   8.323 -14.726  1.00  0.00     0.004 A 
ATOM      9  C   UNL     1     -25.698   8.232 -15.671  1.00  0.00     0.048 A 
ATOM     10  C   UNL     1     -26.169   9.383 -16.311  1.00  0.00     0.138 A 
ATOM     11  O   UNL     1     -27.144   9.285 -17.209  1.00  0.00    -0.456 OA
ENDROOT
BRANCH   1  12
ATOM     12  C   UNL     1     -28.749  10.080 -18.850  1.00  0.00     0.017 A 
ATOM     13  C   UNL     1     -30.873   9.562 -20.636  1.00  0.00     0.000 A 
ATOM     14  C   UNL     1     -30.962   9.150 -19.307  1.00  0.00     0.001 A 
ATOM     15  C   UNL     1     -29.732  10.229 -21.082  1.00  0.00     0.001 A 
ATOM     16  C   UNL     1     -29.913   9.405 -18.420  1.00  0.00     0.012 A 
ATOM     17  C   UNL     1     -28.677  10.488 -20.201  1.00  0.00     0.012 A 
ENDBRANCH   1  12
TORSDOF 1
ENDMDL
MODEL 7
REMARK VINA RESULT:    -6.214      4.064      7.773
REMARK INTER + INTRA:          -6.842
REMARK INTER:                  -6.600
REMARK INTRA:                  -0.243
REMARK UNBOUND:                -0.265
REMARK SMILES O=c1cc(-c2ccccc2)oc2ccccc12
REMARK SMILES IDX 4 1 3 2 2 3 1 4 17 5 16 6 15 7 14 8 13 9 12 10 11 11 5 12
REMARK SMILES IDX 8 13 7 14 9 15 6 16 10 17
REMARK H PARENT
REMARK Flexibility Score: inf
ROOT
ATOM      1  C   UNL     1     -26.372  11.947 -17.299  1.00  0.00     0.138 A 
ATOM      2  C   UNL     1     -27.329  10.947 -17.025  1.00  0.00     0.100 A 
ATOM      3  C   UNL     1     -28.184  10.515 -18.040  1.00  0.00     0.193 A 
ATOM      4  O   UNL     1     -29.038   9.620 -17.795  1.00  0.00    -0.289 OA
ATOM      5  C   UNL     1     -28.080  11.082 -19.318  1.00  0.00     0.065 A 
ATOM      6  C   UNL     1     -28.911  10.693 -20.385  1.00  0.00     0.016 A 
ATOM      7  C   UNL     1     -28.764  11.292 -21.640  1.00  0.00     0.001 A 
ATOM      8  C   UNL     1     -27.795  12.279 -21.840  1.00  0.00     0.004 A 
ATOM      9  C   UNL     1     -26.965  12.671 -20.785  1.00  0.00     0.048 A 
ATOM     10  C   UNL     1     -27.103  12.079 -19.525  1.00  0.00     0.138 A 
ATOM     11  O   UNL     1     -26.310  12.459 -18.529  1.00  0.00    -0.456 OA
ENDROOT
BRANCH   1  12
ATOM     12  C   UNL     1     -25.420  12.466 -16.269  1.00  0.00     0.017 A 
ATOM     13  C   UNL     1     -23.547  13.432 -14.391  1.00  0.00     0.000 A 
ATOM     14  C   UNL     1     -23.124  13.040 -15.660  1.00  0.00     0.001 A 
ATOM     15  C   UNL     1     -24.897  13.345 -14.050  1.00  0.00     0.001 A 
ATOM     16  C   UNL     1     -24.049  12.562 -16.592  1.00  0.00     0.012 A 
ATOM     17  C   UNL     1     -25.829  12.867 -14.977  1.00  0.00     0.012 A 
ENDBRANCH   1  12
TORSDOF 1
ENDMDL
MODEL 8
REMARK VINA RESULT:    -6.211      3.588      6.853
REMARK INTER + INTRA:          -6.839
REMARK INTER:                  -6.603
REMARK INTRA:                  -0.237
REMARK UNBOUND:                -0.265
REMARK SMILES O=c1cc(-c2ccccc2)oc2ccccc12
REMARK SMILES IDX 4 1 3 2 2 3 1 4 17 5 16 6 15 7 14 8 13 9 12 10 11 11 5 12
REMARK SMILES IDX 8 13 7 14 9 15 6 16 10 17
REMARK H PARENT
REMARK Flexibility Score: inf
ROOT
ATOM      1  C   UNL     1     -26.820  10.004 -17.774  1.00  0.00     0.138 A 
ATOM      2  C   UNL     1     -26.399  10.642 -18.960  1.00  0.00     0.100 A 
ATOM      3  C   UNL     1     -27.301  10.803 -20.013  1.00  0.00     0.193 A 
ATOM      4  O   UNL     1     -26.925  11.374 -21.073  1.00  0.00    -0.289 OA
ATOM      5  C   UNL     1     -28.613  10.328 -19.877  1.00  0.00     0.065 A 
ATOM      6  C   UNL     1     -29.572  10.458 -20.900  1.00  0.00     0.016 A 
ATOM      7  C   UNL     1     -30.867   9.966 -20.710  1.00  0.00     0.001 A 
ATOM      8  C   UNL     1     -31.215   9.343 -19.507  1.00  0.00     0.004 A 
ATOM      9  C   UNL     1     -30.269   9.211 -18.487  1.00  0.00     0.048 A 
ATOM     10  C   UNL     1     -28.970   9.699 -18.665  1.00  0.00     0.138 A 
ATOM     11  O   UNL     1     -28.078   9.568 -17.689  1.00  0.00    -0.456 OA
ENDROOT
BRANCH   1  12
ATOM     12  C   UNL     1     -25.918   9.791 -16.601  1.00  0.00     0.017 A 
ATOM     13  C   UNL     1     -24.235   9.292 -14.390  1.00  0.00     0.000 A 
ATOM     14  C   UNL     1     -24.893   8.236 -15.019  1.00  0.00     0.001 A 
ATOM     15  C   UNL     1     -24.409  10.596 -14.854  1.00  0.00     0.001 A 
ATOM     16  C   UNL     1     -25.727   8.480 -16.114  1.00  0.00     0.012 A 
ATOM     17  C   UNL     1     -25.243  10.848 -15.950  1.00  0.00     0.012 A 
ENDBRANCH   1  12
TORSDOF 1
ENDMDL
MODEL 9
REMARK VINA RESULT:    -6.200      5.131      6.412
REMARK INTER + INTRA:          -6.828
REMARK INTER:                  -6.571
REMARK INTRA:                  -0.257
REMARK UNBOUND:                -0.265
REMARK SMILES O=c1cc(-c2ccccc2)oc2ccccc12
REMARK SMILES IDX 4 1 3 2 2 3 1 4 17 5 16 6 15 7 14 8 13 9 12 10 11 11 5 12
REMARK SMILES IDX 8 13 7 14 9 15 6 16 10 17
REMARK H PARENT
REMARK Flexibility Score: inf
ROOT
ATOM      1  C   UNL     1     -26.706  11.093 -19.653  1.00  0.00     0.138 A 
ATOM      2  C   UNL     1     -26.288  12.291 -19.036  1.00  0.00     0.100 A 
ATOM      3  C   UNL     1     -25.788  12.258 -17.733  1.00  0.00     0.193 A 
ATOM      4  O   UNL     1     -25.415  13.329 -17.182  1.00  0.00    -0.289 OA
ATOM      5  C   UNL     1     -25.708  11.033 -17.056  1.00  0.00     0.065 A 
ATOM      6  C   UNL     1     -25.215  10.929 -15.742  1.00  0.00     0.016 A 
ATOM      7  C   UNL     1     -25.156   9.681 -15.113  1.00  0.00     0.001 A 
ATOM      8  C   UNL     1     -25.589   8.534 -15.785  1.00  0.00     0.004 A 
ATOM      9  C   UNL     1     -26.080   8.629 -17.090  1.00  0.00     0.048 A 
ATOM     10  C   UNL     1     -26.143   9.872 -17.729  1.00  0.00     0.138 A 
ATOM     11  O   UNL     1     -26.612   9.951 -18.970  1.00  0.00    -0.456 OA
ENDROOT
BRANCH   1  12
ATOM     12  C   UNL     1     -27.253  11.042 -21.043  1.00  0.00     0.017 A 
ATOM     13  C   UNL     1     -28.319  11.038 -23.657  1.00  0.00     0.000 A 
ATOM     14  C   UNL     1     -28.436  12.173 -22.857  1.00  0.00     0.001 A 
ATOM     15  C   UNL     1     -27.676   9.903 -23.164  1.00  0.00     0.001 A 
ATOM     16  C   UNL     1     -27.909  12.179 -21.563  1.00  0.00     0.012 A 
ATOM     17  C   UNL     1     -27.146   9.900 -21.869  1.00  0.00     0.012 A 
ENDBRANCH   1  12
TORSDOF 1
ENDMDL
