MODEL 1
REMARK VINA RESULT:    -5.423      0.000      0.000
REMARK INTER + INTRA:         -13.903
REMARK INTER:                 -11.764
REMARK INTRA:                  -2.139
REMARK UNBOUND:                -2.139
REMARK SMILES CCCCCCCCCCCCCCCCCCCCCC(=O)[O-]
REMARK SMILES IDX 12 1 11 2 10 3 9 4 8 5 7 6 6 7 5 8 4 9 3 10 2 11 1 12 13 13
REMARK SMILES IDX 14 14 15 15 16 16 17 17 18 18 19 19 20 20 21 21 22 22 23 23
REMARK SMILES IDX 24 24
REMARK H PARENT
REMARK Flexibility Score: inf
ROOT
ATOM      1  C   UNL     1      54.599  50.319   3.862  1.00  0.00     0.000 C 
ENDROOT
BRANCH   1   2
ATOM      2  C   UNL     1      55.452  51.525   4.288  1.00  0.00     0.000 C 
BRANCH   2   3
ATOM      3  C   UNL     1      54.661  52.547   5.117  1.00  0.00     0.000 C 
BRANCH   3   4
ATOM      4  C   UNL     1      55.014  52.436   6.608  1.00  0.00    -0.000 C 
BRANCH   4   5
ATOM      5  C   UNL     1      53.774  52.273   7.503  1.00  0.00    -0.000 C 
BRANCH   5   6
ATOM      6  C   UNL     1      52.585  53.125   7.025  1.00  0.00    -0.000 C 
BRANCH   6   7
ATOM      7  C   UNL     1      51.305  52.297   6.831  1.00  0.00    -0.000 C 
BRANCH   7   8
ATOM      8  C   UNL     1      50.709  52.446   5.423  1.00  0.00    -0.000 C 
BRANCH   8   9
ATOM      9  C   UNL     1      49.320  51.798   5.344  1.00  0.00    -0.000 C 
BRANCH   9  10
ATOM     10  C   UNL     1      49.082  50.862   6.539  1.00  0.00    -0.000 C 
BRANCH  10  11
ATOM     11  C   UNL     1      48.384  49.554   6.133  1.00  0.00    -0.003 C 
ATOM     12  C   UNL     1      47.102  49.790   5.335  1.00  0.00     0.004 C 
ENDBRANCH  10  11
ENDBRANCH   9  10
ENDBRANCH   8   9
ENDBRANCH   7   8
ENDBRANCH   6   7
ENDBRANCH   5   6
ENDBRANCH   4   5
ENDBRANCH   3   4
ENDBRANCH   2   3
ENDBRANCH   1   2
BRANCH   1  13
ATOM     13  C   UNL     1      53.816  49.705   5.037  1.00  0.00     0.000 C 
BRANCH  13  14
ATOM     14  C   UNL     1      52.296  49.744   4.812  1.00  0.00     0.000 C 
BRANCH  14  15
ATOM     15  C   UNL     1      51.871  49.039   3.512  1.00  0.00     0.000 C 
BRANCH  15  16
ATOM     16  C   UNL     1      50.349  48.822   3.417  1.00  0.00     0.000 C 
BRANCH  16  17
ATOM     17  C   UNL     1      49.613  49.783   2.463  1.00  0.00     0.000 C 
BRANCH  17  18
ATOM     18  C   UNL     1      48.120  49.454   2.316  1.00  0.00     0.000 C 
BRANCH  18  19
ATOM     19  C   UNL     1      47.908  48.251   1.388  1.00  0.00     0.000 C 
BRANCH  19  20
ATOM     20  C   UNL     1      46.907  47.227   1.952  1.00  0.00     0.006 C 
BRANCH  20  21
ATOM     21  C   UNL     1      46.970  45.849   1.268  1.00  0.00     0.053 C 
BRANCH  21  22
ATOM     22  C   UNL     1      48.286  45.159   1.470  1.00  0.00     0.041 C 
ATOM     23  O   UNL     1      48.703  44.325   0.623  1.00  0.00    -0.550 OA
ATOM     24  O   UNL     1      49.041  45.419   2.607  1.00  0.00    -0.550 OA
ENDBRANCH  21  22
ENDBRANCH  20  21
ENDBRANCH  19  20
ENDBRANCH  18  19
ENDBRANCH  17  18
ENDBRANCH  16  17
ENDBRANCH  15  16
ENDBRANCH  14  15
ENDBRANCH  13  14
ENDBRANCH   1  13
TORSDOF 20
ENDMDL
MODEL 2
REMARK VINA RESULT:    -5.076      2.502      6.998
REMARK INTER + INTRA:         -13.150
REMARK INTER:                 -11.530
REMARK INTRA:                  -1.620
REMARK UNBOUND:                -2.139
REMARK SMILES CCCCCCCCCCCCCCCCCCCCCC(=O)[O-]
REMARK SMILES IDX 12 1 11 2 10 3 9 4 8 5 7 6 6 7 5 8 4 9 3 10 2 11 1 12 13 13
REMARK SMILES IDX 14 14 15 15 16 16 17 17 18 18 19 19 20 20 21 21 22 22 23 23
REMARK SMILES IDX 24 24
REMARK H PARENT
REMARK Flexibility Score: inf
ROOT
ATOM      1  C   UNL     1      52.604  49.140   3.862  1.00  0.00     0.000 C 
ENDROOT
BRANCH   1   2
ATOM      2  C   UNL     1      51.116  49.361   4.177  1.00  0.00     0.000 C 
BRANCH   2   3
ATOM      3  C   UNL     1      50.214  49.159   2.951  1.00  0.00     0.000 C 
BRANCH   3   4
ATOM      4  C   UNL     1      49.172  50.283   2.845  1.00  0.00    -0.000 C 
BRANCH   4   5
ATOM      5  C   UNL     1      47.748  49.807   3.177  1.00  0.00    -0.000 C 
BRANCH   5   6
ATOM      6  C   UNL     1      46.890  49.587   1.919  1.00  0.00    -0.000 C 
BRANCH   6   7
ATOM      7  C   UNL     1      47.257  48.294   1.172  1.00  0.00    -0.000 C 
BRANCH   7   8
ATOM      8  C   UNL     1      47.129  47.043   2.055  1.00  0.00    -0.000 C 
BRANCH   8   9
ATOM      9  C   UNL     1      47.399  45.769   1.241  1.00  0.00    -0.000 C 
BRANCH   9  10
ATOM     10  C   UNL     1      48.667  45.058   1.739  1.00  0.00    -0.000 C 
BRANCH  10  11
ATOM     11  C   UNL     1      49.146  45.590   3.098  1.00  0.00    -0.003 C 
ATOM     12  C   UNL     1      50.601  45.228   3.397  1.00  0.00     0.004 C 
ENDBRANCH  10  11
ENDBRANCH   9  10
ENDBRANCH   8   9
ENDBRANCH   7   8
ENDBRANCH   6   7
ENDBRANCH   5   6
ENDBRANCH   4   5
ENDBRANCH   3   4
ENDBRANCH   2   3
ENDBRANCH   1   2
BRANCH   1  13
ATOM     13  C   UNL     1      53.464  50.380   4.170  1.00  0.00     0.000 C 
BRANCH  13  14
ATOM     14  C   UNL     1      54.966  50.115   3.981  1.00  0.00     0.000 C 
BRANCH  14  15
ATOM     15  C   UNL     1      55.805  51.404   4.028  1.00  0.00     0.000 C 
BRANCH  15  16
ATOM     16  C   UNL     1      55.066  52.576   4.699  1.00  0.00     0.000 C 
BRANCH  16  17
ATOM     17  C   UNL     1      55.190  52.631   6.234  1.00  0.00     0.000 C 
BRANCH  17  18
ATOM     18  C   UNL     1      53.874  53.010   6.929  1.00  0.00     0.000 C 
BRANCH  18  19
ATOM     19  C   UNL     1      53.395  51.885   7.857  1.00  0.00     0.000 C 
BRANCH  19  20
ATOM     20  C   UNL     1      52.673  50.752   7.105  1.00  0.00     0.006 C 
BRANCH  20  21
ATOM     21  C   UNL     1      51.191  50.590   7.491  1.00  0.00     0.053 C 
BRANCH  21  22
ATOM     22  C   UNL     1      50.264  51.303   6.552  1.00  0.00     0.041 C 
ATOM     23  O   UNL     1      49.094  50.875   6.366  1.00  0.00    -0.550 OA
ATOM     24  O   UNL     1      50.702  52.427   5.861  1.00  0.00    -0.550 OA
ENDBRANCH  21  22
ENDBRANCH  20  21
ENDBRANCH  19  20
ENDBRANCH  18  19
ENDBRANCH  17  18
ENDBRANCH  16  17
ENDBRANCH  15  16
ENDBRANCH  14  15
ENDBRANCH  13  14
ENDBRANCH   1  13
TORSDOF 20
ENDMDL
MODEL 3
REMARK VINA RESULT:    -4.957      1.217      4.364
REMARK INTER + INTRA:         -12.891
REMARK INTER:                 -10.967
REMARK INTRA:                  -1.925
REMARK UNBOUND:                -2.139
REMARK SMILES CCCCCCCCCCCCCCCCCCCCCC(=O)[O-]
REMARK SMILES IDX 12 1 11 2 10 3 9 4 8 5 7 6 6 7 5 8 4 9 3 10 2 11 1 12 13 13
REMARK SMILES IDX 14 14 15 15 16 16 17 17 18 18 19 19 20 20 21 21 22 22 23 23
REMARK SMILES IDX 24 24
REMARK H PARENT
REMARK Flexibility Score: inf
ROOT
ATOM      1  C   UNL     1      48.661  51.024   5.803  1.00  0.00     0.000 C 
ENDROOT
BRANCH   1   2
ATOM      2  C   UNL     1      49.580  52.060   5.134  1.00  0.00     0.000 C 
BRANCH   2   3
ATOM      3  C   UNL     1      50.851  52.339   5.948  1.00  0.00     0.000 C 
BRANCH   3   4
ATOM      4  C   UNL     1      51.283  51.093   6.736  1.00  0.00    -0.000 C 
BRANCH   4   5
ATOM      5  C   UNL     1      52.421  51.382   7.729  1.00  0.00    -0.000 C 
BRANCH   5   6
ATOM      6  C   UNL     1      53.747  50.718   7.317  1.00  0.00    -0.000 C 
BRANCH   6   7
ATOM      7  C   UNL     1      54.882  51.736   7.120  1.00  0.00    -0.000 C 
BRANCH   7   8
ATOM      8  C   UNL     1      54.491  52.885   6.177  1.00  0.00    -0.000 C 
BRANCH   8   9
ATOM      9  C   UNL     1      54.408  52.397   4.724  1.00  0.00    -0.000 C 
BRANCH   9  10
ATOM     10  C   UNL     1      55.593  51.481   4.383  1.00  0.00    -0.000 C 
BRANCH  10  11
ATOM     11  C   UNL     1      55.152  50.170   3.715  1.00  0.00    -0.003 C 
ATOM     12  C   UNL     1      53.721  49.772   4.078  1.00  0.00     0.004 C 
ENDBRANCH  10  11
ENDBRANCH   9  10
ENDBRANCH   8   9
ENDBRANCH   7   8
ENDBRANCH   6   7
ENDBRANCH   5   6
ENDBRANCH   4   5
ENDBRANCH   3   4
ENDBRANCH   2   3
ENDBRANCH   1   2
BRANCH   1  13
ATOM     13  C   UNL     1      47.275  50.945   5.137  1.00  0.00     0.000 C 
BRANCH  13  14
ATOM     14  C   UNL     1      47.150  51.887   3.930  1.00  0.00     0.000 C 
BRANCH  14  15
ATOM     15  C   UNL     1      46.954  51.128   2.605  1.00  0.00     0.000 C 
BRANCH  15  16
ATOM     16  C   UNL     1      47.744  49.807   2.548  1.00  0.00     0.000 C 
BRANCH  16  17
ATOM     17  C   UNL     1      49.250  49.962   2.261  1.00  0.00     0.000 C 
BRANCH  17  18
ATOM     18  C   UNL     1      50.094  48.825   2.857  1.00  0.00     0.000 C 
BRANCH  18  19
ATOM     19  C   UNL     1      49.208  47.797   3.573  1.00  0.00     0.000 C 
BRANCH  19  20
ATOM     20  C   UNL     1      48.312  47.000   2.607  1.00  0.00     0.006 C 
BRANCH  20  21
ATOM     21  C   UNL     1      48.931  45.673   2.131  1.00  0.00     0.053 C 
BRANCH  21  22
ATOM     22  C   UNL     1      48.158  45.040   1.012  1.00  0.00     0.041 C 
ATOM     23  O   UNL     1      48.581  43.987   0.464  1.00  0.00    -0.550 OA
ATOM     24  O   UNL     1      46.985  45.628   0.556  1.00  0.00    -0.550 OA
ENDBRANCH  21  22
ENDBRANCH  20  21
ENDBRANCH  19  20
ENDBRANCH  18  19
ENDBRANCH  17  18
ENDBRANCH  16  17
ENDBRANCH  15  16
ENDBRANCH  14  15
ENDBRANCH  13  14
ENDBRANCH   1  13
TORSDOF 20
ENDMDL
MODEL 4
REMARK VINA RESULT:    -4.931      1.179      4.136
REMARK INTER + INTRA:         -12.835
REMARK INTER:                 -10.457
REMARK INTRA:                  -2.378
REMARK UNBOUND:                -2.139
REMARK SMILES CCCCCCCCCCCCCCCCCCCCCC(=O)[O-]
REMARK SMILES IDX 12 1 11 2 10 3 9 4 8 5 7 6 6 7 5 8 4 9 3 10 2 11 1 12 13 13
REMARK SMILES IDX 14 14 15 15 16 16 17 17 18 18 19 19 20 20 21 21 22 22 23 23
REMARK SMILES IDX 24 24
REMARK H PARENT
REMARK Flexibility Score: inf
ROOT
ATOM      1  C   UNL     1      50.770  48.397   4.163  1.00  0.00     0.000 C 
ENDROOT
BRANCH   1   2
ATOM      2  C   UNL     1      51.123  49.798   3.637  1.00  0.00     0.000 C 
BRANCH   2   3
ATOM      3  C   UNL     1      51.879  50.645   4.671  1.00  0.00     0.000 C 
BRANCH   3   4
ATOM      4  C   UNL     1      51.402  52.105   4.639  1.00  0.00    -0.000 C 
BRANCH   4   5
ATOM      5  C   UNL     1      51.012  52.634   6.029  1.00  0.00    -0.000 C 
BRANCH   5   6
ATOM      6  C   UNL     1      51.883  52.042   7.151  1.00  0.00    -0.000 C 
BRANCH   6   7
ATOM      7  C   UNL     1      52.587  53.124   7.986  1.00  0.00    -0.000 C 
BRANCH   7   8
ATOM      8  C   UNL     1      54.117  53.074   7.853  1.00  0.00    -0.000 C 
BRANCH   8   9
ATOM      9  C   UNL     1      54.540  53.123   6.379  1.00  0.00    -0.000 C 
BRANCH   9  10
ATOM     10  C   UNL     1      55.113  51.772   5.925  1.00  0.00    -0.000 C 
BRANCH  10  11
ATOM     11  C   UNL     1      55.144  51.628   4.396  1.00  0.00    -0.003 C 
ATOM     12  C   UNL     1      56.529  51.261   3.863  1.00  0.00     0.004 C 
ENDBRANCH  10  11
ENDBRANCH   9  10
ENDBRANCH   8   9
ENDBRANCH   7   8
ENDBRANCH   6   7
ENDBRANCH   5   6
ENDBRANCH   4   5
ENDBRANCH   3   4
ENDBRANCH   2   3
ENDBRANCH   1   2
BRANCH   1  13
ATOM     13  C   UNL     1      49.394  48.354   4.853  1.00  0.00     0.000 C 
BRANCH  13  14
ATOM     14  C   UNL     1      49.159  49.564   5.771  1.00  0.00     0.000 C 
BRANCH  14  15
ATOM     15  C   UNL     1      47.665  49.849   6.006  1.00  0.00     0.000 C 
BRANCH  15  16
ATOM     16  C   UNL     1      46.971  50.456   4.772  1.00  0.00     0.000 C 
BRANCH  16  17
ATOM     17  C   UNL     1      47.887  51.282   3.850  1.00  0.00     0.000 C 
BRANCH  17  18
ATOM     18  C   UNL     1      48.089  50.638   2.470  1.00  0.00     0.000 C 
BRANCH  18  19
ATOM     19  C   UNL     1      46.876  49.784   2.077  1.00  0.00     0.000 C 
BRANCH  19  20
ATOM     20  C   UNL     1      47.271  48.449   1.418  1.00  0.00     0.006 C 
BRANCH  20  21
ATOM     21  C   UNL     1      47.219  47.242   2.372  1.00  0.00     0.053 C 
BRANCH  21  22
ATOM     22  C   UNL     1      47.871  46.019   1.798  1.00  0.00     0.041 C 
ATOM     23  O   UNL     1      47.549  45.605   0.653  1.00  0.00    -0.550 OA
ATOM     24  O   UNL     1      48.817  45.322   2.540  1.00  0.00    -0.550 OA
ENDBRANCH  21  22
ENDBRANCH  20  21
ENDBRANCH  19  20
ENDBRANCH  18  19
ENDBRANCH  17  18
ENDBRANCH  16  17
ENDBRANCH  15  16
ENDBRANCH  14  15
ENDBRANCH  13  14
ENDBRANCH   1  13
TORSDOF 20
ENDMDL
MODEL 5
REMARK VINA RESULT:    -4.913      1.443      4.573
REMARK INTER + INTRA:         -12.796
REMARK INTER:                 -10.628
REMARK INTRA:                  -2.168
REMARK UNBOUND:                -2.139
REMARK SMILES CCCCCCCCCCCCCCCCCCCCCC(=O)[O-]
REMARK SMILES IDX 12 1 11 2 10 3 9 4 8 5 7 6 6 7 5 8 4 9 3 10 2 11 1 12 13 13
REMARK SMILES IDX 14 14 15 15 16 16 17 17 18 18 19 19 20 20 21 21 22 22 23 23
REMARK SMILES IDX 24 24
REMARK H PARENT
REMARK Flexibility Score: inf
ROOT
ATOM      1  C   UNL     1      47.561  50.949   3.768  1.00  0.00     0.000 C 
ENDROOT
BRANCH   1   2
ATOM      2  C   UNL     1      47.637  52.461   3.497  1.00  0.00     0.000 C 
BRANCH   2   3
ATOM      3  C   UNL     1      49.046  53.031   3.714  1.00  0.00     0.000 C 
BRANCH   3   4
ATOM      4  C   UNL     1      49.815  52.212   4.761  1.00  0.00    -0.000 C 
BRANCH   4   5
ATOM      5  C   UNL     1      50.938  53.015   5.438  1.00  0.00    -0.000 C 
BRANCH   5   6
ATOM      6  C   UNL     1      51.362  52.415   6.790  1.00  0.00    -0.000 C 
BRANCH   6   7
ATOM      7  C   UNL     1      52.584  53.125   7.395  1.00  0.00    -0.000 C 
BRANCH   7   8
ATOM      8  C   UNL     1      53.654  52.142   7.896  1.00  0.00    -0.000 C 
BRANCH   8   9
ATOM      9  C   UNL     1      53.994  51.106   6.817  1.00  0.00    -0.000 C 
BRANCH   9  10
ATOM     10  C   UNL     1      54.681  51.771   5.614  1.00  0.00    -0.000 C 
BRANCH  10  11
ATOM     11  C   UNL     1      54.244  51.159   4.274  1.00  0.00    -0.003 C 
ATOM     12  C   UNL     1      53.635  49.765   4.429  1.00  0.00     0.004 C 
ENDBRANCH  10  11
ENDBRANCH   9  10
ENDBRANCH   8   9
ENDBRANCH   7   8
ENDBRANCH   6   7
ENDBRANCH   5   6
ENDBRANCH   4   5
ENDBRANCH   3   4
ENDBRANCH   2   3
ENDBRANCH   1   2
BRANCH   1  13
ATOM     13  C   UNL     1      47.204  50.140   2.508  1.00  0.00     0.000 C 
BRANCH  13  14
ATOM     14  C   UNL     1      48.286  49.110   2.147  1.00  0.00     0.000 C 
BRANCH  14  15
ATOM     15  C   UNL     1      49.711  49.676   2.280  1.00  0.00     0.000 C 
BRANCH  15  16
ATOM     16  C   UNL     1      50.487  49.073   3.466  1.00  0.00     0.000 C 
BRANCH  16  17
ATOM     17  C   UNL     1      50.013  47.676   3.911  1.00  0.00     0.000 C 
BRANCH  17  18
ATOM     18  C   UNL     1      51.004  46.561   3.545  1.00  0.00     0.000 C 
BRANCH  18  19
ATOM     19  C   UNL     1      50.311  45.193   3.514  1.00  0.00     0.000 C 
BRANCH  19  20
ATOM     20  C   UNL     1      48.954  45.224   2.787  1.00  0.00     0.006 C 
BRANCH  20  21
ATOM     21  C   UNL     1      48.775  44.102   1.749  1.00  0.00     0.053 C 
BRANCH  21  22
ATOM     22  C   UNL     1      48.077  44.566   0.505  1.00  0.00     0.041 C 
ATOM     23  O   UNL     1      48.344  44.040  -0.608  1.00  0.00    -0.550 OA
ATOM     24  O   UNL     1      47.149  45.598   0.572  1.00  0.00    -0.550 OA
ENDBRANCH  21  22
ENDBRANCH  20  21
ENDBRANCH  19  20
ENDBRANCH  18  19
ENDBRANCH  17  18
ENDBRANCH  16  17
ENDBRANCH  15  16
ENDBRANCH  14  15
ENDBRANCH  13  14
ENDBRANCH   1  13
TORSDOF 20
ENDMDL
MODEL 6
REMARK VINA RESULT:    -4.853      3.158      7.110
REMARK INTER + INTRA:         -12.667
REMARK INTER:                 -10.216
REMARK INTRA:                  -2.450
REMARK UNBOUND:                -2.139
REMARK SMILES CCCCCCCCCCCCCCCCCCCCCC(=O)[O-]
REMARK SMILES IDX 12 1 11 2 10 3 9 4 8 5 7 6 6 7 5 8 4 9 3 10 2 11 1 12 13 13
REMARK SMILES IDX 14 14 15 15 16 16 17 17 18 18 19 19 20 20 21 21 22 22 23 23
REMARK SMILES IDX 24 24
REMARK H PARENT
REMARK Flexibility Score: inf
ROOT
ATOM      1  C   UNL     1      50.103  50.990   6.146  1.00  0.00     0.000 C 
ENDROOT
BRANCH   1   2
ATOM      2  C   UNL     1      49.005  50.011   6.595  1.00  0.00     0.000 C 
BRANCH   2   3
ATOM      3  C   UNL     1      47.884  49.862   5.556  1.00  0.00     0.000 C 
BRANCH   3   4
ATOM      4  C   UNL     1      47.055  51.152   5.455  1.00  0.00    -0.000 C 
BRANCH   4   5
ATOM      5  C   UNL     1      47.263  51.889   4.122  1.00  0.00    -0.000 C 
BRANCH   5   6
ATOM      6  C   UNL     1      47.903  50.995   3.046  1.00  0.00    -0.000 C 
BRANCH   6   7
ATOM      7  C   UNL     1      46.876  50.103   2.330  1.00  0.00    -0.000 C 
BRANCH   7   8
ATOM      8  C   UNL     1      47.527  48.925   1.588  1.00  0.00    -0.000 C 
BRANCH   8   9
ATOM      9  C   UNL     1      47.522  47.660   2.457  1.00  0.00    -0.000 C 
BRANCH   9  10
ATOM     10  C   UNL     1      48.945  47.111   2.637  1.00  0.00    -0.000 C 
BRANCH  10  11
ATOM     11  C   UNL     1      49.733  47.861   3.722  1.00  0.00    -0.003 C 
ATOM     12  C   UNL     1      50.669  48.924   3.147  1.00  0.00     0.004 C 
ENDBRANCH  10  11
ENDBRANCH   9  10
ENDBRANCH   8   9
ENDBRANCH   7   8
ENDBRANCH   6   7
ENDBRANCH   5   6
ENDBRANCH   4   5
ENDBRANCH   3   4
ENDBRANCH   2   3
ENDBRANCH   1   2
BRANCH   1  13
ATOM     13  C   UNL     1      50.756  51.727   7.329  1.00  0.00     0.000 C 
BRANCH  13  14
ATOM     14  C   UNL     1      51.271  53.122   6.939  1.00  0.00     0.000 C 
BRANCH  14  15
ATOM     15  C   UNL     1      52.771  53.125   6.594  1.00  0.00     0.000 C 
BRANCH  15  16
ATOM     16  C   UNL     1      53.672  53.070   7.841  1.00  0.00     0.000 C 
BRANCH  16  17
ATOM     17  C   UNL     1      54.652  51.881   7.884  1.00  0.00     0.000 C 
BRANCH  17  18
ATOM     18  C   UNL     1      53.946  50.519   7.812  1.00  0.00     0.000 C 
BRANCH  18  19
ATOM     19  C   UNL     1      54.344  49.757   6.541  1.00  0.00     0.000 C 
BRANCH  19  20
ATOM     20  C   UNL     1      53.388  50.015   5.362  1.00  0.00     0.006 C 
BRANCH  20  21
ATOM     21  C   UNL     1      54.099  50.429   4.061  1.00  0.00     0.053 C 
BRANCH  21  22
ATOM     22  C   UNL     1      55.277  51.326   4.301  1.00  0.00     0.041 C 
ATOM     23  O   UNL     1      55.125  52.576   4.345  1.00  0.00    -0.550 OA
ATOM     24  O   UNL     1      56.546  50.782   4.451  1.00  0.00    -0.550 OA
ENDBRANCH  21  22
ENDBRANCH  20  21
ENDBRANCH  19  20
ENDBRANCH  18  19
ENDBRANCH  17  18
ENDBRANCH  16  17
ENDBRANCH  15  16
ENDBRANCH  14  15
ENDBRANCH  13  14
ENDBRANCH   1  13
TORSDOF 20
ENDMDL
MODEL 7
REMARK VINA RESULT:    -4.847      1.136      2.264
REMARK INTER + INTRA:         -12.653
REMARK INTER:                 -10.381
REMARK INTRA:                  -2.272
REMARK UNBOUND:                -2.139
REMARK SMILES CCCCCCCCCCCCCCCCCCCCCC(=O)[O-]
REMARK SMILES IDX 12 1 11 2 10 3 9 4 8 5 7 6 6 7 5 8 4 9 3 10 2 11 1 12 13 13
REMARK SMILES IDX 14 14 15 15 16 16 17 17 18 18 19 19 20 20 21 21 22 22 23 23
REMARK SMILES IDX 24 24
REMARK H PARENT
REMARK Flexibility Score: inf
ROOT
ATOM      1  C   UNL     1      52.405  49.095   3.937  1.00  0.00     0.000 C 
ENDROOT
BRANCH   1   2
ATOM      2  C   UNL     1      53.283  50.118   4.675  1.00  0.00     0.000 C 
BRANCH   2   3
ATOM      3  C   UNL     1      54.561  50.472   3.900  1.00  0.00     0.000 C 
BRANCH   3   4
ATOM      4  C   UNL     1      55.365  51.556   4.633  1.00  0.00    -0.000 C 
BRANCH   4   5
ATOM      5  C   UNL     1      54.470  52.613   5.300  1.00  0.00    -0.000 C 
BRANCH   5   6
ATOM      6  C   UNL     1      54.832  52.848   6.777  1.00  0.00    -0.000 C 
BRANCH   6   7
ATOM      7  C   UNL     1      53.593  53.048   7.665  1.00  0.00    -0.000 C 
BRANCH   7   8
ATOM      8  C   UNL     1      52.276  52.890   6.890  1.00  0.00    -0.000 C 
BRANCH   8   9
ATOM      9  C   UNL     1      51.644  51.517   7.159  1.00  0.00    -0.000 C 
BRANCH   9  10
ATOM     10  C   UNL     1      50.128  51.552   6.910  1.00  0.00    -0.000 C 
BRANCH  10  11
ATOM     11  C   UNL     1      49.494  50.153   6.940  1.00  0.00    -0.003 C 
ATOM     12  C   UNL     1      48.110  50.115   6.292  1.00  0.00     0.004 C 
ENDBRANCH  10  11
ENDBRANCH   9  10
ENDBRANCH   8   9
ENDBRANCH   7   8
ENDBRANCH   6   7
ENDBRANCH   5   6
ENDBRANCH   4   5
ENDBRANCH   3   4
ENDBRANCH   2   3
ENDBRANCH   1   2
BRANCH   1  13
ATOM     13  C   UNL     1      50.903  49.406   4.062  1.00  0.00     0.000 C 
BRANCH  13  14
ATOM     14  C   UNL     1      50.435  50.460   3.046  1.00  0.00     0.000 C 
BRANCH  14  15
ATOM     15  C   UNL     1      49.767  51.674   3.717  1.00  0.00     0.000 C 
BRANCH  15  16
ATOM     16  C   UNL     1      48.538  52.185   2.943  1.00  0.00     0.000 C 
BRANCH  16  17
ATOM     17  C   UNL     1      47.224  51.437   3.240  1.00  0.00     0.000 C 
BRANCH  17  18
ATOM     18  C   UNL     1      46.878  50.388   2.173  1.00  0.00     0.000 C 
BRANCH  18  19
ATOM     19  C   UNL     1      47.011  48.965   2.733  1.00  0.00     0.000 C 
BRANCH  19  20
ATOM     20  C   UNL     1      47.911  48.062   1.869  1.00  0.00     0.006 C 
BRANCH  20  21
ATOM     21  C   UNL     1      47.440  46.598   1.795  1.00  0.00     0.053 C 
BRANCH  21  22
ATOM     22  C   UNL     1      48.525  45.620   2.134  1.00  0.00     0.041 C 
ATOM     23  O   UNL     1      48.584  44.507   1.547  1.00  0.00    -0.550 OA
ATOM     24  O   UNL     1      49.456  45.928   3.119  1.00  0.00    -0.550 OA
ENDBRANCH  21  22
ENDBRANCH  20  21
ENDBRANCH  19  20
ENDBRANCH  18  19
ENDBRANCH  17  18
ENDBRANCH  16  17
ENDBRANCH  15  16
ENDBRANCH  14  15
ENDBRANCH  13  14
ENDBRANCH   1  13
TORSDOF 20
ENDMDL
MODEL 8
REMARK VINA RESULT:    -4.733      1.789      4.714
REMARK INTER + INTRA:         -12.405
REMARK INTER:                 -10.831
REMARK INTRA:                  -1.575
REMARK UNBOUND:                -2.139
REMARK SMILES CCCCCCCCCCCCCCCCCCCCCC(=O)[O-]
REMARK SMILES IDX 12 1 11 2 10 3 9 4 8 5 7 6 6 7 5 8 4 9 3 10 2 11 1 12 13 13
REMARK SMILES IDX 14 14 15 15 16 16 17 17 18 18 19 19 20 20 21 21 22 22 23 23
REMARK SMILES IDX 24 24
REMARK H PARENT
REMARK Flexibility Score: inf
ROOT
ATOM      1  C   UNL     1      49.021  51.378   4.230  1.00  0.00     0.000 C 
ENDROOT
BRANCH   1   2
ATOM      2  C   UNL     1      49.703  52.752   4.328  1.00  0.00     0.000 C 
BRANCH   2   3
ATOM      3  C   UNL     1      50.424  52.962   5.668  1.00  0.00     0.000 C 
BRANCH   3   4
ATOM      4  C   UNL     1      51.730  52.155   5.720  1.00  0.00    -0.000 C 
BRANCH   4   5
ATOM      5  C   UNL     1      51.738  51.108   6.846  1.00  0.00    -0.000 C 
BRANCH   5   6
ATOM      6  C   UNL     1      53.122  50.954   7.501  1.00  0.00    -0.000 C 
BRANCH   6   7
ATOM      7  C   UNL     1      53.989  52.215   7.352  1.00  0.00    -0.000 C 
BRANCH   7   8
ATOM      8  C   UNL     1      55.212  51.990   6.449  1.00  0.00    -0.000 C 
BRANCH   8   9
ATOM      9  C   UNL     1      54.925  52.453   5.014  1.00  0.00    -0.000 C 
BRANCH   9  10
ATOM     10  C   UNL     1      55.702  51.604   3.996  1.00  0.00    -0.000 C 
BRANCH  10  11
ATOM     11  C   UNL     1      55.302  50.121   4.040  1.00  0.00    -0.003 C 
ATOM     12  C   UNL     1      53.788  49.915   4.003  1.00  0.00     0.004 C 
ENDBRANCH  10  11
ENDBRANCH   9  10
ENDBRANCH   8   9
ENDBRANCH   7   8
ENDBRANCH   6   7
ENDBRANCH   5   6
ENDBRANCH   4   5
ENDBRANCH   3   4
ENDBRANCH   2   3
ENDBRANCH   1   2
BRANCH   1  13
ATOM     13  C   UNL     1      47.491  51.466   4.383  1.00  0.00     0.000 C 
BRANCH  13  14
ATOM     14  C   UNL     1      46.887  50.183   4.976  1.00  0.00     0.000 C 
BRANCH  14  15
ATOM     15  C   UNL     1      46.876  49.015   3.974  1.00  0.00     0.000 C 
BRANCH  15  16
ATOM     16  C   UNL     1      46.903  49.484   2.507  1.00  0.00     0.000 C 
BRANCH  16  17
ATOM     17  C   UNL     1      46.876  48.353   1.461  1.00  0.00     0.000 C 
BRANCH  17  18
ATOM     18  C   UNL     1      46.992  46.955   2.087  1.00  0.00     0.000 C 
BRANCH  18  19
ATOM     19  C   UNL     1      48.359  46.326   1.783  1.00  0.00     0.000 C 
BRANCH  19  20
ATOM     20  C   UNL     1      49.015  45.689   3.022  1.00  0.00     0.006 C 
BRANCH  20  21
ATOM     21  C   UNL     1      50.326  46.370   3.455  1.00  0.00     0.053 C 
BRANCH  21  22
ATOM     22  C   UNL     1      50.158  47.835   3.727  1.00  0.00     0.041 C 
ATOM     23  O   UNL     1      50.270  48.672   2.792  1.00  0.00    -0.550 OA
ATOM     24  O   UNL     1      49.904  48.279   5.019  1.00  0.00    -0.550 OA
ENDBRANCH  21  22
ENDBRANCH  20  21
ENDBRANCH  19  20
ENDBRANCH  18  19
ENDBRANCH  17  18
ENDBRANCH  16  17
ENDBRANCH  15  16
ENDBRANCH  14  15
ENDBRANCH  13  14
ENDBRANCH   1  13
TORSDOF 20
ENDMDL
MODEL 9
REMARK VINA RESULT:    -4.620      2.552      7.221
REMARK INTER + INTRA:         -12.160
REMARK INTER:                 -11.397
REMARK INTRA:                  -0.763
REMARK UNBOUND:                -2.139
REMARK SMILES CCCCCCCCCCCCCCCCCCCCCC(=O)[O-]
REMARK SMILES IDX 12 1 11 2 10 3 9 4 8 5 7 6 6 7 5 8 4 9 3 10 2 11 1 12 13 13
REMARK SMILES IDX 14 14 15 15 16 16 17 17 18 18 19 19 20 20 21 21 22 22 23 23
REMARK SMILES IDX 24 24
REMARK H PARENT
REMARK Flexibility Score: inf
ROOT
ATOM      1  C   UNL     1      50.664  49.421   4.519  1.00  0.00     0.000 C 
ENDROOT
BRANCH   1   2
ATOM      2  C   UNL     1      50.217  48.931   3.132  1.00  0.00     0.000 C 
BRANCH   2   3
ATOM      3  C   UNL     1      49.530  50.029   2.308  1.00  0.00     0.000 C 
BRANCH   3   4
ATOM      4  C   UNL     1      48.805  51.030   3.222  1.00  0.00    -0.000 C 
BRANCH   4   5
ATOM      5  C   UNL     1      47.293  50.769   3.307  1.00  0.00    -0.000 C 
BRANCH   5   6
ATOM      6  C   UNL     1      46.933  49.292   3.071  1.00  0.00    -0.000 C 
BRANCH   6   7
ATOM      7  C   UNL     1      46.920  48.918   1.580  1.00  0.00    -0.000 C 
BRANCH   7   8
ATOM      8  C   UNL     1      47.039  47.403   1.347  1.00  0.00    -0.000 C 
BRANCH   8   9
ATOM      9  C   UNL     1      48.228  46.822   2.125  1.00  0.00    -0.000 C 
BRANCH   9  10
ATOM     10  C   UNL     1      48.304  45.297   1.952  1.00  0.00    -0.000 C 
BRANCH  10  11
ATOM     11  C   UNL     1      49.115  44.618   3.067  1.00  0.00    -0.003 C 
ATOM     12  C   UNL     1      50.410  45.362   3.394  1.00  0.00     0.004 C 
ENDBRANCH  10  11
ENDBRANCH   9  10
ENDBRANCH   8   9
ENDBRANCH   7   8
ENDBRANCH   6   7
ENDBRANCH   5   6
ENDBRANCH   4   5
ENDBRANCH   3   4
ENDBRANCH   2   3
ENDBRANCH   1   2
BRANCH   1  13
ATOM     13  C   UNL     1      49.667  49.043   5.629  1.00  0.00     0.000 C 
BRANCH  13  14
ATOM     14  C   UNL     1      49.744  49.993   6.835  1.00  0.00     0.000 C 
BRANCH  14  15
ATOM     15  C   UNL     1      51.061  50.787   6.880  1.00  0.00     0.000 C 
BRANCH  15  16
ATOM     16  C   UNL     1      50.861  52.294   6.628  1.00  0.00     0.000 C 
BRANCH  16  17
ATOM     17  C   UNL     1      52.160  53.115   6.527  1.00  0.00     0.000 C 
BRANCH  17  18
ATOM     18  C   UNL     1      52.967  53.124   7.833  1.00  0.00     0.000 C 
BRANCH  18  19
ATOM     19  C   UNL     1      54.403  52.636   7.600  1.00  0.00     0.000 C 
BRANCH  19  20
ATOM     20  C   UNL     1      54.484  51.458   6.612  1.00  0.00     0.006 C 
BRANCH  20  21
ATOM     21  C   UNL     1      55.155  51.810   5.272  1.00  0.00     0.053 C 
BRANCH  21  22
ATOM     22  C   UNL     1      54.881  50.797   4.200  1.00  0.00     0.041 C 
ATOM     23  O   UNL     1      53.706  50.395   3.991  1.00  0.00    -0.550 OA
ATOM     24  O   UNL     1      55.928  50.278   3.449  1.00  0.00    -0.550 OA
ENDBRANCH  21  22
ENDBRANCH  20  21
ENDBRANCH  19  20
ENDBRANCH  18  19
ENDBRANCH  17  18
ENDBRANCH  16  17
ENDBRANCH  15  16
ENDBRANCH  14  15
ENDBRANCH  13  14
ENDBRANCH   1  13
TORSDOF 20
ENDMDL
