MODEL 1
REMARK VINA RESULT:    -4.122      0.000      0.000
REMARK INTER + INTRA:          -5.283
REMARK INTER:                  -4.966
REMARK INTRA:                  -0.317
REMARK UNBOUND:                -0.317
REMARK SMILES NC(=O)C[C@H]([NH3+])C(=O)[O-]
REMARK SMILES IDX 4 1 5 2 6 3 7 7 8 8 9 9 2 10 3 11 1 12
REMARK H PARENT 6 4 6 5 6 6 1 13 1 14
REMARK Flexibility Score: inf
ROOT
ATOM      1  C   UNL     1      15.926   1.500 -46.520  1.00  0.00     0.171 C 
ENDROOT
BRANCH   1   2
ATOM      2  C   UNL     1      15.411   0.390 -47.458  1.00  0.00     0.237 C 
BRANCH   2   3
ATOM      3  N   UNL     1      16.521  -0.325 -48.103  1.00  0.00    -0.350 N 
ATOM      4  H   UNL     1      16.304  -1.344 -48.193  1.00  0.00     0.345 HD
ATOM      5  H   UNL     1      16.702   0.074 -49.052  1.00  0.00     0.345 HD
ATOM      6  H   UNL     1      17.394  -0.209 -47.536  1.00  0.00     0.345 HD
ENDBRANCH   2   3
BRANCH   2   7
ATOM      7  C   UNL     1      14.507   0.989 -48.502  1.00  0.00     0.100 C 
ATOM      8  O   UNL     1      14.234   2.218 -48.473  1.00  0.00    -0.544 OA
ATOM      9  O   UNL     1      13.984   0.194 -49.515  1.00  0.00    -0.544 OA
ENDBRANCH   2   7
ENDBRANCH   1   2
BRANCH   1  10
ATOM     10  C   UNL     1      17.336   1.896 -46.851  1.00  0.00     0.223 C 
ATOM     11  O   UNL     1      17.575   2.544 -47.904  1.00  0.00    -0.275 OA
ATOM     12  N   UNL     1      18.412   1.518 -45.992  1.00  0.00    -0.369 N 
ATOM     13  H   UNL     1      18.230   0.971 -45.121  1.00  0.00     0.159 HD
ATOM     14  H   UNL     1      19.393   1.783 -46.229  1.00  0.00     0.159 HD
ENDBRANCH   1  10
TORSDOF 4
ENDMDL
MODEL 2
REMARK VINA RESULT:    -4.007     15.946     16.262
REMARK INTER + INTRA:          -5.144
REMARK INTER:                  -4.896
REMARK INTRA:                  -0.248
REMARK UNBOUND:                -0.317
REMARK SMILES NC(=O)C[C@H]([NH3+])C(=O)[O-]
REMARK SMILES IDX 4 1 5 2 6 3 7 7 8 8 9 9 2 10 3 11 1 12
REMARK H PARENT 6 4 6 5 6 6 1 13 1 14
REMARK Flexibility Score: inf
ROOT
ATOM      1  C   UNL     1      14.395  -6.777 -33.353  1.00  0.00     0.171 C 
ENDROOT
BRANCH   1   2
ATOM      2  C   UNL     1      13.220  -5.863 -33.754  1.00  0.00     0.237 C 
BRANCH   2   3
ATOM      3  N   UNL     1      13.471  -4.468 -33.367  1.00  0.00    -0.350 N 
ATOM      4  H   UNL     1      14.080  -3.991 -34.071  1.00  0.00     0.345 HD
ATOM      5  H   UNL     1      12.566  -3.949 -33.287  1.00  0.00     0.345 HD
ATOM      6  H   UNL     1      13.940  -4.438 -32.432  1.00  0.00     0.345 HD
ENDBRANCH   2   3
BRANCH   2   7
ATOM      7  C   UNL     1      11.952  -6.357 -33.110  1.00  0.00     0.100 C 
ATOM      8  O   UNL     1      10.875  -6.371 -33.762  1.00  0.00    -0.544 OA
ATOM      9  O   UNL     1      11.965  -6.818 -31.799  1.00  0.00    -0.544 OA
ENDBRANCH   2   7
ENDBRANCH   1   2
BRANCH   1  10
ATOM     10  C   UNL     1      15.615  -6.508 -34.184  1.00  0.00     0.223 C 
ATOM     11  O   UNL     1      16.136  -5.361 -34.182  1.00  0.00    -0.275 OA
ATOM     12  N   UNL     1      16.175  -7.536 -35.000  1.00  0.00    -0.369 N 
ATOM     13  H   UNL     1      15.749  -8.490 -35.021  1.00  0.00     0.159 HD
ATOM     14  H   UNL     1      17.017  -7.345 -35.587  1.00  0.00     0.159 HD
ENDBRANCH   1  10
TORSDOF 4
ENDMDL
MODEL 3
REMARK VINA RESULT:    -3.939     15.733     16.325
REMARK INTER + INTRA:          -5.061
REMARK INTER:                  -4.820
REMARK INTRA:                  -0.241
REMARK UNBOUND:                -0.317
REMARK SMILES NC(=O)C[C@H]([NH3+])C(=O)[O-]
REMARK SMILES IDX 4 1 5 2 6 3 7 7 8 8 9 9 2 10 3 11 1 12
REMARK H PARENT 6 4 6 5 6 6 1 13 1 14
REMARK Flexibility Score: inf
ROOT
ATOM      1  C   UNL     1      14.848  -6.850 -32.891  1.00  0.00     0.171 C 
ENDROOT
BRANCH   1   2
ATOM      2  C   UNL     1      14.917  -5.415 -32.331  1.00  0.00     0.237 C 
BRANCH   2   3
ATOM      3  N   UNL     1      14.010  -4.513 -33.054  1.00  0.00    -0.350 N 
ATOM      4  H   UNL     1      14.547  -3.764 -33.548  1.00  0.00     0.345 HD
ATOM      5  H   UNL     1      13.449  -5.052 -33.753  1.00  0.00     0.345 HD
ATOM      6  H   UNL     1      13.342  -4.068 -32.382  1.00  0.00     0.345 HD
ENDBRANCH   2   3
BRANCH   2   7
ATOM      7  C   UNL     1      16.330  -4.905 -32.419  1.00  0.00     0.100 C 
ATOM      8  O   UNL     1      17.052  -4.859 -31.389  1.00  0.00    -0.544 OA
ATOM      9  O   UNL     1      16.854  -4.500 -33.641  1.00  0.00    -0.544 OA
ENDBRANCH   2   7
ENDBRANCH   1   2
BRANCH   1  10
ATOM     10  C   UNL     1      15.055  -6.876 -34.377  1.00  0.00     0.223 C 
ATOM     11  O   UNL     1      14.184  -6.382 -35.141  1.00  0.00    -0.275 OA
ATOM     12  N   UNL     1      16.221  -7.482 -34.933  1.00  0.00    -0.369 N 
ATOM     13  H   UNL     1      16.948  -7.905 -34.313  1.00  0.00     0.159 HD
ATOM     14  H   UNL     1      16.360  -7.510 -35.967  1.00  0.00     0.159 HD
ENDBRANCH   1  10
TORSDOF 4
ENDMDL
MODEL 4
REMARK VINA RESULT:    -3.934      9.877     11.502
REMARK INTER + INTRA:          -5.055
REMARK INTER:                  -4.771
REMARK INTRA:                  -0.285
REMARK UNBOUND:                -0.317
REMARK SMILES NC(=O)C[C@H]([NH3+])C(=O)[O-]
REMARK SMILES IDX 4 1 5 2 6 3 7 7 8 8 9 9 2 10 3 11 1 12
REMARK H PARENT 6 4 6 5 6 6 1 13 1 14
REMARK Flexibility Score: inf
ROOT
ATOM      1  C   UNL     1      26.258  -1.544 -49.774  1.00  0.00     0.171 C 
ENDROOT
BRANCH   1   2
ATOM      2  C   UNL     1      27.126  -0.878 -48.688  1.00  0.00     0.237 C 
BRANCH   2   3
ATOM      3  N   UNL     1      26.338   0.049 -47.865  1.00  0.00    -0.350 N 
ATOM      4  H   UNL     1      26.864   0.938 -47.700  1.00  0.00     0.345 HD
ATOM      5  H   UNL     1      25.432   0.268 -48.338  1.00  0.00     0.345 HD
ATOM      6  H   UNL     1      26.119  -0.395 -46.943  1.00  0.00     0.345 HD
ENDBRANCH   2   3
BRANCH   2   7
ATOM      7  C   UNL     1      28.271  -0.146 -49.336  1.00  0.00     0.100 C 
ATOM      8  O   UNL     1      28.416   1.092 -49.153  1.00  0.00    -0.544 OA
ATOM      9  O   UNL     1      29.187  -0.833 -50.124  1.00  0.00    -0.544 OA
ENDBRANCH   2   7
ENDBRANCH   1   2
BRANCH   1  10
ATOM     10  C   UNL     1      24.829  -1.678 -49.335  1.00  0.00     0.223 C 
ATOM     11  O   UNL     1      24.553  -2.303 -48.277  1.00  0.00    -0.275 OA
ATOM     12  N   UNL     1      23.776  -1.126 -50.125  1.00  0.00    -0.369 N 
ATOM     13  H   UNL     1      23.988  -0.615 -51.011  1.00  0.00     0.159 HD
ATOM     14  H   UNL     1      22.781  -1.230 -49.826  1.00  0.00     0.159 HD
ENDBRANCH   1  10
TORSDOF 4
ENDMDL
MODEL 5
REMARK VINA RESULT:    -3.899      2.020      3.630
REMARK INTER + INTRA:          -5.014
REMARK INTER:                  -4.902
REMARK INTRA:                  -0.111
REMARK UNBOUND:                -0.317
REMARK SMILES NC(=O)C[C@H]([NH3+])C(=O)[O-]
REMARK SMILES IDX 4 1 5 2 6 3 7 7 8 8 9 9 2 10 3 11 1 12
REMARK H PARENT 6 4 6 5 6 6 1 13 1 14
REMARK Flexibility Score: inf
ROOT
ATOM      1  C   UNL     1      14.792   1.603 -47.491  1.00  0.00     0.171 C 
ENDROOT
BRANCH   1   2
ATOM      2  C   UNL     1      16.097   1.214 -48.214  1.00  0.00     0.237 C 
BRANCH   2   3
ATOM      3  N   UNL     1      16.447  -0.192 -47.969  1.00  0.00    -0.350 N 
ATOM      4  H   UNL     1      16.845  -0.314 -47.010  1.00  0.00     0.345 HD
ATOM      5  H   UNL     1      15.599  -0.795 -48.069  1.00  0.00     0.345 HD
ATOM      6  H   UNL     1      17.151  -0.510 -48.675  1.00  0.00     0.345 HD
ENDBRANCH   2   3
BRANCH   2   7
ATOM      7  C   UNL     1      17.216   2.111 -47.755  1.00  0.00     0.100 C 
ATOM      8  O   UNL     1      17.584   3.080 -48.469  1.00  0.00    -0.544 OA
ATOM      9  O   UNL     1      17.837   1.887 -46.532  1.00  0.00    -0.544 OA
ENDBRANCH   2   7
ENDBRANCH   1   2
BRANCH   1  10
ATOM     10  C   UNL     1      13.894   2.422 -48.372  1.00  0.00     0.223 C 
ATOM     11  O   UNL     1      13.478   1.945 -49.461  1.00  0.00    -0.275 OA
ATOM     12  N   UNL     1      13.530   3.750 -47.997  1.00  0.00    -0.369 N 
ATOM     13  H   UNL     1      13.876   4.164 -47.102  1.00  0.00     0.159 HD
ATOM     14  H   UNL     1      12.915   4.323 -48.615  1.00  0.00     0.159 HD
ENDBRANCH   1  10
TORSDOF 4
ENDMDL
MODEL 6
REMARK VINA RESULT:    -3.888     16.324     16.933
REMARK INTER + INTRA:          -5.000
REMARK INTER:                  -4.552
REMARK INTRA:                  -0.448
REMARK UNBOUND:                -0.317
REMARK SMILES NC(=O)C[C@H]([NH3+])C(=O)[O-]
REMARK SMILES IDX 4 1 5 2 6 3 7 7 8 8 9 9 2 10 3 11 1 12
REMARK H PARENT 6 4 6 5 6 6 1 13 1 14
REMARK Flexibility Score: inf
ROOT
ATOM      1  C   UNL     1      14.255  -6.408 -33.680  1.00  0.00     0.171 C 
ENDROOT
BRANCH   1   2
ATOM      2  C   UNL     1      15.245  -6.454 -32.498  1.00  0.00     0.237 C 
BRANCH   2   3
ATOM      3  N   UNL     1      14.542  -6.574 -31.214  1.00  0.00    -0.350 N 
ATOM      4  H   UNL     1      13.537  -6.823 -31.363  1.00  0.00     0.345 HD
ATOM      5  H   UNL     1      14.994  -7.308 -30.623  1.00  0.00     0.345 HD
ATOM      6  H   UNL     1      14.596  -5.667 -30.694  1.00  0.00     0.345 HD
ENDBRANCH   2   3
BRANCH   2   7
ATOM      7  C   UNL     1      16.098  -5.214 -32.505  1.00  0.00     0.100 C 
ATOM      8  O   UNL     1      16.102  -4.454 -33.509  1.00  0.00    -0.544 OA
ATOM      9  O   UNL     1      16.872  -4.889 -31.398  1.00  0.00    -0.544 OA
ENDBRANCH   2   7
ENDBRANCH   1   2
BRANCH   1  10
ATOM     10  C   UNL     1      12.972  -5.726 -33.302  1.00  0.00     0.223 C 
ATOM     11  O   UNL     1      11.998  -6.407 -32.886  1.00  0.00    -0.275 OA
ATOM     12  N   UNL     1      12.840  -4.311 -33.437  1.00  0.00    -0.369 N 
ATOM     13  H   UNL     1      13.635  -3.734 -33.791  1.00  0.00     0.159 HD
ATOM     14  H   UNL     1      11.944  -3.839 -33.186  1.00  0.00     0.159 HD
ENDBRANCH   1  10
TORSDOF 4
ENDMDL
MODEL 7
REMARK VINA RESULT:    -3.873     15.808     16.139
REMARK INTER + INTRA:          -4.983
REMARK INTER:                  -4.717
REMARK INTRA:                  -0.266
REMARK UNBOUND:                -0.317
REMARK SMILES NC(=O)C[C@H]([NH3+])C(=O)[O-]
REMARK SMILES IDX 4 1 5 2 6 3 7 7 8 8 9 9 2 10 3 11 1 12
REMARK H PARENT 6 4 6 5 6 6 1 13 1 14
REMARK Flexibility Score: inf
ROOT
ATOM      1  C   UNL     1      16.554  -4.822 -33.535  1.00  0.00     0.171 C 
ENDROOT
BRANCH   1   2
ATOM      2  C   UNL     1      15.776  -6.153 -33.562  1.00  0.00     0.237 C 
BRANCH   2   3
ATOM      3  N   UNL     1      16.139  -6.961 -34.735  1.00  0.00    -0.350 N 
ATOM      4  H   UNL     1      16.522  -7.890 -34.442  1.00  0.00     0.345 HD
ATOM      5  H   UNL     1      15.300  -7.111 -35.341  1.00  0.00     0.345 HD
ATOM      6  H   UNL     1      16.859  -6.458 -35.303  1.00  0.00     0.345 HD
ENDBRANCH   2   3
BRANCH   2   7
ATOM      7  C   UNL     1      14.297  -5.876 -33.564  1.00  0.00     0.100 C 
ATOM      8  O   UNL     1      13.596  -6.187 -34.563  1.00  0.00    -0.544 OA
ATOM      9  O   UNL     1      13.692  -5.292 -32.458  1.00  0.00    -0.544 OA
ENDBRANCH   2   7
ENDBRANCH   1   2
BRANCH   1  10
ATOM     10  C   UNL     1      17.179  -4.573 -32.193  1.00  0.00     0.223 C 
ATOM     11  O   UNL     1      18.328  -4.062 -32.121  1.00  0.00    -0.275 OA
ATOM     12  N   UNL     1      16.491  -4.938 -30.997  1.00  0.00    -0.369 N 
ATOM     13  H   UNL     1      15.542  -5.373 -31.041  1.00  0.00     0.159 HD
ATOM     14  H   UNL     1      16.931  -4.776 -30.064  1.00  0.00     0.159 HD
ENDBRANCH   1  10
TORSDOF 4
ENDMDL
MODEL 8
REMARK VINA RESULT:    -3.856     10.318     11.831
REMARK INTER + INTRA:          -4.962
REMARK INTER:                  -4.880
REMARK INTRA:                  -0.083
REMARK UNBOUND:                -0.317
REMARK SMILES NC(=O)C[C@H]([NH3+])C(=O)[O-]
REMARK SMILES IDX 4 1 5 2 6 3 7 7 8 8 9 9 2 10 3 11 1 12
REMARK H PARENT 6 4 6 5 6 6 1 13 1 14
REMARK Flexibility Score: inf
ROOT
ATOM      1  C   UNL     1      26.139  -1.686 -50.008  1.00  0.00     0.171 C 
ENDROOT
BRANCH   1   2
ATOM      2  C   UNL     1      27.200  -1.228 -48.987  1.00  0.00     0.237 C 
BRANCH   2   3
ATOM      3  N   UNL     1      27.906  -0.026 -49.450  1.00  0.00    -0.350 N 
ATOM      4  H   UNL     1      27.283   0.562 -50.051  1.00  0.00     0.345 HD
ATOM      5  H   UNL     1      28.227   0.540 -48.631  1.00  0.00     0.345 HD
ATOM      6  H   UNL     1      28.752  -0.301 -50.000  1.00  0.00     0.345 HD
ENDBRANCH   2   3
BRANCH   2   7
ATOM      7  C   UNL     1      28.183  -2.343 -48.746  1.00  0.00     0.100 C 
ATOM      8  O   UNL     1      28.701  -2.951 -49.719  1.00  0.00    -0.544 OA
ATOM      9  O   UNL     1      28.539  -2.694 -47.449  1.00  0.00    -0.544 OA
ENDBRANCH   2   7
ENDBRANCH   1   2
BRANCH   1  10
ATOM     10  C   UNL     1      24.760  -1.677 -49.416  1.00  0.00     0.223 C 
ATOM     11  O   UNL     1      24.553  -2.219 -48.298  1.00  0.00    -0.275 OA
ATOM     12  N   UNL     1      23.673  -1.081 -50.125  1.00  0.00    -0.369 N 
ATOM     13  H   UNL     1      23.827  -0.637 -51.058  1.00  0.00     0.159 HD
ATOM     14  H   UNL     1      22.712  -1.086 -49.718  1.00  0.00     0.159 HD
ENDBRANCH   1  10
TORSDOF 4
ENDMDL
MODEL 9
REMARK VINA RESULT:    -3.840      1.746      3.592
REMARK INTER + INTRA:          -4.943
REMARK INTER:                  -4.483
REMARK INTRA:                  -0.459
REMARK UNBOUND:                -0.317
REMARK SMILES NC(=O)C[C@H]([NH3+])C(=O)[O-]
REMARK SMILES IDX 4 1 5 2 6 3 7 7 8 8 9 9 2 10 3 11 1 12
REMARK H PARENT 6 4 6 5 6 6 1 13 1 14
REMARK Flexibility Score: inf
ROOT
ATOM      1  C   UNL     1      14.742   0.435 -47.134  1.00  0.00     0.171 C 
ENDROOT
BRANCH   1   2
ATOM      2  C   UNL     1      15.228   1.884 -46.937  1.00  0.00     0.237 C 
BRANCH   2   3
ATOM      3  N   UNL     1      15.277   2.612 -48.213  1.00  0.00    -0.350 N 
ATOM      4  H   UNL     1      16.000   2.200 -48.847  1.00  0.00     0.345 HD
ATOM      5  H   UNL     1      14.345   2.574 -48.684  1.00  0.00     0.345 HD
ATOM      6  H   UNL     1      15.508   3.617 -48.038  1.00  0.00     0.345 HD
ENDBRANCH   2   3
BRANCH   2   7
ATOM      7  C   UNL     1      16.589   1.878 -46.293  1.00  0.00     0.100 C 
ATOM      8  O   UNL     1      17.626   1.864 -47.007  1.00  0.00    -0.544 OA
ATOM      9  O   UNL     1      16.710   1.908 -44.909  1.00  0.00    -0.544 OA
ENDBRANCH   2   7
ENDBRANCH   1   2
BRANCH   1  10
ATOM     10  C   UNL     1      15.229  -0.142 -48.432  1.00  0.00     0.223 C 
ATOM     11  O   UNL     1      14.500  -0.083 -49.457  1.00  0.00    -0.275 OA
ATOM     12  N   UNL     1      16.502  -0.781 -48.505  1.00  0.00    -0.369 N 
ATOM     13  H   UNL     1      17.114  -0.848 -47.660  1.00  0.00     0.159 HD
ATOM     14  H   UNL     1      16.836  -1.193 -49.404  1.00  0.00     0.159 HD
ENDBRANCH   1  10
TORSDOF 4
ENDMDL
