MODEL 1
REMARK VINA RESULT:    -4.516      0.000      0.000
REMARK INTER + INTRA:          -4.966
REMARK INTER:                  -4.912
REMARK INTRA:                  -0.054
REMARK UNBOUND:                -0.054
REMARK SMILES CC1(C)[C@@H]2CC=C(CO)[C@H]1C2
REMARK SMILES IDX 8 1 7 2 1 3 2 4 4 5 3 6 10 7 5 8 11 9 6 10 9 11
REMARK H PARENT 9 12
REMARK Flexibility Score: inf
ROOT
ATOM      1  C   UNL     1       6.922  16.235  18.596  1.00  0.00     0.187 C 
ENDROOT
BRANCH   1   2
ATOM      2  C   UNL     1       7.536  17.050  19.700  1.00  0.00    -0.045 C 
ATOM      3  C   UNL     1       8.330  15.859  22.290  1.00  0.00     0.012 C 
ATOM      4  C   UNL     1       9.270  16.825  21.514  1.00  0.00    -0.026 C 
ATOM      5  C   UNL     1       9.016  18.354  21.618  1.00  0.00    -0.000 C 
ATOM      6  C   UNL     1      10.735  16.450  21.851  1.00  0.00     0.012 C 
ATOM      7  C   UNL     1       9.043  17.007  19.990  1.00  0.00     0.023 C 
ATOM      8  C   UNL     1       7.477  18.652  21.624  1.00  0.00     0.031 C 
ATOM      9  C   UNL     1       9.461  18.482  20.147  1.00  0.00     0.013 C 
ATOM     10  C   UNL     1       6.783  17.873  20.489  1.00  0.00    -0.025 C 
ENDBRANCH   1   2
BRANCH   1  11
ATOM     11  O   UNL     1       7.738  15.138  18.289  1.00  0.00    -0.392 OA
ATOM     12  H   UNL     1       7.788  15.092  17.298  1.00  0.00     0.211 HD
ENDBRANCH   1  11
TORSDOF 2
ENDMDL
MODEL 2
REMARK VINA RESULT:    -4.082      1.906      3.247
REMARK INTER + INTRA:          -4.494
REMARK INTER:                  -4.471
REMARK INTRA:                  -0.023
REMARK UNBOUND:                -0.054
REMARK SMILES CC1(C)[C@@H]2CC=C(CO)[C@H]1C2
REMARK SMILES IDX 8 1 7 2 1 3 2 4 4 5 3 6 10 7 5 8 11 9 6 10 9 11
REMARK H PARENT 9 12
REMARK Flexibility Score: inf
ROOT
ATOM      1  C   UNL     1      11.000  14.749  21.630  1.00  0.00     0.187 C 
ENDROOT
BRANCH   1   2
ATOM      2  C   UNL     1       9.891  15.753  21.772  1.00  0.00    -0.045 C 
ATOM      3  C   UNL     1      10.355  18.488  22.801  1.00  0.00     0.012 C 
ATOM      4  C   UNL     1       9.501  18.230  21.527  1.00  0.00    -0.026 C 
ATOM      5  C   UNL     1       8.026  17.774  21.699  1.00  0.00    -0.000 C 
ATOM      6  C   UNL     1       9.629  19.464  20.599  1.00  0.00     0.012 C 
ATOM      7  C   UNL     1       9.704  16.895  20.762  1.00  0.00     0.023 C 
ATOM      8  C   UNL     1       7.900  16.773  22.899  1.00  0.00     0.031 C 
ATOM      9  C   UNL     1       8.197  16.899  20.441  1.00  0.00     0.013 C 
ATOM     10  C   UNL     1       8.992  15.689  22.799  1.00  0.00    -0.025 C 
ENDBRANCH   1   2
BRANCH   1  11
ATOM     11  O   UNL     1      10.549  13.471  21.989  1.00  0.00    -0.392 OA
ATOM     12  H   UNL     1      10.439  13.477  22.976  1.00  0.00     0.211 HD
ENDBRANCH   1  11
TORSDOF 2
ENDMDL
MODEL 3
REMARK VINA RESULT:    -4.051     12.187     14.800
REMARK INTER + INTRA:          -4.460
REMARK INTER:                  -4.429
REMARK INTRA:                  -0.032
REMARK UNBOUND:                -0.054
REMARK SMILES CC1(C)[C@@H]2CC=C(CO)[C@H]1C2
REMARK SMILES IDX 8 1 7 2 1 3 2 4 4 5 3 6 10 7 5 8 11 9 6 10 9 11
REMARK H PARENT 9 12
REMARK Flexibility Score: inf
ROOT
ATOM      1  C   UNL     1       0.159  16.469  11.994  1.00  0.00     0.187 C 
ENDROOT
BRANCH   1   2
ATOM      2  C   UNL     1      -1.075  16.547  11.141  1.00  0.00    -0.045 C 
ATOM      3  C   UNL     1      -2.181  19.121  10.189  1.00  0.00     0.012 C 
ATOM      4  C   UNL     1      -2.008  17.905   9.235  1.00  0.00    -0.026 C 
ATOM      5  C   UNL     1      -3.076  16.777   9.267  1.00  0.00    -0.000 C 
ATOM      6  C   UNL     1      -1.767  18.443   7.802  1.00  0.00     0.012 C 
ATOM      7  C   UNL     1      -0.994  16.798   9.628  1.00  0.00     0.023 C 
ATOM      8  C   UNL     1      -3.547  16.513  10.739  1.00  0.00     0.031 C 
ATOM      9  C   UNL     1      -1.947  15.762   9.000  1.00  0.00     0.013 C 
ATOM     10  C   UNL     1      -2.325  16.387  11.670  1.00  0.00    -0.025 C 
ENDBRANCH   1   2
BRANCH   1  11
ATOM     11  O   UNL     1       0.579  15.138  12.123  1.00  0.00    -0.392 OA
ATOM     12  H   UNL     1       1.451  15.162  12.597  1.00  0.00     0.211 HD
ENDBRANCH   1  11
TORSDOF 2
ENDMDL
MODEL 4
REMARK VINA RESULT:    -4.050      1.843      3.506
REMARK INTER + INTRA:          -4.458
REMARK INTER:                  -4.415
REMARK INTRA:                  -0.044
REMARK UNBOUND:                -0.054
REMARK SMILES CC1(C)[C@@H]2CC=C(CO)[C@H]1C2
REMARK SMILES IDX 8 1 7 2 1 3 2 4 4 5 3 6 10 7 5 8 11 9 6 10 9 11
REMARK H PARENT 9 12
REMARK Flexibility Score: inf
ROOT
ATOM      1  C   UNL     1       9.883  14.552  22.351  1.00  0.00     0.187 C 
ENDROOT
BRANCH   1   2
ATOM      2  C   UNL     1       9.710  16.011  22.038  1.00  0.00    -0.045 C 
ATOM      3  C   UNL     1       8.708  16.958  19.420  1.00  0.00     0.012 C 
ATOM      4  C   UNL     1       8.158  17.527  20.758  1.00  0.00    -0.026 C 
ATOM      5  C   UNL     1       8.986  18.611  21.503  1.00  0.00    -0.000 C 
ATOM      6  C   UNL     1       6.689  17.966  20.531  1.00  0.00     0.012 C 
ATOM      7  C   UNL     1       8.326  16.678  22.046  1.00  0.00     0.023 C 
ATOM      8  C   UNL     1      10.518  18.294  21.399  1.00  0.00     0.031 C 
ATOM      9  C   UNL     1       8.519  17.988  22.834  1.00  0.00     0.013 C 
ATOM     10  C   UNL     1      10.776  16.813  21.743  1.00  0.00    -0.025 C 
ENDBRANCH   1   2
BRANCH   1  11
ATOM     11  O   UNL     1       8.755  14.061  23.024  1.00  0.00    -0.392 OA
ATOM     12  H   UNL     1       9.008  13.171  23.386  1.00  0.00     0.211 HD
ENDBRANCH   1  11
TORSDOF 2
ENDMDL
MODEL 5
REMARK VINA RESULT:    -4.028      0.990      2.695
REMARK INTER + INTRA:          -4.434
REMARK INTER:                  -4.405
REMARK INTRA:                  -0.029
REMARK UNBOUND:                -0.054
REMARK SMILES CC1(C)[C@@H]2CC=C(CO)[C@H]1C2
REMARK SMILES IDX 8 1 7 2 1 3 2 4 4 5 3 6 10 7 5 8 11 9 6 10 9 11
REMARK H PARENT 9 12
REMARK Flexibility Score: inf
ROOT
ATOM      1  C   UNL     1       7.738  16.371  18.534  1.00  0.00     0.187 C 
ENDROOT
BRANCH   1   2
ATOM      2  C   UNL     1       8.201  16.856  19.879  1.00  0.00    -0.045 C 
ATOM      3  C   UNL     1       9.753  19.353  20.210  1.00  0.00     0.012 C 
ATOM      4  C   UNL     1       8.541  19.019  21.125  1.00  0.00    -0.026 C 
ATOM      5  C   UNL     1       8.750  18.030  22.305  1.00  0.00    -0.000 C 
ATOM      6  C   UNL     1       7.898  20.351  21.585  1.00  0.00     0.012 C 
ATOM      7  C   UNL     1       7.488  18.002  20.611  1.00  0.00     0.023 C 
ATOM      8  C   UNL     1       9.709  16.865  21.878  1.00  0.00     0.031 C 
ATOM      9  C   UNL     1       7.321  17.506  22.060  1.00  0.00     0.013 C 
ATOM     10  C   UNL     1       9.270  16.293  20.515  1.00  0.00    -0.025 C 
ENDBRANCH   1   2
BRANCH   1  11
ATOM     11  O   UNL     1       6.980  15.200  18.673  1.00  0.00    -0.392 OA
ATOM     12  H   UNL     1       6.862  15.055  19.649  1.00  0.00     0.211 HD
ENDBRANCH   1  11
TORSDOF 2
ENDMDL
MODEL 6
REMARK VINA RESULT:    -3.961     14.899     15.884
REMARK INTER + INTRA:          -4.362
REMARK INTER:                  -4.328
REMARK INTRA:                  -0.035
REMARK UNBOUND:                -0.054
REMARK SMILES CC1(C)[C@@H]2CC=C(CO)[C@H]1C2
REMARK SMILES IDX 8 1 7 2 1 3 2 4 4 5 3 6 10 7 5 8 11 9 6 10 9 11
REMARK H PARENT 9 12
REMARK Flexibility Score: inf
ROOT
ATOM      1  C   UNL     1      -0.743  22.498  10.266  1.00  0.00     0.187 C 
ENDROOT
BRANCH   1   2
ATOM      2  C   UNL     1      -0.430  23.823   9.629  1.00  0.00    -0.045 C 
ATOM      3  C   UNL     1       0.808  26.049  11.134  1.00  0.00     0.012 C 
ATOM      4  C   UNL     1       1.319  25.633   9.726  1.00  0.00    -0.026 C 
ATOM      5  C   UNL     1       0.539  26.125   8.476  1.00  0.00    -0.000 C 
ATOM      6  C   UNL     1       2.831  25.964   9.641  1.00  0.00     0.012 C 
ATOM      7  C   UNL     1       1.001  24.201   9.219  1.00  0.00     0.023 C 
ATOM      8  C   UNL     1      -1.004  26.097   8.750  1.00  0.00     0.031 C 
ATOM      9  C   UNL     1       0.868  24.780   7.797  1.00  0.00     0.013 C 
ATOM     10  C   UNL     1      -1.405  24.746   9.375  1.00  0.00    -0.025 C 
ENDBRANCH   1   2
BRANCH   1  11
ATOM     11  O   UNL     1      -0.895  21.509   9.284  1.00  0.00    -0.392 OA
ATOM     12  H   UNL     1      -1.838  21.203   9.335  1.00  0.00     0.211 HD
ENDBRANCH   1  11
TORSDOF 2
ENDMDL
MODEL 7
REMARK VINA RESULT:    -3.807     11.840     13.235
REMARK INTER + INTRA:          -4.194
REMARK INTER:                  -4.152
REMARK INTRA:                  -0.042
REMARK UNBOUND:                -0.054
REMARK SMILES CC1(C)[C@@H]2CC=C(CO)[C@H]1C2
REMARK SMILES IDX 8 1 7 2 1 3 2 4 4 5 3 6 10 7 5 8 11 9 6 10 9 11
REMARK H PARENT 9 12
REMARK Flexibility Score: inf
ROOT
ATOM      1  C   UNL     1      -0.252  19.839  13.113  1.00  0.00     0.187 C 
ENDROOT
BRANCH   1   2
ATOM      2  C   UNL     1      -0.763  18.469  12.764  1.00  0.00    -0.045 C 
ATOM      3  C   UNL     1      -2.793  18.027  10.658  1.00  0.00     0.012 C 
ATOM      4  C   UNL     1      -1.509  17.155  10.749  1.00  0.00    -0.026 C 
ATOM      5  C   UNL     1      -1.467  15.997  11.784  1.00  0.00    -0.000 C 
ATOM      6  C   UNL     1      -1.145  16.677   9.321  1.00  0.00     0.012 C 
ATOM      7  C   UNL     1      -0.283  17.726  11.509  1.00  0.00     0.023 C 
ATOM      8  C   UNL     1      -2.173  16.430  13.115  1.00  0.00     0.031 C 
ATOM      9  C   UNL     1       0.032  16.296  11.990  1.00  0.00     0.013 C 
ATOM     10  C   UNL     1      -1.669  17.819  13.553  1.00  0.00    -0.025 C 
ENDBRANCH   1   2
BRANCH   1  11
ATOM     11  O   UNL     1       1.106  19.950  12.784  1.00  0.00    -0.392 OA
ATOM     12  H   UNL     1       1.600  20.008  13.644  1.00  0.00     0.211 HD
ENDBRANCH   1  11
TORSDOF 2
ENDMDL
MODEL 8
REMARK VINA RESULT:    -3.696     11.655     12.864
REMARK INTER + INTRA:          -4.074
REMARK INTER:                  -4.051
REMARK INTRA:                  -0.023
REMARK UNBOUND:                -0.054
REMARK SMILES CC1(C)[C@@H]2CC=C(CO)[C@H]1C2
REMARK SMILES IDX 8 1 7 2 1 3 2 4 4 5 3 6 10 7 5 8 11 9 6 10 9 11
REMARK H PARENT 9 12
REMARK Flexibility Score: inf
ROOT
ATOM      1  C   UNL     1       0.146  16.388  11.272  1.00  0.00     0.187 C 
ENDROOT
BRANCH   1   2
ATOM      2  C   UNL     1      -0.526  17.582  11.890  1.00  0.00    -0.045 C 
ATOM      3  C   UNL     1       0.879  20.154  12.295  1.00  0.00     0.012 C 
ATOM      4  C   UNL     1      -0.549  20.092  11.682  1.00  0.00    -0.026 C 
ATOM      5  C   UNL     1      -1.762  19.923  12.637  1.00  0.00    -0.000 C 
ATOM      6  C   UNL     1      -0.719  21.300  10.726  1.00  0.00     0.012 C 
ATOM      7  C   UNL     1      -1.017  18.760  11.037  1.00  0.00     0.023 C 
ATOM      8  C   UNL     1      -1.406  18.938  13.803  1.00  0.00     0.031 C 
ATOM      9  C   UNL     1      -2.438  19.060  11.552  1.00  0.00     0.013 C 
ATOM     10  C   UNL     1      -0.740  17.667  13.236  1.00  0.00    -0.025 C 
ENDBRANCH   1   2
BRANCH   1  11
ATOM     11  O   UNL     1       0.457  15.440  12.257  1.00  0.00    -0.392 OA
ATOM     12  H   UNL     1       0.375  14.549  11.827  1.00  0.00     0.211 HD
ENDBRANCH   1  11
TORSDOF 2
ENDMDL
MODEL 9
REMARK VINA RESULT:    -3.669      2.251      3.599
REMARK INTER + INTRA:          -4.045
REMARK INTER:                  -4.000
REMARK INTRA:                  -0.045
REMARK UNBOUND:                -0.054
REMARK SMILES CC1(C)[C@@H]2CC=C(CO)[C@H]1C2
REMARK SMILES IDX 8 1 7 2 1 3 2 4 4 5 3 6 10 7 5 8 11 9 6 10 9 11
REMARK H PARENT 9 12
REMARK Flexibility Score: inf
ROOT
ATOM      1  C   UNL     1       9.952  20.220  20.752  1.00  0.00     0.187 C 
ENDROOT
BRANCH   1   2
ATOM      2  C   UNL     1       9.355  18.890  21.116  1.00  0.00    -0.045 C 
ATOM      3  C   UNL     1       6.533  18.211  20.540  1.00  0.00     0.012 C 
ATOM      4  C   UNL     1       7.691  17.223  20.221  1.00  0.00    -0.026 C 
ATOM      5  C   UNL     1       8.282  16.370  21.377  1.00  0.00    -0.000 C 
ATOM      6  C   UNL     1       7.269  16.355  19.009  1.00  0.00     0.012 C 
ATOM      7  C   UNL     1       9.126  17.795  20.064  1.00  0.00     0.023 C 
ATOM      8  C   UNL     1       8.363  17.217  22.694  1.00  0.00     0.031 C 
ATOM      9  C   UNL     1       9.665  16.503  20.708  1.00  0.00     0.013 C 
ATOM     10  C   UNL     1       9.000  18.590  22.401  1.00  0.00    -0.025 C 
ENDBRANCH   1   2
BRANCH   1  11
ATOM     11  O   UNL     1       8.989  21.233  20.867  1.00  0.00    -0.392 OA
ATOM     12  H   UNL     1       8.326  20.918  21.535  1.00  0.00     0.211 HD
ENDBRANCH   1  11
TORSDOF 2
ENDMDL
