MODEL 1
REMARK VINA RESULT:    52.505      0.000      0.000
REMARK INTER + INTRA:          76.335
REMARK INTER:                  70.921
REMARK INTRA:                   5.414
REMARK UNBOUND:                 5.414
REMARK SMILES O=c1c(-c2ccc(O)cc2)coc2c([C@@H]3O[C@H](CO)[C@H](O)[C@@H](O)[C@@H]3O)c(O)ccc12
REMARK SMILES IDX 3 1 11 2 12 3 13 4 30 5 2 6 1 7 29 8 28 9 26 10 14 11 4 12
REMARK SMILES IDX 5 13 6 14 7 15 10 16 9 17 8 18 15 20 24 21 16 22 22 23 17 24
REMARK SMILES IDX 20 25 25 26 23 28 18 30 19 31 21 33 27 35
REMARK H PARENT 8 19 25 27 23 29 19 32 21 34 27 36
REMARK Flexibility Score: inf
ROOT
ATOM      1  C   UNL     1      93.473  12.660 120.662  1.00  0.00     0.065 A 
ATOM      2  C   UNL     1      94.678  13.336 120.421  1.00  0.00     0.208 A 
ATOM      3  O   UNL     1      94.721  14.663 120.385  1.00  0.00    -0.463 OA
ATOM      4  C   UNL     1      93.650  15.430 120.570  1.00  0.00     0.147 A 
ATOM      5  C   UNL     1      92.393  14.832 120.818  1.00  0.00     0.066 A 
ATOM      6  C   UNL     1      92.313  13.429 120.872  1.00  0.00     0.200 A 
ATOM      7  O   UNL     1      91.214  12.862 121.124  1.00  0.00    -0.288 OA
ATOM      8  C   UNL     1      91.262  15.643 121.000  1.00  0.00     0.020 A 
ATOM      9  C   UNL     1      91.374  17.029 120.922  1.00  0.00     0.047 A 
ATOM     10  C   UNL     1      92.612  17.633 120.673  1.00  0.00     0.125 A 
ATOM     11  C   UNL     1      93.772  16.839 120.515  1.00  0.00     0.069 A 
ENDROOT
BRANCH   1  12
ATOM     12  C   UNL     1      93.450  11.177 120.691  1.00  0.00    -0.011 A 
ATOM     13  C   UNL     1      92.280  10.478 120.345  1.00  0.00     0.013 A 
ATOM     14  C   UNL     1      92.253   9.081 120.379  1.00  0.00     0.047 A 
ATOM     15  C   UNL     1      93.393   8.364 120.767  1.00  0.00     0.115 A 
ATOM     16  C   UNL     1      94.588  10.450 121.086  1.00  0.00     0.013 A 
ATOM     17  C   UNL     1      94.558   9.052 121.121  1.00  0.00     0.047 A 
BRANCH  15  18
ATOM     18  O   UNL     1      93.378   6.971 120.806  1.00  0.00    -0.508 OA
ATOM     19  H   UNL     1      93.158   6.421 119.984  1.00  0.00     0.293 HD
ENDBRANCH  15  18
ENDBRANCH   1  12
BRANCH  11  20
ATOM     20  C   UNL     1      95.126  17.474 120.211  1.00  0.00     0.188 C 
ATOM     21  C   UNL     1      96.307  16.445 120.312  1.00  0.00     0.179 C 
ATOM     22  O   UNL     1      95.062  18.135 118.952  1.00  0.00    -0.362 OA
ATOM     23  C   UNL     1      96.799  16.013 118.913  1.00  0.00     0.177 C 
ATOM     24  C   UNL     1      96.351  18.513 118.509  1.00  0.00     0.176 C 
ATOM     25  C   UNL     1      97.136  17.252 118.042  1.00  0.00     0.177 C 
BRANCH  21  26
ATOM     26  O   UNL     1      95.993  15.337 121.123  1.00  0.00    -0.387 OA
ATOM     27  H   UNL     1      95.008  15.311 121.239  1.00  0.00     0.211 HD
ENDBRANCH  21  26
BRANCH  23  28
ATOM     28  O   UNL     1      97.943  15.205 119.030  1.00  0.00    -0.387 OA
ATOM     29  H   UNL     1      98.587  15.513 118.340  1.00  0.00     0.211 HD
ENDBRANCH  23  28
BRANCH  24  30
ATOM     30  C   UNL     1      96.215  19.583 117.413  1.00  0.00     0.191 C 
BRANCH  30  31
ATOM     31  O   UNL     1      94.868  19.814 117.103  1.00  0.00    -0.394 OA
ATOM     32  H   UNL     1      94.350  19.071 117.511  1.00  0.00     0.210 HD
ENDBRANCH  30  31
ENDBRANCH  24  30
BRANCH  25  33
ATOM     33  O   UNL     1      96.912  16.959 116.683  1.00  0.00    -0.388 OA
ATOM     34  H   UNL     1      96.414  16.102 116.640  1.00  0.00     0.211 HD
ENDBRANCH  25  33
ENDBRANCH  11  20
BRANCH  10  35
ATOM     35  O   UNL     1      92.684  19.023 120.582  1.00  0.00    -0.507 OA
ATOM     36  H   UNL     1      92.182  19.539 119.870  1.00  0.00     0.293 HD
ENDBRANCH  10  35
TORSDOF 9
ENDMDL
MODEL 2
REMARK VINA RESULT:    54.145     14.559     15.934
REMARK INTER + INTRA:          78.551
REMARK INTER:                  78.725
REMARK INTRA:                  -0.174
REMARK UNBOUND:                 5.414
REMARK SMILES O=c1c(-c2ccc(O)cc2)coc2c([C@@H]3O[C@H](CO)[C@H](O)[C@@H](O)[C@@H]3O)c(O)ccc12
REMARK SMILES IDX 3 1 11 2 12 3 13 4 30 5 2 6 1 7 29 8 28 9 26 10 14 11 4 12
REMARK SMILES IDX 5 13 6 14 7 15 10 16 9 17 8 18 15 20 24 21 16 22 22 23 17 24
REMARK SMILES IDX 20 25 25 26 23 28 18 30 19 31 21 33 27 35
REMARK H PARENT 8 19 25 27 23 29 19 32 21 34 27 36
REMARK Flexibility Score: inf
ROOT
ATOM      1  C   UNL     1      87.987  12.410 106.842  1.00  0.00     0.065 A 
ATOM      2  C   UNL     1      86.669  12.170 107.253  1.00  0.00     0.208 A 
ATOM      3  O   UNL     1      85.838  13.175 107.501  1.00  0.00    -0.463 OA
ATOM      4  C   UNL     1      86.186  14.454 107.379  1.00  0.00     0.147 A 
ATOM      5  C   UNL     1      87.497  14.787 106.969  1.00  0.00     0.066 A 
ATOM      6  C   UNL     1      88.402  13.746 106.691  1.00  0.00     0.200 A 
ATOM      7  O   UNL     1      89.570  14.006 106.291  1.00  0.00    -0.288 OA
ATOM      8  C   UNL     1      87.867  16.136 106.854  1.00  0.00     0.020 A 
ATOM      9  C   UNL     1      86.951  17.141 107.156  1.00  0.00     0.047 A 
ATOM     10  C   UNL     1      85.651  16.824 107.566  1.00  0.00     0.125 A 
ATOM     11  C   UNL     1      85.245  15.472 107.662  1.00  0.00     0.069 A 
ENDROOT
BRANCH   1  12
ATOM     12  C   UNL     1      88.899  11.269 106.578  1.00  0.00    -0.011 A 
ATOM     13  C   UNL     1      89.099  10.811 105.263  1.00  0.00     0.013 A 
ATOM     14  C   UNL     1      89.952   9.731 105.012  1.00  0.00     0.047 A 
ATOM     15  C   UNL     1      90.609   9.092 106.071  1.00  0.00     0.115 A 
ATOM     16  C   UNL     1      89.557  10.617 107.635  1.00  0.00     0.013 A 
ATOM     17  C   UNL     1      90.408   9.536 107.381  1.00  0.00     0.047 A 
BRANCH  15  18
ATOM     18  O   UNL     1      91.459   8.014 105.833  1.00  0.00    -0.508 OA
ATOM     19  H   UNL     1      91.798   7.431 106.590  1.00  0.00     0.293 HD
ENDBRANCH  15  18
ENDBRANCH   1  12
BRANCH  11  20
ATOM     20  C   UNL     1      83.844  15.103 108.138  1.00  0.00     0.188 C 
ATOM     21  C   UNL     1      83.097  14.158 107.131  1.00  0.00     0.179 C 
ATOM     22  O   UNL     1      83.921  14.570 109.456  1.00  0.00    -0.362 OA
ATOM     23  C   UNL     1      83.072  12.700 107.639  1.00  0.00     0.177 C 
ATOM     24  C   UNL     1      82.695  13.977 109.839  1.00  0.00     0.176 C 
ATOM     25  C   UNL     1      82.505  12.630 109.082  1.00  0.00     0.177 C 
BRANCH  21  26
ATOM     26  O   UNL     1      83.610  14.248 105.822  1.00  0.00    -0.387 OA
ATOM     27  H   UNL     1      83.091  14.940 105.336  1.00  0.00     0.211 HD
ENDBRANCH  21  26
BRANCH  23  28
ATOM     28  O   UNL     1      82.281  11.905 106.792  1.00  0.00    -0.387 OA
ATOM     29  H   UNL     1      81.334  12.135 106.980  1.00  0.00     0.211 HD
ENDBRANCH  23  28
BRANCH  24  30
ATOM     30  C   UNL     1      82.665  13.823 111.369  1.00  0.00     0.191 C 
BRANCH  30  31
ATOM     31  O   UNL     1      81.703  12.880 111.758  1.00  0.00    -0.394 OA
ATOM     32  H   UNL     1      82.047  12.447 112.583  1.00  0.00     0.210 HD
ENDBRANCH  30  31
ENDBRANCH  24  30
BRANCH  25  33
ATOM     33  O   UNL     1      83.080  11.546 109.772  1.00  0.00    -0.388 OA
ATOM     34  H   UNL     1      82.882  11.667 110.737  1.00  0.00     0.211 HD
ENDBRANCH  25  33
ENDBRANCH  11  20
BRANCH  10  35
ATOM     35  O   UNL     1      84.766  17.856 107.879  1.00  0.00    -0.507 OA
ATOM     36  H   UNL     1      84.427  18.501 107.175  1.00  0.00     0.293 HD
ENDBRANCH  10  35
TORSDOF 9
ENDMDL
MODEL 3
REMARK VINA RESULT:    54.435     12.403     14.293
REMARK INTER + INTRA:          78.943
REMARK INTER:                  73.441
REMARK INTRA:                   5.502
REMARK UNBOUND:                 5.414
REMARK SMILES O=c1c(-c2ccc(O)cc2)coc2c([C@@H]3O[C@H](CO)[C@H](O)[C@@H](O)[C@@H]3O)c(O)ccc12
REMARK SMILES IDX 3 1 11 2 12 3 13 4 30 5 2 6 1 7 29 8 28 9 26 10 14 11 4 12
REMARK SMILES IDX 5 13 6 14 7 15 10 16 9 17 8 18 15 20 24 21 16 22 22 23 17 24
REMARK SMILES IDX 20 25 25 26 23 28 18 30 19 31 21 33 27 35
REMARK H PARENT 8 19 25 27 23 29 19 32 21 34 27 36
REMARK Flexibility Score: inf
ROOT
ATOM      1  C   UNL     1      85.437  17.687 108.360  1.00  0.00     0.065 A 
ATOM      2  C   UNL     1      86.655  17.757 109.049  1.00  0.00     0.208 A 
ATOM      3  O   UNL     1      87.245  18.924 109.276  1.00  0.00    -0.463 OA
ATOM      4  C   UNL     1      86.735  20.087 108.877  1.00  0.00     0.147 A 
ATOM      5  C   UNL     1      85.509  20.109 108.174  1.00  0.00     0.066 A 
ATOM      6  C   UNL     1      84.853  18.891 107.923  1.00  0.00     0.200 A 
ATOM      7  O   UNL     1      83.740  18.876 107.327  1.00  0.00    -0.288 OA
ATOM      8  C   UNL     1      84.980  21.335 107.741  1.00  0.00     0.020 A 
ATOM      9  C   UNL     1      85.666  22.521 107.990  1.00  0.00     0.047 A 
ATOM     10  C   UNL     1      86.883  22.512 108.682  1.00  0.00     0.125 A 
ATOM     11  C   UNL     1      87.423  21.292 109.154  1.00  0.00     0.069 A 
ENDROOT
BRANCH   1  12
ATOM     12  C   UNL     1      84.801  16.369 108.113  1.00  0.00    -0.011 A 
ATOM     13  C   UNL     1      84.829  15.371 109.103  1.00  0.00     0.013 A 
ATOM     14  C   UNL     1      84.238  14.126 108.871  1.00  0.00     0.047 A 
ATOM     15  C   UNL     1      83.616  13.860 107.644  1.00  0.00     0.115 A 
ATOM     16  C   UNL     1      84.181  16.091 106.882  1.00  0.00     0.013 A 
ATOM     17  C   UNL     1      83.591  14.845 106.651  1.00  0.00     0.047 A 
BRANCH  15  18
ATOM     18  O   UNL     1      83.024  12.622 107.400  1.00  0.00    -0.508 OA
ATOM     19  H   UNL     1      82.713  12.026 108.158  1.00  0.00     0.293 HD
ENDBRANCH  15  18
ENDBRANCH   1  12
BRANCH  11  20
ATOM     20  C   UNL     1      88.763  21.254 109.882  1.00  0.00     0.188 C 
ATOM     21  C   UNL     1      89.195  22.664 110.421  1.00  0.00     0.179 C 
ATOM     22  O   UNL     1      88.718  20.255 110.896  1.00  0.00    -0.362 OA
ATOM     23  C   UNL     1      88.978  22.775 111.946  1.00  0.00     0.177 C 
ATOM     24  C   UNL     1      89.832  20.356 111.761  1.00  0.00     0.176 C 
ATOM     25  C   UNL     1      89.667  21.597 112.686  1.00  0.00     0.177 C 
BRANCH  21  26
ATOM     26  O   UNL     1      88.577  23.721 109.725  1.00  0.00    -0.387 OA
ATOM     27  H   UNL     1      87.987  24.203 110.360  1.00  0.00     0.211 HD
ENDBRANCH  21  26
BRANCH  23  28
ATOM     28  O   UNL     1      89.501  23.989 112.422  1.00  0.00    -0.387 OA
ATOM     29  H   UNL     1      88.728  24.558 112.674  1.00  0.00     0.211 HD
ENDBRANCH  23  28
BRANCH  24  30
ATOM     30  C   UNL     1      89.990  19.038 112.537  1.00  0.00     0.191 C 
BRANCH  30  31
ATOM     31  O   UNL     1      91.206  19.009 113.233  1.00  0.00    -0.394 OA
ATOM     32  H   UNL     1      91.101  18.344 113.963  1.00  0.00     0.210 HD
ENDBRANCH  30  31
ENDBRANCH  24  30
BRANCH  25  33
ATOM     33  O   UNL     1      88.960  21.292 113.865  1.00  0.00    -0.388 OA
ATOM     34  H   UNL     1      88.944  20.304 113.956  1.00  0.00     0.211 HD
ENDBRANCH  25  33
ENDBRANCH  11  20
BRANCH  10  35
ATOM     35  O   UNL     1      87.552  23.716 108.897  1.00  0.00    -0.507 OA
ATOM     36  H   UNL     1      87.498  24.207 109.782  1.00  0.00     0.293 HD
ENDBRANCH  10  35
TORSDOF 9
ENDMDL
MODEL 4
REMARK VINA RESULT:    54.616     13.207     15.991
REMARK INTER + INTRA:          79.187
REMARK INTER:                  73.463
REMARK INTRA:                   5.724
REMARK UNBOUND:                 5.414
REMARK SMILES O=c1c(-c2ccc(O)cc2)coc2c([C@@H]3O[C@H](CO)[C@H](O)[C@@H](O)[C@@H]3O)c(O)ccc12
REMARK SMILES IDX 3 1 11 2 12 3 13 4 30 5 2 6 1 7 29 8 28 9 26 10 14 11 4 12
REMARK SMILES IDX 5 13 6 14 7 15 10 16 9 17 8 18 15 20 24 21 16 22 22 23 17 24
REMARK SMILES IDX 20 25 25 26 23 28 18 30 19 31 21 33 27 35
REMARK H PARENT 8 19 25 27 23 29 19 32 21 34 27 36
REMARK Flexibility Score: inf
ROOT
ATOM      1  C   UNL     1      87.373  20.362 110.265  1.00  0.00     0.065 A 
ATOM      2  C   UNL     1      86.778  19.137 110.597  1.00  0.00     0.208 A 
ATOM      3  O   UNL     1      85.863  18.586 109.808  1.00  0.00    -0.463 OA
ATOM      4  C   UNL     1      85.454  19.142 108.669  1.00  0.00     0.147 A 
ATOM      5  C   UNL     1      86.002  20.378 108.258  1.00  0.00     0.066 A 
ATOM      6  C   UNL     1      86.980  20.986 109.066  1.00  0.00     0.200 A 
ATOM      7  O   UNL     1      87.515  22.073 108.713  1.00  0.00    -0.288 OA
ATOM      8  C   UNL     1      85.561  20.970 107.064  1.00  0.00     0.020 A 
ATOM      9  C   UNL     1      84.577  20.350 106.297  1.00  0.00     0.047 A 
ATOM     10  C   UNL     1      84.024  19.127 106.696  1.00  0.00     0.125 A 
ATOM     11  C   UNL     1      84.473  18.496 107.880  1.00  0.00     0.069 A 
ENDROOT
BRANCH   1  12
ATOM     12  C   UNL     1      88.388  20.959 111.167  1.00  0.00    -0.011 A 
ATOM     13  C   UNL     1      88.465  22.355 111.322  1.00  0.00     0.013 A 
ATOM     14  C   UNL     1      89.426  22.921 112.166  1.00  0.00     0.047 A 
ATOM     15  C   UNL     1      90.326  22.101 112.859  1.00  0.00     0.115 A 
ATOM     16  C   UNL     1      89.299  20.144 111.862  1.00  0.00     0.013 A 
ATOM     17  C   UNL     1      90.260  20.713 112.703  1.00  0.00     0.047 A 
BRANCH  15  18
ATOM     18  O   UNL     1      91.288  22.654 113.702  1.00  0.00    -0.508 OA
ATOM     19  H   UNL     1      91.038  23.061 114.595  1.00  0.00     0.293 HD
ENDBRANCH  15  18
ENDBRANCH   1  12
BRANCH  11  20
ATOM     20  C   UNL     1      83.863  17.181 108.352  1.00  0.00     0.188 C 
ATOM     21  C   UNL     1      83.062  16.449 107.217  1.00  0.00     0.179 C 
ATOM     22  O   UNL     1      84.881  16.372 108.932  1.00  0.00    -0.362 OA
ATOM     23  C   UNL     1      83.859  15.255 106.646  1.00  0.00     0.177 C 
ATOM     24  C   UNL     1      84.423  15.051 109.147  1.00  0.00     0.176 C 
ATOM     25  C   UNL     1      84.317  14.305 107.784  1.00  0.00     0.177 C 
BRANCH  21  26
ATOM     26  O   UNL     1      82.636  17.328 106.202  1.00  0.00    -0.387 OA
ATOM     27  H   UNL     1      83.314  17.315 105.479  1.00  0.00     0.211 HD
ENDBRANCH  21  26
BRANCH  23  28
ATOM     28  O   UNL     1      83.067  14.536 105.734  1.00  0.00    -0.387 OA
ATOM     29  H   UNL     1      83.283  14.878 104.829  1.00  0.00     0.211 HD
ENDBRANCH  23  28
BRANCH  24  30
ATOM     30  C   UNL     1      85.353  14.351 110.151  1.00  0.00     0.191 C 
BRANCH  30  31
ATOM     31  O   UNL     1      84.682  13.317 110.818  1.00  0.00    -0.394 OA
ATOM     32  H   UNL     1      85.191  13.140 111.653  1.00  0.00     0.210 HD
ENDBRANCH  30  31
ENDBRANCH  24  30
BRANCH  25  33
ATOM     33  O   UNL     1      85.524  13.675 107.427  1.00  0.00    -0.388 OA
ATOM     34  H   UNL     1      86.261  14.163 107.878  1.00  0.00     0.211 HD
ENDBRANCH  25  33
ENDBRANCH  11  20
BRANCH  10  35
ATOM     35  O   UNL     1      83.028  18.544 105.914  1.00  0.00    -0.507 OA
ATOM     36  H   UNL     1      82.548  19.061 105.187  1.00  0.00     0.293 HD
ENDBRANCH  10  35
TORSDOF 9
ENDMDL
MODEL 5
REMARK VINA RESULT:    55.374     11.898     13.803
REMARK INTER + INTRA:          80.211
REMARK INTER:                  80.137
REMARK INTRA:                   0.074
REMARK UNBOUND:                 5.414
REMARK SMILES O=c1c(-c2ccc(O)cc2)coc2c([C@@H]3O[C@H](CO)[C@H](O)[C@@H](O)[C@@H]3O)c(O)ccc12
REMARK SMILES IDX 3 1 11 2 12 3 13 4 30 5 2 6 1 7 29 8 28 9 26 10 14 11 4 12
REMARK SMILES IDX 5 13 6 14 7 15 10 16 9 17 8 18 15 20 24 21 16 22 22 23 17 24
REMARK SMILES IDX 20 25 25 26 23 28 18 30 19 31 21 33 27 35
REMARK H PARENT 8 19 25 27 23 29 19 32 21 34 27 36
REMARK Flexibility Score: inf
ROOT
ATOM      1  C   UNL     1      85.793  18.241 108.859  1.00  0.00     0.065 A 
ATOM      2  C   UNL     1      86.720  18.375 109.902  1.00  0.00     0.208 A 
ATOM      3  O   UNL     1      87.262  19.554 110.185  1.00  0.00    -0.463 OA
ATOM      4  C   UNL     1      86.972  20.667 109.517  1.00  0.00     0.147 A 
ATOM      5  C   UNL     1      86.048  20.623 108.449  1.00  0.00     0.066 A 
ATOM      6  C   UNL     1      85.447  19.392 108.127  1.00  0.00     0.200 A 
ATOM      7  O   UNL     1      84.592  19.322 107.201  1.00  0.00    -0.288 OA
ATOM      8  C   UNL     1      85.753  21.796 107.737  1.00  0.00     0.020 A 
ATOM      9  C   UNL     1      86.380  22.994 108.070  1.00  0.00     0.047 A 
ATOM     10  C   UNL     1      87.301  23.050 109.123  1.00  0.00     0.125 A 
ATOM     11  C   UNL     1      87.593  21.888 109.875  1.00  0.00     0.069 A 
ENDROOT
BRANCH   1  12
ATOM     12  C   UNL     1      85.205  16.912 108.558  1.00  0.00    -0.011 A 
ATOM     13  C   UNL     1      84.819  16.588 107.245  1.00  0.00     0.013 A 
ATOM     14  C   UNL     1      84.258  15.339 106.961  1.00  0.00     0.047 A 
ATOM     15  C   UNL     1      84.070  14.401 107.984  1.00  0.00     0.115 A 
ATOM     16  C   UNL     1      85.007  15.967 109.581  1.00  0.00     0.013 A 
ATOM     17  C   UNL     1      84.444  14.720 109.293  1.00  0.00     0.047 A 
BRANCH  15  18
ATOM     18  O   UNL     1      83.511  13.154 107.712  1.00  0.00    -0.508 OA
ATOM     19  H   UNL     1      82.574  13.066 107.336  1.00  0.00     0.293 HD
ENDBRANCH  15  18
ENDBRANCH   1  12
BRANCH  11  20
ATOM     20  C   UNL     1      88.616  21.918 111.006  1.00  0.00     0.188 C 
ATOM     21  C   UNL     1      87.954  21.754 112.420  1.00  0.00     0.179 C 
ATOM     22  O   UNL     1      89.631  20.953 110.746  1.00  0.00    -0.362 OA
ATOM     23  C   UNL     1      88.171  20.333 112.983  1.00  0.00     0.177 C 
ATOM     24  C   UNL     1      90.455  20.762 111.880  1.00  0.00     0.176 C 
ATOM     25  C   UNL     1      89.677  19.958 112.963  1.00  0.00     0.177 C 
BRANCH  21  26
ATOM     26  O   UNL     1      86.593  22.119 112.426  1.00  0.00    -0.387 OA
ATOM     27  H   UNL     1      86.138  21.593 113.133  1.00  0.00     0.211 HD
ENDBRANCH  21  26
BRANCH  23  28
ATOM     28  O   UNL     1      87.693  20.255 114.302  1.00  0.00    -0.387 OA
ATOM     29  H   UNL     1      86.820  19.785 114.267  1.00  0.00     0.211 HD
ENDBRANCH  23  28
BRANCH  24  30
ATOM     30  C   UNL     1      91.764  20.083 111.444  1.00  0.00     0.191 C 
BRANCH  30  31
ATOM     31  O   UNL     1      92.370  19.425 112.523  1.00  0.00    -0.394 OA
ATOM     32  H   UNL     1      93.287  19.796 112.604  1.00  0.00     0.210 HD
ENDBRANCH  30  31
ENDBRANCH  24  30
BRANCH  25  33
ATOM     33  O   UNL     1      89.823  18.567 112.800  1.00  0.00    -0.388 OA
ATOM     34  H   UNL     1      88.945  18.148 112.997  1.00  0.00     0.211 HD
ENDBRANCH  25  33
ENDBRANCH  11  20
BRANCH  10  35
ATOM     35  O   UNL     1      87.924  24.262 109.418  1.00  0.00    -0.507 OA
ATOM     36  H   UNL     1      87.837  25.069 108.811  1.00  0.00     0.293 HD
ENDBRANCH  10  35
TORSDOF 9
ENDMDL
