MODEL 1
REMARK VINA RESULT:    -7.411      0.000      0.000
REMARK INTER + INTRA:          -8.321
REMARK INTER:                  -8.061
REMARK INTRA:                  -0.261
REMARK UNBOUND:                -0.261
REMARK SMILES CC1(C)CC[C@@]2(C(=O)[O-])CC[C@@]3(C)C(=CC[C@H]4[C@]5(C)CC[C@@H](O)C(C)(C)[C@H]5CC[C@]43C)[C@H]2C1
REMARK SMILES IDX 6 1 5 2 10 3 32 4 4 5 11 6 14 7 33 8 2 9 12 10 15 11 1 12
REMARK SMILES IDX 3 13 13 14 30 15 16 16 17 17 29 18 31 19 18 20 28 21 27 22
REMARK SMILES IDX 20 23 19 24 24 25 21 26 22 27 25 28 26 29 7 30 8 31 9 32
REMARK SMILES IDX 23 33
REMARK H PARENT 23 34
REMARK Flexibility Score: inf
ROOT
ATOM      1  C   UNL     1       4.404  -0.220 -23.923  1.00  0.00     0.017 C 
ATOM      2  C   UNL     1       4.473  -1.628 -23.236  1.00  0.00     0.014 C 
ATOM      3  C   UNL     1       5.499  -0.169 -25.016  1.00  0.00     0.014 C 
ATOM      4  C   UNL     1       2.993   0.019 -24.581  1.00  0.00     0.028 C 
ATOM      5  C   UNL     1       3.110  -2.073 -22.696  1.00  0.00     0.007 C 
ATOM      6  C   UNL     1       5.505   1.180 -25.735  1.00  0.00     0.013 C 
ATOM      7  C   UNL     1       2.960   1.053 -25.719  1.00  0.00    -0.064 C 
ATOM      8  C   UNL     1       2.371  -1.323 -25.048  1.00  0.00     0.015 C 
ATOM      9  C   UNL     1       2.076  -2.278 -23.847  1.00  0.00    -0.035 C 
ATOM     10  C   UNL     1       4.192   1.465 -26.550  1.00  0.00    -0.006 C 
ATOM     11  C   UNL     1       1.747   1.493 -26.096  1.00  0.00    -0.027 C 
ATOM     12  C   UNL     1       0.657  -2.010 -23.301  1.00  0.00     0.011 C 
ATOM     13  C   UNL     1       2.132  -3.739 -24.343  1.00  0.00     0.011 C 
ATOM     14  C   UNL     1       4.247   0.534 -27.805  1.00  0.00     0.017 C 
ATOM     15  C   UNL     1       4.067   3.029 -26.987  1.00  0.00    -0.020 C 
ATOM     16  C   UNL     1       1.557   2.246 -27.367  1.00  0.00     0.032 C 
ATOM     17  C   UNL     1       2.586   3.398 -27.523  1.00  0.00     0.006 C 
ATOM     18  C   UNL     1       4.449   3.962 -25.790  1.00  0.00     0.008 C 
ATOM     19  C   UNL     1       5.121   3.312 -28.112  1.00  0.00     0.012 C 
ATOM     20  C   UNL     1       1.968   4.800 -27.058  1.00  0.00    -0.025 C 
ATOM     21  C   UNL     1       4.179   5.474 -25.949  1.00  0.00     0.005 C 
ATOM     22  C   UNL     1       3.125   5.854 -27.014  1.00  0.00     0.003 C 
ATOM     23  C   UNL     1       0.915   5.253 -28.125  1.00  0.00     0.010 C 
ATOM     24  C   UNL     1       1.254   4.655 -25.678  1.00  0.00     0.012 C 
ATOM     25  C   UNL     1       2.745   7.404 -27.035  1.00  0.00    -0.006 C 
ATOM     26  C   UNL     1       0.465   6.703 -27.968  1.00  0.00     0.033 C 
ATOM     27  C   UNL     1       1.656   7.654 -28.123  1.00  0.00     0.120 C 
ATOM     28  C   UNL     1       4.004   8.216 -27.450  1.00  0.00     0.014 C 
ATOM     29  C   UNL     1       2.279   7.996 -25.670  1.00  0.00     0.014 C 
ENDROOT
BRANCH   1  30
ATOM     30  C   UNL     1       4.695   0.839 -22.858  1.00  0.00     0.048 C 
ATOM     31  O   UNL     1       3.844   1.737 -22.617  1.00  0.00    -0.550 OA
ATOM     32  O   UNL     1       5.878   0.830 -22.126  1.00  0.00    -0.550 OA
ENDBRANCH   1  30
BRANCH  27  33
ATOM     33  O   UNL     1       1.202   8.985 -28.075  1.00  0.00    -0.393 OA
ATOM     34  H   UNL     1       0.245   8.956 -27.812  1.00  0.00     0.210 HD
ENDBRANCH  27  33
TORSDOF 2
ENDMDL
MODEL 2
REMARK VINA RESULT:    -4.476      1.813      3.370
REMARK INTER + INTRA:          -5.130
REMARK INTER:                  -4.848
REMARK INTRA:                  -0.282
REMARK UNBOUND:                -0.261
REMARK SMILES CC1(C)CC[C@@]2(C(=O)[O-])CC[C@@]3(C)C(=CC[C@H]4[C@]5(C)CC[C@@H](O)C(C)(C)[C@H]5CC[C@]43C)[C@H]2C1
REMARK SMILES IDX 6 1 5 2 10 3 32 4 4 5 11 6 14 7 33 8 2 9 12 10 15 11 1 12
REMARK SMILES IDX 3 13 13 14 30 15 16 16 17 17 29 18 31 19 18 20 28 21 27 22
REMARK SMILES IDX 20 23 19 24 24 25 21 26 22 27 25 28 26 29 7 30 8 31 9 32
REMARK SMILES IDX 23 33
REMARK H PARENT 23 34
REMARK Flexibility Score: inf
ROOT
ATOM      1  C   UNL     1       3.565  -0.703 -23.448  1.00  0.00     0.017 C 
ATOM      2  C   UNL     1       3.870  -2.210 -23.137  1.00  0.00     0.014 C 
ATOM      3  C   UNL     1       3.898   0.121 -22.181  1.00  0.00     0.014 C 
ATOM      4  C   UNL     1       4.436  -0.188 -24.654  1.00  0.00     0.028 C 
ATOM      5  C   UNL     1       4.265  -2.989 -24.396  1.00  0.00     0.007 C 
ATOM      6  C   UNL     1       3.622   1.609 -22.397  1.00  0.00     0.013 C 
ATOM      7  C   UNL     1       4.658   1.332 -24.708  1.00  0.00    -0.064 C 
ATOM      8  C   UNL     1       5.792  -0.938 -24.712  1.00  0.00     0.015 C 
ATOM      9  C   UNL     1       5.604  -2.463 -25.000  1.00  0.00    -0.035 C 
ATOM     10  C   UNL     1       4.541   2.268 -23.488  1.00  0.00    -0.006 C 
ATOM     11  C   UNL     1       5.134   1.830 -25.863  1.00  0.00    -0.027 C 
ATOM     12  C   UNL     1       5.598  -2.711 -26.525  1.00  0.00     0.011 C 
ATOM     13  C   UNL     1       6.791  -3.238 -24.391  1.00  0.00     0.011 C 
ATOM     14  C   UNL     1       5.963   2.387 -22.847  1.00  0.00     0.017 C 
ATOM     15  C   UNL     1       3.988   3.726 -23.959  1.00  0.00    -0.020 C 
ATOM     16  C   UNL     1       5.677   3.215 -25.944  1.00  0.00     0.032 C 
ATOM     17  C   UNL     1       4.721   4.255 -25.299  1.00  0.00     0.006 C 
ATOM     18  C   UNL     1       2.439   3.675 -24.183  1.00  0.00     0.008 C 
ATOM     19  C   UNL     1       4.224   4.743 -22.791  1.00  0.00     0.012 C 
ATOM     20  C   UNL     1       3.806   4.969 -26.401  1.00  0.00    -0.025 C 
ATOM     21  C   UNL     1       1.772   4.902 -24.841  1.00  0.00     0.005 C 
ATOM     22  C   UNL     1       2.716   5.813 -25.660  1.00  0.00     0.003 C 
ATOM     23  C   UNL     1       4.707   5.937 -27.240  1.00  0.00     0.010 C 
ATOM     24  C   UNL     1       3.176   3.911 -27.361  1.00  0.00     0.012 C 
ATOM     25  C   UNL     1       1.970   6.972 -26.465  1.00  0.00    -0.006 C 
ATOM     26  C   UNL     1       3.919   6.899 -28.125  1.00  0.00     0.033 C 
ATOM     27  C   UNL     1       3.018   7.798 -27.271  1.00  0.00     0.120 C 
ATOM     28  C   UNL     1       1.312   7.940 -25.442  1.00  0.00     0.014 C 
ATOM     29  C   UNL     1       0.825   6.498 -27.411  1.00  0.00     0.014 C 
ENDROOT
BRANCH   1  30
ATOM     30  C   UNL     1       2.073  -0.579 -23.760  1.00  0.00     0.048 C 
ATOM     31  O   UNL     1       1.220  -1.005 -22.934  1.00  0.00    -0.550 OA
ATOM     32  O   UNL     1       1.621   0.016 -24.934  1.00  0.00    -0.550 OA
ENDBRANCH   1  30
BRANCH  27  33
ATOM     33  O   UNL     1       2.380   8.741 -28.097  1.00  0.00    -0.393 OA
ATOM     34  H   UNL     1       3.047   9.034 -28.772  1.00  0.00     0.210 HD
ENDBRANCH  27  33
TORSDOF 2
ENDMDL
