MODEL 1
REMARK VINA RESULT:    -4.241      0.000      0.000
REMARK INTER + INTRA:          -4.365
REMARK INTER:                  -4.365
REMARK INTRA:                   0.000
REMARK UNBOUND:                 0.000
REMARK SMILES Nc1ncnc2nc[nH]c12
REMARK SMILES IDX 8 1 7 2 6 3 5 4 4 5 3 6 2 7 10 8 9 9 1 11
REMARK H PARENT 9 10 1 12 1 13
REMARK Flexibility Score: inf
ROOT
ATOM      1  C   UNL     1      25.696   1.790   9.702  1.00  0.00     0.199 A 
ATOM      2  N   UNL     1      26.529   1.600  10.762  1.00  0.00    -0.217 NA
ATOM      3  C   UNL     1      27.711   2.007  10.273  1.00  0.00     0.182 A 
ATOM      4  N   UNL     1      28.895   2.025  10.930  1.00  0.00    -0.215 NA
ATOM      5  C   UNL     1      29.999   2.477  10.261  1.00  0.00     0.226 A 
ATOM      6  N   UNL     1      29.899   2.899   8.959  1.00  0.00    -0.217 NA
ATOM      7  C   UNL     1      28.705   2.883   8.295  1.00  0.00     0.152 A 
ATOM      8  C   UNL     1      27.592   2.419   8.990  1.00  0.00     0.127 A 
ATOM      9  N   UNL     1      26.315   2.290   8.604  1.00  0.00    -0.340 N 
ATOM     10  H   UNL     1      25.887   2.517   7.679  1.00  0.00     0.168 HD
ENDROOT
BRANCH   7  11
ATOM     11  N   UNL     1      28.625   3.327   6.940  1.00  0.00    -0.382 N 
ATOM     12  H   UNL     1      28.121   4.210   6.709  1.00  0.00     0.158 HD
ATOM     13  H   UNL     1      29.064   2.786   6.162  1.00  0.00     0.158 HD
ENDBRANCH   7  11
TORSDOF 1
ENDMDL
MODEL 2
REMARK VINA RESULT:    -4.148      1.278      2.646
REMARK INTER + INTRA:          -4.269
REMARK INTER:                  -4.269
REMARK INTRA:                   0.000
REMARK UNBOUND:                 0.000
REMARK SMILES Nc1ncnc2nc[nH]c12
REMARK SMILES IDX 8 1 7 2 6 3 5 4 4 5 3 6 2 7 10 8 9 9 1 11
REMARK H PARENT 9 10 1 12 1 13
REMARK Flexibility Score: inf
ROOT
ATOM      1  C   UNL     1      26.856   1.869  10.502  1.00  0.00     0.199 A 
ATOM      2  N   UNL     1      26.915   2.699   9.425  1.00  0.00    -0.217 NA
ATOM      3  C   UNL     1      28.236   2.883   9.278  1.00  0.00     0.182 A 
ATOM      4  N   UNL     1      28.848   3.639   8.335  1.00  0.00    -0.215 NA
ATOM      5  C   UNL     1      30.214   3.705   8.346  1.00  0.00     0.226 A 
ATOM      6  N   UNL     1      30.937   3.021   9.289  1.00  0.00    -0.217 NA
ATOM      7  C   UNL     1      30.322   2.257  10.241  1.00  0.00     0.152 A 
ATOM      8  C   UNL     1      28.931   2.200  10.217  1.00  0.00     0.127 A 
ATOM      9  N   UNL     1      28.071   1.546  11.009  1.00  0.00    -0.340 N 
ATOM     10  H   UNL     1      28.277   0.930  11.826  1.00  0.00     0.168 HD
ENDROOT
BRANCH   7  11
ATOM     11  N   UNL     1      31.095   1.552  11.213  1.00  0.00    -0.382 N 
ATOM     12  H   UNL     1      30.839   1.608  12.223  1.00  0.00     0.158 HD
ATOM     13  H   UNL     1      31.920   0.974  10.939  1.00  0.00     0.158 HD
ENDBRANCH   7  11
TORSDOF 1
ENDMDL
MODEL 3
REMARK VINA RESULT:    -4.113      1.733      3.473
REMARK INTER + INTRA:          -4.233
REMARK INTER:                  -4.233
REMARK INTRA:                   0.000
REMARK UNBOUND:                 0.000
REMARK SMILES Nc1ncnc2nc[nH]c12
REMARK SMILES IDX 8 1 7 2 6 3 5 4 4 5 3 6 2 7 10 8 9 9 1 11
REMARK H PARENT 9 10 1 12 1 13
REMARK Flexibility Score: inf
ROOT
ATOM      1  C   UNL     1      32.122   1.521   8.179  1.00  0.00     0.199 A 
ATOM      2  N   UNL     1      31.807   1.226   9.470  1.00  0.00    -0.217 NA
ATOM      3  C   UNL     1      30.534   1.643   9.556  1.00  0.00     0.182 A 
ATOM      4  N   UNL     1      29.734   1.580  10.647  1.00  0.00    -0.215 NA
ATOM      5  C   UNL     1      28.458   2.059  10.541  1.00  0.00     0.226 A 
ATOM      6  N   UNL     1      28.008   2.586   9.357  1.00  0.00    -0.217 NA
ATOM      7  C   UNL     1      28.813   2.651   8.255  1.00  0.00     0.152 A 
ATOM      8  C   UNL     1      30.110   2.160   8.379  1.00  0.00     0.127 A 
ATOM      9  N   UNL     1      31.106   2.093   7.486  1.00  0.00    -0.340 N 
ATOM     10  H   UNL     1      31.110   2.403   6.490  1.00  0.00     0.168 HD
ENDROOT
BRANCH   7  11
ATOM     11  N   UNL     1      28.324   3.204   7.033  1.00  0.00    -0.382 N 
ATOM     12  H   UNL     1      28.967   3.738   6.408  1.00  0.00     0.158 HD
ATOM     13  H   UNL     1      27.328   3.089   6.742  1.00  0.00     0.158 HD
ENDBRANCH   7  11
TORSDOF 1
ENDMDL
MODEL 4
REMARK VINA RESULT:    -4.108      1.212      3.036
REMARK INTER + INTRA:          -4.228
REMARK INTER:                  -4.228
REMARK INTRA:                   0.000
REMARK UNBOUND:                 0.000
REMARK SMILES Nc1ncnc2nc[nH]c12
REMARK SMILES IDX 8 1 7 2 6 3 5 4 4 5 3 6 2 7 10 8 9 9 1 11
REMARK H PARENT 9 10 1 12 1 13
REMARK Flexibility Score: inf
ROOT
ATOM      1  C   UNL     1      29.441   3.532   7.949  1.00  0.00     0.199 A 
ATOM      2  N   UNL     1      29.412   3.298   9.289  1.00  0.00    -0.217 NA
ATOM      3  C   UNL     1      28.307   2.547   9.424  1.00  0.00     0.182 A 
ATOM      4  N   UNL     1      27.813   2.034  10.576  1.00  0.00    -0.215 NA
ATOM      5  C   UNL     1      26.668   1.289  10.513  1.00  0.00     0.226 A 
ATOM      6  N   UNL     1      26.045   1.071   9.311  1.00  0.00    -0.217 NA
ATOM      7  C   UNL     1      26.543   1.586   8.147  1.00  0.00     0.152 A 
ATOM      8  C   UNL     1      27.708   2.343   8.228  1.00  0.00     0.127 A 
ATOM      9  N   UNL     1      28.413   2.962   7.273  1.00  0.00    -0.340 N 
ATOM     10  H   UNL     1      28.226   3.003   6.246  1.00  0.00     0.168 HD
ENDROOT
BRANCH   7  11
ATOM     11  N   UNL     1      25.877   1.345   6.906  1.00  0.00    -0.382 N 
ATOM     12  H   UNL     1      24.898   0.984   6.901  1.00  0.00     0.158 HD
ATOM     13  H   UNL     1      26.347   1.524   5.992  1.00  0.00     0.158 HD
ENDBRANCH   7  11
TORSDOF 1
ENDMDL
MODEL 5
REMARK VINA RESULT:    -3.791      1.206      3.691
REMARK INTER + INTRA:          -3.902
REMARK INTER:                  -3.902
REMARK INTRA:                   0.000
REMARK UNBOUND:                 0.000
REMARK SMILES Nc1ncnc2nc[nH]c12
REMARK SMILES IDX 8 1 7 2 6 3 5 4 4 5 3 6 2 7 10 8 9 9 1 11
REMARK H PARENT 9 10 1 12 1 13
REMARK Flexibility Score: inf
ROOT
ATOM      1  C   UNL     1      31.039   1.237  10.925  1.00  0.00     0.199 A 
ATOM      2  N   UNL     1      31.284   1.835   9.727  1.00  0.00    -0.217 NA
ATOM      3  C   UNL     1      30.045   2.027   9.245  1.00  0.00     0.182 A 
ATOM      4  N   UNL     1      29.718   2.598   8.061  1.00  0.00    -0.215 NA
ATOM      5  C   UNL     1      28.392   2.706   7.742  1.00  0.00     0.226 A 
ATOM      6  N   UNL     1      27.428   2.248   8.603  1.00  0.00    -0.217 NA
ATOM      7  C   UNL     1      27.757   1.673   9.798  1.00  0.00     0.152 A 
ATOM      8  C   UNL     1      29.110   1.569  10.109  1.00  0.00     0.127 A 
ATOM      9  N   UNL     1      29.720   1.061  11.187  1.00  0.00    -0.340 N 
ATOM     10  H   UNL     1      29.292   0.628  12.036  1.00  0.00     0.168 HD
ENDROOT
BRANCH   7  11
ATOM     11  N   UNL     1      26.736   1.203  10.680  1.00  0.00    -0.382 N 
ATOM     12  H   UNL     1      26.565   1.690  11.587  1.00  0.00     0.158 HD
ATOM     13  H   UNL     1      26.148   0.375  10.439  1.00  0.00     0.158 HD
ENDBRANCH   7  11
TORSDOF 1
ENDMDL
MODEL 6
REMARK VINA RESULT:    -3.756      8.874      9.746
REMARK INTER + INTRA:          -3.866
REMARK INTER:                  -3.866
REMARK INTRA:                   0.000
REMARK UNBOUND:                 0.000
REMARK SMILES Nc1ncnc2nc[nH]c12
REMARK SMILES IDX 8 1 7 2 6 3 5 4 4 5 3 6 2 7 10 8 9 9 1 11
REMARK H PARENT 9 10 1 12 1 13
REMARK Flexibility Score: inf
ROOT
ATOM      1  C   UNL     1      24.519   9.947   3.550  1.00  0.00     0.199 A 
ATOM      2  N   UNL     1      24.696   8.931   2.661  1.00  0.00    -0.217 NA
ATOM      3  C   UNL     1      23.888   7.978   3.151  1.00  0.00     0.182 A 
ATOM      4  N   UNL     1      23.687   6.742   2.633  1.00  0.00    -0.215 NA
ATOM      5  C   UNL     1      22.820   5.905   3.279  1.00  0.00     0.226 A 
ATOM      6  N   UNL     1      22.174   6.313   4.417  1.00  0.00    -0.217 NA
ATOM      7  C   UNL     1      22.374   7.560   4.941  1.00  0.00     0.152 A 
ATOM      8  C   UNL     1      23.260   8.401   4.273  1.00  0.00     0.127 A 
ATOM      9  N   UNL     1      23.648   9.653   4.547  1.00  0.00    -0.340 N 
ATOM     10  H   UNL     1      23.355  10.268   5.338  1.00  0.00     0.168 HD
ENDROOT
BRANCH   7  11
ATOM     11  N   UNL     1      21.691   7.964   6.128  1.00  0.00    -0.382 N 
ATOM     12  H   UNL     1      20.797   8.498   6.059  1.00  0.00     0.158 HD
ATOM     13  H   UNL     1      22.065   7.738   7.076  1.00  0.00     0.158 HD
ENDBRANCH   7  11
TORSDOF 1
ENDMDL
MODEL 7
REMARK VINA RESULT:    -3.576      9.450     10.453
REMARK INTER + INTRA:          -3.681
REMARK INTER:                  -3.681
REMARK INTRA:                   0.000
REMARK UNBOUND:                 0.000
REMARK SMILES Nc1ncnc2nc[nH]c12
REMARK SMILES IDX 8 1 7 2 6 3 5 4 4 5 3 6 2 7 10 8 9 9 1 11
REMARK H PARENT 9 10 1 12 1 13
REMARK Flexibility Score: inf
ROOT
ATOM      1  C   UNL     1      24.734  10.520   3.214  1.00  0.00     0.199 A 
ATOM      2  N   UNL     1      25.426  11.682   3.367  1.00  0.00    -0.217 NA
ATOM      3  C   UNL     1      26.696  11.284   3.192  1.00  0.00     0.182 A 
ATOM      4  N   UNL     1      27.802  12.064   3.241  1.00  0.00    -0.215 NA
ATOM      5  C   UNL     1      29.018  11.473   3.036  1.00  0.00     0.226 A 
ATOM      6  N   UNL     1      29.106  10.127   2.786  1.00  0.00    -0.217 NA
ATOM      7  C   UNL     1      27.991   9.339   2.734  1.00  0.00     0.152 A 
ATOM      8  C   UNL     1      26.760   9.955   2.946  1.00  0.00     0.127 A 
ATOM      9  N   UNL     1      25.521   9.446   2.956  1.00  0.00    -0.340 N 
ATOM     10  H   UNL     1      25.220   8.459   2.802  1.00  0.00     0.168 HD
ENDROOT
BRANCH   7  11
ATOM     11  N   UNL     1      28.105   7.940   2.472  1.00  0.00    -0.382 N 
ATOM     12  H   UNL     1      28.654   7.606   1.649  1.00  0.00     0.158 HD
ATOM     13  H   UNL     1      27.650   7.231   3.088  1.00  0.00     0.158 HD
ENDBRANCH   7  11
TORSDOF 1
ENDMDL
MODEL 8
REMARK VINA RESULT:    -3.574     10.345     11.820
REMARK INTER + INTRA:          -3.679
REMARK INTER:                  -3.679
REMARK INTRA:                   0.000
REMARK UNBOUND:                 0.000
REMARK SMILES Nc1ncnc2nc[nH]c12
REMARK SMILES IDX 8 1 7 2 6 3 5 4 4 5 3 6 2 7 10 8 9 9 1 11
REMARK H PARENT 9 10 1 12 1 13
REMARK Flexibility Score: inf
ROOT
ATOM      1  C   UNL     1      18.570   6.483   7.624  1.00  0.00     0.199 A 
ATOM      2  N   UNL     1      18.995   5.549   6.729  1.00  0.00    -0.217 NA
ATOM      3  C   UNL     1      18.675   6.113   5.554  1.00  0.00     0.182 A 
ATOM      4  N   UNL     1      18.887   5.591   4.322  1.00  0.00    -0.215 NA
ATOM      5  C   UNL     1      18.489   6.319   3.235  1.00  0.00     0.226 A 
ATOM      6  N   UNL     1      17.894   7.544   3.397  1.00  0.00    -0.217 NA
ATOM      7  C   UNL     1      17.681   8.073   4.638  1.00  0.00     0.152 A 
ATOM      8  C   UNL     1      18.091   7.320   5.735  1.00  0.00     0.127 A 
ATOM      9  N   UNL     1      18.013   7.577   7.047  1.00  0.00    -0.340 N 
ATOM     10  H   UNL     1      17.618   8.417   7.525  1.00  0.00     0.168 HD
ENDROOT
BRANCH   7  11
ATOM     11  N   UNL     1      17.059   9.351   4.783  1.00  0.00    -0.382 N 
ATOM     12  H   UNL     1      17.607  10.158   5.154  1.00  0.00     0.158 HD
ATOM     13  H   UNL     1      16.059   9.502   4.526  1.00  0.00     0.158 HD
ENDBRANCH   7  11
TORSDOF 1
ENDMDL
MODEL 9
REMARK VINA RESULT:    -3.550     10.824     12.363
REMARK INTER + INTRA:          -3.654
REMARK INTER:                  -3.654
REMARK INTRA:                   0.000
REMARK UNBOUND:                 0.000
REMARK SMILES Nc1ncnc2nc[nH]c12
REMARK SMILES IDX 8 1 7 2 6 3 5 4 4 5 3 6 2 7 10 8 9 9 1 11
REMARK H PARENT 9 10 1 12 1 13
REMARK Flexibility Score: inf
ROOT
ATOM      1  C   UNL     1      17.127   5.947   2.287  1.00  0.00     0.199 A 
ATOM      2  N   UNL     1      17.699   5.108   3.194  1.00  0.00    -0.217 NA
ATOM      3  C   UNL     1      18.015   5.944   4.196  1.00  0.00     0.182 A 
ATOM      4  N   UNL     1      18.616   5.615   5.364  1.00  0.00    -0.215 NA
ATOM      5  C   UNL     1      18.860   6.611   6.268  1.00  0.00     0.226 A 
ATOM      6  N   UNL     1      18.500   7.906   5.992  1.00  0.00    -0.217 NA
ATOM      7  C   UNL     1      17.892   8.240   4.814  1.00  0.00     0.152 A 
ATOM      8  C   UNL     1      17.652   7.214   3.904  1.00  0.00     0.127 A 
ATOM      9  N   UNL     1      17.084   7.240   2.691  1.00  0.00    -0.340 N 
ATOM     10  H   UNL     1      16.696   8.058   2.170  1.00  0.00     0.168 HD
ENDROOT
BRANCH   7  11
ATOM     11  N   UNL     1      17.526   9.594   4.547  1.00  0.00    -0.382 N 
ATOM     12  H   UNL     1      16.868   9.813   3.768  1.00  0.00     0.158 HD
ATOM     13  H   UNL     1      17.904  10.383   5.117  1.00  0.00     0.158 HD
ENDBRANCH   7  11
TORSDOF 1
ENDMDL
