MODEL 1
REMARK VINA RESULT:    -5.249      0.000      0.000
REMARK INTER + INTRA:          -8.477
REMARK INTER:                  -7.704
REMARK INTRA:                  -0.773
REMARK UNBOUND:                -0.773
REMARK SMILES CCCOC(=O)c1ccccc1C(=O)OCCC
REMARK SMILES IDX 7 1 8 2 9 3 10 4 11 5 12 6 5 7 6 8 4 9 3 10 2 11 1 12 13 13
REMARK SMILES IDX 14 14 15 15 16 16 17 17 18 18
REMARK H PARENT
REMARK Flexibility Score: inf
ROOT
ATOM      1  C   UNL     1     110.498  92.364 116.905  1.00  0.00     0.074 A 
ATOM      2  C   UNL     1     110.797  91.092 117.422  1.00  0.00     0.016 A 
ATOM      3  C   UNL     1     111.398  90.953 118.674  1.00  0.00     0.001 A 
ATOM      4  C   UNL     1     111.710  92.083 119.426  1.00  0.00     0.001 A 
ATOM      5  C   UNL     1     111.445  93.357 118.920  1.00  0.00     0.016 A 
ATOM      6  C   UNL     1     110.859  93.519 117.651  1.00  0.00     0.074 A 
ENDROOT
BRANCH   1   7
ATOM      7  C   UNL     1     109.764  92.438 115.624  1.00  0.00     0.339 C 
ATOM      8  O   UNL     1     110.372  92.755 114.564  1.00  0.00    -0.246 OA
BRANCH   7   9
ATOM      9  O   UNL     1     108.385  92.202 115.604  1.00  0.00    -0.462 OA
BRANCH   9  10
ATOM     10  C   UNL     1     107.547  92.364 116.746  1.00  0.00     0.233 C 
BRANCH  10  11
ATOM     11  C   UNL     1     107.138  90.999 117.308  1.00  0.00     0.038 C 
ATOM     12  C   UNL     1     107.289  90.957 118.824  1.00  0.00     0.007 C 
ENDBRANCH  10  11
ENDBRANCH   9  10
ENDBRANCH   7   9
ENDBRANCH   1   7
BRANCH   6  13
ATOM     13  C   UNL     1     110.711  94.892 117.113  1.00  0.00     0.339 C 
ATOM     14  O   UNL     1     111.720  95.647 117.036  1.00  0.00    -0.246 OA
BRANCH  13  15
ATOM     15  O   UNL     1     109.465  95.331 116.651  1.00  0.00    -0.462 OA
BRANCH  15  16
ATOM     16  C   UNL     1     108.505  95.990 117.474  1.00  0.00     0.233 C 
BRANCH  16  17
ATOM     17  C   UNL     1     107.917  97.202 116.747  1.00  0.00     0.038 C 
ATOM     18  C   UNL     1     108.559  98.499 117.228  1.00  0.00     0.007 C 
ENDBRANCH  16  17
ENDBRANCH  15  16
ENDBRANCH  13  15
ENDBRANCH   6  13
TORSDOF 8
ENDMDL
MODEL 2
REMARK VINA RESULT:    -5.168      1.747      4.068
REMARK INTER + INTRA:          -8.358
REMARK INTER:                  -7.649
REMARK INTRA:                  -0.709
REMARK UNBOUND:                -0.773
REMARK SMILES CCCOC(=O)c1ccccc1C(=O)OCCC
REMARK SMILES IDX 7 1 8 2 9 3 10 4 11 5 12 6 5 7 6 8 4 9 3 10 2 11 1 12 13 13
REMARK SMILES IDX 14 14 15 15 16 16 17 17 18 18
REMARK H PARENT
REMARK Flexibility Score: inf
ROOT
ATOM      1  C   UNL     1     109.885  92.150 117.614  1.00  0.00     0.074 A 
ATOM      2  C   UNL     1     109.210  91.263 118.471  1.00  0.00     0.016 A 
ATOM      3  C   UNL     1     107.897  90.876 118.205  1.00  0.00     0.001 A 
ATOM      4  C   UNL     1     107.237  91.370 117.081  1.00  0.00     0.001 A 
ATOM      5  C   UNL     1     107.881  92.271 116.232  1.00  0.00     0.016 A 
ATOM      6  C   UNL     1     109.199  92.691 116.494  1.00  0.00     0.074 A 
ENDROOT
BRANCH   1   7
ATOM      7  C   UNL     1     111.309  92.435 117.892  1.00  0.00     0.339 C 
ATOM      8  O   UNL     1     112.173  91.523 117.768  1.00  0.00    -0.246 OA
BRANCH   7   9
ATOM      9  O   UNL     1     111.683  93.707 118.338  1.00  0.00    -0.462 OA
BRANCH   9  10
ATOM     10  C   UNL     1     112.897  94.348 117.949  1.00  0.00     0.233 C 
BRANCH  10  11
ATOM     11  C   UNL     1     112.612  95.759 117.427  1.00  0.00     0.038 C 
ATOM     12  C   UNL     1     113.897  96.572 117.302  1.00  0.00     0.007 C 
ENDBRANCH  10  11
ENDBRANCH   9  10
ENDBRANCH   7   9
ENDBRANCH   1   7
BRANCH   6  13
ATOM     13  C   UNL     1     109.789  93.740 115.629  1.00  0.00     0.339 C 
ATOM     14  O   UNL     1     110.424  93.411 114.589  1.00  0.00    -0.246 OA
BRANCH  13  15
ATOM     15  O   UNL     1     109.604  95.091 115.945  1.00  0.00    -0.462 OA
BRANCH  15  16
ATOM     16  C   UNL     1     108.888  95.543 117.092  1.00  0.00     0.233 C 
BRANCH  16  17
ATOM     17  C   UNL     1     108.775  97.070 117.087  1.00  0.00     0.038 C 
ATOM     18  C   UNL     1     107.374  97.518 116.684  1.00  0.00     0.007 C 
ENDBRANCH  16  17
ENDBRANCH  15  16
ENDBRANCH  13  15
ENDBRANCH   6  13
TORSDOF 8
ENDMDL
MODEL 3
REMARK VINA RESULT:    -5.153      1.635      3.631
REMARK INTER + INTRA:          -8.335
REMARK INTER:                  -7.231
REMARK INTRA:                  -1.104
REMARK UNBOUND:                -0.773
REMARK SMILES CCCOC(=O)c1ccccc1C(=O)OCCC
REMARK SMILES IDX 7 1 8 2 9 3 10 4 11 5 12 6 5 7 6 8 4 9 3 10 2 11 1 12 13 13
REMARK SMILES IDX 14 14 15 15 16 16 17 17 18 18
REMARK H PARENT
REMARK Flexibility Score: inf
ROOT
ATOM      1  C   UNL     1     108.764  92.677 116.620  1.00  0.00     0.074 A 
ATOM      2  C   UNL     1     107.902  91.625 116.975  1.00  0.00     0.016 A 
ATOM      3  C   UNL     1     106.858  91.833 117.877  1.00  0.00     0.001 A 
ATOM      4  C   UNL     1     106.662  93.093 118.440  1.00  0.00     0.001 A 
ATOM      5  C   UNL     1     107.523  94.144 118.121  1.00  0.00     0.016 A 
ATOM      6  C   UNL     1     108.594  93.950 117.228  1.00  0.00     0.074 A 
ENDROOT
BRANCH   1   7
ATOM      7  C   UNL     1     109.781  92.419 115.578  1.00  0.00     0.339 C 
ATOM      8  O   UNL     1     109.517  92.651 114.366  1.00  0.00    -0.246 OA
BRANCH   7   9
ATOM      9  O   UNL     1     111.017  91.873 115.941  1.00  0.00    -0.462 OA
BRANCH   9  10
ATOM     10  C   UNL     1     111.196  91.027 117.075  1.00  0.00     0.233 C 
BRANCH  10  11
ATOM     11  C   UNL     1     112.128  91.690 118.094  1.00  0.00     0.038 C 
ATOM     12  C   UNL     1     111.380  92.055 119.372  1.00  0.00     0.007 C 
ENDBRANCH  10  11
ENDBRANCH   9  10
ENDBRANCH   7   9
ENDBRANCH   1   7
BRANCH   6  13
ATOM     13  C   UNL     1     109.548  95.065 117.019  1.00  0.00     0.339 C 
ATOM     14  O   UNL     1     109.196  96.073 116.345  1.00  0.00    -0.246 OA
BRANCH  13  15
ATOM     15  O   UNL     1     110.818  95.018 117.606  1.00  0.00    -0.462 OA
BRANCH  15  16
ATOM     16  C   UNL     1     112.032  95.176 116.874  1.00  0.00     0.233 C 
BRANCH  16  17
ATOM     17  C   UNL     1     113.175  95.572 117.812  1.00  0.00     0.038 C 
ATOM     18  C   UNL     1     113.804  96.895 117.388  1.00  0.00     0.007 C 
ENDBRANCH  16  17
ENDBRANCH  15  16
ENDBRANCH  13  15
ENDBRANCH   6  13
TORSDOF 8
ENDMDL
MODEL 4
REMARK VINA RESULT:    -5.137      1.724      4.028
REMARK INTER + INTRA:          -8.313
REMARK INTER:                  -7.660
REMARK INTRA:                  -0.653
REMARK UNBOUND:                -0.773
REMARK SMILES CCCOC(=O)c1ccccc1C(=O)OCCC
REMARK SMILES IDX 7 1 8 2 9 3 10 4 11 5 12 6 5 7 6 8 4 9 3 10 2 11 1 12 13 13
REMARK SMILES IDX 14 14 15 15 16 16 17 17 18 18
REMARK H PARENT
REMARK Flexibility Score: inf
ROOT
ATOM      1  C   UNL     1     109.185  92.831 116.555  1.00  0.00     0.074 A 
ATOM      2  C   UNL     1     107.890  92.361 116.274  1.00  0.00     0.016 A 
ATOM      3  C   UNL     1     107.284  91.409 117.095  1.00  0.00     0.001 A 
ATOM      4  C   UNL     1     107.962  90.911 118.205  1.00  0.00     0.001 A 
ATOM      5  C   UNL     1     109.259  91.345 118.486  1.00  0.00     0.016 A 
ATOM      6  C   UNL     1     109.896  92.289 117.660  1.00  0.00     0.074 A 
ENDROOT
BRANCH   1   7
ATOM      7  C   UNL     1     109.727  93.917 115.711  1.00  0.00     0.339 C 
ATOM      8  O   UNL     1     110.356  93.642 114.652  1.00  0.00    -0.246 OA
BRANCH   7   9
ATOM      9  O   UNL     1     109.579  95.247 116.120  1.00  0.00    -0.462 OA
BRANCH   9  10
ATOM     10  C   UNL     1     108.772  95.640 117.228  1.00  0.00     0.233 C 
BRANCH  10  11
ATOM     11  C   UNL     1     107.912  96.853 116.860  1.00  0.00     0.038 C 
ATOM     12  C   UNL     1     108.631  98.159 117.184  1.00  0.00     0.007 C 
ENDBRANCH  10  11
ENDBRANCH   9  10
ENDBRANCH   7   9
ENDBRANCH   1   7
BRANCH   6  13
ATOM     13  C   UNL     1     111.314  92.624 117.934  1.00  0.00     0.339 C 
ATOM     14  O   UNL     1     112.209  91.753 117.754  1.00  0.00    -0.246 OA
BRANCH  13  15
ATOM     15  O   UNL     1     111.659  93.915 118.350  1.00  0.00    -0.462 OA
BRANCH  15  16
ATOM     16  C   UNL     1     112.901  94.540 118.034  1.00  0.00     0.233 C 
BRANCH  16  17
ATOM     17  C   UNL     1     112.670  95.793 117.185  1.00  0.00     0.038 C 
ATOM     18  C   UNL     1     113.986  96.356 116.661  1.00  0.00     0.007 C 
ENDBRANCH  16  17
ENDBRANCH  15  16
ENDBRANCH  13  15
ENDBRANCH   6  13
TORSDOF 8
ENDMDL
MODEL 5
REMARK VINA RESULT:    -5.097      0.204      4.302
REMARK INTER + INTRA:          -8.253
REMARK INTER:                  -7.578
REMARK INTRA:                  -0.676
REMARK UNBOUND:                -0.773
REMARK SMILES CCCOC(=O)c1ccccc1C(=O)OCCC
REMARK SMILES IDX 7 1 8 2 9 3 10 4 11 5 12 6 5 7 6 8 4 9 3 10 2 11 1 12 13 13
REMARK SMILES IDX 14 14 15 15 16 16 17 17 18 18
REMARK H PARENT
REMARK Flexibility Score: inf
ROOT
ATOM      1  C   UNL     1     110.977  93.531 117.485  1.00  0.00     0.074 A 
ATOM      2  C   UNL     1     111.655  93.371 118.706  1.00  0.00     0.016 A 
ATOM      3  C   UNL     1     111.995  92.101 119.172  1.00  0.00     0.001 A 
ATOM      4  C   UNL     1     111.661  90.972 118.428  1.00  0.00     0.001 A 
ATOM      5  C   UNL     1     110.965  91.107 117.225  1.00  0.00     0.016 A 
ATOM      6  C   UNL     1     110.594  92.378 116.747  1.00  0.00     0.074 A 
ENDROOT
BRANCH   1   7
ATOM      7  C   UNL     1     110.743  94.906 116.996  1.00  0.00     0.339 C 
ATOM      8  O   UNL     1     111.683  95.747 116.998  1.00  0.00    -0.246 OA
BRANCH   7   9
ATOM      9  O   UNL     1     109.461  95.280 116.576  1.00  0.00    -0.462 OA
BRANCH   9  10
ATOM     10  C   UNL     1     108.527  95.953 117.418  1.00  0.00     0.233 C 
BRANCH  10  11
ATOM     11  C   UNL     1     108.024  97.232 116.742  1.00  0.00     0.038 C 
ATOM     12  C   UNL     1     108.712  98.467 117.313  1.00  0.00     0.007 C 
ENDBRANCH  10  11
ENDBRANCH   9  10
ENDBRANCH   7   9
ENDBRANCH   1   7
BRANCH   6  13
ATOM     13  C   UNL     1     109.752  92.455 115.530  1.00  0.00     0.339 C 
ATOM     14  O   UNL     1     110.242  92.903 114.457  1.00  0.00    -0.246 OA
BRANCH  13  15
ATOM     15  O   UNL     1     108.432  91.992 115.564  1.00  0.00    -0.462 OA
BRANCH  15  16
ATOM     16  C   UNL     1     107.547  92.207 116.661  1.00  0.00     0.233 C 
BRANCH  16  17
ATOM     17  C   UNL     1     107.175  90.875 117.319  1.00  0.00     0.038 C 
ATOM     18  C   UNL     1     107.305  90.953 118.836  1.00  0.00     0.007 C 
ENDBRANCH  16  17
ENDBRANCH  15  16
ENDBRANCH  13  15
ENDBRANCH   6  13
TORSDOF 8
ENDMDL
MODEL 6
REMARK VINA RESULT:    -5.093      1.635      5.245
REMARK INTER + INTRA:          -8.247
REMARK INTER:                  -7.095
REMARK INTRA:                  -1.153
REMARK UNBOUND:                -0.773
REMARK SMILES CCCOC(=O)c1ccccc1C(=O)OCCC
REMARK SMILES IDX 7 1 8 2 9 3 10 4 11 5 12 6 5 7 6 8 4 9 3 10 2 11 1 12 13 13
REMARK SMILES IDX 14 14 15 15 16 16 17 17 18 18
REMARK H PARENT
REMARK Flexibility Score: inf
ROOT
ATOM      1  C   UNL     1     108.651  93.965 117.220  1.00  0.00     0.074 A 
ATOM      2  C   UNL     1     107.577  94.185 118.100  1.00  0.00     0.016 A 
ATOM      3  C   UNL     1     106.697  93.152 118.422  1.00  0.00     0.001 A 
ATOM      4  C   UNL     1     106.874  91.886 117.869  1.00  0.00     0.001 A 
ATOM      5  C   UNL     1     107.919  91.653 116.973  1.00  0.00     0.016 A 
ATOM      6  C   UNL     1     108.806  92.687 116.618  1.00  0.00     0.074 A 
ENDROOT
BRANCH   1   7
ATOM      7  C   UNL     1     109.610  95.070 117.004  1.00  0.00     0.339 C 
ATOM      8  O   UNL     1     109.304  96.035 116.250  1.00  0.00    -0.246 OA
BRANCH   7   9
ATOM      9  O   UNL     1     110.873  95.014 117.604  1.00  0.00    -0.462 OA
BRANCH   9  10
ATOM     10  C   UNL     1     112.092  95.104 116.869  1.00  0.00     0.233 C 
BRANCH  10  11
ATOM     11  C   UNL     1     113.237  95.544 117.787  1.00  0.00     0.038 C 
ATOM     12  C   UNL     1     113.766  96.918 117.391  1.00  0.00     0.007 C 
ENDBRANCH  10  11
ENDBRANCH   9  10
ENDBRANCH   7   9
ENDBRANCH   1   7
BRANCH   6  13
ATOM     13  C   UNL     1     109.820  92.417 115.572  1.00  0.00     0.339 C 
ATOM     14  O   UNL     1     109.561  92.677 114.365  1.00  0.00    -0.246 OA
BRANCH  13  15
ATOM     15  O   UNL     1     111.078  91.917 115.931  1.00  0.00    -0.462 OA
BRANCH  15  16
ATOM     16  C   UNL     1     111.281  90.969 116.976  1.00  0.00     0.233 C 
BRANCH  16  17
ATOM     17  C   UNL     1     112.175  91.560 118.070  1.00  0.00     0.038 C 
ATOM     18  C   UNL     1     111.348  92.036 119.260  1.00  0.00     0.007 C 
ENDBRANCH  16  17
ENDBRANCH  15  16
ENDBRANCH  13  15
ENDBRANCH   6  13
TORSDOF 8
ENDMDL
MODEL 7
REMARK VINA RESULT:    -5.088      1.791      4.754
REMARK INTER + INTRA:          -8.241
REMARK INTER:                  -7.429
REMARK INTRA:                  -0.812
REMARK UNBOUND:                -0.773
REMARK SMILES CCCOC(=O)c1ccccc1C(=O)OCCC
REMARK SMILES IDX 7 1 8 2 9 3 10 4 11 5 12 6 5 7 6 8 4 9 3 10 2 11 1 12 13 13
REMARK SMILES IDX 14 14 15 15 16 16 17 17 18 18
REMARK H PARENT
REMARK Flexibility Score: inf
ROOT
ATOM      1  C   UNL     1     111.183  93.458 117.802  1.00  0.00     0.074 A 
ATOM      2  C   UNL     1     111.759  93.275 119.071  1.00  0.00     0.016 A 
ATOM      3  C   UNL     1     111.805  92.009 119.656  1.00  0.00     0.001 A 
ATOM      4  C   UNL     1     111.275  90.910 118.985  1.00  0.00     0.001 A 
ATOM      5  C   UNL     1     110.674  91.075 117.736  1.00  0.00     0.016 A 
ATOM      6  C   UNL     1     110.599  92.346 117.136  1.00  0.00     0.074 A 
ENDROOT
BRANCH   1   7
ATOM      7  C   UNL     1     111.263  94.802 117.191  1.00  0.00     0.339 C 
ATOM      8  O   UNL     1     110.216  95.491 117.040  1.00  0.00    -0.246 OA
BRANCH   7   9
ATOM      9  O   UNL     1     112.497  95.283 116.740  1.00  0.00    -0.462 OA
BRANCH   9  10
ATOM     10  C   UNL     1     113.203  96.347 117.375  1.00  0.00     0.233 C 
BRANCH  10  11
ATOM     11  C   UNL     1     114.669  96.355 116.933  1.00  0.00     0.038 C 
ATOM     12  C   UNL     1     114.792  96.591 115.432  1.00  0.00     0.007 C 
ENDBRANCH  10  11
ENDBRANCH   9  10
ENDBRANCH   7   9
ENDBRANCH   1   7
BRANCH   6  13
ATOM     13  C   UNL     1     109.845  92.484 115.868  1.00  0.00     0.339 C 
ATOM     14  O   UNL     1     110.427  92.277 114.767  1.00  0.00    -0.246 OA
BRANCH  13  15
ATOM     15  O   UNL     1     108.481  92.799 115.897  1.00  0.00    -0.462 OA
BRANCH  15  16
ATOM     16  C   UNL     1     107.487  91.953 116.469  1.00  0.00     0.233 C 
BRANCH  16  17
ATOM     17  C   UNL     1     106.954  92.557 117.771  1.00  0.00     0.038 C 
ATOM     18  C   UNL     1     107.117  94.073 117.785  1.00  0.00     0.007 C 
ENDBRANCH  16  17
ENDBRANCH  15  16
ENDBRANCH  13  15
ENDBRANCH   6  13
TORSDOF 8
ENDMDL
MODEL 8
REMARK VINA RESULT:    -5.087      2.306      5.139
REMARK INTER + INTRA:          -8.239
REMARK INTER:                  -6.861
REMARK INTRA:                  -1.378
REMARK UNBOUND:                -0.773
REMARK SMILES CCCOC(=O)c1ccccc1C(=O)OCCC
REMARK SMILES IDX 7 1 8 2 9 3 10 4 11 5 12 6 5 7 6 8 4 9 3 10 2 11 1 12 13 13
REMARK SMILES IDX 14 14 15 15 16 16 17 17 18 18
REMARK H PARENT
REMARK Flexibility Score: inf
ROOT
ATOM      1  C   UNL     1     110.422  93.708 116.778  1.00  0.00     0.074 A 
ATOM      2  C   UNL     1     110.389  94.466 115.595  1.00  0.00     0.016 A 
ATOM      3  C   UNL     1     110.265  93.844 114.353  1.00  0.00     0.001 A 
ATOM      4  C   UNL     1     110.175  92.456 114.273  1.00  0.00     0.001 A 
ATOM      5  C   UNL     1     110.231  91.683 115.434  1.00  0.00     0.016 A 
ATOM      6  C   UNL     1     110.376  92.289 116.696  1.00  0.00     0.074 A 
ENDROOT
BRANCH   1   7
ATOM      7  C   UNL     1     110.445  94.432 118.067  1.00  0.00     0.339 C 
ATOM      8  O   UNL     1     109.395  94.979 118.505  1.00  0.00    -0.246 OA
BRANCH   7   9
ATOM      9  O   UNL     1     111.648  94.548 118.772  1.00  0.00    -0.462 OA
BRANCH   9  10
ATOM     10  C   UNL     1     112.925  94.598 118.137  1.00  0.00     0.233 C 
BRANCH  10  11
ATOM     11  C   UNL     1     113.261  96.035 117.725  1.00  0.00     0.038 C 
ATOM     12  C   UNL     1     113.980  96.070 116.381  1.00  0.00     0.007 C 
ENDBRANCH  10  11
ENDBRANCH   9  10
ENDBRANCH   7   9
ENDBRANCH   1   7
BRANCH   6  13
ATOM     13  C   UNL     1     110.553  91.418 117.881  1.00  0.00     0.339 C 
ATOM     14  O   UNL     1     111.708  91.026 118.205  1.00  0.00    -0.246 OA
BRANCH  13  15
ATOM     15  O   UNL     1     109.444  91.068 118.663  1.00  0.00    -0.462 OA
BRANCH  15  16
ATOM     16  C   UNL     1     108.133  90.881 118.134  1.00  0.00     0.233 C 
BRANCH  16  17
ATOM     17  C   UNL     1     107.247  92.085 118.462  1.00  0.00     0.038 C 
ATOM     18  C   UNL     1     106.880  92.861 117.202  1.00  0.00     0.007 C 
ENDBRANCH  16  17
ENDBRANCH  15  16
ENDBRANCH  13  15
ENDBRANCH   6  13
TORSDOF 8
ENDMDL
MODEL 9
REMARK VINA RESULT:    -5.069      1.779      2.805
REMARK INTER + INTRA:          -8.213
REMARK INTER:                  -7.369
REMARK INTRA:                  -0.844
REMARK UNBOUND:                -0.773
REMARK SMILES CCCOC(=O)c1ccccc1C(=O)OCCC
REMARK SMILES IDX 7 1 8 2 9 3 10 4 11 5 12 6 5 7 6 8 4 9 3 10 2 11 1 12 13 13
REMARK SMILES IDX 14 14 15 15 16 16 17 17 18 18
REMARK H PARENT
REMARK Flexibility Score: inf
ROOT
ATOM      1  C   UNL     1     110.622  92.299 117.150  1.00  0.00     0.074 A 
ATOM      2  C   UNL     1     110.682  91.036 117.764  1.00  0.00     0.016 A 
ATOM      3  C   UNL     1     111.251  90.885 119.029  1.00  0.00     0.001 A 
ATOM      4  C   UNL     1     111.771  91.992 119.697  1.00  0.00     0.001 A 
ATOM      5  C   UNL     1     111.744  93.250 119.093  1.00  0.00     0.016 A 
ATOM      6  C   UNL     1     111.193  93.421 117.810  1.00  0.00     0.074 A 
ENDROOT
BRANCH   1   7
ATOM      7  C   UNL     1     109.909  92.409 115.859  1.00  0.00     0.339 C 
ATOM      8  O   UNL     1     110.517  92.173 114.779  1.00  0.00    -0.246 OA
BRANCH   7   9
ATOM      9  O   UNL     1     108.573  92.824 115.842  1.00  0.00    -0.462 OA
BRANCH   9  10
ATOM     10  C   UNL     1     107.502  92.033 116.353  1.00  0.00     0.233 C 
BRANCH  10  11
ATOM     11  C   UNL     1     107.035  92.576 117.707  1.00  0.00     0.038 C 
ATOM     12  C   UNL     1     107.083  94.099 117.738  1.00  0.00     0.007 C 
ENDBRANCH  10  11
ENDBRANCH   9  10
ENDBRANCH   7   9
ENDBRANCH   1   7
BRANCH   6  13
ATOM     13  C   UNL     1     111.300  94.752 117.167  1.00  0.00     0.339 C 
ATOM     14  O   UNL     1     110.262  95.446 116.986  1.00  0.00    -0.246 OA
BRANCH  13  15
ATOM     15  O   UNL     1     112.556  95.253 116.804  1.00  0.00    -0.462 OA
BRANCH  15  16
ATOM     16  C   UNL     1     113.251  96.253 117.546  1.00  0.00     0.233 C 
BRANCH  16  17
ATOM     17  C   UNL     1     114.677  96.422 117.013  1.00  0.00     0.038 C 
ATOM     18  C   UNL     1     114.695  96.459 115.488  1.00  0.00     0.007 C 
ENDBRANCH  16  17
ENDBRANCH  15  16
ENDBRANCH  13  15
ENDBRANCH   6  13
TORSDOF 8
ENDMDL
