MODEL 1
REMARK VINA RESULT:    -5.708      0.000      0.000
REMARK INTER + INTRA:          -7.895
REMARK INTER:                  -7.377
REMARK INTRA:                  -0.518
REMARK UNBOUND:                -0.518
REMARK SMILES CCO[C@H]1O[C@@H](CO)[C@@H](O)[C@@H](O)[C@@H]1O
REMARK SMILES IDX 4 1 13 2 11 3 9 4 6 5 5 6 3 7 2 8 1 9 14 10 12 12 7 14 8 15
REMARK SMILES IDX 10 17
REMARK H PARENT 14 11 12 13 8 16 10 18
REMARK Flexibility Score: inf
ROOT
ATOM      1  C   UNL     1      -5.366   9.786  21.994  1.00  0.00     0.281 C 
ATOM      2  C   UNL     1      -5.148   8.543  21.099  1.00  0.00     0.202 C 
ATOM      3  C   UNL     1      -4.337   7.449  21.840  1.00  0.00     0.179 C 
ATOM      4  C   UNL     1      -3.384   8.094  22.863  1.00  0.00     0.177 C 
ATOM      5  C   UNL     1      -4.179   9.011  23.858  1.00  0.00     0.178 C 
ATOM      6  O   UNL     1      -5.456   9.382  23.349  1.00  0.00    -0.341 OA
ENDROOT
BRANCH   1   7
ATOM      7  O   UNL     1      -6.575  10.415  21.612  1.00  0.00    -0.350 OA
BRANCH   7   8
ATOM      8  C   UNL     1      -7.685   9.826  22.263  1.00  0.00     0.160 C 
ATOM      9  C   UNL     1      -8.540   9.061  21.258  1.00  0.00     0.035 C 
ENDBRANCH   7   8
ENDBRANCH   1   7
BRANCH   2  10
ATOM     10  O   UNL     1      -4.478   8.938  19.930  1.00  0.00    -0.385 OA
ATOM     11  H   UNL     1      -4.266   9.902  20.031  1.00  0.00     0.211 HD
ENDBRANCH   2  10
BRANCH   3  12
ATOM     12  O   UNL     1      -5.225   6.575  22.490  1.00  0.00    -0.387 OA
ATOM     13  H   UNL     1      -4.789   5.683  22.518  1.00  0.00     0.211 HD
ENDBRANCH   3  12
BRANCH   5  14
ATOM     14  C   UNL     1      -4.388   8.352  25.234  1.00  0.00     0.191 C 
BRANCH  14  15
ATOM     15  O   UNL     1      -5.300   7.290  25.133  1.00  0.00    -0.394 OA
ATOM     16  H   UNL     1      -5.601   7.081  26.056  1.00  0.00     0.210 HD
ENDBRANCH  14  15
ENDBRANCH   5  14
BRANCH   4  17
ATOM     17  O   UNL     1      -2.643   7.096  23.520  1.00  0.00    -0.387 OA
ATOM     18  H   UNL     1      -3.223   6.291  23.562  1.00  0.00     0.211 HD
ENDBRANCH   4  17
TORSDOF 7
ENDMDL
MODEL 2
REMARK VINA RESULT:    -5.538      1.750      4.352
REMARK INTER + INTRA:          -7.676
REMARK INTER:                  -7.138
REMARK INTRA:                  -0.538
REMARK UNBOUND:                -0.518
REMARK SMILES CCO[C@H]1O[C@@H](CO)[C@@H](O)[C@@H](O)[C@@H]1O
REMARK SMILES IDX 4 1 13 2 11 3 9 4 6 5 5 6 3 7 2 8 1 9 14 10 12 12 7 14 8 15
REMARK SMILES IDX 10 17
REMARK H PARENT 14 11 12 13 8 16 10 18
REMARK Flexibility Score: inf
ROOT
ATOM      1  C   UNL     1      -3.005   7.661  24.203  1.00  0.00     0.281 C 
ATOM      2  C   UNL     1      -2.455   7.527  22.764  1.00  0.00     0.202 C 
ATOM      3  C   UNL     1      -3.568   7.755  21.710  1.00  0.00     0.179 C 
ATOM      4  C   UNL     1      -4.934   7.325  22.276  1.00  0.00     0.177 C 
ATOM      5  C   UNL     1      -5.234   8.075  23.621  1.00  0.00     0.178 C 
ATOM      6  O   UNL     1      -4.058   8.609  24.220  1.00  0.00    -0.341 OA
ENDROOT
BRANCH   1   7
ATOM      7  O   UNL     1      -1.961   8.107  25.049  1.00  0.00    -0.350 OA
BRANCH   7   8
ATOM      8  C   UNL     1      -2.422   8.290  26.375  1.00  0.00     0.160 C 
ATOM      9  C   UNL     1      -1.990   9.655  26.898  1.00  0.00     0.035 C 
ENDBRANCH   7   8
ENDBRANCH   1   7
BRANCH   2  10
ATOM     10  O   UNL     1      -1.893   6.249  22.609  1.00  0.00    -0.385 OA
ATOM     11  H   UNL     1      -2.228   5.694  23.362  1.00  0.00     0.211 HD
ENDBRANCH   2  10
BRANCH   3  12
ATOM     12  O   UNL     1      -3.599   9.115  21.355  1.00  0.00    -0.387 OA
ATOM     13  H   UNL     1      -3.018   9.221  20.556  1.00  0.00     0.211 HD
ENDBRANCH   3  12
BRANCH   5  14
ATOM     14  C   UNL     1      -6.243   9.225  23.447  1.00  0.00     0.191 C 
BRANCH  14  15
ATOM     15  O   UNL     1      -5.610  10.352  22.904  1.00  0.00    -0.394 OA
ATOM     16  H   UNL     1      -5.807  11.114  23.509  1.00  0.00     0.210 HD
ENDBRANCH  14  15
ENDBRANCH   5  14
BRANCH   4  17
ATOM     17  O   UNL     1      -5.936   7.522  21.310  1.00  0.00    -0.387 OA
ATOM     18  H   UNL     1      -6.308   8.430  21.467  1.00  0.00     0.211 HD
ENDBRANCH   4  17
TORSDOF 7
ENDMDL
MODEL 3
REMARK VINA RESULT:    -5.464     10.238     11.267
REMARK INTER + INTRA:          -7.580
REMARK INTER:                  -6.952
REMARK INTRA:                  -0.628
REMARK UNBOUND:                -0.518
REMARK SMILES CCO[C@H]1O[C@@H](CO)[C@@H](O)[C@@H](O)[C@@H]1O
REMARK SMILES IDX 4 1 13 2 11 3 9 4 6 5 5 6 3 7 2 8 1 9 14 10 12 12 7 14 8 15
REMARK SMILES IDX 10 17
REMARK H PARENT 14 11 12 13 8 16 10 18
REMARK Flexibility Score: inf
ROOT
ATOM      1  C   UNL     1      -0.369  17.385  22.629  1.00  0.00     0.281 C 
ATOM      2  C   UNL     1      -0.295  18.815  23.215  1.00  0.00     0.202 C 
ATOM      3  C   UNL     1       0.386  18.820  24.607  1.00  0.00     0.179 C 
ATOM      4  C   UNL     1       0.136  17.483  25.328  1.00  0.00     0.177 C 
ATOM      5  C   UNL     1       0.617  16.280  24.442  1.00  0.00     0.178 C 
ATOM      6  O   UNL     1       0.749  16.635  23.070  1.00  0.00    -0.341 OA
ENDROOT
BRANCH   1   7
ATOM      7  O   UNL     1      -0.347  17.471  21.216  1.00  0.00    -0.350 OA
BRANCH   7   8
ATOM      8  C   UNL     1       0.673  18.347  20.774  1.00  0.00     0.160 C 
ATOM      9  C   UNL     1       0.383  18.818  19.353  1.00  0.00     0.035 C 
ENDBRANCH   7   8
ENDBRANCH   1   7
BRANCH   2  10
ATOM     10  O   UNL     1      -1.596  19.336  23.307  1.00  0.00    -0.385 OA
ATOM     11  H   UNL     1      -1.642  20.108  22.685  1.00  0.00     0.211 HD
ENDBRANCH   2  10
BRANCH   3  12
ATOM     12  O   UNL     1       1.767  19.031  24.447  1.00  0.00    -0.387 OA
ATOM     13  H   UNL     1       2.114  18.282  23.896  1.00  0.00     0.211 HD
ENDBRANCH   3  12
BRANCH   5  14
ATOM     14  C   UNL     1       1.961  15.696  24.914  1.00  0.00     0.191 C 
BRANCH  14  15
ATOM     15  O   UNL     1       2.988  16.636  24.743  1.00  0.00    -0.394 OA
ATOM     16  H   UNL     1       2.554  17.522  24.632  1.00  0.00     0.210 HD
ENDBRANCH  14  15
ENDBRANCH   5  14
BRANCH   4  17
ATOM     17  O   UNL     1       0.745  17.501  26.595  1.00  0.00    -0.387 OA
ATOM     18  H   UNL     1       1.009  16.564  26.797  1.00  0.00     0.211 HD
ENDBRANCH   4  17
TORSDOF 7
ENDMDL
MODEL 4
REMARK VINA RESULT:    -5.253      1.650      4.222
REMARK INTER + INTRA:          -7.307
REMARK INTER:                  -6.962
REMARK INTRA:                  -0.345
REMARK UNBOUND:                -0.518
REMARK SMILES CCO[C@H]1O[C@@H](CO)[C@@H](O)[C@@H](O)[C@@H]1O
REMARK SMILES IDX 4 1 13 2 11 3 9 4 6 5 5 6 3 7 2 8 1 9 14 10 12 12 7 14 8 15
REMARK SMILES IDX 10 17
REMARK H PARENT 14 11 12 13 8 16 10 18
REMARK Flexibility Score: inf
ROOT
ATOM      1  C   UNL     1      -4.270   8.924  24.505  1.00  0.00     0.281 C 
ATOM      2  C   UNL     1      -5.665   8.771  23.856  1.00  0.00     0.202 C 
ATOM      3  C   UNL     1      -5.561   8.190  22.423  1.00  0.00     0.179 C 
ATOM      4  C   UNL     1      -4.225   8.601  21.778  1.00  0.00     0.177 C 
ATOM      5  C   UNL     1      -3.018   8.162  22.680  1.00  0.00     0.178 C 
ATOM      6  O   UNL     1      -3.411   7.906  24.024  1.00  0.00    -0.341 OA
ENDROOT
BRANCH   1   7
ATOM      7  O   UNL     1      -4.405   8.798  25.909  1.00  0.00    -0.350 OA
BRANCH   7   8
ATOM      8  C   UNL     1      -3.235   8.248  26.486  1.00  0.00     0.160 C 
ATOM      9  C   UNL     1      -3.353   8.238  28.006  1.00  0.00     0.035 C 
ENDBRANCH   7   8
ENDBRANCH   1   7
BRANCH   2  10
ATOM     10  O   UNL     1      -6.293  10.027  23.827  1.00  0.00    -0.385 OA
ATOM     11  H   UNL     1      -7.042   9.960  23.179  1.00  0.00     0.211 HD
ENDBRANCH   2  10
BRANCH   3  12
ATOM     12  O   UNL     1      -5.658   6.789  22.483  1.00  0.00    -0.387 OA
ATOM     13  H   UNL     1      -4.861   6.463  22.978  1.00  0.00     0.211 HD
ENDBRANCH   3  12
BRANCH   5  14
ATOM     14  C   UNL     1      -2.303   6.908  22.145  1.00  0.00     0.191 C 
BRANCH  14  15
ATOM     15  O   UNL     1      -1.280   7.270  21.256  1.00  0.00    -0.394 OA
ATOM     16  H   UNL     1      -0.697   6.474  21.148  1.00  0.00     0.210 HD
ENDBRANCH  14  15
ENDBRANCH   5  14
BRANCH   4  17
ATOM     17  O   UNL     1      -4.144   8.082  20.474  1.00  0.00    -0.387 OA
ATOM     18  H   UNL     1      -3.791   7.157  20.557  1.00  0.00     0.211 HD
ENDBRANCH   4  17
TORSDOF 7
ENDMDL
MODEL 5
REMARK VINA RESULT:    -5.237      9.314     10.665
REMARK INTER + INTRA:          -7.286
REMARK INTER:                  -6.711
REMARK INTRA:                  -0.575
REMARK UNBOUND:                -0.518
REMARK SMILES CCO[C@H]1O[C@@H](CO)[C@@H](O)[C@@H](O)[C@@H]1O
REMARK SMILES IDX 4 1 13 2 11 3 9 4 6 5 5 6 3 7 2 8 1 9 14 10 12 12 7 14 8 15
REMARK SMILES IDX 10 17
REMARK H PARENT 14 11 12 13 8 16 10 18
REMARK Flexibility Score: inf
ROOT
ATOM      1  C   UNL     1       0.704  15.217  25.049  1.00  0.00     0.281 C 
ATOM      2  C   UNL     1       1.986  16.063  25.231  1.00  0.00     0.202 C 
ATOM      3  C   UNL     1       1.779  17.517  24.734  1.00  0.00     0.179 C 
ATOM      4  C   UNL     1       0.743  17.547  23.595  1.00  0.00     0.177 C 
ATOM      5  C   UNL     1      -0.604  16.886  24.056  1.00  0.00     0.178 C 
ATOM      6  O   UNL     1      -0.435  16.048  25.194  1.00  0.00    -0.341 OA
ENDROOT
BRANCH   1   7
ATOM      7  O   UNL     1       0.679  14.211  26.044  1.00  0.00    -0.350 OA
BRANCH   7   8
ATOM      8  C   UNL     1      -0.453  14.352  26.884  1.00  0.00     0.160 C 
ATOM      9  C   UNL     1      -1.077  12.988  27.159  1.00  0.00     0.035 C 
ENDBRANCH   7   8
ENDBRANCH   1   7
BRANCH   2  10
ATOM     10  O   UNL     1       3.036  15.453  24.525  1.00  0.00    -0.385 OA
ATOM     11  H   UNL     1       3.810  16.074  24.566  1.00  0.00     0.211 HD
ENDBRANCH   2  10
BRANCH   3  12
ATOM     12  O   UNL     1       1.343  18.315  25.806  1.00  0.00    -0.387 OA
ATOM     13  H   UNL     1       0.895  19.110  25.414  1.00  0.00     0.211 HD
ENDBRANCH   3  12
BRANCH   5  14
ATOM     14  C   UNL     1      -1.693  17.923  24.386  1.00  0.00     0.191 C 
BRANCH  14  15
ATOM     15  O   UNL     1      -1.392  18.581  25.588  1.00  0.00    -0.394 OA
ATOM     16  H   UNL     1      -0.446  18.878  25.525  1.00  0.00     0.210 HD
ENDBRANCH  14  15
ENDBRANCH   5  14
BRANCH   4  17
ATOM     17  O   UNL     1       0.571  18.867  23.141  1.00  0.00    -0.387 OA
ATOM     18  H   UNL     1      -0.193  19.247  23.652  1.00  0.00     0.211 HD
ENDBRANCH   4  17
TORSDOF 7
ENDMDL
MODEL 6
REMARK VINA RESULT:    -5.121      8.158      9.517
REMARK INTER + INTRA:          -7.137
REMARK INTER:                  -6.601
REMARK INTRA:                  -0.536
REMARK UNBOUND:                -0.518
REMARK SMILES CCO[C@H]1O[C@@H](CO)[C@@H](O)[C@@H](O)[C@@H]1O
REMARK SMILES IDX 4 1 13 2 11 3 9 4 6 5 5 6 3 7 2 8 1 9 14 10 12 12 7 14 8 15
REMARK SMILES IDX 10 17
REMARK H PARENT 14 11 12 13 8 16 10 18
REMARK Flexibility Score: inf
ROOT
ATOM      1  C   UNL     1      -2.404  16.817  22.226  1.00  0.00     0.281 C 
ATOM      2  C   UNL     1      -1.427  17.605  21.324  1.00  0.00     0.202 C 
ATOM      3  C   UNL     1      -1.684  17.314  19.823  1.00  0.00     0.179 C 
ATOM      4  C   UNL     1      -2.244  15.891  19.645  1.00  0.00     0.177 C 
ATOM      5  C   UNL     1      -3.537  15.694  20.512  1.00  0.00     0.178 C 
ATOM      6  O   UNL     1      -3.642  16.657  21.556  1.00  0.00    -0.341 OA
ENDROOT
BRANCH   1   7
ATOM      7  O   UNL     1      -2.610  17.548  23.421  1.00  0.00    -0.350 OA
BRANCH   7   8
ATOM      8  C   UNL     1      -3.367  16.798  24.354  1.00  0.00     0.160 C 
ATOM      9  C   UNL     1      -2.717  16.861  25.731  1.00  0.00     0.035 C 
ENDBRANCH   7   8
ENDBRANCH   1   7
BRANCH   2  10
ATOM     10  O   UNL     1      -0.110  17.257  21.668  1.00  0.00    -0.385 OA
ATOM     11  H   UNL     1      -0.158  16.393  22.154  1.00  0.00     0.211 HD
ENDBRANCH   2  10
BRANCH   3  12
ATOM     12  O   UNL     1      -2.595  18.259  19.318  1.00  0.00    -0.387 OA
ATOM     13  H   UNL     1      -3.004  18.716  20.099  1.00  0.00     0.211 HD
ENDBRANCH   3  12
BRANCH   5  14
ATOM     14  C   UNL     1      -4.828  15.755  19.676  1.00  0.00     0.191 C 
BRANCH  14  15
ATOM     15  O   UNL     1      -5.101  17.078  19.296  1.00  0.00    -0.394 OA
ATOM     16  H   UNL     1      -5.926  17.055  18.744  1.00  0.00     0.210 HD
ENDBRANCH  14  15
ENDBRANCH   5  14
BRANCH   4  17
ATOM     17  O   UNL     1      -2.462  15.630  18.281  1.00  0.00    -0.387 OA
ATOM     18  H   UNL     1      -3.282  15.072  18.225  1.00  0.00     0.211 HD
ENDBRANCH   4  17
TORSDOF 7
ENDMDL
MODEL 7
REMARK VINA RESULT:    -5.078      9.518     10.604
REMARK INTER + INTRA:          -7.081
REMARK INTER:                  -6.523
REMARK INTRA:                  -0.558
REMARK UNBOUND:                -0.518
REMARK SMILES CCO[C@H]1O[C@@H](CO)[C@@H](O)[C@@H](O)[C@@H]1O
REMARK SMILES IDX 4 1 13 2 11 3 9 4 6 5 5 6 3 7 2 8 1 9 14 10 12 12 7 14 8 15
REMARK SMILES IDX 10 17
REMARK H PARENT 14 11 12 13 8 16 10 18
REMARK Flexibility Score: inf
ROOT
ATOM      1  C   UNL     1      -0.805  17.344  23.171  1.00  0.00     0.281 C 
ATOM      2  C   UNL     1      -1.545  18.041  24.337  1.00  0.00     0.202 C 
ATOM      3  C   UNL     1      -1.094  17.476  25.709  1.00  0.00     0.179 C 
ATOM      4  C   UNL     1      -0.667  16.004  25.564  1.00  0.00     0.177 C 
ATOM      5  C   UNL     1       0.450  15.857  24.472  1.00  0.00     0.178 C 
ATOM      6  O   UNL     1       0.496  16.974  23.590  1.00  0.00    -0.341 OA
ENDROOT
BRANCH   1   7
ATOM      7  O   UNL     1      -0.707  18.252  22.088  1.00  0.00    -0.350 OA
BRANCH   7   8
ATOM      8  C   UNL     1       0.594  18.242  21.530  1.00  0.00     0.160 C 
ATOM      9  C   UNL     1       0.527  18.523  20.034  1.00  0.00     0.035 C 
ENDBRANCH   7   8
ENDBRANCH   1   7
BRANCH   2  10
ATOM     10  O   UNL     1      -2.928  17.863  24.169  1.00  0.00    -0.385 OA
ATOM     11  H   UNL     1      -3.157  18.218  23.270  1.00  0.00     0.211 HD
ENDBRANCH   2  10
BRANCH   3  12
ATOM     12  O   UNL     1      -0.022  18.245  26.196  1.00  0.00    -0.387 OA
ATOM     13  H   UNL     1       0.421  17.710  26.906  1.00  0.00     0.211 HD
ENDBRANCH   3  12
BRANCH   5  14
ATOM     14  C   UNL     1       1.853  15.671  25.079  1.00  0.00     0.191 C 
BRANCH  14  15
ATOM     15  O   UNL     1       2.318  16.883  25.612  1.00  0.00    -0.394 OA
ATOM     16  H   UNL     1       3.300  16.788  25.729  1.00  0.00     0.210 HD
ENDBRANCH  14  15
ENDBRANCH   5  14
BRANCH   4  17
ATOM     17  O   UNL     1      -0.273  15.496  26.815  1.00  0.00    -0.387 OA
ATOM     18  H   UNL     1      -0.973  14.848  27.093  1.00  0.00     0.211 HD
ENDBRANCH   4  17
TORSDOF 7
ENDMDL
MODEL 8
REMARK VINA RESULT:    -5.019      9.719     10.845
REMARK INTER + INTRA:          -7.005
REMARK INTER:                  -6.365
REMARK INTRA:                  -0.640
REMARK UNBOUND:                -0.518
REMARK SMILES CCO[C@H]1O[C@@H](CO)[C@@H](O)[C@@H](O)[C@@H]1O
REMARK SMILES IDX 4 1 13 2 11 3 9 4 6 5 5 6 3 7 2 8 1 9 14 10 12 12 7 14 8 15
REMARK SMILES IDX 10 17
REMARK H PARENT 14 11 12 13 8 16 10 18
REMARK Flexibility Score: inf
ROOT
ATOM      1  C   UNL     1      -1.102  16.823  22.572  1.00  0.00     0.281 C 
ATOM      2  C   UNL     1      -2.041  17.918  23.128  1.00  0.00     0.202 C 
ATOM      3  C   UNL     1      -1.486  18.524  24.443  1.00  0.00     0.179 C 
ATOM      4  C   UNL     1      -0.654  17.475  25.202  1.00  0.00     0.177 C 
ATOM      5  C   UNL     1       0.488  16.908  24.288  1.00  0.00     0.178 C 
ATOM      6  O   UNL     1       0.239  17.136  22.905  1.00  0.00    -0.341 OA
ENDROOT
BRANCH   1   7
ATOM      7  O   UNL     1      -1.237  16.780  21.163  1.00  0.00    -0.350 OA
BRANCH   7   8
ATOM      8  C   UNL     1      -1.199  18.082  20.608  1.00  0.00     0.160 C 
ATOM      9  C   UNL     1      -0.091  18.177  19.565  1.00  0.00     0.035 C 
ENDBRANCH   7   8
ENDBRANCH   1   7
BRANCH   2  10
ATOM     10  O   UNL     1      -3.311  17.360  23.347  1.00  0.00    -0.385 OA
ATOM     11  H   UNL     1      -3.941  17.833  22.743  1.00  0.00     0.211 HD
ENDBRANCH   2  10
BRANCH   3  12
ATOM     12  O   UNL     1      -0.691  19.643  24.138  1.00  0.00    -0.387 OA
ATOM     13  H   UNL     1      -1.301  20.349  23.797  1.00  0.00     0.211 HD
ENDBRANCH   3  12
BRANCH   5  14
ATOM     14  C   UNL     1       1.869  17.500  24.627  1.00  0.00     0.191 C 
BRANCH  14  15
ATOM     15  O   UNL     1       1.947  18.832  24.195  1.00  0.00    -0.394 OA
ATOM     16  H   UNL     1       2.834  18.944  23.761  1.00  0.00     0.210 HD
ENDBRANCH  14  15
ENDBRANCH   5  14
BRANCH   4  17
ATOM     17  O   UNL     1      -0.166  18.027  26.400  1.00  0.00    -0.387 OA
ATOM     18  H   UNL     1      -0.951  18.154  26.996  1.00  0.00     0.211 HD
ENDBRANCH   4  17
TORSDOF 7
ENDMDL
MODEL 9
REMARK VINA RESULT:    -4.989      9.531     11.051
REMARK INTER + INTRA:          -6.965
REMARK INTER:                  -6.445
REMARK INTRA:                  -0.521
REMARK UNBOUND:                -0.518
REMARK SMILES CCO[C@H]1O[C@@H](CO)[C@@H](O)[C@@H](O)[C@@H]1O
REMARK SMILES IDX 4 1 13 2 11 3 9 4 6 5 5 6 3 7 2 8 1 9 14 10 12 12 7 14 8 15
REMARK SMILES IDX 10 17
REMARK H PARENT 14 11 12 13 8 16 10 18
REMARK Flexibility Score: inf
ROOT
ATOM      1  C   UNL     1      -1.070  18.458  21.809  1.00  0.00     0.281 C 
ATOM      2  C   UNL     1      -0.362  18.898  20.507  1.00  0.00     0.202 C 
ATOM      3  C   UNL     1      -0.994  18.222  19.264  1.00  0.00     0.179 C 
ATOM      4  C   UNL     1      -1.573  16.846  19.643  1.00  0.00     0.177 C 
ATOM      5  C   UNL     1      -2.599  16.985  20.823  1.00  0.00     0.178 C 
ATOM      6  O   UNL     1      -2.438  18.204  21.541  1.00  0.00    -0.341 OA
ENDROOT
BRANCH   1   7
ATOM      7  O   UNL     1      -0.967  19.503  22.759  1.00  0.00    -0.350 OA
BRANCH   7   8
ATOM      8  C   UNL     1      -1.248  19.036  24.065  1.00  0.00     0.160 C 
ATOM      9  C   UNL     1      -0.295  19.673  25.070  1.00  0.00     0.035 C 
ENDBRANCH   7   8
ENDBRANCH   1   7
BRANCH   2  10
ATOM     10  O   UNL     1       1.001  18.571  20.599  1.00  0.00    -0.385 OA
ATOM     11  H   UNL     1       1.384  19.131  21.323  1.00  0.00     0.211 HD
ENDBRANCH   2  10
BRANCH   3  12
ATOM     12  O   UNL     1      -2.009  19.049  18.753  1.00  0.00    -0.387 OA
ATOM     13  H   UNL     1      -2.433  18.560  17.999  1.00  0.00     0.211 HD
ENDBRANCH   3  12
BRANCH   5  14
ATOM     14  C   UNL     1      -4.062  16.901  20.350  1.00  0.00     0.191 C 
BRANCH  14  15
ATOM     15  O   UNL     1      -4.362  17.974  19.498  1.00  0.00    -0.394 OA
ATOM     16  H   UNL     1      -5.076  17.662  18.882  1.00  0.00     0.210 HD
ENDBRANCH  14  15
ENDBRANCH   5  14
BRANCH   4  17
ATOM     17  O   UNL     1      -2.133  16.234  18.507  1.00  0.00    -0.387 OA
ATOM     18  H   UNL     1      -1.941  15.262  18.584  1.00  0.00     0.211 HD
ENDBRANCH   4  17
TORSDOF 7
ENDMDL
