MODEL 1
REMARK VINA RESULT:    -2.293      0.000      0.000
REMARK INTER + INTRA:          -7.415
REMARK INTER:                  -5.779
REMARK INTRA:                  -1.637
REMARK UNBOUND:                -1.637
REMARK SMILES CCCCCCCCCCCCCCCCCCCCCCCCCCCC(=O)[O-]
REMARK SMILES IDX 15 1 16 2 17 3 18 4 19 5 20 6 21 7 22 8 23 9 24 10 25 11
REMARK SMILES IDX 26 12 27 13 28 14 29 15 30 16 14 17 13 18 12 19 11 20 10 21
REMARK SMILES IDX 9 22 8 23 7 24 6 25 5 26 4 27 3 28 2 29 1 30
REMARK H PARENT
REMARK Flexibility Score: inf
ROOT
ATOM      1  C   UNL     1      -0.985 -22.065  15.667  1.00  0.00     0.000 C 
ENDROOT
BRANCH   1   2
ATOM      2  C   UNL     1      -2.246 -22.951  15.732  1.00  0.00     0.000 C 
BRANCH   2   3
ATOM      3  C   UNL     1      -3.556 -22.208  16.063  1.00  0.00     0.000 C 
BRANCH   3   4
ATOM      4  C   UNL     1      -4.734 -23.124  16.452  1.00  0.00     0.000 C 
BRANCH   4   5
ATOM      5  C   UNL     1      -5.206 -22.893  17.897  1.00  0.00     0.000 C 
BRANCH   5   6
ATOM      6  C   UNL     1      -6.728 -23.050  18.061  1.00  0.00     0.000 C 
BRANCH   6   7
ATOM      7  C   UNL     1      -7.540 -21.753  17.889  1.00  0.00     0.000 C 
BRANCH   7   8
ATOM      8  C   UNL     1      -8.607 -21.855  16.788  1.00  0.00     0.000 C 
BRANCH   8   9
ATOM      9  C   UNL     1      -9.984 -21.430  17.319  1.00  0.00     0.000 C 
BRANCH   9  10
ATOM     10  C   UNL     1     -10.600 -22.464  18.275  1.00  0.00     0.000 C 
BRANCH  10  11
ATOM     11  C   UNL     1     -11.055 -21.842  19.608  1.00  0.00     0.000 C 
BRANCH  11  12
ATOM     12  C   UNL     1     -10.863 -20.317  19.646  1.00  0.00     0.006 C 
BRANCH  12  13
ATOM     13  C   UNL     1     -10.937 -19.748  21.070  1.00  0.00     0.053 C 
BRANCH  13  14
ATOM     14  C   UNL     1     -10.321 -18.385  21.125  1.00  0.00     0.041 C 
ATOM     15  O   UNL     1     -10.647 -17.505  20.284  1.00  0.00    -0.550 OA
ATOM     16  O   UNL     1      -9.375 -18.088  22.100  1.00  0.00    -0.550 OA
ENDBRANCH  13  14
ENDBRANCH  12  13
ENDBRANCH  11  12
ENDBRANCH  10  11
ENDBRANCH   9  10
ENDBRANCH   8   9
ENDBRANCH   7   8
ENDBRANCH   6   7
ENDBRANCH   5   6
ENDBRANCH   4   5
ENDBRANCH   3   4
ENDBRANCH   2   3
ENDBRANCH   1   2
BRANCH   1  17
ATOM     17  C   UNL     1       0.337 -22.852  15.800  1.00  0.00     0.000 C 
BRANCH  17  18
ATOM     18  C   UNL     1       1.350 -22.550  14.680  1.00  0.00     0.000 C 
BRANCH  18  19
ATOM     19  C   UNL     1       2.768 -23.043  15.019  1.00  0.00     0.000 C 
BRANCH  19  20
ATOM     20  C   UNL     1       3.426 -22.198  16.132  1.00  0.00     0.000 C 
BRANCH  20  21
ATOM     21  C   UNL     1       4.963 -22.208  16.094  1.00  0.00     0.000 C 
BRANCH  21  22
ATOM     22  C   UNL     1       5.600 -21.438  17.263  1.00  0.00    -0.000 C 
BRANCH  22  23
ATOM     23  C   UNL     1       7.136 -21.530  17.253  1.00  0.00    -0.000 C 
BRANCH  23  24
ATOM     24  C   UNL     1       7.648 -22.532  16.205  1.00  0.00    -0.000 C 
BRANCH  24  25
ATOM     25  C   UNL     1       9.000 -22.121  15.597  1.00  0.00    -0.000 C 
BRANCH  25  26
ATOM     26  C   UNL     1       8.911 -21.733  14.106  1.00  0.00    -0.000 C 
BRANCH  26  27
ATOM     27  C   UNL     1       7.720 -22.399  13.396  1.00  0.00    -0.000 C 
BRANCH  27  28
ATOM     28  C   UNL     1       6.931 -21.417  12.511  1.00  0.00    -0.000 C 
BRANCH  28  29
ATOM     29  C   UNL     1       7.772 -20.701  11.439  1.00  0.00    -0.003 C 
ATOM     30  C   UNL     1       7.782 -19.183  11.607  1.00  0.00     0.004 C 
ENDBRANCH  28  29
ENDBRANCH  27  28
ENDBRANCH  26  27
ENDBRANCH  25  26
ENDBRANCH  24  25
ENDBRANCH  23  24
ENDBRANCH  22  23
ENDBRANCH  21  22
ENDBRANCH  20  21
ENDBRANCH  19  20
ENDBRANCH  18  19
ENDBRANCH  17  18
ENDBRANCH   1  17
TORSDOF 26
ENDMDL
MODEL 2
REMARK VINA RESULT:    -2.151      1.081      2.086
REMARK INTER + INTRA:          -7.056
REMARK INTER:                  -6.061
REMARK INTRA:                  -0.996
REMARK UNBOUND:                -1.637
REMARK SMILES CCCCCCCCCCCCCCCCCCCCCCCCCCCC(=O)[O-]
REMARK SMILES IDX 15 1 16 2 17 3 18 4 19 5 20 6 21 7 22 8 23 9 24 10 25 11
REMARK SMILES IDX 26 12 27 13 28 14 29 15 30 16 14 17 13 18 12 19 11 20 10 21
REMARK SMILES IDX 9 22 8 23 7 24 6 25 5 26 4 27 3 28 2 29 1 30
REMARK H PARENT
REMARK Flexibility Score: inf
ROOT
ATOM      1  C   UNL     1      -2.900 -21.658  15.279  1.00  0.00     0.000 C 
ENDROOT
BRANCH   1   2
ATOM      2  C   UNL     1      -4.331 -21.693  15.856  1.00  0.00     0.000 C 
BRANCH   2   3
ATOM      3  C   UNL     1      -4.556 -22.705  16.997  1.00  0.00     0.000 C 
BRANCH   3   4
ATOM      4  C   UNL     1      -6.032 -23.077  17.243  1.00  0.00     0.000 C 
BRANCH   4   5
ATOM      5  C   UNL     1      -6.950 -22.635  16.093  1.00  0.00     0.000 C 
BRANCH   5   6
ATOM      6  C   UNL     1      -8.245 -21.963  16.585  1.00  0.00     0.000 C 
BRANCH   6   7
ATOM      7  C   UNL     1      -8.751 -22.450  17.955  1.00  0.00     0.000 C 
BRANCH   7   8
ATOM      8  C   UNL     1     -10.249 -22.792  17.954  1.00  0.00     0.000 C 
BRANCH   8   9
ATOM      9  C   UNL     1     -11.008 -21.931  18.976  1.00  0.00     0.000 C 
BRANCH   9  10
ATOM     10  C   UNL     1     -10.332 -20.574  19.230  1.00  0.00     0.000 C 
BRANCH  10  11
ATOM     11  C   UNL     1     -10.880 -19.864  20.482  1.00  0.00     0.000 C 
BRANCH  11  12
ATOM     12  C   UNL     1     -10.861 -18.333  20.350  1.00  0.00     0.006 C 
BRANCH  12  13
ATOM     13  C   UNL     1      -9.655 -17.695  21.053  1.00  0.00     0.053 C 
BRANCH  13  14
ATOM     14  C   UNL     1      -9.601 -18.113  22.489  1.00  0.00     0.041 C 
ATOM     15  O   UNL     1      -8.497 -18.169  23.093  1.00  0.00    -0.550 OA
ATOM     16  O   UNL     1     -10.771 -18.451  23.160  1.00  0.00    -0.550 OA
ENDBRANCH  13  14
ENDBRANCH  12  13
ENDBRANCH  11  12
ENDBRANCH  10  11
ENDBRANCH   9  10
ENDBRANCH   8   9
ENDBRANCH   7   8
ENDBRANCH   6   7
ENDBRANCH   5   6
ENDBRANCH   4   5
ENDBRANCH   3   4
ENDBRANCH   2   3
ENDBRANCH   1   2
BRANCH   1  17
ATOM     17  C   UNL     1      -1.914 -22.605  16.000  1.00  0.00     0.000 C 
BRANCH  17  18
ATOM     18  C   UNL     1      -0.460 -22.100  15.994  1.00  0.00     0.000 C 
BRANCH  18  19
ATOM     19  C   UNL     1       0.517 -23.125  15.392  1.00  0.00     0.000 C 
BRANCH  19  20
ATOM     20  C   UNL     1       1.855 -22.477  14.973  1.00  0.00     0.000 C 
BRANCH  20  21
ATOM     21  C   UNL     1       2.681 -21.937  16.153  1.00  0.00     0.000 C 
BRANCH  21  22
ATOM     22  C   UNL     1       4.174 -22.292  16.055  1.00  0.00    -0.000 C 
BRANCH  22  23
ATOM     23  C   UNL     1       5.059 -21.303  16.834  1.00  0.00    -0.000 C 
BRANCH  23  24
ATOM     24  C   UNL     1       6.281 -21.993  17.463  1.00  0.00    -0.000 C 
BRANCH  24  25
ATOM     25  C   UNL     1       7.605 -21.596  16.787  1.00  0.00    -0.000 C 
BRANCH  25  26
ATOM     26  C   UNL     1       7.995 -22.516  15.612  1.00  0.00    -0.000 C 
BRANCH  26  27
ATOM     27  C   UNL     1       8.952 -21.830  14.622  1.00  0.00    -0.000 C 
BRANCH  27  28
ATOM     28  C   UNL     1       8.217 -21.196  13.426  1.00  0.00    -0.000 C 
BRANCH  28  29
ATOM     29  C   UNL     1       8.641 -19.751  13.106  1.00  0.00    -0.003 C 
ATOM     30  C   UNL     1       7.853 -19.144  11.947  1.00  0.00     0.004 C 
ENDBRANCH  28  29
ENDBRANCH  27  28
ENDBRANCH  26  27
ENDBRANCH  25  26
ENDBRANCH  24  25
ENDBRANCH  23  24
ENDBRANCH  22  23
ENDBRANCH  21  22
ENDBRANCH  20  21
ENDBRANCH  19  20
ENDBRANCH  18  19
ENDBRANCH  17  18
ENDBRANCH   1  17
TORSDOF 26
ENDMDL
MODEL 3
REMARK VINA RESULT:    -2.070      5.927     15.968
REMARK INTER + INTRA:          -6.852
REMARK INTER:                  -5.615
REMARK INTRA:                  -1.237
REMARK UNBOUND:                -1.637
REMARK SMILES CCCCCCCCCCCCCCCCCCCCCCCCCCCC(=O)[O-]
REMARK SMILES IDX 15 1 16 2 17 3 18 4 19 5 20 6 21 7 22 8 23 9 24 10 25 11
REMARK SMILES IDX 26 12 27 13 28 14 29 15 30 16 14 17 13 18 12 19 11 20 10 21
REMARK SMILES IDX 9 22 8 23 7 24 6 25 5 26 4 27 3 28 2 29 1 30
REMARK H PARENT
REMARK Flexibility Score: inf
ROOT
ATOM      1  C   UNL     1       1.873 -22.232  15.328  1.00  0.00     0.000 C 
ENDROOT
BRANCH   1   2
ATOM      2  C   UNL     1       3.083 -22.961  15.948  1.00  0.00     0.000 C 
BRANCH   2   3
ATOM      3  C   UNL     1       4.462 -22.377  15.579  1.00  0.00     0.000 C 
BRANCH   3   4
ATOM      4  C   UNL     1       4.997 -21.319  16.565  1.00  0.00     0.000 C 
BRANCH   4   5
ATOM      5  C   UNL     1       5.942 -21.922  17.617  1.00  0.00     0.000 C 
BRANCH   5   6
ATOM      6  C   UNL     1       7.353 -22.198  17.067  1.00  0.00     0.000 C 
BRANCH   6   7
ATOM      7  C   UNL     1       7.772 -21.314  15.879  1.00  0.00     0.000 C 
BRANCH   7   8
ATOM      8  C   UNL     1       8.903 -21.932  15.041  1.00  0.00     0.000 C 
BRANCH   8   9
ATOM      9  C   UNL     1       8.351 -22.552  13.749  1.00  0.00     0.000 C 
BRANCH   9  10
ATOM     10  C   UNL     1       7.204 -21.732  13.136  1.00  0.00     0.000 C 
BRANCH  10  11
ATOM     11  C   UNL     1       6.711 -22.311  11.797  1.00  0.00     0.000 C 
BRANCH  11  12
ATOM     12  C   UNL     1       7.862 -22.798  10.903  1.00  0.00     0.006 C 
BRANCH  12  13
ATOM     13  C   UNL     1       8.742 -21.648  10.395  1.00  0.00     0.053 C 
BRANCH  13  14
ATOM     14  C   UNL     1       8.411 -21.320   8.972  1.00  0.00     0.041 C 
ATOM     15  O   UNL     1       8.471 -22.211   8.084  1.00  0.00    -0.550 OA
ATOM     16  O   UNL     1       8.046 -20.024   8.624  1.00  0.00    -0.550 OA
ENDBRANCH  13  14
ENDBRANCH  12  13
ENDBRANCH  11  12
ENDBRANCH  10  11
ENDBRANCH   9  10
ENDBRANCH   8   9
ENDBRANCH   7   8
ENDBRANCH   6   7
ENDBRANCH   5   6
ENDBRANCH   4   5
ENDBRANCH   3   4
ENDBRANCH   2   3
ENDBRANCH   1   2
BRANCH   1  17
ATOM     17  C   UNL     1       0.566 -23.056  15.362  1.00  0.00     0.000 C 
BRANCH  17  18
ATOM     18  C   UNL     1      -0.693 -22.204  15.607  1.00  0.00     0.000 C 
BRANCH  18  19
ATOM     19  C   UNL     1      -1.939 -23.062  15.889  1.00  0.00     0.000 C 
BRANCH  19  20
ATOM     20  C   UNL     1      -3.230 -22.216  15.930  1.00  0.00     0.000 C 
BRANCH  20  21
ATOM     21  C   UNL     1      -4.390 -22.885  16.687  1.00  0.00     0.000 C 
BRANCH  21  22
ATOM     22  C   UNL     1      -5.768 -22.336  16.285  1.00  0.00    -0.000 C 
BRANCH  22  23
ATOM     23  C   UNL     1      -6.905 -22.949  17.121  1.00  0.00    -0.000 C 
BRANCH  23  24
ATOM     24  C   UNL     1      -8.164 -22.067  17.120  1.00  0.00    -0.000 C 
BRANCH  24  25
ATOM     25  C   UNL     1      -8.791 -21.919  18.517  1.00  0.00    -0.000 C 
BRANCH  25  26
ATOM     26  C   UNL     1      -9.625 -20.632  18.684  1.00  0.00    -0.000 C 
BRANCH  26  27
ATOM     27  C   UNL     1     -10.890 -20.858  19.531  1.00  0.00    -0.000 C 
BRANCH  27  28
ATOM     28  C   UNL     1     -10.981 -19.897  20.731  1.00  0.00    -0.000 C 
BRANCH  28  29
ATOM     29  C   UNL     1     -10.696 -18.422  20.395  1.00  0.00    -0.003 C 
ATOM     30  C   UNL     1      -9.608 -17.811  21.275  1.00  0.00     0.004 C 
ENDBRANCH  28  29
ENDBRANCH  27  28
ENDBRANCH  26  27
ENDBRANCH  25  26
ENDBRANCH  24  25
ENDBRANCH  23  24
ENDBRANCH  22  23
ENDBRANCH  21  22
ENDBRANCH  20  21
ENDBRANCH  19  20
ENDBRANCH  18  19
ENDBRANCH  17  18
ENDBRANCH   1  17
TORSDOF 26
ENDMDL
MODEL 4
REMARK VINA RESULT:    -2.052      5.427     15.648
REMARK INTER + INTRA:          -6.808
REMARK INTER:                  -5.293
REMARK INTRA:                  -1.515
REMARK UNBOUND:                -1.637
REMARK SMILES CCCCCCCCCCCCCCCCCCCCCCCCCCCC(=O)[O-]
REMARK SMILES IDX 15 1 16 2 17 3 18 4 19 5 20 6 21 7 22 8 23 9 24 10 25 11
REMARK SMILES IDX 26 12 27 13 28 14 29 15 30 16 14 17 13 18 12 19 11 20 10 21
REMARK SMILES IDX 9 22 8 23 7 24 6 25 5 26 4 27 3 28 2 29 1 30
REMARK H PARENT
REMARK Flexibility Score: inf
ROOT
ATOM      1  C   UNL     1      -1.367 -21.618  15.958  1.00  0.00     0.000 C 
ENDROOT
BRANCH   1   2
ATOM      2  C   UNL     1      -0.610 -22.961  15.899  1.00  0.00     0.000 C 
BRANCH   2   3
ATOM      3  C   UNL     1       0.540 -23.024  14.874  1.00  0.00     0.000 C 
BRANCH   3   4
ATOM      4  C   UNL     1       1.953 -22.955  15.488  1.00  0.00     0.000 C 
BRANCH   4   5
ATOM      5  C   UNL     1       3.060 -23.024  14.424  1.00  0.00     0.000 C 
BRANCH   5   6
ATOM      6  C   UNL     1       4.376 -22.374  14.887  1.00  0.00     0.000 C 
BRANCH   6   7
ATOM      7  C   UNL     1       4.555 -22.282  16.414  1.00  0.00     0.000 C 
BRANCH   7   8
ATOM      8  C   UNL     1       5.750 -21.408  16.826  1.00  0.00     0.000 C 
BRANCH   8   9
ATOM      9  C   UNL     1       7.010 -22.264  17.030  1.00  0.00     0.000 C 
BRANCH   9  10
ATOM     10  C   UNL     1       8.251 -21.671  16.344  1.00  0.00     0.000 C 
BRANCH  10  11
ATOM     11  C   UNL     1       8.621 -22.411  15.045  1.00  0.00     0.000 C 
BRANCH  11  12
ATOM     12  C   UNL     1       7.749 -21.985  13.853  1.00  0.00     0.006 C 
BRANCH  12  13
ATOM     13  C   UNL     1       7.868 -20.487  13.540  1.00  0.00     0.053 C 
BRANCH  13  14
ATOM     14  C   UNL     1       8.037 -20.267  12.069  1.00  0.00     0.041 C 
ATOM     15  O   UNL     1       8.461 -21.197  11.333  1.00  0.00    -0.550 OA
ATOM     16  O   UNL     1       7.735 -19.030  11.511  1.00  0.00    -0.550 OA
ENDBRANCH  13  14
ENDBRANCH  12  13
ENDBRANCH  11  12
ENDBRANCH  10  11
ENDBRANCH   9  10
ENDBRANCH   8   9
ENDBRANCH   7   8
ENDBRANCH   6   7
ENDBRANCH   5   6
ENDBRANCH   4   5
ENDBRANCH   3   4
ENDBRANCH   2   3
ENDBRANCH   1   2
BRANCH   1  17
ATOM     17  C   UNL     1      -2.884 -21.746  15.697  1.00  0.00     0.000 C 
BRANCH  17  18
ATOM     18  C   UNL     1      -3.460 -23.125  16.068  1.00  0.00     0.000 C 
BRANCH  18  19
ATOM     19  C   UNL     1      -4.606 -23.029  17.089  1.00  0.00     0.000 C 
BRANCH  19  20
ATOM     20  C   UNL     1      -5.728 -22.079  16.616  1.00  0.00     0.000 C 
BRANCH  20  21
ATOM     21  C   UNL     1      -7.110 -22.746  16.518  1.00  0.00     0.000 C 
BRANCH  21  22
ATOM     22  C   UNL     1      -8.182 -22.040  17.364  1.00  0.00    -0.000 C 
BRANCH  22  23
ATOM     23  C   UNL     1      -9.383 -22.954  17.663  1.00  0.00    -0.000 C 
BRANCH  23  24
ATOM     24  C   UNL     1     -10.631 -22.154  18.070  1.00  0.00    -0.000 C 
BRANCH  24  25
ATOM     25  C   UNL     1     -10.348 -20.652  18.242  1.00  0.00    -0.000 C 
BRANCH  25  26
ATOM     26  C   UNL     1     -11.046 -20.031  19.470  1.00  0.00    -0.000 C 
BRANCH  26  27
ATOM     27  C   UNL     1     -10.063 -19.281  20.386  1.00  0.00    -0.000 C 
BRANCH  27  28
ATOM     28  C   UNL     1     -10.305 -19.569  21.880  1.00  0.00    -0.000 C 
BRANCH  28  29
ATOM     29  C   UNL     1     -10.253 -18.327  22.788  1.00  0.00    -0.003 C 
ATOM     30  C   UNL     1      -8.887 -17.644  22.783  1.00  0.00     0.004 C 
ENDBRANCH  28  29
ENDBRANCH  27  28
ENDBRANCH  26  27
ENDBRANCH  25  26
ENDBRANCH  24  25
ENDBRANCH  23  24
ENDBRANCH  22  23
ENDBRANCH  21  22
ENDBRANCH  20  21
ENDBRANCH  19  20
ENDBRANCH  18  19
ENDBRANCH  17  18
ENDBRANCH   1  17
TORSDOF 26
ENDMDL
MODEL 5
REMARK VINA RESULT:    -1.975      1.195      2.029
REMARK INTER + INTRA:          -6.614
REMARK INTER:                  -5.241
REMARK INTRA:                  -1.372
REMARK UNBOUND:                -1.637
REMARK SMILES CCCCCCCCCCCCCCCCCCCCCCCCCCCC(=O)[O-]
REMARK SMILES IDX 15 1 16 2 17 3 18 4 19 5 20 6 21 7 22 8 23 9 24 10 25 11
REMARK SMILES IDX 26 12 27 13 28 14 29 15 30 16 14 17 13 18 12 19 11 20 10 21
REMARK SMILES IDX 9 22 8 23 7 24 6 25 5 26 4 27 3 28 2 29 1 30
REMARK H PARENT
REMARK Flexibility Score: inf
ROOT
ATOM      1  C   UNL     1       0.526 -22.290  15.412  1.00  0.00     0.000 C 
ENDROOT
BRANCH   1   2
ATOM      2  C   UNL     1      -0.665 -22.257  16.393  1.00  0.00     0.000 C 
BRANCH   2   3
ATOM      3  C   UNL     1      -1.970 -21.664  15.825  1.00  0.00     0.000 C 
BRANCH   3   4
ATOM      4  C   UNL     1      -3.150 -22.654  15.757  1.00  0.00     0.000 C 
BRANCH   4   5
ATOM      5  C   UNL     1      -4.493 -21.992  16.106  1.00  0.00     0.000 C 
BRANCH   5   6
ATOM      6  C   UNL     1      -5.456 -22.943  16.838  1.00  0.00     0.000 C 
BRANCH   6   7
ATOM      7  C   UNL     1      -6.375 -22.269  17.874  1.00  0.00     0.000 C 
BRANCH   7   8
ATOM      8  C   UNL     1      -7.784 -22.881  17.914  1.00  0.00     0.000 C 
BRANCH   8   9
ATOM      9  C   UNL     1      -8.674 -22.141  18.925  1.00  0.00     0.000 C 
BRANCH   9  10
ATOM     10  C   UNL     1     -10.162 -22.173  18.543  1.00  0.00     0.000 C 
BRANCH  10  11
ATOM     11  C   UNL     1     -10.824 -20.784  18.621  1.00  0.00     0.000 C 
BRANCH  11  12
ATOM     12  C   UNL     1      -9.961 -19.759  19.373  1.00  0.00     0.006 C 
BRANCH  12  13
ATOM     13  C   UNL     1     -10.793 -18.624  19.985  1.00  0.00     0.053 C 
BRANCH  13  14
ATOM     14  C   UNL     1     -10.250 -18.235  21.325  1.00  0.00     0.041 C 
ATOM     15  O   UNL     1      -9.286 -17.428  21.410  1.00  0.00    -0.550 OA
ATOM     16  O   UNL     1     -10.800 -18.775  22.482  1.00  0.00    -0.550 OA
ENDBRANCH  13  14
ENDBRANCH  12  13
ENDBRANCH  11  12
ENDBRANCH  10  11
ENDBRANCH   9  10
ENDBRANCH   8   9
ENDBRANCH   7   8
ENDBRANCH   6   7
ENDBRANCH   5   6
ENDBRANCH   4   5
ENDBRANCH   3   4
ENDBRANCH   2   3
ENDBRANCH   1   2
BRANCH   1  17
ATOM     17  C   UNL     1       1.819 -21.665  15.980  1.00  0.00     0.000 C 
BRANCH  17  18
ATOM     18  C   UNL     1       3.102 -22.388  15.531  1.00  0.00     0.000 C 
BRANCH  18  19
ATOM     19  C   UNL     1       4.123 -22.538  16.673  1.00  0.00     0.000 C 
BRANCH  19  20
ATOM     20  C   UNL     1       5.011 -21.283  16.827  1.00  0.00     0.000 C 
BRANCH  20  21
ATOM     21  C   UNL     1       6.487 -21.597  17.120  1.00  0.00     0.000 C 
BRANCH  21  22
ATOM     22  C   UNL     1       7.412 -21.316  15.924  1.00  0.00    -0.000 C 
BRANCH  22  23
ATOM     23  C   UNL     1       7.658 -22.572  15.070  1.00  0.00    -0.000 C 
BRANCH  23  24
ATOM     24  C   UNL     1       6.616 -22.722  13.950  1.00  0.00    -0.000 C 
BRANCH  24  25
ATOM     25  C   UNL     1       7.230 -22.603  12.544  1.00  0.00    -0.000 C 
BRANCH  25  26
ATOM     26  C   UNL     1       8.494 -21.719  12.498  1.00  0.00    -0.000 C 
BRANCH  26  27
ATOM     27  C   UNL     1       8.163 -20.230  12.300  1.00  0.00    -0.000 C 
BRANCH  27  28
ATOM     28  C   UNL     1       8.222 -19.799  10.823  1.00  0.00    -0.000 C 
BRANCH  28  29
ATOM     29  C   UNL     1       9.006 -20.756   9.907  1.00  0.00    -0.003 C 
ATOM     30  C   UNL     1       8.120 -21.448   8.872  1.00  0.00     0.004 C 
ENDBRANCH  28  29
ENDBRANCH  27  28
ENDBRANCH  26  27
ENDBRANCH  25  26
ENDBRANCH  24  25
ENDBRANCH  23  24
ENDBRANCH  22  23
ENDBRANCH  21  22
ENDBRANCH  20  21
ENDBRANCH  19  20
ENDBRANCH  18  19
ENDBRANCH  17  18
ENDBRANCH   1  17
TORSDOF 26
ENDMDL
MODEL 6
REMARK VINA RESULT:    -1.711      1.586      3.296
REMARK INTER + INTRA:          -5.948
REMARK INTER:                  -5.064
REMARK INTRA:                  -0.883
REMARK UNBOUND:                -1.637
REMARK SMILES CCCCCCCCCCCCCCCCCCCCCCCCCCCC(=O)[O-]
REMARK SMILES IDX 15 1 16 2 17 3 18 4 19 5 20 6 21 7 22 8 23 9 24 10 25 11
REMARK SMILES IDX 26 12 27 13 28 14 29 15 30 16 14 17 13 18 12 19 11 20 10 21
REMARK SMILES IDX 9 22 8 23 7 24 6 25 5 26 4 27 3 28 2 29 1 30
REMARK H PARENT
REMARK Flexibility Score: inf
ROOT
ATOM      1  C   UNL     1      -4.454 -21.631  15.866  1.00  0.00     0.000 C 
ENDROOT
BRANCH   1   2
ATOM      2  C   UNL     1      -5.259 -22.371  16.954  1.00  0.00     0.000 C 
BRANCH   2   3
ATOM      3  C   UNL     1      -6.528 -23.093  16.458  1.00  0.00     0.000 C 
BRANCH   3   4
ATOM      4  C   UNL     1      -7.688 -23.125  17.473  1.00  0.00     0.000 C 
BRANCH   4   5
ATOM      5  C   UNL     1      -8.505 -21.823  17.472  1.00  0.00     0.000 C 
BRANCH   5   6
ATOM      6  C   UNL     1      -9.989 -22.049  17.817  1.00  0.00     0.000 C 
BRANCH   6   7
ATOM      7  C   UNL     1     -10.364 -21.781  19.286  1.00  0.00     0.000 C 
BRANCH   7   8
ATOM      8  C   UNL     1     -10.476 -23.067  20.120  1.00  0.00     0.000 C 
BRANCH   8   9
ATOM      9  C   UNL     1      -9.693 -22.937  21.435  1.00  0.00     0.000 C 
BRANCH   9  10
ATOM     10  C   UNL     1     -10.607 -22.876  22.669  1.00  0.00     0.000 C 
BRANCH  10  11
ATOM     11  C   UNL     1     -10.795 -21.441  23.197  1.00  0.00     0.000 C 
BRANCH  11  12
ATOM     12  C   UNL     1     -10.406 -20.374  22.161  1.00  0.00     0.006 C 
BRANCH  12  13
ATOM     13  C   UNL     1      -9.147 -19.593  22.563  1.00  0.00     0.053 C 
BRANCH  13  14
ATOM     14  C   UNL     1      -9.392 -18.118  22.476  1.00  0.00     0.041 C 
ATOM     15  O   UNL     1      -9.563 -17.440  23.523  1.00  0.00    -0.550 OA
ATOM     16  O   UNL     1      -9.441 -17.494  21.234  1.00  0.00    -0.550 OA
ENDBRANCH  13  14
ENDBRANCH  12  13
ENDBRANCH  11  12
ENDBRANCH  10  11
ENDBRANCH   9  10
ENDBRANCH   8   9
ENDBRANCH   7   8
ENDBRANCH   6   7
ENDBRANCH   5   6
ENDBRANCH   4   5
ENDBRANCH   3   4
ENDBRANCH   2   3
ENDBRANCH   1   2
BRANCH   1  17
ATOM     17  C   UNL     1      -3.141 -22.341  15.470  1.00  0.00     0.000 C 
BRANCH  17  18
ATOM     18  C   UNL     1      -1.925 -21.398  15.407  1.00  0.00     0.000 C 
BRANCH  18  19
ATOM     19  C   UNL     1      -0.804 -21.818  16.374  1.00  0.00     0.000 C 
BRANCH  19  20
ATOM     20  C   UNL     1       0.031 -22.993  15.820  1.00  0.00     0.000 C 
BRANCH  20  21
ATOM     21  C   UNL     1       1.034 -22.585  14.728  1.00  0.00     0.000 C 
BRANCH  21  22
ATOM     22  C   UNL     1       2.464 -23.077  15.009  1.00  0.00    -0.000 C 
BRANCH  22  23
ATOM     23  C   UNL     1       3.389 -22.900  13.793  1.00  0.00    -0.000 C 
BRANCH  23  24
ATOM     24  C   UNL     1       4.867 -23.125  14.154  1.00  0.00    -0.000 C 
BRANCH  24  25
ATOM     25  C   UNL     1       5.833 -22.480  13.145  1.00  0.00    -0.000 C 
BRANCH  25  26
ATOM     26  C   UNL     1       7.320 -22.681  13.503  1.00  0.00    -0.000 C 
BRANCH  26  27
ATOM     27  C   UNL     1       8.183 -21.462  13.134  1.00  0.00    -0.000 C 
BRANCH  27  28
ATOM     28  C   UNL     1       8.613 -21.464  11.655  1.00  0.00    -0.000 C 
BRANCH  28  29
ATOM     29  C   UNL     1       8.061 -20.290  10.825  1.00  0.00    -0.003 C 
ATOM     30  C   UNL     1       7.744 -19.060  11.673  1.00  0.00     0.004 C 
ENDBRANCH  28  29
ENDBRANCH  27  28
ENDBRANCH  26  27
ENDBRANCH  25  26
ENDBRANCH  24  25
ENDBRANCH  23  24
ENDBRANCH  22  23
ENDBRANCH  21  22
ENDBRANCH  20  21
ENDBRANCH  19  20
ENDBRANCH  18  19
ENDBRANCH  17  18
ENDBRANCH   1  17
TORSDOF 26
ENDMDL
MODEL 7
REMARK VINA RESULT:    -1.637      1.585      2.268
REMARK INTER + INTRA:          -5.762
REMARK INTER:                  -4.195
REMARK INTRA:                  -1.567
REMARK UNBOUND:                -1.637
REMARK SMILES CCCCCCCCCCCCCCCCCCCCCCCCCCCC(=O)[O-]
REMARK SMILES IDX 15 1 16 2 17 3 18 4 19 5 20 6 21 7 22 8 23 9 24 10 25 11
REMARK SMILES IDX 26 12 27 13 28 14 29 15 30 16 14 17 13 18 12 19 11 20 10 21
REMARK SMILES IDX 9 22 8 23 7 24 6 25 5 26 4 27 3 28 2 29 1 30
REMARK H PARENT
REMARK Flexibility Score: inf
ROOT
ATOM      1  C   UNL     1      -2.144 -21.250  15.627  1.00  0.00     0.000 C 
ENDROOT
BRANCH   1   2
ATOM      2  C   UNL     1      -3.464 -22.028  15.446  1.00  0.00     0.000 C 
BRANCH   2   3
ATOM      3  C   UNL     1      -3.789 -23.043  16.560  1.00  0.00     0.000 C 
BRANCH   3   4
ATOM      4  C   UNL     1      -5.094 -22.757  17.330  1.00  0.00     0.000 C 
BRANCH   4   5
ATOM      5  C   UNL     1      -6.237 -22.311  16.404  1.00  0.00     0.000 C 
BRANCH   5   6
ATOM      6  C   UNL     1      -7.629 -22.643  16.970  1.00  0.00     0.000 C 
BRANCH   6   7
ATOM      7  C   UNL     1      -7.831 -22.285  18.454  1.00  0.00     0.000 C 
BRANCH   7   8
ATOM      8  C   UNL     1      -9.038 -21.364  18.690  1.00  0.00     0.000 C 
BRANCH   8   9
ATOM      9  C   UNL     1     -10.074 -22.040  19.601  1.00  0.00     0.000 C 
BRANCH   9  10
ATOM     10  C   UNL     1      -9.472 -22.528  20.928  1.00  0.00     0.000 C 
BRANCH  10  11
ATOM     11  C   UNL     1     -10.527 -22.669  22.041  1.00  0.00     0.000 C 
BRANCH  11  12
ATOM     12  C   UNL     1     -10.378 -21.600  23.136  1.00  0.00     0.006 C 
BRANCH  12  13
ATOM     13  C   UNL     1      -9.492 -20.426  22.696  1.00  0.00     0.053 C 
BRANCH  13  14
ATOM     14  C   UNL     1     -10.330 -19.233  22.355  1.00  0.00     0.041 C 
ATOM     15  O   UNL     1     -10.958 -18.618  23.257  1.00  0.00    -0.550 OA
ATOM     16  O   UNL     1     -10.428 -18.806  21.035  1.00  0.00    -0.550 OA
ENDBRANCH  13  14
ENDBRANCH  12  13
ENDBRANCH  11  12
ENDBRANCH  10  11
ENDBRANCH   9  10
ENDBRANCH   8   9
ENDBRANCH   7   8
ENDBRANCH   6   7
ENDBRANCH   5   6
ENDBRANCH   4   5
ENDBRANCH   3   4
ENDBRANCH   2   3
ENDBRANCH   1   2
BRANCH   1  17
ATOM     17  C   UNL     1      -0.966 -22.126  16.106  1.00  0.00     0.000 C 
BRANCH  17  18
ATOM     18  C   UNL     1      -0.320 -22.959  14.984  1.00  0.00     0.000 C 
BRANCH  18  19
ATOM     19  C   UNL     1       1.199 -23.119  15.169  1.00  0.00     0.000 C 
BRANCH  19  20
ATOM     20  C   UNL     1       1.969 -22.945  13.841  1.00  0.00     0.000 C 
BRANCH  20  21
ATOM     21  C   UNL     1       3.300 -22.189  13.986  1.00  0.00     0.000 C 
BRANCH  21  22
ATOM     22  C   UNL     1       4.496 -23.119  14.247  1.00  0.00    -0.000 C 
BRANCH  22  23
ATOM     23  C   UNL     1       5.795 -22.588  13.617  1.00  0.00    -0.000 C 
BRANCH  23  24
ATOM     24  C   UNL     1       6.941 -22.502  14.638  1.00  0.00    -0.000 C 
BRANCH  24  25
ATOM     25  C   UNL     1       7.568 -21.100  14.716  1.00  0.00    -0.000 C 
BRANCH  25  26
ATOM     26  C   UNL     1       9.002 -21.035  14.150  1.00  0.00    -0.000 C 
BRANCH  26  27
ATOM     27  C   UNL     1       9.111 -21.672  12.753  1.00  0.00    -0.000 C 
BRANCH  27  28
ATOM     28  C   UNL     1       9.107 -20.627  11.622  1.00  0.00    -0.000 C 
BRANCH  28  29
ATOM     29  C   UNL     1       8.316 -21.043  10.368  1.00  0.00    -0.003 C 
ATOM     30  C   UNL     1       7.720 -22.445  10.479  1.00  0.00     0.004 C 
ENDBRANCH  28  29
ENDBRANCH  27  28
ENDBRANCH  26  27
ENDBRANCH  25  26
ENDBRANCH  24  25
ENDBRANCH  23  24
ENDBRANCH  22  23
ENDBRANCH  21  22
ENDBRANCH  20  21
ENDBRANCH  19  20
ENDBRANCH  18  19
ENDBRANCH  17  18
ENDBRANCH   1  17
TORSDOF 26
ENDMDL
MODEL 8
REMARK VINA RESULT:    -1.490      1.763      2.261
REMARK INTER + INTRA:          -5.390
REMARK INTER:                  -4.138
REMARK INTRA:                  -1.253
REMARK UNBOUND:                -1.637
REMARK SMILES CCCCCCCCCCCCCCCCCCCCCCCCCCCC(=O)[O-]
REMARK SMILES IDX 15 1 16 2 17 3 18 4 19 5 20 6 21 7 22 8 23 9 24 10 25 11
REMARK SMILES IDX 26 12 27 13 28 14 29 15 30 16 14 17 13 18 12 19 11 20 10 21
REMARK SMILES IDX 9 22 8 23 7 24 6 25 5 26 4 27 3 28 2 29 1 30
REMARK H PARENT
REMARK Flexibility Score: inf
ROOT
ATOM      1  C   UNL     1      -1.387 -21.757  15.699  1.00  0.00     0.000 C 
ENDROOT
BRANCH   1   2
ATOM      2  C   UNL     1      -2.895 -22.050  15.548  1.00  0.00     0.000 C 
BRANCH   2   3
ATOM      3  C   UNL     1      -3.486 -23.016  16.594  1.00  0.00     0.000 C 
BRANCH   3   4
ATOM      4  C   UNL     1      -5.024 -23.125  16.573  1.00  0.00     0.000 C 
BRANCH   4   5
ATOM      5  C   UNL     1      -5.712 -21.764  16.765  1.00  0.00     0.000 C 
BRANCH   5   6
ATOM      6  C   UNL     1      -6.326 -21.216  15.464  1.00  0.00     0.000 C 
BRANCH   6   7
ATOM      7  C   UNL     1      -7.844 -21.426  15.322  1.00  0.00     0.000 C 
BRANCH   7   8
ATOM      8  C   UNL     1      -8.571 -20.190  14.767  1.00  0.00     0.000 C 
BRANCH   8   9
ATOM      9  C   UNL     1      -9.916 -20.583  14.137  1.00  0.00     0.000 C 
BRANCH   9  10
ATOM     10  C   UNL     1     -11.088 -20.491  15.128  1.00  0.00     0.000 C 
BRANCH  10  11
ATOM     11  C   UNL     1     -10.625 -20.198  16.567  1.00  0.00     0.000 C 
BRANCH  11  12
ATOM     12  C   UNL     1     -10.968 -21.336  17.542  1.00  0.00     0.006 C 
BRANCH  12  13
ATOM     13  C   UNL     1     -11.032 -20.864  19.001  1.00  0.00     0.053 C 
BRANCH  13  14
ATOM     14  C   UNL     1      -9.979 -21.542  19.821  1.00  0.00     0.041 C 
ATOM     15  O   UNL     1     -10.123 -21.662  21.067  1.00  0.00    -0.550 OA
ATOM     16  O   UNL     1      -8.830 -22.032  19.211  1.00  0.00    -0.550 OA
ENDBRANCH  13  14
ENDBRANCH  12  13
ENDBRANCH  11  12
ENDBRANCH  10  11
ENDBRANCH   9  10
ENDBRANCH   8   9
ENDBRANCH   7   8
ENDBRANCH   6   7
ENDBRANCH   5   6
ENDBRANCH   4   5
ENDBRANCH   3   4
ENDBRANCH   2   3
ENDBRANCH   1   2
BRANCH   1  17
ATOM     17  C   UNL     1      -0.500 -23.022  15.667  1.00  0.00     0.000 C 
BRANCH  17  18
ATOM     18  C   UNL     1       0.762 -22.868  14.798  1.00  0.00     0.000 C 
BRANCH  18  19
ATOM     19  C   UNL     1       2.047 -22.772  15.639  1.00  0.00     0.000 C 
BRANCH  19  20
ATOM     20  C   UNL     1       3.315 -23.008  14.790  1.00  0.00     0.000 C 
BRANCH  20  21
ATOM     21  C   UNL     1       4.505 -22.119  15.187  1.00  0.00     0.000 C 
BRANCH  21  22
ATOM     22  C   UNL     1       4.446 -21.650  16.650  1.00  0.00    -0.000 C 
BRANCH  22  23
ATOM     23  C   UNL     1       5.779 -21.871  17.386  1.00  0.00    -0.000 C 
BRANCH  23  24
ATOM     24  C   UNL     1       6.963 -21.232  16.642  1.00  0.00    -0.000 C 
BRANCH  24  25
ATOM     25  C   UNL     1       8.057 -22.250  16.275  1.00  0.00    -0.000 C 
BRANCH  25  26
ATOM     26  C   UNL     1       8.157 -22.526  14.760  1.00  0.00    -0.000 C 
BRANCH  26  27
ATOM     27  C   UNL     1       8.847 -21.381  13.998  1.00  0.00    -0.000 C 
BRANCH  27  28
ATOM     28  C   UNL     1       8.966 -21.659  12.488  1.00  0.00    -0.000 C 
BRANCH  28  29
ATOM     29  C   UNL     1       7.957 -20.893  11.614  1.00  0.00    -0.003 C 
ATOM     30  C   UNL     1       7.966 -19.388  11.875  1.00  0.00     0.004 C 
ENDBRANCH  28  29
ENDBRANCH  27  28
ENDBRANCH  26  27
ENDBRANCH  25  26
ENDBRANCH  24  25
ENDBRANCH  23  24
ENDBRANCH  22  23
ENDBRANCH  21  22
ENDBRANCH  20  21
ENDBRANCH  19  20
ENDBRANCH  18  19
ENDBRANCH  17  18
ENDBRANCH   1  17
TORSDOF 26
ENDMDL
MODEL 9
REMARK VINA RESULT:    -1.429      5.210     15.424
REMARK INTER + INTRA:          -5.239
REMARK INTER:                  -4.195
REMARK INTRA:                  -1.044
REMARK UNBOUND:                -1.637
REMARK SMILES CCCCCCCCCCCCCCCCCCCCCCCCCCCC(=O)[O-]
REMARK SMILES IDX 15 1 16 2 17 3 18 4 19 5 20 6 21 7 22 8 23 9 24 10 25 11
REMARK SMILES IDX 26 12 27 13 28 14 29 15 30 16 14 17 13 18 12 19 11 20 10 21
REMARK SMILES IDX 9 22 8 23 7 24 6 25 5 26 4 27 3 28 2 29 1 30
REMARK H PARENT
REMARK Flexibility Score: inf
ROOT
ATOM      1  C   UNL     1      -4.834 -21.331  15.906  1.00  0.00     0.000 C 
ENDROOT
BRANCH   1   2
ATOM      2  C   UNL     1      -3.421 -21.523  15.318  1.00  0.00     0.000 C 
BRANCH   2   3
ATOM      3  C   UNL     1      -2.404 -22.202  16.257  1.00  0.00     0.000 C 
BRANCH   3   4
ATOM      4  C   UNL     1      -0.928 -21.876  15.949  1.00  0.00     0.000 C 
BRANCH   4   5
ATOM      5  C   UNL     1      -0.120 -23.124  15.559  1.00  0.00     0.000 C 
BRANCH   5   6
ATOM      6  C   UNL     1       1.255 -22.781  14.956  1.00  0.00     0.000 C 
BRANCH   6   7
ATOM      7  C   UNL     1       2.147 -21.886  15.835  1.00  0.00     0.000 C 
BRANCH   7   8
ATOM      8  C   UNL     1       3.537 -22.490  16.089  1.00  0.00     0.000 C 
BRANCH   8   9
ATOM      9  C   UNL     1       4.525 -21.412  16.560  1.00  0.00     0.000 C 
BRANCH   9  10
ATOM     10  C   UNL     1       5.878 -21.994  16.999  1.00  0.00     0.000 C 
BRANCH  10  11
ATOM     11  C   UNL     1       6.789 -22.341  15.807  1.00  0.00     0.000 C 
BRANCH  11  12
ATOM     12  C   UNL     1       8.208 -21.773  15.962  1.00  0.00     0.006 C 
BRANCH  12  13
ATOM     13  C   UNL     1       8.926 -21.601  14.616  1.00  0.00     0.053 C 
BRANCH  13  14
ATOM     14  C   UNL     1       8.211 -20.600  13.762  1.00  0.00     0.041 C 
ATOM     15  O   UNL     1       8.429 -19.368  13.909  1.00  0.00    -0.550 OA
ATOM     16  O   UNL     1       7.293 -21.028  12.809  1.00  0.00    -0.550 OA
ENDBRANCH  13  14
ENDBRANCH  12  13
ENDBRANCH  11  12
ENDBRANCH  10  11
ENDBRANCH   9  10
ENDBRANCH   8   9
ENDBRANCH   7   8
ENDBRANCH   6   7
ENDBRANCH   5   6
ENDBRANCH   4   5
ENDBRANCH   3   4
ENDBRANCH   2   3
ENDBRANCH   1   2
BRANCH   1  17
ATOM     17  C   UNL     1      -5.532 -22.652  16.297  1.00  0.00     0.000 C 
BRANCH  17  18
ATOM     18  C   UNL     1      -7.045 -22.658  16.011  1.00  0.00     0.000 C 
BRANCH  18  19
ATOM     19  C   UNL     1      -7.871 -22.136  17.200  1.00  0.00     0.000 C 
BRANCH  19  20
ATOM     20  C   UNL     1      -7.473 -22.817  18.528  1.00  0.00     0.000 C 
BRANCH  20  21
ATOM     21  C   UNL     1      -8.295 -22.346  19.740  1.00  0.00     0.000 C 
BRANCH  21  22
ATOM     22  C   UNL     1      -9.653 -23.058  19.859  1.00  0.00    -0.000 C 
BRANCH  22  23
ATOM     23  C   UNL     1     -10.671 -22.235  20.669  1.00  0.00    -0.000 C 
BRANCH  23  24
ATOM     24  C   UNL     1     -10.669 -22.618  22.158  1.00  0.00    -0.000 C 
BRANCH  24  25
ATOM     25  C   UNL     1     -10.107 -21.505  23.059  1.00  0.00    -0.000 C 
BRANCH  25  26
ATOM     26  C   UNL     1     -10.513 -20.086  22.610  1.00  0.00    -0.000 C 
BRANCH  26  27
ATOM     27  C   UNL     1      -9.308 -19.136  22.503  1.00  0.00    -0.000 C 
BRANCH  27  28
ATOM     28  C   UNL     1      -9.673 -17.781  21.868  1.00  0.00    -0.000 C 
BRANCH  28  29
ATOM     29  C   UNL     1     -10.536 -17.880  20.597  1.00  0.00    -0.003 C 
ATOM     30  C   UNL     1     -10.140 -19.052  19.701  1.00  0.00     0.004 C 
ENDBRANCH  28  29
ENDBRANCH  27  28
ENDBRANCH  26  27
ENDBRANCH  25  26
ENDBRANCH  24  25
ENDBRANCH  23  24
ENDBRANCH  22  23
ENDBRANCH  21  22
ENDBRANCH  20  21
ENDBRANCH  19  20
ENDBRANCH  18  19
ENDBRANCH  17  18
ENDBRANCH   1  17
TORSDOF 26
ENDMDL
