MODEL 1
REMARK VINA RESULT:    -5.794      0.000      0.000
REMARK INTER + INTRA:          -7.997
REMARK INTER:                  -7.318
REMARK INTRA:                  -0.679
REMARK UNBOUND:                -0.679
REMARK SMILES O=C(C=Cc1ccc(O)cc1)c1ccc(O)cc1O
REMARK SMILES IDX 4 1 3 2 5 3 6 4 7 5 8 6 11 7 10 8 9 9 2 11 1 12 12 13 18 14
REMARK SMILES IDX 13 15 17 16 14 17 15 18 19 19 16 21
REMARK H PARENT 9 10 19 20 16 22
REMARK Flexibility Score: inf
ROOT
ATOM      1  C   UNL     1      68.559  47.107   6.942  1.00  0.00     0.012 C 
ATOM      2  C   UNL     1      68.750  48.421   6.750  1.00  0.00     0.053 C 
ENDROOT
BRANCH   1   3
ATOM      3  C   UNL     1      67.328  46.529   7.533  1.00  0.00    -0.025 A 
ATOM      4  C   UNL     1      67.322  45.164   7.870  1.00  0.00     0.012 A 
ATOM      5  C   UNL     1      66.183  44.572   8.423  1.00  0.00     0.047 A 
ATOM      6  C   UNL     1      65.029  45.330   8.637  1.00  0.00     0.115 A 
ATOM      7  C   UNL     1      66.154  47.285   7.740  1.00  0.00     0.012 A 
ATOM      8  C   UNL     1      65.017  46.688   8.291  1.00  0.00     0.047 A 
BRANCH   6   9
ATOM      9  O   UNL     1      63.902  44.727   9.189  1.00  0.00    -0.508 OA
ATOM     10  H   UNL     1      63.157  44.361   8.606  1.00  0.00     0.293 HD
ENDBRANCH   6   9
ENDBRANCH   1   3
BRANCH   2  11
ATOM     11  C   UNL     1      69.988  48.973   6.158  1.00  0.00     0.189 C 
ATOM     12  O   UNL     1      69.889  49.679   5.120  1.00  0.00    -0.289 OA
BRANCH  11  13
ATOM     13  C   UNL     1      71.334  48.725   6.725  1.00  0.00     0.064 A 
ATOM     14  C   UNL     1      72.222  47.799   6.137  1.00  0.00     0.130 A 
ATOM     15  C   UNL     1      71.717  49.396   7.897  1.00  0.00     0.020 A 
ATOM     16  C   UNL     1      73.489  47.593   6.703  1.00  0.00     0.093 A 
ATOM     17  C   UNL     1      72.979  49.181   8.457  1.00  0.00     0.047 A 
ATOM     18  C   UNL     1      73.869  48.283   7.861  1.00  0.00     0.119 A 
BRANCH  14  19
ATOM     19  O   UNL     1      71.839  47.075   5.008  1.00  0.00    -0.507 OA
ATOM     20  H   UNL     1      71.226  47.472   4.305  1.00  0.00     0.293 HD
ENDBRANCH  14  19
BRANCH  18  21
ATOM     21  O   UNL     1      75.125  48.083   8.428  1.00  0.00    -0.508 OA
ATOM     22  H   UNL     1      75.371  48.485   9.325  1.00  0.00     0.293 HD
ENDBRANCH  18  21
ENDBRANCH  11  13
ENDBRANCH   2  11
TORSDOF 6
ENDMDL
MODEL 2
REMARK VINA RESULT:    -5.744      2.642      4.385
REMARK INTER + INTRA:          -7.934
REMARK INTER:                  -7.679
REMARK INTRA:                  -0.255
REMARK UNBOUND:                -0.679
REMARK SMILES O=C(C=Cc1ccc(O)cc1)c1ccc(O)cc1O
REMARK SMILES IDX 4 1 3 2 5 3 6 4 7 5 8 6 11 7 10 8 9 9 2 11 1 12 12 13 18 14
REMARK SMILES IDX 13 15 17 16 14 17 15 18 19 19 16 21
REMARK H PARENT 9 10 19 20 16 22
REMARK Flexibility Score: inf
ROOT
ATOM      1  C   UNL     1      64.302  46.524   8.637  1.00  0.00     0.012 C 
ATOM      2  C   UNL     1      65.560  46.636   9.088  1.00  0.00     0.053 C 
ENDROOT
BRANCH   1   3
ATOM      3  C   UNL     1      63.548  45.247   8.598  1.00  0.00    -0.025 A 
ATOM      4  C   UNL     1      62.377  45.135   9.368  1.00  0.00     0.012 A 
ATOM      5  C   UNL     1      61.636  43.950   9.369  1.00  0.00     0.047 A 
ATOM      6  C   UNL     1      62.059  42.855   8.612  1.00  0.00     0.115 A 
ATOM      7  C   UNL     1      63.976  44.133   7.846  1.00  0.00     0.012 A 
ATOM      8  C   UNL     1      63.232  42.949   7.852  1.00  0.00     0.047 A 
BRANCH   6   9
ATOM      9  O   UNL     1      61.311  41.681   8.622  1.00  0.00    -0.508 OA
ATOM     10  H   UNL     1      61.580  40.886   9.192  1.00  0.00     0.293 HD
ENDBRANCH   6   9
ENDBRANCH   1   3
BRANCH   2  11
ATOM     11  C   UNL     1      66.290  47.922   9.116  1.00  0.00     0.189 C 
ATOM     12  O   UNL     1      65.740  48.908   9.674  1.00  0.00    -0.289 OA
BRANCH  11  13
ATOM     13  C   UNL     1      67.631  48.103   8.513  1.00  0.00     0.064 A 
ATOM     14  C   UNL     1      67.866  47.835   7.147  1.00  0.00     0.130 A 
ATOM     15  C   UNL     1      68.699  48.510   9.328  1.00  0.00     0.020 A 
ATOM     16  C   UNL     1      69.149  48.020   6.612  1.00  0.00     0.093 A 
ATOM     17  C   UNL     1      69.976  48.686   8.787  1.00  0.00     0.047 A 
ATOM     18  C   UNL     1      70.204  48.446   7.429  1.00  0.00     0.119 A 
BRANCH  14  19
ATOM     19  O   UNL     1      66.834  47.370   6.332  1.00  0.00    -0.507 OA
ATOM     20  H   UNL     1      66.474  46.426   6.417  1.00  0.00     0.293 HD
ENDBRANCH  14  19
BRANCH  18  21
ATOM     21  O   UNL     1      71.480  48.630   6.905  1.00  0.00    -0.508 OA
ATOM     22  H   UNL     1      71.950  49.527   6.957  1.00  0.00     0.293 HD
ENDBRANCH  18  21
ENDBRANCH  11  13
ENDBRANCH   2  11
TORSDOF 6
ENDMDL
MODEL 3
REMARK VINA RESULT:    -5.675      2.251      3.575
REMARK INTER + INTRA:          -7.847
REMARK INTER:                  -7.119
REMARK INTRA:                  -0.728
REMARK UNBOUND:                -0.679
REMARK SMILES O=C(C=Cc1ccc(O)cc1)c1ccc(O)cc1O
REMARK SMILES IDX 4 1 3 2 5 3 6 4 7 5 8 6 11 7 10 8 9 9 2 11 1 12 12 13 18 14
REMARK SMILES IDX 13 15 17 16 14 17 15 18 19 19 16 21
REMARK H PARENT 9 10 19 20 16 22
REMARK Flexibility Score: inf
ROOT
ATOM      1  C   UNL     1      69.891  47.962   7.585  1.00  0.00     0.012 C 
ATOM      2  C   UNL     1      70.881  48.864   7.671  1.00  0.00     0.053 C 
ENDROOT
BRANCH   1   3
ATOM      3  C   UNL     1      68.520  48.185   8.106  1.00  0.00    -0.025 A 
ATOM      4  C   UNL     1      68.356  49.017   9.227  1.00  0.00     0.012 A 
ATOM      5  C   UNL     1      67.084  49.252   9.759  1.00  0.00     0.047 A 
ATOM      6  C   UNL     1      65.960  48.650   9.187  1.00  0.00     0.115 A 
ATOM      7  C   UNL     1      67.382  47.570   7.543  1.00  0.00     0.012 A 
ATOM      8  C   UNL     1      66.113  47.807   8.079  1.00  0.00     0.047 A 
BRANCH   6   9
ATOM      9  O   UNL     1      64.700  48.893   9.727  1.00  0.00    -0.508 OA
ATOM     10  H   UNL     1      63.870  48.914   9.146  1.00  0.00     0.293 HD
ENDBRANCH   6   9
ENDBRANCH   1   3
BRANCH   2  11
ATOM     11  C   UNL     1      72.239  48.617   7.142  1.00  0.00     0.189 C 
ATOM     12  O   UNL     1      73.210  49.195   7.698  1.00  0.00    -0.289 OA
BRANCH  11  13
ATOM     13  C   UNL     1      72.506  47.729   5.987  1.00  0.00     0.064 A 
ATOM     14  C   UNL     1      73.238  46.531   6.133  1.00  0.00     0.130 A 
ATOM     15  C   UNL     1      72.055  48.108   4.712  1.00  0.00     0.020 A 
ATOM     16  C   UNL     1      73.469  45.715   5.016  1.00  0.00     0.093 A 
ATOM     17  C   UNL     1      72.295  47.292   3.604  1.00  0.00     0.047 A 
ATOM     18  C   UNL     1      72.997  46.093   3.752  1.00  0.00     0.119 A 
BRANCH  14  19
ATOM     19  O   UNL     1      73.748  46.164   7.378  1.00  0.00    -0.507 OA
ATOM     20  H   UNL     1      73.152  46.081   8.193  1.00  0.00     0.293 HD
ENDBRANCH  14  19
BRANCH  18  21
ATOM     21  O   UNL     1      73.224  45.288   2.639  1.00  0.00    -0.508 OA
ATOM     22  H   UNL     1      73.774  44.439   2.702  1.00  0.00     0.293 HD
ENDBRANCH  18  21
ENDBRANCH  11  13
ENDBRANCH   2  11
TORSDOF 6
ENDMDL
MODEL 4
REMARK VINA RESULT:    -5.458     11.731     13.752
REMARK INTER + INTRA:          -7.573
REMARK INTER:                  -7.192
REMARK INTRA:                  -0.381
REMARK UNBOUND:                -0.679
REMARK SMILES O=C(C=Cc1ccc(O)cc1)c1ccc(O)cc1O
REMARK SMILES IDX 4 1 3 2 5 3 6 4 7 5 8 6 11 7 10 8 9 9 2 11 1 12 12 13 18 14
REMARK SMILES IDX 13 15 17 16 14 17 15 18 19 19 16 21
REMARK H PARENT 9 10 19 20 16 22
REMARK Flexibility Score: inf
ROOT
ATOM      1  C   UNL     1      73.220  43.936  -3.159  1.00  0.00     0.012 C 
ATOM      2  C   UNL     1      73.392  42.637  -3.447  1.00  0.00     0.053 C 
ENDROOT
BRANCH   1   3
ATOM      3  C   UNL     1      72.572  44.430  -1.920  1.00  0.00    -0.025 A 
ATOM      4  C   UNL     1      71.390  45.182  -2.035  1.00  0.00     0.012 A 
ATOM      5  C   UNL     1      70.746  45.675  -0.896  1.00  0.00     0.047 A 
ATOM      6  C   UNL     1      71.279  45.434   0.373  1.00  0.00     0.115 A 
ATOM      7  C   UNL     1      73.110  44.202  -0.636  1.00  0.00     0.012 A 
ATOM      8  C   UNL     1      72.464  44.698   0.499  1.00  0.00     0.047 A 
BRANCH   6   9
ATOM      9  O   UNL     1      70.626  45.931   1.498  1.00  0.00    -0.508 OA
ATOM     10  H   UNL     1      69.622  46.071   1.510  1.00  0.00     0.293 HD
ENDBRANCH   6   9
ENDBRANCH   1   3
BRANCH   2  11
ATOM     11  C   UNL     1      74.043  42.171  -4.690  1.00  0.00     0.189 C 
ATOM     12  O   UNL     1      75.122  42.718  -5.040  1.00  0.00    -0.289 OA
BRANCH  11  13
ATOM     13  C   UNL     1      73.480  41.097  -5.543  1.00  0.00     0.064 A 
ATOM     14  C   UNL     1      74.034  40.793  -6.805  1.00  0.00     0.130 A 
ATOM     15  C   UNL     1      72.346  40.397  -5.102  1.00  0.00     0.020 A 
ATOM     16  C   UNL     1      73.475  39.768  -7.582  1.00  0.00     0.093 A 
ATOM     17  C   UNL     1      71.792  39.381  -5.886  1.00  0.00     0.047 A 
ATOM     18  C   UNL     1      72.356  39.061  -7.124  1.00  0.00     0.119 A 
BRANCH  14  19
ATOM     19  O   UNL     1      75.123  41.517  -7.290  1.00  0.00    -0.507 OA
ATOM     20  H   UNL     1      75.419  41.448  -8.257  1.00  0.00     0.293 HD
ENDBRANCH  14  19
BRANCH  18  21
ATOM     21  O   UNL     1      71.795  38.044  -7.891  1.00  0.00    -0.508 OA
ATOM     22  H   UNL     1      70.920  38.175  -8.387  1.00  0.00     0.293 HD
ENDBRANCH  18  21
ENDBRANCH  11  13
ENDBRANCH   2  11
TORSDOF 6
ENDMDL
MODEL 5
REMARK VINA RESULT:    -5.314      2.281      7.805
REMARK INTER + INTRA:          -7.390
REMARK INTER:                  -7.023
REMARK INTRA:                  -0.367
REMARK UNBOUND:                -0.679
REMARK SMILES O=C(C=Cc1ccc(O)cc1)c1ccc(O)cc1O
REMARK SMILES IDX 4 1 3 2 5 3 6 4 7 5 8 6 11 7 10 8 9 9 2 11 1 12 12 13 18 14
REMARK SMILES IDX 13 15 17 16 14 17 15 18 19 19 16 21
REMARK H PARENT 9 10 19 20 16 22
REMARK Flexibility Score: inf
ROOT
ATOM      1  C   UNL     1      68.204  48.171   8.099  1.00  0.00     0.012 C 
ATOM      2  C   UNL     1      67.565  47.034   8.414  1.00  0.00     0.053 C 
ENDROOT
BRANCH   1   3
ATOM      3  C   UNL     1      69.629  48.435   8.415  1.00  0.00    -0.025 A 
ATOM      4  C   UNL     1      70.088  48.170   9.717  1.00  0.00     0.012 A 
ATOM      5  C   UNL     1      71.421  48.409  10.064  1.00  0.00     0.047 A 
ATOM      6  C   UNL     1      72.312  48.926   9.120  1.00  0.00     0.115 A 
ATOM      7  C   UNL     1      70.531  48.969   7.471  1.00  0.00     0.012 A 
ATOM      8  C   UNL     1      71.863  49.207   7.823  1.00  0.00     0.047 A 
BRANCH   6   9
ATOM      9  O   UNL     1      73.637  49.158   9.480  1.00  0.00    -0.508 OA
ATOM     10  H   UNL     1      74.051  48.714  10.292  1.00  0.00     0.293 HD
ENDBRANCH   6   9
ENDBRANCH   1   3
BRANCH   2  11
ATOM     11  C   UNL     1      66.143  46.797   8.087  1.00  0.00     0.189 C 
ATOM     12  O   UNL     1      65.526  47.678   7.433  1.00  0.00    -0.289 OA
BRANCH  11  13
ATOM     13  C   UNL     1      65.413  45.575   8.498  1.00  0.00     0.064 A 
ATOM     14  C   UNL     1      64.054  45.382   8.169  1.00  0.00     0.130 A 
ATOM     15  C   UNL     1      66.077  44.607   9.269  1.00  0.00     0.020 A 
ATOM     16  C   UNL     1      63.398  44.211   8.575  1.00  0.00     0.093 A 
ATOM     17  C   UNL     1      65.413  43.446   9.674  1.00  0.00     0.047 A 
ATOM     18  C   UNL     1      64.076  43.242   9.326  1.00  0.00     0.119 A 
BRANCH  14  19
ATOM     19  O   UNL     1      63.357  46.358   7.457  1.00  0.00    -0.507 OA
ATOM     20  H   UNL     1      62.690  46.972   7.911  1.00  0.00     0.293 HD
ENDBRANCH  14  19
BRANCH  18  21
ATOM     21  O   UNL     1      63.430  42.078   9.733  1.00  0.00    -0.508 OA
ATOM     22  H   UNL     1      63.741  41.164   9.424  1.00  0.00     0.293 HD
ENDBRANCH  18  21
ENDBRANCH  11  13
ENDBRANCH   2  11
TORSDOF 6
ENDMDL
MODEL 6
REMARK VINA RESULT:    -5.305      2.511      3.711
REMARK INTER + INTRA:          -7.379
REMARK INTER:                  -6.632
REMARK INTRA:                  -0.747
REMARK UNBOUND:                -0.679
REMARK SMILES O=C(C=Cc1ccc(O)cc1)c1ccc(O)cc1O
REMARK SMILES IDX 4 1 3 2 5 3 6 4 7 5 8 6 11 7 10 8 9 9 2 11 1 12 12 13 18 14
REMARK SMILES IDX 13 15 17 16 14 17 15 18 19 19 16 21
REMARK H PARENT 9 10 19 20 16 22
REMARK Flexibility Score: inf
ROOT
ATOM      1  C   UNL     1      69.761  47.939   6.893  1.00  0.00     0.012 C 
ATOM      2  C   UNL     1      70.958  48.026   7.493  1.00  0.00     0.053 C 
ENDROOT
BRANCH   1   3
ATOM      3  C   UNL     1      68.469  48.149   7.590  1.00  0.00    -0.025 A 
ATOM      4  C   UNL     1      68.438  49.006   8.703  1.00  0.00     0.012 A 
ATOM      5  C   UNL     1      67.245  49.230   9.396  1.00  0.00     0.047 A 
ATOM      6  C   UNL     1      66.068  48.592   8.996  1.00  0.00     0.115 A 
ATOM      7  C   UNL     1      67.279  47.498   7.199  1.00  0.00     0.012 A 
ATOM      8  C   UNL     1      66.089  47.724   7.897  1.00  0.00     0.047 A 
BRANCH   6   9
ATOM      9  O   UNL     1      64.887  48.825   9.696  1.00  0.00    -0.508 OA
ATOM     10  H   UNL     1      64.044  49.133   9.225  1.00  0.00     0.293 HD
ENDBRANCH   6   9
ENDBRANCH   1   3
BRANCH   2  11
ATOM     11  C   UNL     1      72.233  47.813   6.775  1.00  0.00     0.189 C 
ATOM     12  O   UNL     1      73.113  48.710   6.842  1.00  0.00    -0.289 OA
BRANCH  11  13
ATOM     13  C   UNL     1      72.515  46.597   5.977  1.00  0.00     0.064 A 
ATOM     14  C   UNL     1      72.875  46.677   4.614  1.00  0.00     0.130 A 
ATOM     15  C   UNL     1      72.381  45.335   6.579  1.00  0.00     0.020 A 
ATOM     16  C   UNL     1      73.137  45.504   3.893  1.00  0.00     0.093 A 
ATOM     17  C   UNL     1      72.639  44.171   5.850  1.00  0.00     0.047 A 
ATOM     18  C   UNL     1      73.021  44.251   4.508  1.00  0.00     0.119 A 
BRANCH  14  19
ATOM     19  O   UNL     1      72.955  47.916   3.979  1.00  0.00    -0.507 OA
ATOM     20  H   UNL     1      72.302  48.182   3.250  1.00  0.00     0.293 HD
ENDBRANCH  14  19
BRANCH  18  21
ATOM     21  O   UNL     1      73.278  43.082   3.797  1.00  0.00    -0.508 OA
ATOM     22  H   UNL     1      74.212  42.692   3.740  1.00  0.00     0.293 HD
ENDBRANCH  18  21
ENDBRANCH  11  13
ENDBRANCH   2  11
TORSDOF 6
ENDMDL
MODEL 7
REMARK VINA RESULT:    -5.299      1.874      2.348
REMARK INTER + INTRA:          -7.372
REMARK INTER:                  -6.705
REMARK INTRA:                  -0.667
REMARK UNBOUND:                -0.679
REMARK SMILES O=C(C=Cc1ccc(O)cc1)c1ccc(O)cc1O
REMARK SMILES IDX 4 1 3 2 5 3 6 4 7 5 8 6 11 7 10 8 9 9 2 11 1 12 12 13 18 14
REMARK SMILES IDX 13 15 17 16 14 17 15 18 19 19 16 21
REMARK H PARENT 9 10 19 20 16 22
REMARK Flexibility Score: inf
ROOT
ATOM      1  C   UNL     1      68.764  48.631   7.687  1.00  0.00     0.012 C 
ATOM      2  C   UNL     1      69.029  48.502   6.377  1.00  0.00     0.053 C 
ENDROOT
BRANCH   1   3
ATOM      3  C   UNL     1      67.549  48.090   8.342  1.00  0.00    -0.025 A 
ATOM      4  C   UNL     1      66.892  47.000   7.744  1.00  0.00     0.012 A 
ATOM      5  C   UNL     1      65.739  46.460   8.321  1.00  0.00     0.047 A 
ATOM      6  C   UNL     1      65.218  47.007   9.496  1.00  0.00     0.115 A 
ATOM      7  C   UNL     1      67.009  48.645   9.521  1.00  0.00     0.012 A 
ATOM      8  C   UNL     1      65.854  48.103  10.094  1.00  0.00     0.047 A 
BRANCH   6   9
ATOM      9  O   UNL     1      64.069  46.459  10.060  1.00  0.00    -0.508 OA
ATOM     10  H   UNL     1      64.055  45.511  10.420  1.00  0.00     0.293 HD
ENDBRANCH   6   9
ENDBRANCH   1   3
BRANCH   2  11
ATOM     11  C   UNL     1      70.249  49.051   5.749  1.00  0.00     0.189 C 
ATOM     12  O   UNL     1      70.283  50.282   5.486  1.00  0.00    -0.289 OA
BRANCH  11  13
ATOM     13  C   UNL     1      71.426  48.218   5.409  1.00  0.00     0.064 A 
ATOM     14  C   UNL     1      71.818  48.008   4.070  1.00  0.00     0.130 A 
ATOM     15  C   UNL     1      72.142  47.590   6.441  1.00  0.00     0.020 A 
ATOM     16  C   UNL     1      72.939  47.214   3.788  1.00  0.00     0.093 A 
ATOM     17  C   UNL     1      73.255  46.797   6.150  1.00  0.00     0.047 A 
ATOM     18  C   UNL     1      73.659  46.609   4.826  1.00  0.00     0.119 A 
BRANCH  14  19
ATOM     19  O   UNL     1      71.085  48.570   3.025  1.00  0.00    -0.507 OA
ATOM     20  H   UNL     1      71.350  49.454   2.605  1.00  0.00     0.293 HD
ENDBRANCH  14  19
BRANCH  18  21
ATOM     21  O   UNL     1      74.772  45.819   4.553  1.00  0.00    -0.508 OA
ATOM     22  H   UNL     1      75.693  46.226   4.427  1.00  0.00     0.293 HD
ENDBRANCH  18  21
ENDBRANCH  11  13
ENDBRANCH   2  11
TORSDOF 6
ENDMDL
MODEL 8
REMARK VINA RESULT:    -5.166      1.908      2.580
REMARK INTER + INTRA:          -7.204
REMARK INTER:                  -6.763
REMARK INTRA:                  -0.441
REMARK UNBOUND:                -0.679
REMARK SMILES O=C(C=Cc1ccc(O)cc1)c1ccc(O)cc1O
REMARK SMILES IDX 4 1 3 2 5 3 6 4 7 5 8 6 11 7 10 8 9 9 2 11 1 12 12 13 18 14
REMARK SMILES IDX 13 15 17 16 14 17 15 18 19 19 16 21
REMARK H PARENT 9 10 19 20 16 22
REMARK Flexibility Score: inf
ROOT
ATOM      1  C   UNL     1      66.278  47.488   9.109  1.00  0.00     0.012 C 
ATOM      2  C   UNL     1      67.501  47.707   8.601  1.00  0.00     0.053 C 
ENDROOT
BRANCH   1   3
ATOM      3  C   UNL     1      65.435  46.318   8.762  1.00  0.00    -0.025 A 
ATOM      4  C   UNL     1      66.069  45.128   8.367  1.00  0.00     0.012 A 
ATOM      5  C   UNL     1      65.316  44.001   8.024  1.00  0.00     0.047 A 
ATOM      6  C   UNL     1      63.920  44.049   8.060  1.00  0.00     0.115 A 
ATOM      7  C   UNL     1      64.025  46.364   8.783  1.00  0.00     0.012 A 
ATOM      8  C   UNL     1      63.277  45.235   8.438  1.00  0.00     0.047 A 
BRANCH   6   9
ATOM      9  O   UNL     1      63.184  42.919   7.716  1.00  0.00    -0.508 OA
ATOM     10  H   UNL     1      62.818  42.789   6.779  1.00  0.00     0.293 HD
ENDBRANCH   6   9
ENDBRANCH   1   3
BRANCH   2  11
ATOM     11  C   UNL     1      68.321  48.882   8.964  1.00  0.00     0.189 C 
ATOM     12  O   UNL     1      67.733  49.915   9.379  1.00  0.00    -0.289 OA
BRANCH  11  13
ATOM     13  C   UNL     1      69.799  48.899   8.855  1.00  0.00     0.064 A 
ATOM     14  C   UNL     1      70.444  49.255   7.651  1.00  0.00     0.130 A 
ATOM     15  C   UNL     1      70.572  48.513   9.961  1.00  0.00     0.020 A 
ATOM     16  C   UNL     1      71.845  49.261   7.587  1.00  0.00     0.093 A 
ATOM     17  C   UNL     1      71.967  48.517   9.886  1.00  0.00     0.047 A 
ATOM     18  C   UNL     1      72.608  48.894   8.703  1.00  0.00     0.119 A 
BRANCH  14  19
ATOM     19  O   UNL     1      69.695  49.582   6.521  1.00  0.00    -0.507 OA
ATOM     20  H   UNL     1      68.870  50.167   6.581  1.00  0.00     0.293 HD
ENDBRANCH  14  19
BRANCH  18  21
ATOM     21  O   UNL     1      73.999  48.897   8.646  1.00  0.00    -0.508 OA
ATOM     22  H   UNL     1      74.521  48.064   8.397  1.00  0.00     0.293 HD
ENDBRANCH  18  21
ENDBRANCH  11  13
ENDBRANCH   2  11
TORSDOF 6
ENDMDL
MODEL 9
REMARK VINA RESULT:    -5.116      2.060      7.845
REMARK INTER + INTRA:          -7.140
REMARK INTER:                  -6.560
REMARK INTRA:                  -0.580
REMARK UNBOUND:                -0.679
REMARK SMILES O=C(C=Cc1ccc(O)cc1)c1ccc(O)cc1O
REMARK SMILES IDX 4 1 3 2 5 3 6 4 7 5 8 6 11 7 10 8 9 9 2 11 1 12 12 13 18 14
REMARK SMILES IDX 13 15 17 16 14 17 15 18 19 19 16 21
REMARK H PARENT 9 10 19 20 16 22
REMARK Flexibility Score: inf
ROOT
ATOM      1  C   UNL     1      68.076  47.715   8.005  1.00  0.00     0.012 C 
ATOM      2  C   UNL     1      67.014  46.951   7.703  1.00  0.00     0.053 C 
ENDROOT
BRANCH   1   3
ATOM      3  C   UNL     1      69.315  47.767   7.192  1.00  0.00    -0.025 A 
ATOM      4  C   UNL     1      70.322  46.818   7.441  1.00  0.00     0.012 A 
ATOM      5  C   UNL     1      71.510  46.831   6.705  1.00  0.00     0.047 A 
ATOM      6  C   UNL     1      71.716  47.799   5.719  1.00  0.00     0.115 A 
ATOM      7  C   UNL     1      69.536  48.749   6.204  1.00  0.00     0.012 A 
ATOM      8  C   UNL     1      70.727  48.759   5.472  1.00  0.00     0.047 A 
BRANCH   6   9
ATOM      9  O   UNL     1      72.905  47.800   4.994  1.00  0.00    -0.508 OA
ATOM     10  H   UNL     1      72.992  47.297   4.118  1.00  0.00     0.293 HD
ENDBRANCH   6   9
ENDBRANCH   1   3
BRANCH   2  11
ATOM     11  C   UNL     1      65.790  46.918   8.531  1.00  0.00     0.189 C 
ATOM     12  O   UNL     1      65.359  48.003   9.003  1.00  0.00    -0.289 OA
BRANCH  11  13
ATOM     13  C   UNL     1      65.054  45.668   8.835  1.00  0.00     0.064 A 
ATOM     14  C   UNL     1      63.797  45.394   8.254  1.00  0.00     0.130 A 
ATOM     15  C   UNL     1      65.601  44.757   9.752  1.00  0.00     0.020 A 
ATOM     16  C   UNL     1      63.132  44.199   8.564  1.00  0.00     0.093 A 
ATOM     17  C   UNL     1      64.928  43.572  10.060  1.00  0.00     0.047 A 
ATOM     18  C   UNL     1      63.696  43.287   9.465  1.00  0.00     0.119 A 
BRANCH  14  19
ATOM     19  O   UNL     1      63.206  46.313   7.387  1.00  0.00    -0.507 OA
ATOM     20  H   UNL     1      62.904  46.048   6.456  1.00  0.00     0.293 HD
ENDBRANCH  14  19
BRANCH  18  21
ATOM     21  O   UNL     1      63.040  42.099   9.779  1.00  0.00    -0.508 OA
ATOM     22  H   UNL     1      62.050  41.978   9.600  1.00  0.00     0.293 HD
ENDBRANCH  18  21
ENDBRANCH  11  13
ENDBRANCH   2  11
TORSDOF 6
ENDMDL
