MODEL 1
REMARK VINA RESULT:    -5.187      0.000      0.000
REMARK INTER + INTRA:          -6.648
REMARK INTER:                  -6.400
REMARK INTRA:                  -0.249
REMARK UNBOUND:                -0.249
REMARK SMILES C=CC[C@H](C)C(=O)CC
REMARK SMILES IDX 4 1 5 2 6 3 7 4 8 5 9 6 3 7 2 8 1 9
REMARK H PARENT
REMARK Flexibility Score: inf
ROOT
ATOM      1  C   UNL     1      84.373   4.851  27.228  1.00  0.00     0.057 C 
ATOM      2  C   UNL     1      84.382   4.877  25.694  1.00  0.00     0.016 C 
ENDROOT
BRANCH   1   3
ATOM      3  C   UNL     1      84.230   3.426  27.719  1.00  0.00     0.135 C 
ATOM      4  O   UNL     1      83.556   2.630  27.081  1.00  0.00    -0.299 OA
BRANCH   3   5
ATOM      5  C   UNL     1      84.911   2.964  28.981  1.00  0.00     0.072 C 
ATOM      6  C   UNL     1      86.424   2.941  28.801  1.00  0.00     0.012 C 
ENDBRANCH   3   5
ENDBRANCH   1   3
BRANCH   1   7
ATOM      7  C   UNL     1      83.238   5.722  27.809  1.00  0.00     0.038 C 
BRANCH   7   8
ATOM      8  C   UNL     1      82.120   5.938  26.824  1.00  0.00    -0.034 C 
ATOM      9  C   UNL     1      81.098   6.758  27.087  1.00  0.00     0.004 C 
ENDBRANCH   7   8
ENDBRANCH   1   7
TORSDOF 4
ENDMDL
MODEL 2
REMARK VINA RESULT:    -5.115      1.269      1.400
REMARK INTER + INTRA:          -6.560
REMARK INTER:                  -6.335
REMARK INTRA:                  -0.225
REMARK UNBOUND:                -0.249
REMARK SMILES C=CC[C@H](C)C(=O)CC
REMARK SMILES IDX 4 1 5 2 6 3 7 4 8 5 9 6 3 7 2 8 1 9
REMARK H PARENT
REMARK Flexibility Score: inf
ROOT
ATOM      1  C   UNL     1      83.772   5.313  28.593  1.00  0.00     0.057 C 
ATOM      2  C   UNL     1      84.333   5.636  27.201  1.00  0.00     0.016 C 
ENDROOT
BRANCH   1   3
ATOM      3  C   UNL     1      83.965   3.843  28.899  1.00  0.00     0.135 C 
ATOM      4  O   UNL     1      83.260   3.300  29.738  1.00  0.00    -0.299 OA
BRANCH   3   5
ATOM      5  C   UNL     1      85.011   3.028  28.183  1.00  0.00     0.072 C 
ATOM      6  C   UNL     1      86.305   2.985  28.987  1.00  0.00     0.012 C 
ENDBRANCH   3   5
ENDBRANCH   1   3
BRANCH   1   7
ATOM      7  C   UNL     1      82.277   5.681  28.707  1.00  0.00     0.038 C 
BRANCH   7   8
ATOM      8  C   UNL     1      81.666   6.018  27.373  1.00  0.00    -0.034 C 
ATOM      9  C   UNL     1      80.918   7.110  27.198  1.00  0.00     0.004 C 
ENDBRANCH   7   8
ENDBRANCH   1   7
TORSDOF 4
ENDMDL
MODEL 3
REMARK VINA RESULT:    -5.014      1.349      4.332
REMARK INTER + INTRA:          -6.435
REMARK INTER:                  -6.260
REMARK INTRA:                  -0.175
REMARK UNBOUND:                -0.249
REMARK SMILES C=CC[C@H](C)C(=O)CC
REMARK SMILES IDX 4 1 5 2 6 3 7 4 8 5 9 6 3 7 2 8 1 9
REMARK H PARENT
REMARK Flexibility Score: inf
ROOT
ATOM      1  C   UNL     1      83.733   4.427  27.188  1.00  0.00     0.057 C 
ATOM      2  C   UNL     1      84.202   4.903  25.807  1.00  0.00     0.016 C 
ENDROOT
BRANCH   1   3
ATOM      3  C   UNL     1      82.547   5.251  27.643  1.00  0.00     0.135 C 
ATOM      4  O   UNL     1      82.364   5.442  28.837  1.00  0.00    -0.299 OA
BRANCH   3   5
ATOM      5  C   UNL     1      81.585   5.849  26.649  1.00  0.00     0.072 C 
ATOM      6  C   UNL     1      80.991   7.146  27.186  1.00  0.00     0.012 C 
ENDBRANCH   3   5
ENDBRANCH   1   3
BRANCH   1   7
ATOM      7  C   UNL     1      84.862   4.510  28.237  1.00  0.00     0.038 C 
BRANCH   7   8
ATOM      8  C   UNL     1      85.427   3.157  28.581  1.00  0.00    -0.034 C 
ATOM      9  C   UNL     1      86.699   3.000  28.957  1.00  0.00     0.004 C 
ENDBRANCH   7   8
ENDBRANCH   1   7
TORSDOF 4
ENDMDL
MODEL 4
REMARK VINA RESULT:    -4.959      1.479      1.787
REMARK INTER + INTRA:          -6.368
REMARK INTER:                  -6.022
REMARK INTRA:                  -0.346
REMARK UNBOUND:                -0.249
REMARK SMILES C=CC[C@H](C)C(=O)CC
REMARK SMILES IDX 4 1 5 2 6 3 7 4 8 5 9 6 3 7 2 8 1 9
REMARK H PARENT
REMARK Flexibility Score: inf
ROOT
ATOM      1  C   UNL     1      84.087   5.484  28.040  1.00  0.00     0.057 C 
ATOM      2  C   UNL     1      84.289   5.686  26.532  1.00  0.00     0.016 C 
ENDROOT
BRANCH   1   3
ATOM      3  C   UNL     1      84.450   4.065  28.424  1.00  0.00     0.135 C 
ATOM      4  O   UNL     1      85.625   3.759  28.570  1.00  0.00    -0.299 OA
BRANCH   3   5
ATOM      5  C   UNL     1      83.388   3.019  28.637  1.00  0.00     0.072 C 
ATOM      6  C   UNL     1      83.096   2.273  27.339  1.00  0.00     0.012 C 
ENDBRANCH   3   5
ENDBRANCH   1   3
BRANCH   1   7
ATOM      7  C   UNL     1      82.636   5.789  28.469  1.00  0.00     0.038 C 
BRANCH   7   8
ATOM      8  C   UNL     1      81.741   6.086  27.295  1.00  0.00    -0.034 C 
ATOM      9  C   UNL     1      80.967   7.174  27.257  1.00  0.00     0.004 C 
ENDBRANCH   7   8
ENDBRANCH   1   7
TORSDOF 4
ENDMDL
MODEL 5
REMARK VINA RESULT:    -4.924      2.017      4.521
REMARK INTER + INTRA:          -6.324
REMARK INTER:                  -5.982
REMARK INTRA:                  -0.342
REMARK UNBOUND:                -0.249
REMARK SMILES C=CC[C@H](C)C(=O)CC
REMARK SMILES IDX 4 1 5 2 6 3 7 4 8 5 9 6 3 7 2 8 1 9
REMARK H PARENT
REMARK Flexibility Score: inf
ROOT
ATOM      1  C   UNL     1      83.582   3.859  29.402  1.00  0.00     0.057 C 
ATOM      2  C   UNL     1      82.537   2.954  30.069  1.00  0.00     0.016 C 
ENDROOT
BRANCH   1   3
ATOM      3  C   UNL     1      83.037   5.265  29.267  1.00  0.00     0.135 C 
ATOM      4  O   UNL     1      82.746   5.901  30.270  1.00  0.00    -0.299 OA
BRANCH   3   5
ATOM      5  C   UNL     1      82.849   5.902  27.915  1.00  0.00     0.072 C 
ATOM      6  C   UNL     1      81.385   6.259  27.685  1.00  0.00     0.012 C 
ENDBRANCH   3   5
ENDBRANCH   1   3
BRANCH   1   7
ATOM      7  C   UNL     1      84.002   3.323  28.017  1.00  0.00     0.038 C 
BRANCH   7   8
ATOM      8  C   UNL     1      85.493   3.149  27.897  1.00  0.00    -0.034 C 
ATOM      9  C   UNL     1      86.276   3.027  28.973  1.00  0.00     0.004 C 
ENDBRANCH   7   8
ENDBRANCH   1   7
TORSDOF 4
ENDMDL
MODEL 6
REMARK VINA RESULT:    -4.889      1.729      3.791
REMARK INTER + INTRA:          -6.281
REMARK INTER:                  -5.857
REMARK INTRA:                  -0.423
REMARK UNBOUND:                -0.249
REMARK SMILES C=CC[C@H](C)C(=O)CC
REMARK SMILES IDX 4 1 5 2 6 3 7 4 8 5 9 6 3 7 2 8 1 9
REMARK H PARENT
REMARK Flexibility Score: inf
ROOT
ATOM      1  C   UNL     1      84.336   3.571  27.257  1.00  0.00     0.057 C 
ATOM      2  C   UNL     1      85.644   3.364  28.032  1.00  0.00     0.016 C 
ENDROOT
BRANCH   1   3
ATOM      3  C   UNL     1      83.930   5.029  27.308  1.00  0.00     0.135 C 
ATOM      4  O   UNL     1      84.501   5.789  28.077  1.00  0.00    -0.299 OA
BRANCH   3   5
ATOM      5  C   UNL     1      82.836   5.566  26.423  1.00  0.00     0.072 C 
ATOM      6  C   UNL     1      81.706   6.155  27.260  1.00  0.00     0.012 C 
ENDBRANCH   3   5
ENDBRANCH   1   3
BRANCH   1   7
ATOM      7  C   UNL     1      83.196   2.689  27.811  1.00  0.00     0.038 C 
BRANCH   7   8
ATOM      8  C   UNL     1      83.250   2.558  29.309  1.00  0.00    -0.034 C 
ATOM      9  C   UNL     1      82.477   3.297  30.109  1.00  0.00     0.004 C 
ENDBRANCH   7   8
ENDBRANCH   1   7
TORSDOF 4
ENDMDL
MODEL 7
REMARK VINA RESULT:    -4.872      1.570      2.809
REMARK INTER + INTRA:          -6.259
REMARK INTER:                  -5.816
REMARK INTRA:                  -0.443
REMARK UNBOUND:                -0.249
REMARK SMILES C=CC[C@H](C)C(=O)CC
REMARK SMILES IDX 4 1 5 2 6 3 7 4 8 5 9 6 3 7 2 8 1 9
REMARK H PARENT
REMARK Flexibility Score: inf
ROOT
ATOM      1  C   UNL     1      84.555   3.732  28.389  1.00  0.00     0.057 C 
ATOM      2  C   UNL     1      85.790   2.961  28.875  1.00  0.00     0.016 C 
ENDROOT
BRANCH   1   3
ATOM      3  C   UNL     1      83.322   3.241  29.117  1.00  0.00     0.135 C 
ATOM      4  O   UNL     1      82.875   2.130  28.872  1.00  0.00    -0.299 OA
BRANCH   3   5
ATOM      5  C   UNL     1      82.633   4.097  30.149  1.00  0.00     0.072 C 
ATOM      6  C   UNL     1      82.907   5.575  29.894  1.00  0.00     0.012 C 
ENDBRANCH   3   5
ENDBRANCH   1   3
BRANCH   1   7
ATOM      7  C   UNL     1      84.356   3.590  26.865  1.00  0.00     0.038 C 
BRANCH   7   8
ATOM      8  C   UNL     1      84.075   4.910  26.198  1.00  0.00    -0.034 C 
ATOM      9  C   UNL     1      82.856   5.456  26.203  1.00  0.00     0.004 C 
ENDBRANCH   7   8
ENDBRANCH   1   7
TORSDOF 4
ENDMDL
MODEL 8
REMARK VINA RESULT:    -4.794      2.153      3.711
REMARK INTER + INTRA:          -6.164
REMARK INTER:                  -5.762
REMARK INTRA:                  -0.402
REMARK UNBOUND:                -0.249
REMARK SMILES C=CC[C@H](C)C(=O)CC
REMARK SMILES IDX 4 1 5 2 6 3 7 4 8 5 9 6 3 7 2 8 1 9
REMARK H PARENT
REMARK Flexibility Score: inf
ROOT
ATOM      1  C   UNL     1      83.244   4.400  28.007  1.00  0.00     0.057 C 
ATOM      2  C   UNL     1      82.451   5.264  27.017  1.00  0.00     0.016 C 
ENDROOT
BRANCH   1   3
ATOM      3  C   UNL     1      82.759   4.655  29.418  1.00  0.00     0.135 C 
ATOM      4  O   UNL     1      82.658   5.803  29.826  1.00  0.00    -0.299 OA
BRANCH   3   5
ATOM      5  C   UNL     1      82.389   3.517  30.334  1.00  0.00     0.072 C 
ATOM      6  C   UNL     1      82.705   2.175  29.683  1.00  0.00     0.012 C 
ENDBRANCH   3   5
ENDBRANCH   1   3
BRANCH   1   7
ATOM      7  C   UNL     1      84.761   4.671  27.916  1.00  0.00     0.038 C 
BRANCH   7   8
ATOM      8  C   UNL     1      85.569   3.402  27.881  1.00  0.00    -0.034 C 
ATOM      9  C   UNL     1      86.334   3.025  28.910  1.00  0.00     0.004 C 
ENDBRANCH   7   8
ENDBRANCH   1   7
TORSDOF 4
ENDMDL
MODEL 9
REMARK VINA RESULT:    -4.791      1.849      3.681
REMARK INTER + INTRA:          -6.160
REMARK INTER:                  -5.746
REMARK INTRA:                  -0.413
REMARK UNBOUND:                -0.249
REMARK SMILES C=CC[C@H](C)C(=O)CC
REMARK SMILES IDX 4 1 5 2 6 3 7 4 8 5 9 6 3 7 2 8 1 9
REMARK H PARENT
REMARK Flexibility Score: inf
ROOT
ATOM      1  C   UNL     1      83.257   4.503  26.833  1.00  0.00     0.057 C 
ATOM      2  C   UNL     1      84.310   5.560  26.472  1.00  0.00     0.016 C 
ENDROOT
BRANCH   1   3
ATOM      3  C   UNL     1      82.289   5.065  27.852  1.00  0.00     0.135 C 
ATOM      4  O   UNL     1      81.423   5.851  27.495  1.00  0.00    -0.299 OA
BRANCH   3   5
ATOM      5  C   UNL     1      82.367   4.671  29.304  1.00  0.00     0.072 C 
ATOM      6  C   UNL     1      82.794   5.855  30.163  1.00  0.00     0.012 C 
ENDBRANCH   3   5
ENDBRANCH   1   3
BRANCH   1   7
ATOM      7  C   UNL     1      83.906   3.214  27.381  1.00  0.00     0.038 C 
BRANCH   7   8
ATOM      8  C   UNL     1      85.347   3.416  27.768  1.00  0.00    -0.034 C 
ATOM      9  C   UNL     1      85.834   2.970  28.929  1.00  0.00     0.004 C 
ENDBRANCH   7   8
ENDBRANCH   1   7
TORSDOF 4
ENDMDL
