MODEL 1
REMARK VINA RESULT:    54.165      0.000      0.000
REMARK INTER + INTRA:          81.076
REMARK INTER:                  81.080
REMARK INTRA:                  -0.004
REMARK UNBOUND:                -0.004
REMARK SMILES COC(=O)C1=CO[C@H](O[C@H]2O[C@@H](CO)[C@@H](O)[C@H](O)[C@@H]2O)[C@H]2C(CO)=CC[C@H]12
REMARK SMILES IDX 9 1 8 2 5 3 6 4 27 5 7 6 21 7 26 8 22 9 25 10 3 11 4 12 2 13
REMARK SMILES IDX 1 14 23 15 24 16 10 18 19 19 11 20 17 21 12 22 15 23 20 24
REMARK SMILES IDX 18 26 13 28 14 29 16 31
REMARK H PARENT 24 17 20 25 18 27 14 30 16 32
REMARK Flexibility Score: inf
ROOT
ATOM      1  O   UNL     1     -41.618  28.725 -21.676  1.00  0.00    -0.310 OA
ENDROOT
BRANCH   1   2
ATOM      2  C   UNL     1     -40.313  29.271 -21.689  1.00  0.00     0.316 C 
ATOM      3  C   UNL     1     -37.951  29.710 -20.030  1.00  0.00     0.076 C 
ATOM      4  C   UNL     1     -39.059  30.455 -19.844  1.00  0.00     0.202 C 
ATOM      5  C   UNL     1     -37.934  28.833 -21.246  1.00  0.00     0.047 C 
ATOM      6  O   UNL     1     -40.210  30.267 -20.649  1.00  0.00    -0.471 OA
ATOM      7  C   UNL     1     -39.296  28.166 -21.391  1.00  0.00     0.094 C 
ATOM      8  C   UNL     1     -36.964  27.659 -21.349  1.00  0.00     0.037 C 
ATOM      9  C   UNL     1     -38.996  27.097 -22.388  1.00  0.00    -0.039 C 
ATOM     10  C   UNL     1     -37.702  26.765 -22.303  1.00  0.00    -0.024 C 
BRANCH   3  11
ATOM     11  C   UNL     1     -36.730  29.941 -19.232  1.00  0.00     0.337 C 
ATOM     12  O   UNL     1     -36.378  29.074 -18.388  1.00  0.00    -0.246 OA
BRANCH  11  13
ATOM     13  O   UNL     1     -35.967  31.109 -19.355  1.00  0.00    -0.466 OA
ATOM     14  C   UNL     1     -36.444  32.405 -19.008  1.00  0.00     0.282 C 
ENDBRANCH  11  13
ENDBRANCH   3  11
BRANCH   9  15
ATOM     15  C   UNL     1     -40.008  26.312 -23.177  1.00  0.00     0.187 C 
BRANCH  15  16
ATOM     16  O   UNL     1     -41.012  25.828 -22.328  1.00  0.00    -0.392 OA
ATOM     17  H   UNL     1     -41.556  26.613 -22.055  1.00  0.00     0.211 HD
ENDBRANCH  15  16
ENDBRANCH   9  15
ENDBRANCH   1   2
BRANCH   1  18
ATOM     18  C   UNL     1     -42.567  29.676 -22.116  1.00  0.00     0.286 C 
ATOM     19  C   UNL     1     -41.829  30.790 -22.899  1.00  0.00     0.202 C 
ATOM     20  O   UNL     1     -43.222  30.231 -20.988  1.00  0.00    -0.341 OA
ATOM     21  C   UNL     1     -42.474  32.175 -22.644  1.00  0.00     0.179 C 
ATOM     22  C   UNL     1     -44.358  30.987 -21.386  1.00  0.00     0.178 C 
ATOM     23  C   UNL     1     -44.003  32.032 -22.500  1.00  0.00     0.177 C 
BRANCH  19  24
ATOM     24  O   UNL     1     -41.856  30.477 -24.269  1.00  0.00    -0.385 OA
ATOM     25  H   UNL     1     -42.810  30.418 -24.538  1.00  0.00     0.211 HD
ENDBRANCH  19  24
BRANCH  21  26
ATOM     26  O   UNL     1     -42.175  33.070 -23.685  1.00  0.00    -0.387 OA
ATOM     27  H   UNL     1     -41.312  32.772 -24.077  1.00  0.00     0.211 HD
ENDBRANCH  21  26
BRANCH  22  28
ATOM     28  C   UNL     1     -44.967  31.621 -20.127  1.00  0.00     0.191 C 
BRANCH  28  29
ATOM     29  O   UNL     1     -46.037  32.449 -20.491  1.00  0.00    -0.394 OA
ATOM     30  H   UNL     1     -46.252  32.993 -19.689  1.00  0.00     0.210 HD
ENDBRANCH  28  29
ENDBRANCH  22  28
BRANCH  23  31
ATOM     31  O   UNL     1     -44.626  33.280 -22.303  1.00  0.00    -0.387 OA
ATOM     32  H   UNL     1     -45.513  33.123 -21.885  1.00  0.00     0.211 HD
ENDBRANCH  23  31
ENDBRANCH   1  18
TORSDOF 11
ENDMDL
