MODEL 1
REMARK VINA RESULT:    -5.935      0.000      0.000
REMARK INTER + INTRA:          -6.380
REMARK INTER:                  -6.282
REMARK INTRA:                  -0.098
REMARK UNBOUND:                -0.098
REMARK SMILES C=C(C)[C@H]1CC=C(C)C(=O)C1
REMARK SMILES IDX 8 1 7 2 6 3 5 4 4 5 11 6 9 7 10 8 2 9 1 10 3 11
REMARK H PARENT
REMARK Flexibility Score: inf
ROOT
ATOM      1  C   UNL     1      32.150  21.595  25.731  1.00  0.00     0.048 C 
ATOM      2  C   UNL     1      31.948  20.179  26.198  1.00  0.00    -0.012 C 
ATOM      3  C   UNL     1      32.127  19.861  27.491  1.00  0.00    -0.019 C 
ATOM      4  C   UNL     1      32.015  18.444  27.989  1.00  0.00     0.036 C 
ATOM      5  C   UNL     1      31.009  17.636  27.147  1.00  0.00     0.025 C 
ATOM      6  C   UNL     1      31.385  17.703  25.655  1.00  0.00     0.089 C 
ATOM      7  C   UNL     1      31.572  19.130  25.217  1.00  0.00     0.158 C 
ATOM      8  O   UNL     1      31.452  19.419  23.996  1.00  0.00    -0.295 OA
ENDROOT
BRANCH   5   9
ATOM      9  C   UNL     1      30.907  16.196  27.631  1.00  0.00    -0.077 C 
ATOM     10  C   UNL     1      31.958  15.610  28.225  1.00  0.00     0.008 C 
ATOM     11  C   UNL     1      29.638  15.398  27.462  1.00  0.00     0.039 C 
ENDBRANCH   5   9
TORSDOF 1
ENDMDL
MODEL 2
REMARK VINA RESULT:    -5.781      1.880      4.918
REMARK INTER + INTRA:          -6.217
REMARK INTER:                  -6.128
REMARK INTRA:                  -0.088
REMARK UNBOUND:                -0.098
REMARK SMILES C=C(C)[C@H]1CC=C(C)C(=O)C1
REMARK SMILES IDX 8 1 7 2 6 3 5 4 4 5 11 6 9 7 10 8 2 9 1 10 3 11
REMARK H PARENT
REMARK Flexibility Score: inf
ROOT
ATOM      1  C   UNL     1      30.172  16.570  26.732  1.00  0.00     0.048 C 
ATOM      2  C   UNL     1      30.941  17.856  26.591  1.00  0.00    -0.012 C 
ATOM      3  C   UNL     1      31.289  18.305  25.373  1.00  0.00    -0.019 C 
ATOM      4  C   UNL     1      32.128  19.542  25.187  1.00  0.00     0.036 C 
ATOM      5  C   UNL     1      31.887  20.554  26.324  1.00  0.00     0.025 C 
ATOM      6  C   UNL     1      32.124  19.888  27.692  1.00  0.00     0.089 C 
ATOM      7  C   UNL     1      31.336  18.612  27.805  1.00  0.00     0.158 C 
ATOM      8  O   UNL     1      31.052  18.164  28.949  1.00  0.00    -0.295 OA
ENDROOT
BRANCH   5   9
ATOM      9  C   UNL     1      32.749  21.798  26.155  1.00  0.00    -0.077 C 
ATOM     10  C   UNL     1      32.295  22.837  25.435  1.00  0.00     0.008 C 
ATOM     11  C   UNL     1      34.116  21.900  26.783  1.00  0.00     0.039 C 
ENDBRANCH   5   9
TORSDOF 1
ENDMDL
MODEL 3
REMARK VINA RESULT:    -5.738      1.277      4.447
REMARK INTER + INTRA:          -6.172
REMARK INTER:                  -6.075
REMARK INTRA:                  -0.097
REMARK UNBOUND:                -0.098
REMARK SMILES C=C(C)[C@H]1CC=C(C)C(=O)C1
REMARK SMILES IDX 8 1 7 2 6 3 5 4 4 5 11 6 9 7 10 8 2 9 1 10 3 11
REMARK H PARENT
REMARK Flexibility Score: inf
ROOT
ATOM      1  C   UNL     1      30.285  16.485  26.830  1.00  0.00     0.048 C 
ATOM      2  C   UNL     1      30.905  17.851  26.710  1.00  0.00    -0.012 C 
ATOM      3  C   UNL     1      30.952  18.668  27.775  1.00  0.00    -0.019 C 
ATOM      4  C   UNL     1      31.489  20.073  27.683  1.00  0.00     0.036 C 
ATOM      5  C   UNL     1      32.581  20.181  26.602  1.00  0.00     0.025 C 
ATOM      6  C   UNL     1      32.049  19.669  25.250  1.00  0.00     0.089 C 
ATOM      7  C   UNL     1      31.443  18.301  25.402  1.00  0.00     0.158 C 
ATOM      8  O   UNL     1      31.355  17.552  24.391  1.00  0.00    -0.295 OA
ENDROOT
BRANCH   5   9
ATOM      9  C   UNL     1      33.113  21.603  26.487  1.00  0.00    -0.077 C 
ATOM     10  C   UNL     1      32.438  22.519  25.775  1.00  0.00     0.008 C 
ATOM     11  C   UNL     1      34.395  22.020  27.164  1.00  0.00     0.039 C 
ENDBRANCH   5   9
TORSDOF 1
ENDMDL
MODEL 4
REMARK VINA RESULT:    -5.733      1.589      2.676
REMARK INTER + INTRA:          -6.166
REMARK INTER:                  -6.070
REMARK INTRA:                  -0.096
REMARK UNBOUND:                -0.098
REMARK SMILES C=C(C)[C@H]1CC=C(C)C(=O)C1
REMARK SMILES IDX 8 1 7 2 6 3 5 4 4 5 11 6 9 7 10 8 2 9 1 10 3 11
REMARK H PARENT
REMARK Flexibility Score: inf
ROOT
ATOM      1  C   UNL     1      31.403  19.714  23.109  1.00  0.00     0.048 C 
ATOM      2  C   UNL     1      31.477  19.251  24.539  1.00  0.00    -0.012 C 
ATOM      3  C   UNL     1      31.141  17.990  24.859  1.00  0.00    -0.019 C 
ATOM      4  C   UNL     1      31.123  17.505  26.285  1.00  0.00     0.036 C 
ATOM      5  C   UNL     1      32.170  18.246  27.138  1.00  0.00     0.025 C 
ATOM      6  C   UNL     1      31.964  19.769  27.037  1.00  0.00     0.089 C 
ATOM      7  C   UNL     1      31.901  20.201  25.597  1.00  0.00     0.158 C 
ATOM      8  O   UNL     1      32.169  21.397  25.303  1.00  0.00    -0.295 OA
ENDROOT
BRANCH   5   9
ATOM      9  C   UNL     1      32.143  17.777  28.586  1.00  0.00    -0.077 C 
ATOM     10  C   UNL     1      31.038  17.951  29.330  1.00  0.00     0.008 C 
ATOM     11  C   UNL     1      33.338  17.108  29.220  1.00  0.00     0.039 C 
ENDBRANCH   5   9
TORSDOF 1
ENDMDL
MODEL 5
REMARK VINA RESULT:    -5.617      1.440      2.042
REMARK INTER + INTRA:          -6.044
REMARK INTER:                  -5.956
REMARK INTRA:                  -0.088
REMARK UNBOUND:                -0.098
REMARK SMILES C=C(C)[C@H]1CC=C(C)C(=O)C1
REMARK SMILES IDX 8 1 7 2 6 3 5 4 4 5 11 6 9 7 10 8 2 9 1 10 3 11
REMARK H PARENT
REMARK Flexibility Score: inf
ROOT
ATOM      1  C   UNL     1      32.126  21.716  25.227  1.00  0.00     0.048 C 
ATOM      2  C   UNL     1      31.772  20.372  25.805  1.00  0.00    -0.012 C 
ATOM      3  C   UNL     1      31.756  19.282  25.020  1.00  0.00    -0.019 C 
ATOM      4  C   UNL     1      31.330  17.932  25.535  1.00  0.00     0.036 C 
ATOM      5  C   UNL     1      31.660  17.779  27.032  1.00  0.00     0.025 C 
ATOM      6  C   UNL     1      31.039  18.934  27.839  1.00  0.00     0.089 C 
ATOM      7  C   UNL     1      31.417  20.262  27.242  1.00  0.00     0.158 C 
ATOM      8  O   UNL     1      31.385  21.293  27.967  1.00  0.00    -0.295 OA
ENDROOT
BRANCH   5   9
ATOM      9  C   UNL     1      31.213  16.424  27.566  1.00  0.00    -0.077 C 
ATOM     10  C   UNL     1      32.060  15.672  28.287  1.00  0.00     0.008 C 
ATOM     11  C   UNL     1      29.824  15.896  27.305  1.00  0.00     0.039 C 
ENDBRANCH   5   9
TORSDOF 1
ENDMDL
MODEL 6
REMARK VINA RESULT:    -5.556      2.137      2.604
REMARK INTER + INTRA:          -5.978
REMARK INTER:                  -5.880
REMARK INTRA:                  -0.099
REMARK UNBOUND:                -0.098
REMARK SMILES C=C(C)[C@H]1CC=C(C)C(=O)C1
REMARK SMILES IDX 8 1 7 2 6 3 5 4 4 5 11 6 9 7 10 8 2 9 1 10 3 11
REMARK H PARENT
REMARK Flexibility Score: inf
ROOT
ATOM      1  C   UNL     1      32.603  22.747  26.002  1.00  0.00     0.048 C 
ATOM      2  C   UNL     1      32.531  21.449  26.759  1.00  0.00    -0.012 C 
ATOM      3  C   UNL     1      31.340  20.929  27.097  1.00  0.00    -0.019 C 
ATOM      4  C   UNL     1      31.220  19.675  27.923  1.00  0.00     0.036 C 
ATOM      5  C   UNL     1      32.412  18.731  27.678  1.00  0.00     0.025 C 
ATOM      6  C   UNL     1      33.740  19.469  27.926  1.00  0.00     0.089 C 
ATOM      7  C   UNL     1      33.785  20.757  27.151  1.00  0.00     0.158 C 
ATOM      8  O   UNL     1      34.903  21.271  26.876  1.00  0.00    -0.295 OA
ENDROOT
BRANCH   5   9
ATOM      9  C   UNL     1      32.309  17.471  28.526  1.00  0.00    -0.077 C 
ATOM     10  C   UNL     1      33.241  17.208  29.457  1.00  0.00     0.008 C 
ATOM     11  C   UNL     1      31.171  16.495  28.351  1.00  0.00     0.039 C 
ENDBRANCH   5   9
TORSDOF 1
ENDMDL
MODEL 7
REMARK VINA RESULT:    -5.473      2.077      4.754
REMARK INTER + INTRA:          -5.891
REMARK INTER:                  -5.793
REMARK INTRA:                  -0.098
REMARK UNBOUND:                -0.098
REMARK SMILES C=C(C)[C@H]1CC=C(C)C(=O)C1
REMARK SMILES IDX 8 1 7 2 6 3 5 4 4 5 11 6 9 7 10 8 2 9 1 10 3 11
REMARK H PARENT
REMARK Flexibility Score: inf
ROOT
ATOM      1  C   UNL     1      29.489  14.925  27.719  1.00  0.00     0.048 C 
ATOM      2  C   UNL     1      30.237  16.105  27.160  1.00  0.00    -0.012 C 
ATOM      3  C   UNL     1      29.843  16.670  26.007  1.00  0.00    -0.019 C 
ATOM      4  C   UNL     1      30.608  17.800  25.368  1.00  0.00     0.036 C 
ATOM      5  C   UNL     1      31.312  18.665  26.429  1.00  0.00     0.025 C 
ATOM      6  C   UNL     1      32.206  17.790  27.327  1.00  0.00     0.089 C 
ATOM      7  C   UNL     1      31.428  16.625  27.877  1.00  0.00     0.158 C 
ATOM      8  O   UNL     1      31.827  16.064  28.933  1.00  0.00    -0.295 OA
ENDROOT
BRANCH   5   9
ATOM      9  C   UNL     1      32.105  19.797  25.789  1.00  0.00    -0.077 C 
ATOM     10  C   UNL     1      31.986  20.041  24.474  1.00  0.00     0.008 C 
ATOM     11  C   UNL     1      33.032  20.666  26.602  1.00  0.00     0.039 C 
ENDBRANCH   5   9
TORSDOF 1
ENDMDL
MODEL 8
REMARK VINA RESULT:    -5.442      2.157      4.177
REMARK INTER + INTRA:          -5.859
REMARK INTER:                  -5.761
REMARK INTRA:                  -0.098
REMARK UNBOUND:                -0.098
REMARK SMILES C=C(C)[C@H]1CC=C(C)C(=O)C1
REMARK SMILES IDX 8 1 7 2 6 3 5 4 4 5 11 6 9 7 10 8 2 9 1 10 3 11
REMARK H PARENT
REMARK Flexibility Score: inf
ROOT
ATOM      1  C   UNL     1      31.090  17.980  28.885  1.00  0.00     0.048 C 
ATOM      2  C   UNL     1      31.193  18.221  27.403  1.00  0.00    -0.012 C 
ATOM      3  C   UNL     1      31.849  19.296  26.937  1.00  0.00    -0.019 C 
ATOM      4  C   UNL     1      31.909  19.621  25.467  1.00  0.00     0.036 C 
ATOM      5  C   UNL     1      31.855  18.341  24.611  1.00  0.00     0.025 C 
ATOM      6  C   UNL     1      30.613  17.506  24.974  1.00  0.00     0.089 C 
ATOM      7  C   UNL     1      30.543  17.276  26.459  1.00  0.00     0.158 C 
ATOM      8  O   UNL     1      29.886  16.295  26.899  1.00  0.00    -0.295 OA
ENDROOT
BRANCH   5   9
ATOM      9  C   UNL     1      31.893  18.663  23.124  1.00  0.00    -0.077 C 
ATOM     10  C   UNL     1      31.415  19.836  22.677  1.00  0.00     0.008 C 
ATOM     11  C   UNL     1      32.462  17.690  22.122  1.00  0.00     0.039 C 
ENDBRANCH   5   9
TORSDOF 1
ENDMDL
MODEL 9
REMARK VINA RESULT:    -5.348      2.054      4.295
REMARK INTER + INTRA:          -5.759
REMARK INTER:                  -5.667
REMARK INTRA:                  -0.092
REMARK UNBOUND:                -0.098
REMARK SMILES C=C(C)[C@H]1CC=C(C)C(=O)C1
REMARK SMILES IDX 8 1 7 2 6 3 5 4 4 5 11 6 9 7 10 8 2 9 1 10 3 11
REMARK H PARENT
REMARK Flexibility Score: inf
ROOT
ATOM      1  C   UNL     1      31.003  18.276  28.724  1.00  0.00     0.048 C 
ATOM      2  C   UNL     1      31.310  18.395  27.256  1.00  0.00    -0.012 C 
ATOM      3  C   UNL     1      31.014  17.385  26.420  1.00  0.00    -0.019 C 
ATOM      4  C   UNL     1      31.376  17.426  24.958  1.00  0.00     0.036 C 
ATOM      5  C   UNL     1      31.376  18.871  24.424  1.00  0.00     0.025 C 
ATOM      6  C   UNL     1      32.300  19.758  25.279  1.00  0.00     0.089 C 
ATOM      7  C   UNL     1      31.964  19.623  26.739  1.00  0.00     0.158 C 
ATOM      8  O   UNL     1      32.286  20.549  27.532  1.00  0.00    -0.295 OA
ENDROOT
BRANCH   5   9
ATOM      9  C   UNL     1      31.762  18.922  22.953  1.00  0.00    -0.077 C 
ATOM     10  C   UNL     1      31.451  19.998  22.212  1.00  0.00     0.008 C 
ATOM     11  C   UNL     1      32.499  17.782  22.293  1.00  0.00     0.039 C 
ENDBRANCH   5   9
TORSDOF 1
ENDMDL
