MODEL 1
REMARK VINA RESULT:    -4.040      0.000      0.000
REMARK INTER + INTRA:          -6.010
REMARK INTER:                  -5.576
REMARK INTRA:                  -0.434
REMARK UNBOUND:                -0.434
REMARK SMILES O=c1c(-c2ccc(O)cc2)coc2c([C@H]3O[C@H](CO)[C@@H](O)[C@H](O)[C@H]3O)c(O)ccc12
REMARK SMILES IDX 3 1 11 2 12 3 13 4 30 5 2 6 1 7 29 8 28 9 26 10 14 11 4 12
REMARK SMILES IDX 5 13 6 14 7 15 10 16 9 17 8 18 15 20 24 21 16 22 22 23 17 24
REMARK SMILES IDX 20 25 25 26 23 28 18 30 19 31 21 33 27 35
REMARK H PARENT 8 19 25 27 23 29 19 32 21 34 27 36
REMARK Flexibility Score: inf
ROOT
ATOM      1  C   UNL     1     -96.150  27.431 -38.050  1.00  0.00     0.065 A 
ATOM      2  C   UNL     1     -95.661  26.700 -36.950  1.00  0.00     0.208 A 
ATOM      3  O   UNL     1     -95.781  25.386 -37.269  1.00  0.00    -0.463 OA
ATOM      4  C   UNL     1     -95.840  25.053 -38.615  1.00  0.00     0.147 A 
ATOM      5  C   UNL     1     -94.787  25.527 -39.286  1.00  0.00     0.066 A 
ATOM      6  C   UNL     1     -95.347  26.894 -39.249  1.00  0.00     0.200 A 
ATOM      7  O   UNL     1     -95.388  27.553 -40.305  1.00  0.00    -0.288 OA
ATOM      8  C   UNL     1     -93.925  24.366 -38.697  1.00  0.00     0.020 A 
ATOM      9  C   UNL     1     -94.551  23.017 -38.082  1.00  0.00     0.047 A 
ATOM     10  C   UNL     1     -96.059  22.785 -38.008  1.00  0.00     0.125 A 
ATOM     11  C   UNL     1     -96.460  23.769 -38.965  1.00  0.00     0.069 A 
ENDROOT
BRANCH   1  12
ATOM     12  C   UNL     1     -97.691  27.418 -38.085  1.00  0.00    -0.011 A 
ATOM     13  C   UNL     1     -98.614  26.895 -37.131  1.00  0.00     0.013 A 
ATOM     14  C   UNL     1     -99.972  27.071 -37.171  1.00  0.00     0.047 A 
ATOM     15  C   UNL     1    -100.604  27.759 -38.256  1.00  0.00     0.115 A 
ATOM     16  C   UNL     1     -98.339  28.041 -39.230  1.00  0.00     0.013 A 
ATOM     17  C   UNL     1     -99.716  28.254 -39.287  1.00  0.00     0.047 A 
BRANCH  15  18
ATOM     18  O   UNL     1    -101.902  28.100 -38.269  1.00  0.00    -0.508 OA
ATOM     19  H   UNL     1    -102.653  27.504 -38.461  1.00  0.00     0.293 HD
ENDBRANCH  15  18
ENDBRANCH   1  12
BRANCH  11  20
ATOM     20  C   UNL     1     -96.333  23.197 -40.432  1.00  0.00     0.188 C 
ATOM     21  C   UNL     1     -96.659  24.111 -41.632  1.00  0.00     0.179 C 
ATOM     22  O   UNL     1     -97.228  22.060 -40.440  1.00  0.00    -0.362 OA
ATOM     23  C   UNL     1     -96.125  23.437 -42.866  1.00  0.00     0.177 C 
ATOM     24  C   UNL     1     -97.361  21.387 -41.729  1.00  0.00     0.176 C 
ATOM     25  C   UNL     1     -96.629  21.982 -42.994  1.00  0.00     0.177 C 
BRANCH  21  26
ATOM     26  O   UNL     1     -98.066  24.318 -41.709  1.00  0.00    -0.387 OA
ATOM     27  H   UNL     1     -98.278  24.785 -40.856  1.00  0.00     0.211 HD
ENDBRANCH  21  26
BRANCH  23  28
ATOM     28  O   UNL     1     -94.702  23.384 -42.845  1.00  0.00    -0.387 OA
ATOM     29  H   UNL     1     -94.429  24.303 -42.633  1.00  0.00     0.211 HD
ENDBRANCH  23  28
BRANCH  24  30
ATOM     30  C   UNL     1     -96.999  19.918 -41.496  1.00  0.00     0.191 C 
BRANCH  30  31
ATOM     31  O   UNL     1     -96.830  19.288 -42.704  1.00  0.00    -0.394 OA
ATOM     32  H   UNL     1     -97.734  19.174 -43.132  1.00  0.00     0.210 HD
ENDBRANCH  30  31
ENDBRANCH  24  30
BRANCH  25  33
ATOM     33  O   UNL     1     -97.446  22.043 -44.125  1.00  0.00    -0.388 OA
ATOM     34  H   UNL     1     -98.162  22.747 -44.055  1.00  0.00     0.211 HD
ENDBRANCH  25  33
ENDBRANCH  11  20
BRANCH  10  35
ATOM     35  O   UNL     1     -97.383  23.278 -38.048  1.00  0.00    -0.507 OA
ATOM     36  H   UNL     1     -97.783  24.276 -38.104  1.00  0.00     0.293 HD
ENDBRANCH  10  35
TORSDOF 9
ENDMDL
MODEL 2
REMARK VINA RESULT:    -4.011      8.487     11.742
REMARK INTER + INTRA:          -5.970
REMARK INTER:                  -5.294
REMARK INTRA:                  -0.676
REMARK UNBOUND:                -0.434
REMARK SMILES O=c1c(-c2ccc(O)cc2)coc2c([C@H]3O[C@H](CO)[C@@H](O)[C@H](O)[C@H]3O)c(O)ccc12
REMARK SMILES IDX 3 1 11 2 12 3 13 4 30 5 2 6 1 7 29 8 28 9 26 10 14 11 4 12
REMARK SMILES IDX 5 13 6 14 7 15 10 16 9 17 8 18 15 20 24 21 16 22 22 23 17 24
REMARK SMILES IDX 20 25 25 26 23 28 18 30 19 31 21 33 27 35
REMARK H PARENT 8 19 25 27 23 29 19 32 21 34 27 36
REMARK Flexibility Score: inf
ROOT
ATOM      1  C   UNL     1     -95.974  24.659 -31.925  1.00  0.00     0.065 A 
ATOM      2  C   UNL     1     -94.878  24.651 -31.040  1.00  0.00     0.208 A 
ATOM      3  O   UNL     1     -95.356  25.015 -29.822  1.00  0.00    -0.463 OA
ATOM      4  C   UNL     1     -96.709  24.827 -29.579  1.00  0.00     0.147 A 
ATOM      5  C   UNL     1     -97.074  23.558 -29.783  1.00  0.00     0.066 A 
ATOM      6  C   UNL     1     -97.016  23.751 -31.247  1.00  0.00     0.200 A 
ATOM      7  O   UNL     1     -97.976  23.368 -31.941  1.00  0.00    -0.288 OA
ATOM      8  C   UNL     1     -96.438  23.184 -28.407  1.00  0.00     0.020 A 
ATOM      9  C   UNL     1     -96.127  24.257 -27.249  1.00  0.00     0.047 A 
ATOM     10  C   UNL     1     -96.415  25.747 -27.428  1.00  0.00     0.125 A 
ATOM     11  C   UNL     1     -97.325  25.645 -28.527  1.00  0.00     0.069 A 
ENDROOT
BRANCH   1  12
ATOM     12  C   UNL     1     -96.351  26.099 -32.328  1.00  0.00    -0.011 A 
ATOM     13  C   UNL     1     -97.630  26.731 -32.335  1.00  0.00     0.013 A 
ATOM     14  C   UNL     1     -97.847  28.065 -32.558  1.00  0.00     0.047 A 
ATOM     15  C   UNL     1     -96.772  28.952 -32.886  1.00  0.00     0.115 A 
ATOM     16  C   UNL     1     -95.271  26.981 -32.746  1.00  0.00     0.013 A 
ATOM     17  C   UNL     1     -95.459  28.346 -32.957  1.00  0.00     0.047 A 
BRANCH  15  18
ATOM     18  O   UNL     1     -96.899  30.287 -32.955  1.00  0.00    -0.508 OA
ATOM     19  H   UNL     1     -96.176  30.939 -32.865  1.00  0.00     0.293 HD
ENDBRANCH  15  18
ENDBRANCH   1  12
BRANCH  11  20
ATOM     20  C   UNL     1     -98.780  25.313 -28.009  1.00  0.00     0.188 C 
ATOM     21  C   UNL     1     -99.876  24.931 -29.026  1.00  0.00     0.179 C 
ATOM     22  O   UNL     1     -99.180  26.511 -27.303  1.00  0.00    -0.362 OA
ATOM     23  C   UNL     1    -101.022  24.340 -28.249  1.00  0.00     0.177 C 
ATOM     24  C   UNL     1    -100.544  26.498 -26.785  1.00  0.00     0.176 C 
ATOM     25  C   UNL     1    -101.484  25.270 -27.105  1.00  0.00     0.177 C 
BRANCH  21  26
ATOM     26  O   UNL     1    -100.274  26.086 -29.759  1.00  0.00    -0.387 OA
ATOM     27  H   UNL     1    -100.539  26.730 -29.049  1.00  0.00     0.211 HD
ENDBRANCH  21  26
BRANCH  23  28
ATOM     28  O   UNL     1    -100.652  23.101 -27.654  1.00  0.00    -0.387 OA
ATOM     29  H   UNL     1     -99.722  23.239 -27.369  1.00  0.00     0.211 HD
ENDBRANCH  23  28
BRANCH  24  30
ATOM     30  C   UNL     1    -100.445  26.767 -25.281  1.00  0.00     0.191 C 
BRANCH  30  31
ATOM     31  O   UNL     1    -101.315  25.944 -24.608  1.00  0.00    -0.394 OA
ATOM     32  H   UNL     1    -101.187  25.004 -24.945  1.00  0.00     0.210 HD
ENDBRANCH  30  31
ENDBRANCH  24  30
BRANCH  25  33
ATOM     33  O   UNL     1    -102.762  25.649 -27.519  1.00  0.00    -0.388 OA
ATOM     34  H   UNL     1    -103.450  24.926 -27.381  1.00  0.00     0.211 HD
ENDBRANCH  25  33
ENDBRANCH  11  20
BRANCH  10  35
ATOM     35  O   UNL     1     -96.694  26.854 -28.260  1.00  0.00    -0.507 OA
ATOM     36  H   UNL     1     -96.582  27.916 -28.115  1.00  0.00     0.293 HD
ENDBRANCH  10  35
TORSDOF 9
ENDMDL
MODEL 3
REMARK VINA RESULT:    -3.967      2.869      5.275
REMARK INTER + INTRA:          -5.909
REMARK INTER:                  -5.244
REMARK INTRA:                  -0.665
REMARK UNBOUND:                -0.434
REMARK SMILES O=c1c(-c2ccc(O)cc2)coc2c([C@H]3O[C@H](CO)[C@@H](O)[C@H](O)[C@H]3O)c(O)ccc12
REMARK SMILES IDX 3 1 11 2 12 3 13 4 30 5 2 6 1 7 29 8 28 9 26 10 14 11 4 12
REMARK SMILES IDX 5 13 6 14 7 15 10 16 9 17 8 18 15 20 24 21 16 22 22 23 17 24
REMARK SMILES IDX 20 25 25 26 23 28 18 30 19 31 21 33 27 35
REMARK H PARENT 8 19 25 27 23 29 19 32 21 34 27 36
REMARK Flexibility Score: inf
ROOT
ATOM      1  C   UNL     1     -95.425  25.970 -35.806  1.00  0.00     0.065 A 
ATOM      2  C   UNL     1     -94.309  25.956 -36.665  1.00  0.00     0.208 A 
ATOM      3  O   UNL     1     -94.790  25.826 -37.928  1.00  0.00    -0.463 OA
ATOM      4  C   UNL     1     -96.100  26.219 -38.163  1.00  0.00     0.147 A 
ATOM      5  C   UNL     1     -96.306  27.486 -37.790  1.00  0.00     0.066 A 
ATOM      6  C   UNL     1     -96.320  27.091 -36.367  1.00  0.00     0.200 A 
ATOM      7  O   UNL     1     -97.246  27.498 -35.640  1.00  0.00    -0.288 OA
ATOM      8  C   UNL     1     -95.583  27.956 -39.091  1.00  0.00     0.020 A 
ATOM      9  C   UNL     1     -95.374  27.018 -40.382  1.00  0.00     0.047 A 
ATOM     10  C   UNL     1     -95.855  25.569 -40.416  1.00  0.00     0.125 A 
ATOM     11  C   UNL     1     -96.779  25.639 -39.327  1.00  0.00     0.069 A 
ENDROOT
BRANCH   1  12
ATOM     12  C   UNL     1     -95.995  24.551 -35.612  1.00  0.00    -0.011 A 
ATOM     13  C   UNL     1     -97.349  24.105 -35.658  1.00  0.00     0.013 A 
ATOM     14  C   UNL     1     -97.748  22.796 -35.631  1.00  0.00     0.047 A 
ATOM     15  C   UNL     1     -96.804  21.731 -35.475  1.00  0.00     0.115 A 
ATOM     16  C   UNL     1     -95.044  23.477 -35.366  1.00  0.00     0.013 A 
ATOM     17  C   UNL     1     -95.418  22.133 -35.356  1.00  0.00     0.047 A 
BRANCH  15  18
ATOM     18  O   UNL     1     -97.115  20.431 -35.603  1.00  0.00    -0.508 OA
ATOM     19  H   UNL     1     -97.921  19.995 -35.261  1.00  0.00     0.293 HD
ENDBRANCH  15  18
ENDBRANCH   1  12
BRANCH  11  20
ATOM     20  C   UNL     1     -98.163  26.225 -39.814  1.00  0.00     0.188 C 
ATOM     21  C   UNL     1     -99.196  26.699 -38.769  1.00  0.00     0.179 C 
ATOM     22  O   UNL     1     -98.736  25.154 -40.601  1.00  0.00    -0.362 OA
ATOM     23  C   UNL     1    -100.232  27.510 -39.498  1.00  0.00     0.177 C 
ATOM     24  C   UNL     1    -100.079  25.412 -41.112  1.00  0.00     0.176 C 
ATOM     25  C   UNL     1    -100.823  26.743 -40.703  1.00  0.00     0.177 C 
BRANCH  21  26
ATOM     26  O   UNL     1     -99.770  25.570 -38.117  1.00  0.00    -0.387 OA
ATOM     27  H   UNL     1    -100.478  25.969 -37.544  1.00  0.00     0.211 HD
ENDBRANCH  21  26
BRANCH  23  28
ATOM     28  O   UNL     1     -99.672  28.717 -40.007  1.00  0.00    -0.387 OA
ATOM     29  H   UNL     1    -100.108  29.423 -39.483  1.00  0.00     0.211 HD
ENDBRANCH  23  28
BRANCH  24  30
ATOM     30  C   UNL     1    -100.012  25.237 -42.631  1.00  0.00     0.191 C 
BRANCH  30  31
ATOM     31  O   UNL     1    -100.608  26.310 -43.246  1.00  0.00    -0.394 OA
ATOM     32  H   UNL     1    -100.131  26.482 -44.116  1.00  0.00     0.210 HD
ENDBRANCH  30  31
ENDBRANCH  24  30
BRANCH  25  33
ATOM     33  O   UNL     1    -102.146  26.537 -40.312  1.00  0.00    -0.388 OA
ATOM     34  H   UNL     1    -102.503  25.638 -40.591  1.00  0.00     0.211 HD
ENDBRANCH  25  33
ENDBRANCH  11  20
BRANCH  10  35
ATOM     35  O   UNL     1     -96.300  24.405 -39.750  1.00  0.00    -0.507 OA
ATOM     36  H   UNL     1     -97.270  24.097 -39.397  1.00  0.00     0.293 HD
ENDBRANCH  10  35
TORSDOF 9
ENDMDL
MODEL 4
REMARK VINA RESULT:    -3.743      8.679     11.661
REMARK INTER + INTRA:          -5.599
REMARK INTER:                  -4.925
REMARK INTRA:                  -0.675
REMARK UNBOUND:                -0.434
REMARK SMILES O=c1c(-c2ccc(O)cc2)coc2c([C@H]3O[C@H](CO)[C@@H](O)[C@H](O)[C@H]3O)c(O)ccc12
REMARK SMILES IDX 3 1 11 2 12 3 13 4 30 5 2 6 1 7 29 8 28 9 26 10 14 11 4 12
REMARK SMILES IDX 5 13 6 14 7 15 10 16 9 17 8 18 15 20 24 21 16 22 22 23 17 24
REMARK SMILES IDX 20 25 25 26 23 28 18 30 19 31 21 33 27 35
REMARK H PARENT 8 19 25 27 23 29 19 32 21 34 27 36
REMARK Flexibility Score: inf
ROOT
ATOM      1  C   UNL     1    -100.378  29.197 -29.337  1.00  0.00     0.065 A 
ATOM      2  C   UNL     1    -101.636  28.784 -28.857  1.00  0.00     0.208 A 
ATOM      3  O   UNL     1    -101.548  27.448 -28.630  1.00  0.00    -0.463 OA
ATOM      4  C   UNL     1    -100.285  26.912 -28.420  1.00  0.00     0.147 A 
ATOM      5  C   UNL     1     -99.652  27.526 -27.416  1.00  0.00     0.066 A 
ATOM      6  C   UNL     1     -99.384  28.701 -28.271  1.00  0.00     0.200 A 
ATOM      7  O   UNL     1     -98.229  29.164 -28.309  1.00  0.00    -0.288 OA
ATOM      8  C   UNL     1    -100.525  26.715 -26.408  1.00  0.00     0.020 A 
ATOM      9  C   UNL     1    -101.305  25.361 -26.793  1.00  0.00     0.047 A 
ATOM     10  C   UNL     1    -101.264  24.778 -28.205  1.00  0.00     0.125 A 
ATOM     11  C   UNL     1    -100.110  25.478 -28.677  1.00  0.00     0.069 A 
ENDROOT
BRANCH   1  12
ATOM     12  C   UNL     1    -100.188  28.799 -30.814  1.00  0.00    -0.011 A 
ATOM     13  C   UNL     1     -99.139  28.047 -31.421  1.00  0.00     0.013 A 
ATOM     14  C   UNL     1     -99.135  27.605 -32.718  1.00  0.00     0.047 A 
ATOM     15  C   UNL     1    -100.193  27.940 -33.623  1.00  0.00     0.115 A 
ATOM     16  C   UNL     1    -101.219  29.211 -31.755  1.00  0.00     0.013 A 
ATOM     17  C   UNL     1    -101.253  28.759 -33.074  1.00  0.00     0.047 A 
BRANCH  15  18
ATOM     18  O   UNL     1    -100.325  27.406 -34.848  1.00  0.00    -0.508 OA
ATOM     19  H   UNL     1    -101.131  27.427 -35.401  1.00  0.00     0.293 HD
ENDBRANCH  15  18
ENDBRANCH   1  12
BRANCH  11  20
ATOM     20  C   UNL     1     -98.790  24.742 -28.217  1.00  0.00     0.188 C 
ATOM     21  C   UNL     1     -97.419  25.372 -28.539  1.00  0.00     0.179 C 
ATOM     22  O   UNL     1     -98.879  23.442 -28.847  1.00  0.00    -0.362 OA
ATOM     23  C   UNL     1     -96.392  24.664 -27.698  1.00  0.00     0.177 C 
ATOM     24  C   UNL     1     -97.722  22.575 -28.644  1.00  0.00     0.176 C 
ATOM     25  C   UNL     1     -96.464  23.130 -27.868  1.00  0.00     0.177 C 
BRANCH  21  26
ATOM     26  O   UNL     1     -97.146  25.240 -29.931  1.00  0.00    -0.387 OA
ATOM     27  H   UNL     1     -96.287  24.739 -29.951  1.00  0.00     0.211 HD
ENDBRANCH  21  26
BRANCH  23  28
ATOM     28  O   UNL     1     -96.585  24.939 -26.314  1.00  0.00    -0.387 OA
ATOM     29  H   UNL     1     -96.745  25.907 -26.281  1.00  0.00     0.211 HD
ENDBRANCH  23  28
BRANCH  24  30
ATOM     30  C   UNL     1     -98.249  21.277 -28.026  1.00  0.00     0.191 C 
BRANCH  30  31
ATOM     31  O   UNL     1     -97.271  20.705 -27.251  1.00  0.00    -0.394 OA
ATOM     32  H   UNL     1     -97.478  20.900 -26.286  1.00  0.00     0.210 HD
ENDBRANCH  30  31
ENDBRANCH  24  30
BRANCH  25  33
ATOM     33  O   UNL     1     -95.255  22.837 -28.500  1.00  0.00    -0.388 OA
ATOM     34  H   UNL     1     -95.313  22.890 -29.504  1.00  0.00     0.211 HD
ENDBRANCH  25  33
ENDBRANCH  11  20
BRANCH  10  35
ATOM     35  O   UNL     1    -101.000  24.917 -29.586  1.00  0.00    -0.507 OA
ATOM     36  H   UNL     1    -100.554  24.255 -30.309  1.00  0.00     0.293 HD
ENDBRANCH  10  35
TORSDOF 9
ENDMDL
MODEL 5
REMARK VINA RESULT:    -3.651      2.451      5.042
REMARK INTER + INTRA:          -5.472
REMARK INTER:                  -5.764
REMARK INTRA:                   0.292
REMARK UNBOUND:                -0.434
REMARK SMILES O=c1c(-c2ccc(O)cc2)coc2c([C@H]3O[C@H](CO)[C@@H](O)[C@H](O)[C@H]3O)c(O)ccc12
REMARK SMILES IDX 3 1 11 2 12 3 13 4 30 5 2 6 1 7 29 8 28 9 26 10 14 11 4 12
REMARK SMILES IDX 5 13 6 14 7 15 10 16 9 17 8 18 15 20 24 21 16 22 22 23 17 24
REMARK SMILES IDX 20 25 25 26 23 28 18 30 19 31 21 33 27 35
REMARK H PARENT 8 19 25 27 23 29 19 32 21 34 27 36
REMARK Flexibility Score: inf
ROOT
ATOM      1  C   UNL     1     -94.118  26.232 -38.333  1.00  0.00     0.065 A 
ATOM      2  C   UNL     1     -93.938  24.958 -38.905  1.00  0.00     0.208 A 
ATOM      3  O   UNL     1     -95.168  24.520 -39.277  1.00  0.00    -0.463 OA
ATOM      4  C   UNL     1     -96.152  25.473 -39.497  1.00  0.00     0.147 A 
ATOM      5  C   UNL     1     -95.766  26.379 -40.400  1.00  0.00     0.066 A 
ATOM      6  C   UNL     1     -94.882  27.026 -39.408  1.00  0.00     0.200 A 
ATOM      7  O   UNL     1     -94.937  28.263 -39.274  1.00  0.00    -0.288 OA
ATOM      8  C   UNL     1     -96.057  25.339 -41.527  1.00  0.00     0.020 A 
ATOM      9  C   UNL     1     -97.002  24.052 -41.327  1.00  0.00     0.047 A 
ATOM     10  C   UNL     1     -97.672  23.739 -39.990  1.00  0.00     0.125 A 
ATOM     11  C   UNL     1     -97.549  25.034 -39.397  1.00  0.00     0.069 A 
ENDROOT
BRANCH   1  12
ATOM     12  C   UNL     1     -94.686  26.125 -36.904  1.00  0.00    -0.011 A 
ATOM     13  C   UNL     1     -95.771  26.832 -36.306  1.00  0.00     0.013 A 
ATOM     14  C   UNL     1     -96.309  26.556 -35.076  1.00  0.00     0.047 A 
ATOM     15  C   UNL     1     -95.754  25.543 -34.230  1.00  0.00     0.115 A 
ATOM     16  C   UNL     1     -94.068  25.157 -36.010  1.00  0.00     0.013 A 
ATOM     17  C   UNL     1     -94.606  24.839 -34.763  1.00  0.00     0.047 A 
BRANCH  15  18
ATOM     18  O   UNL     1     -96.330  25.121 -33.093  1.00  0.00    -0.508 OA
ATOM     19  H   UNL     1     -96.476  25.655 -32.288  1.00  0.00     0.293 HD
ENDBRANCH  15  18
ENDBRANCH   1  12
BRANCH  11  20
ATOM     20  C   UNL     1     -98.717  25.979 -39.886  1.00  0.00     0.188 C 
ATOM     21  C   UNL     1     -99.589  26.708 -38.843  1.00  0.00     0.179 C 
ATOM     22  O   UNL     1     -99.554  25.111 -40.686  1.00  0.00    -0.362 OA
ATOM     23  C   UNL     1    -100.359  27.777 -39.570  1.00  0.00     0.177 C 
ATOM     24  C   UNL     1    -100.771  25.729 -41.203  1.00  0.00     0.176 C 
ATOM     25  C   UNL     1    -101.127  27.210 -40.786  1.00  0.00     0.177 C 
BRANCH  21  26
ATOM     26  O   UNL     1    -100.455  25.774 -38.205  1.00  0.00    -0.387 OA
ATOM     27  H   UNL     1    -100.806  26.280 -37.423  1.00  0.00     0.211 HD
ENDBRANCH  21  26
BRANCH  23  28
ATOM     28  O   UNL     1     -99.488  28.789 -40.064  1.00  0.00    -0.387 OA
ATOM     29  H   UNL     1     -99.481  28.647 -41.036  1.00  0.00     0.211 HD
ENDBRANCH  23  28
BRANCH  24  30
ATOM     30  C   UNL     1    -100.742  25.554 -42.724  1.00  0.00     0.191 C 
BRANCH  30  31
ATOM     31  O   UNL     1    -100.630  26.782 -43.327  1.00  0.00    -0.394 OA
ATOM     32  H   UNL     1    -100.931  26.694 -44.284  1.00  0.00     0.210 HD
ENDBRANCH  30  31
ENDBRANCH  24  30
BRANCH  25  33
ATOM     33  O   UNL     1    -102.460  27.370 -40.404  1.00  0.00    -0.388 OA
ATOM     34  H   UNL     1    -102.719  26.784 -39.626  1.00  0.00     0.211 HD
ENDBRANCH  25  33
ENDBRANCH  11  20
BRANCH  10  35
ATOM     35  O   UNL     1     -97.774  23.923 -38.593  1.00  0.00    -0.507 OA
ATOM     36  H   UNL     1     -97.545  23.282 -37.759  1.00  0.00     0.293 HD
ENDBRANCH  10  35
TORSDOF 9
ENDMDL
MODEL 6
REMARK VINA RESULT:    -3.643      2.332      4.781
REMARK INTER + INTRA:          -5.461
REMARK INTER:                  -4.971
REMARK INTRA:                  -0.491
REMARK UNBOUND:                -0.434
REMARK SMILES O=c1c(-c2ccc(O)cc2)coc2c([C@H]3O[C@H](CO)[C@@H](O)[C@H](O)[C@H]3O)c(O)ccc12
REMARK SMILES IDX 3 1 11 2 12 3 13 4 30 5 2 6 1 7 29 8 28 9 26 10 14 11 4 12
REMARK SMILES IDX 5 13 6 14 7 15 10 16 9 17 8 18 15 20 24 21 16 22 22 23 17 24
REMARK SMILES IDX 20 25 25 26 23 28 18 30 19 31 21 33 27 35
REMARK H PARENT 8 19 25 27 23 29 19 32 21 34 27 36
REMARK Flexibility Score: inf
ROOT
ATOM      1  C   UNL     1     -96.882  25.565 -35.424  1.00  0.00     0.065 A 
ATOM      2  C   UNL     1     -96.066  26.703 -35.566  1.00  0.00     0.208 A 
ATOM      3  O   UNL     1     -95.461  26.602 -36.777  1.00  0.00    -0.463 OA
ATOM      4  C   UNL     1     -96.072  25.808 -37.738  1.00  0.00     0.147 A 
ATOM      5  C   UNL     1     -97.335  26.186 -37.957  1.00  0.00     0.066 A 
ATOM      6  C   UNL     1     -97.766  25.572 -36.685  1.00  0.00     0.200 A 
ATOM      7  O   UNL     1     -98.763  24.826 -36.687  1.00  0.00    -0.288 OA
ATOM      8  C   UNL     1     -96.799  27.380 -38.809  1.00  0.00     0.020 A 
ATOM      9  C   UNL     1     -95.319  27.431 -39.438  1.00  0.00     0.047 A 
ATOM     10  C   UNL     1     -94.308  26.306 -39.222  1.00  0.00     0.125 A 
ATOM     11  C   UNL     1     -95.227  25.287 -38.819  1.00  0.00     0.069 A 
ENDROOT
BRANCH   1  12
ATOM     12  C   UNL     1     -96.043  24.319 -35.077  1.00  0.00    -0.011 A 
ATOM     13  C   UNL     1     -94.694  24.234 -34.620  1.00  0.00     0.013 A 
ATOM     14  C   UNL     1     -94.080  23.090 -34.183  1.00  0.00     0.047 A 
ATOM     15  C   UNL     1     -94.748  21.824 -34.222  1.00  0.00     0.115 A 
ATOM     16  C   UNL     1     -96.691  23.021 -35.198  1.00  0.00     0.013 A 
ATOM     17  C   UNL     1     -96.100  21.844 -34.741  1.00  0.00     0.047 A 
BRANCH  15  18
ATOM     18  O   UNL     1     -94.261  20.705 -33.663  1.00  0.00    -0.508 OA
ATOM     19  H   UNL     1     -93.759  20.003 -34.122  1.00  0.00     0.293 HD
ENDBRANCH  15  18
ENDBRANCH   1  12
BRANCH  11  20
ATOM     20  C   UNL     1     -95.882  24.602 -40.083  1.00  0.00     0.188 C 
ATOM     21  C   UNL     1     -97.241  23.886 -39.937  1.00  0.00     0.179 C 
ATOM     22  O   UNL     1     -94.884  23.650 -40.519  1.00  0.00    -0.362 OA
ATOM     23  C   UNL     1     -97.774  23.650 -41.324  1.00  0.00     0.177 C 
ATOM     24  C   UNL     1     -95.280  22.812 -41.647  1.00  0.00     0.176 C 
ATOM     25  C   UNL     1     -96.745  22.928 -42.223  1.00  0.00     0.177 C 
BRANCH  21  26
ATOM     26  O   UNL     1     -97.066  22.666 -39.222  1.00  0.00    -0.387 OA
ATOM     27  H   UNL     1     -97.339  22.900 -38.295  1.00  0.00     0.211 HD
ENDBRANCH  21  26
BRANCH  23  28
ATOM     28  O   UNL     1     -98.096  24.880 -41.966  1.00  0.00    -0.387 OA
ATOM     29  H   UNL     1     -98.862  24.658 -42.539  1.00  0.00     0.211 HD
ENDBRANCH  23  28
BRANCH  24  30
ATOM     30  C   UNL     1     -94.220  23.009 -42.734  1.00  0.00     0.191 C 
BRANCH  30  31
ATOM     31  O   UNL     1     -94.739  22.652 -43.954  1.00  0.00    -0.394 OA
ATOM     32  H   UNL     1     -94.574  23.405 -44.602  1.00  0.00     0.210 HD
ENDBRANCH  30  31
ENDBRANCH  24  30
BRANCH  25  33
ATOM     33  O   UNL     1     -97.350  21.689 -42.442  1.00  0.00    -0.388 OA
ATOM     34  H   UNL     1     -96.988  21.212 -43.251  1.00  0.00     0.211 HD
ENDBRANCH  25  33
ENDBRANCH  11  20
BRANCH  10  35
ATOM     35  O   UNL     1     -93.875  25.160 -38.517  1.00  0.00    -0.507 OA
ATOM     36  H   UNL     1     -93.036  24.984 -37.866  1.00  0.00     0.293 HD
ENDBRANCH  10  35
TORSDOF 9
ENDMDL
MODEL 7
REMARK VINA RESULT:    -3.618      2.262      3.610
REMARK INTER + INTRA:          -5.427
REMARK INTER:                  -4.704
REMARK INTRA:                  -0.724
REMARK UNBOUND:                -0.434
REMARK SMILES O=c1c(-c2ccc(O)cc2)coc2c([C@H]3O[C@H](CO)[C@@H](O)[C@H](O)[C@H]3O)c(O)ccc12
REMARK SMILES IDX 3 1 11 2 12 3 13 4 30 5 2 6 1 7 29 8 28 9 26 10 14 11 4 12
REMARK SMILES IDX 5 13 6 14 7 15 10 16 9 17 8 18 15 20 24 21 16 22 22 23 17 24
REMARK SMILES IDX 20 25 25 26 23 28 18 30 19 31 21 33 27 35
REMARK H PARENT 8 19 25 27 23 29 19 32 21 34 27 36
REMARK Flexibility Score: inf
ROOT
ATOM      1  C   UNL     1     -97.867  26.952 -36.383  1.00  0.00     0.065 A 
ATOM      2  C   UNL     1     -96.610  27.454 -35.994  1.00  0.00     0.208 A 
ATOM      3  O   UNL     1     -95.680  26.785 -36.722  1.00  0.00    -0.463 OA
ATOM      4  C   UNL     1     -96.088  26.213 -37.919  1.00  0.00     0.147 A 
ATOM      5  C   UNL     1     -96.651  27.115 -38.729  1.00  0.00     0.066 A 
ATOM      6  C   UNL     1     -97.883  27.115 -37.914  1.00  0.00     0.200 A 
ATOM      7  O   UNL     1     -98.982  26.999 -38.489  1.00  0.00    -0.288 OA
ATOM      8  C   UNL     1     -95.224  27.642 -39.085  1.00  0.00     0.020 A 
ATOM      9  C   UNL     1     -93.878  26.791 -38.853  1.00  0.00     0.047 A 
ATOM     10  C   UNL     1     -93.900  25.394 -38.234  1.00  0.00     0.125 A 
ATOM     11  C   UNL     1     -95.284  25.104 -38.444  1.00  0.00     0.069 A 
ENDROOT
BRANCH   1  12
ATOM     12  C   UNL     1     -98.135  25.572 -35.751  1.00  0.00    -0.011 A 
ATOM     13  C   UNL     1     -98.679  24.395 -36.344  1.00  0.00     0.013 A 
ATOM     14  C   UNL     1     -98.733  23.163 -35.746  1.00  0.00     0.047 A 
ATOM     15  C   UNL     1     -98.296  22.970 -34.396  1.00  0.00     0.115 A 
ATOM     16  C   UNL     1     -97.773  25.396 -34.352  1.00  0.00     0.013 A 
ATOM     17  C   UNL     1     -97.795  24.151 -33.724  1.00  0.00     0.047 A 
BRANCH  15  18
ATOM     18  O   UNL     1     -98.174  21.766 -33.815  1.00  0.00    -0.508 OA
ATOM     19  H   UNL     1     -97.466  21.493 -33.199  1.00  0.00     0.293 HD
ENDBRANCH  15  18
ENDBRANCH   1  12
BRANCH  11  20
ATOM     20  C   UNL     1     -95.521  24.575 -39.915  1.00  0.00     0.188 C 
ATOM     21  C   UNL     1     -96.940  24.627 -40.519  1.00  0.00     0.179 C 
ATOM     22  O   UNL     1     -95.071  23.201 -39.867  1.00  0.00    -0.362 OA
ATOM     23  C   UNL     1     -96.805  24.402 -42.000  1.00  0.00     0.177 C 
ATOM     24  C   UNL     1     -95.259  22.445 -41.101  1.00  0.00     0.176 C 
ATOM     25  C   UNL     1     -96.002  23.121 -42.319  1.00  0.00     0.177 C 
BRANCH  21  26
ATOM     26  O   UNL     1     -97.758  23.635 -39.906  1.00  0.00    -0.387 OA
ATOM     27  H   UNL     1     -98.671  24.028 -39.949  1.00  0.00     0.211 HD
ENDBRANCH  21  26
BRANCH  23  28
ATOM     28  O   UNL     1     -96.122  25.486 -42.622  1.00  0.00    -0.387 OA
ATOM     29  H   UNL     1     -95.244  25.501 -42.183  1.00  0.00     0.211 HD
ENDBRANCH  23  28
BRANCH  24  30
ATOM     30  C   UNL     1     -93.883  21.903 -41.498  1.00  0.00     0.191 C 
BRANCH  30  31
ATOM     31  O   UNL     1     -93.875  21.604 -42.838  1.00  0.00    -0.394 OA
ATOM     32  H   UNL     1     -93.498  22.393 -43.337  1.00  0.00     0.210 HD
ENDBRANCH  30  31
ENDBRANCH  24  30
BRANCH  25  33
ATOM     33  O   UNL     1     -96.966  22.296 -42.902  1.00  0.00    -0.388 OA
ATOM     34  H   UNL     1     -96.569  21.491 -43.359  1.00  0.00     0.211 HD
ENDBRANCH  25  33
ENDBRANCH  11  20
BRANCH  10  35
ATOM     35  O   UNL     1     -94.561  24.385 -37.499  1.00  0.00    -0.507 OA
ATOM     36  H   UNL     1     -95.038  24.386 -36.534  1.00  0.00     0.293 HD
ENDBRANCH  10  35
TORSDOF 9
ENDMDL
MODEL 8
REMARK VINA RESULT:    -3.604      9.872     12.873
REMARK INTER + INTRA:          -5.407
REMARK INTER:                  -5.134
REMARK INTRA:                  -0.273
REMARK UNBOUND:                -0.434
REMARK SMILES O=c1c(-c2ccc(O)cc2)coc2c([C@H]3O[C@H](CO)[C@@H](O)[C@H](O)[C@H]3O)c(O)ccc12
REMARK SMILES IDX 3 1 11 2 12 3 13 4 30 5 2 6 1 7 29 8 28 9 26 10 14 11 4 12
REMARK SMILES IDX 5 13 6 14 7 15 10 16 9 17 8 18 15 20 24 21 16 22 22 23 17 24
REMARK SMILES IDX 20 25 25 26 23 28 18 30 19 31 21 33 27 35
REMARK H PARENT 8 19 25 27 23 29 19 32 21 34 27 36
REMARK Flexibility Score: inf
ROOT
ATOM      1  C   UNL     1    -104.711  25.369 -29.436  1.00  0.00     0.065 A 
ATOM      2  C   UNL     1    -104.546  26.562 -30.166  1.00  0.00     0.208 A 
ATOM      3  O   UNL     1    -103.223  26.863 -30.131  1.00  0.00    -0.463 OA
ATOM      4  C   UNL     1    -102.333  25.825 -29.892  1.00  0.00     0.147 A 
ATOM      5  C   UNL     1    -102.489  24.831 -30.771  1.00  0.00     0.066 A 
ATOM      6  C   UNL     1    -103.720  24.387 -30.088  1.00  0.00     0.200 A 
ATOM      7  O   UNL     1    -103.850  23.179 -29.812  1.00  0.00    -0.288 OA
ATOM      8  C   UNL     1    -101.722  25.686 -31.829  1.00  0.00     0.020 A 
ATOM      9  C   UNL     1    -100.765  26.923 -31.450  1.00  0.00     0.047 A 
ATOM     10  C   UNL     1    -100.555  27.370 -30.004  1.00  0.00     0.125 A 
ATOM     11  C   UNL     1    -101.012  26.180 -29.358  1.00  0.00     0.069 A 
ENDROOT
BRANCH   1  12
ATOM     12  C   UNL     1    -104.650  25.633 -27.919  1.00  0.00    -0.011 A 
ATOM     13  C   UNL     1    -103.527  25.610 -27.040  1.00  0.00     0.013 A 
ATOM     14  C   UNL     1    -103.541  26.015 -25.731  1.00  0.00     0.047 A 
ATOM     15  C   UNL     1    -104.752  26.441 -25.096  1.00  0.00     0.115 A 
ATOM     16  C   UNL     1    -105.895  25.983 -27.251  1.00  0.00     0.013 A 
ATOM     17  C   UNL     1    -105.938  26.420 -25.927  1.00  0.00     0.047 A 
BRANCH  15  18
ATOM     18  O   UNL     1    -104.800  26.997 -23.875  1.00  0.00    -0.508 OA
ATOM     19  H   UNL     1    -104.936  26.523 -23.031  1.00  0.00     0.293 HD
ENDBRANCH  15  18
ENDBRANCH   1  12
BRANCH  11  20
ATOM     20  C   UNL     1     -99.859  25.101 -29.307  1.00  0.00     0.188 C 
ATOM     21  C   UNL     1    -100.211  23.628 -29.010  1.00  0.00     0.179 C 
ATOM     22  O   UNL     1     -98.967  25.595 -28.280  1.00  0.00    -0.362 OA
ATOM     23  C   UNL     1     -99.008  22.799 -29.367  1.00  0.00     0.177 C 
ATOM     24  C   UNL     1     -97.836  24.725 -27.971  1.00  0.00     0.176 C 
ATOM     25  C   UNL     1     -97.725  23.318 -28.678  1.00  0.00     0.177 C 
BRANCH  21  26
ATOM     26  O   UNL     1    -100.564  23.487 -27.638  1.00  0.00    -0.387 OA
ATOM     27  H   UNL     1    -101.042  22.614 -27.610  1.00  0.00     0.211 HD
ENDBRANCH  21  26
BRANCH  23  28
ATOM     28  O   UNL     1     -98.765  22.824 -30.770  1.00  0.00    -0.387 OA
ATOM     29  H   UNL     1     -99.494  23.375 -31.130  1.00  0.00     0.211 HD
ENDBRANCH  23  28
BRANCH  24  30
ATOM     30  C   UNL     1     -96.570  25.565 -28.165  1.00  0.00     0.191 C 
BRANCH  30  31
ATOM     31  O   UNL     1     -95.468  24.747 -28.150  1.00  0.00    -0.394 OA
ATOM     32  H   UNL     1     -95.765  23.811 -28.372  1.00  0.00     0.210 HD
ENDBRANCH  30  31
ENDBRANCH  24  30
BRANCH  25  33
ATOM     33  O   UNL     1     -97.414  22.282 -27.796  1.00  0.00    -0.388 OA
ATOM     34  H   UNL     1     -97.068  22.611 -26.909  1.00  0.00     0.211 HD
ENDBRANCH  25  33
ENDBRANCH  11  20
BRANCH  10  35
ATOM     35  O   UNL     1    -100.952  27.373 -28.648  1.00  0.00    -0.507 OA
ATOM     36  H   UNL     1    -100.413  27.185 -27.735  1.00  0.00     0.293 HD
ENDBRANCH  10  35
TORSDOF 9
ENDMDL
MODEL 9
REMARK VINA RESULT:    -3.493      9.607     13.242
REMARK INTER + INTRA:          -5.255
REMARK INTER:                  -4.807
REMARK INTRA:                  -0.448
REMARK UNBOUND:                -0.434
REMARK SMILES O=c1c(-c2ccc(O)cc2)coc2c([C@H]3O[C@H](CO)[C@@H](O)[C@H](O)[C@H]3O)c(O)ccc12
REMARK SMILES IDX 3 1 11 2 12 3 13 4 30 5 2 6 1 7 29 8 28 9 26 10 14 11 4 12
REMARK SMILES IDX 5 13 6 14 7 15 10 16 9 17 8 18 15 20 24 21 16 22 22 23 17 24
REMARK SMILES IDX 20 25 25 26 23 28 18 30 19 31 21 33 27 35
REMARK H PARENT 8 19 25 27 23 29 19 32 21 34 27 36
REMARK Flexibility Score: inf
ROOT
ATOM      1  C   UNL     1     -97.447  23.307 -29.880  1.00  0.00     0.065 A 
ATOM      2  C   UNL     1     -96.812  23.897 -30.990  1.00  0.00     0.208 A 
ATOM      3  O   UNL     1     -96.608  25.201 -30.676  1.00  0.00    -0.463 OA
ATOM      4  C   UNL     1     -96.565  25.542 -29.331  1.00  0.00     0.147 A 
ATOM      5  C   UNL     1     -95.647  24.828 -28.673  1.00  0.00     0.066 A 
ATOM      6  C   UNL     1     -96.521  23.637 -28.695  1.00  0.00     0.200 A 
ATOM      7  O   UNL     1     -96.704  23.009 -27.635  1.00  0.00    -0.288 OA
ATOM      8  C   UNL     1     -94.540  25.747 -29.280  1.00  0.00     0.020 A 
ATOM      9  C   UNL     1     -94.831  27.206 -29.892  1.00  0.00     0.047 A 
ATOM     10  C   UNL     1     -96.240  27.794 -29.947  1.00  0.00     0.125 A 
ATOM     11  C   UNL     1     -96.852  26.937 -28.980  1.00  0.00     0.069 A 
ENDROOT
BRANCH   1  12
ATOM     12  C   UNL     1     -98.939  23.691 -29.824  1.00  0.00    -0.011 A 
ATOM     13  C   UNL     1     -99.818  24.065 -30.883  1.00  0.00     0.013 A 
ATOM     14  C   UNL     1    -101.171  24.236 -30.761  1.00  0.00     0.047 A 
ATOM     15  C   UNL     1    -101.826  24.119 -29.493  1.00  0.00     0.115 A 
ATOM     16  C   UNL     1     -99.589  23.658 -28.522  1.00  0.00     0.013 A 
ATOM     17  C   UNL     1    -100.968  23.805 -28.370  1.00  0.00     0.047 A 
BRANCH  15  18
ATOM     18  O   UNL     1    -103.160  24.115 -29.338  1.00  0.00    -0.508 OA
ATOM     19  H   UNL     1    -103.777  24.813 -29.636  1.00  0.00     0.293 HD
ENDBRANCH  15  18
ENDBRANCH   1  12
BRANCH  11  20
ATOM     20  C   UNL     1     -96.570  27.464 -27.517  1.00  0.00     0.188 C 
ATOM     21  C   UNL     1     -97.228  26.754 -26.316  1.00  0.00     0.179 C 
ATOM     22  O   UNL     1     -97.006  28.843 -27.555  1.00  0.00    -0.362 OA
ATOM     23  C   UNL     1     -96.523  27.226 -25.074  1.00  0.00     0.177 C 
ATOM     24  C   UNL     1     -96.926  29.552 -26.281  1.00  0.00     0.176 C 
ATOM     25  C   UNL     1     -96.485  28.769 -24.983  1.00  0.00     0.177 C 
BRANCH  21  26
ATOM     26  O   UNL     1     -98.620  27.058 -26.283  1.00  0.00    -0.387 OA
ATOM     27  H   UNL     1     -98.956  26.523 -25.514  1.00  0.00     0.211 HD
ENDBRANCH  21  26
BRANCH  23  28
ATOM     28  O   UNL     1     -95.173  26.775 -25.048  1.00  0.00    -0.387 OA
ATOM     29  H   UNL     1     -95.137  26.085 -25.747  1.00  0.00     0.211 HD
ENDBRANCH  23  28
BRANCH  24  30
ATOM     30  C   UNL     1     -96.063  30.793 -26.522  1.00  0.00     0.191 C 
BRANCH  30  31
ATOM     31  O   UNL     1     -95.647  31.307 -25.318  1.00  0.00    -0.394 OA
ATOM     32  H   UNL     1     -94.685  31.044 -25.178  1.00  0.00     0.210 HD
ENDBRANCH  30  31
ENDBRANCH  24  30
BRANCH  25  33
ATOM     33  O   UNL     1     -97.299  29.028 -23.880  1.00  0.00    -0.388 OA
ATOM     34  H   UNL     1     -97.238  28.316 -23.170  1.00  0.00     0.211 HD
ENDBRANCH  25  33
ENDBRANCH  11  20
BRANCH  10  35
ATOM     35  O   UNL     1     -97.643  27.635 -29.886  1.00  0.00    -0.507 OA
ATOM     36  H   UNL     1     -98.449  28.107 -30.421  1.00  0.00     0.293 HD
ENDBRANCH  10  35
TORSDOF 9
ENDMDL
