MODEL 1
REMARK VINA RESULT:    -3.463      0.000      0.000
REMARK INTER + INTRA:          -3.565
REMARK INTER:                  -3.565
REMARK INTRA:                   0.000
REMARK UNBOUND:                 0.000
REMARK SMILES CC1(C)[C@@H]2CC[C@@]1(C)[C@H](O)C2
REMARK SMILES IDX 1 1 2 2 4 3 5 4 6 5 7 6 9 7 11 8 8 9 3 10 10 11
REMARK H PARENT 10 12
REMARK Flexibility Score: inf
ROOT
ATOM      1  C   UNL     1     169.930 158.981 171.367  1.00  0.00     0.012 C 
ATOM      2  C   UNL     1     169.456 158.808 169.890  1.00  0.00    -0.025 C 
ATOM      3  C   UNL     1     168.272 159.710 169.506  1.00  0.00    -0.002 C 
ATOM      4  C   UNL     1     167.132 159.211 170.427  1.00  0.00     0.005 C 
ATOM      5  C   UNL     1     167.392 157.693 170.502  1.00  0.00     0.010 C 
ATOM      6  C   UNL     1     168.647 157.520 169.602  1.00  0.00    -0.001 C 
ATOM      7  C   UNL     1     168.140 157.711 168.140  1.00  0.00     0.121 C 
ATOM      8  C   UNL     1     167.909 159.240 168.074  1.00  0.00     0.036 C 
ATOM      9  C   UNL     1     169.380 156.193 169.851  1.00  0.00     0.015 C 
ATOM     10  C   UNL     1     170.725 159.031 169.012  1.00  0.00     0.012 C 
ENDROOT
BRANCH   7  11
ATOM     11  O   UNL     1     169.089 157.287 167.196  1.00  0.00    -0.393 OA
ATOM     12  H   UNL     1     168.617 157.237 166.324  1.00  0.00     0.210 HD
ENDBRANCH   7  11
TORSDOF 1
ENDMDL
MODEL 2
REMARK VINA RESULT:    -3.460     14.697     16.088
REMARK INTER + INTRA:          -3.561
REMARK INTER:                  -3.561
REMARK INTRA:                   0.000
REMARK UNBOUND:                 0.000
REMARK SMILES CC1(C)[C@@H]2CC[C@@]1(C)[C@H](O)C2
REMARK SMILES IDX 1 1 2 2 4 3 5 4 6 5 7 6 9 7 11 8 8 9 3 10 10 11
REMARK H PARENT 10 12
REMARK Flexibility Score: inf
ROOT
ATOM      1  C   UNL     1     161.387 172.109 171.406  1.00  0.00     0.012 C 
ATOM      2  C   UNL     1     161.823 172.331 169.924  1.00  0.00    -0.025 C 
ATOM      3  C   UNL     1     163.011 171.457 169.488  1.00  0.00    -0.002 C 
ATOM      4  C   UNL     1     164.165 171.948 170.397  1.00  0.00     0.005 C 
ATOM      5  C   UNL     1     163.885 173.459 170.520  1.00  0.00     0.010 C 
ATOM      6  C   UNL     1     162.607 173.638 169.653  1.00  0.00    -0.001 C 
ATOM      7  C   UNL     1     163.082 173.494 168.176  1.00  0.00     0.121 C 
ATOM      8  C   UNL     1     163.334 171.972 168.062  1.00  0.00     0.036 C 
ATOM      9  C   UNL     1     161.861 174.946 169.956  1.00  0.00     0.015 C 
ATOM     10  C   UNL     1     160.537 172.113 169.070  1.00  0.00     0.012 C 
ENDROOT
BRANCH   7  11
ATOM     11  O   UNL     1     162.106 173.930 167.266  1.00  0.00    -0.393 OA
ATOM     12  H   UNL     1     162.033 173.226 166.570  1.00  0.00     0.210 HD
ENDBRANCH   7  11
TORSDOF 1
ENDMDL
MODEL 3
REMARK VINA RESULT:    -3.353     15.122     16.489
REMARK INTER + INTRA:          -3.451
REMARK INTER:                  -3.451
REMARK INTRA:                   0.000
REMARK UNBOUND:                 0.000
REMARK SMILES CC1(C)[C@@H]2CC[C@@]1(C)[C@H](O)C2
REMARK SMILES IDX 1 1 2 2 4 3 5 4 6 5 7 6 9 7 11 8 8 9 3 10 10 11
REMARK H PARENT 10 12
REMARK Flexibility Score: inf
ROOT
ATOM      1  C   UNL     1     160.349 173.918 168.413  1.00  0.00     0.012 C 
ATOM      2  C   UNL     1     161.793 173.438 168.761  1.00  0.00    -0.025 C 
ATOM      3  C   UNL     1     161.909 171.920 168.971  1.00  0.00    -0.002 C 
ATOM      4  C   UNL     1     161.016 171.663 170.210  1.00  0.00     0.005 C 
ATOM      5  C   UNL     1     161.249 172.923 171.067  1.00  0.00     0.010 C 
ATOM      6  C   UNL     1     162.258 173.736 170.208  1.00  0.00    -0.001 C 
ATOM      7  C   UNL     1     163.615 172.978 170.331  1.00  0.00     0.121 C 
ATOM      8  C   UNL     1     163.373 171.732 169.447  1.00  0.00     0.036 C 
ATOM      9  C   UNL     1     162.319 175.218 170.605  1.00  0.00     0.015 C 
ATOM     10  C   UNL     1     162.705 173.986 167.622  1.00  0.00     0.012 C 
ENDROOT
BRANCH   7  11
ATOM     11  O   UNL     1     164.690 173.749 169.863  1.00  0.00    -0.393 OA
ATOM     12  H   UNL     1     165.517 173.251 170.094  1.00  0.00     0.210 HD
ENDBRANCH   7  11
TORSDOF 1
ENDMDL
MODEL 4
REMARK VINA RESULT:    -3.330      1.468      2.437
REMARK INTER + INTRA:          -3.427
REMARK INTER:                  -3.427
REMARK INTRA:                   0.000
REMARK UNBOUND:                 0.000
REMARK SMILES CC1(C)[C@@H]2CC[C@@]1(C)[C@H](O)C2
REMARK SMILES IDX 1 1 2 2 4 3 5 4 6 5 7 6 9 7 11 8 8 9 3 10 10 11
REMARK H PARENT 10 12
REMARK Flexibility Score: inf
ROOT
ATOM      1  C   UNL     1     170.962 157.285 168.466  1.00  0.00     0.012 C 
ATOM      2  C   UNL     1     169.512 157.759 168.790  1.00  0.00    -0.025 C 
ATOM      3  C   UNL     1     169.386 159.278 168.994  1.00  0.00    -0.002 C 
ATOM      4  C   UNL     1     170.258 159.542 170.246  1.00  0.00     0.005 C 
ATOM      5  C   UNL     1     170.016 158.283 171.103  1.00  0.00     0.010 C 
ATOM      6  C   UNL     1     169.025 157.464 170.230  1.00  0.00    -0.001 C 
ATOM      7  C   UNL     1     167.663 158.216 170.329  1.00  0.00     0.121 C 
ATOM      8  C   UNL     1     167.914 159.462 169.445  1.00  0.00     0.036 C 
ATOM      9  C   UNL     1     168.963 155.982 170.630  1.00  0.00     0.015 C 
ATOM     10  C   UNL     1     168.620 157.205 167.638  1.00  0.00     0.012 C 
ENDROOT
BRANCH   7  11
ATOM     11  O   UNL     1     166.598 157.440 169.846  1.00  0.00    -0.393 OA
ATOM     12  H   UNL     1     166.275 156.896 170.610  1.00  0.00     0.210 HD
ENDBRANCH   7  11
TORSDOF 1
ENDMDL
MODEL 5
REMARK VINA RESULT:    -3.116     14.454     15.723
REMARK INTER + INTRA:          -3.207
REMARK INTER:                  -3.207
REMARK INTRA:                   0.000
REMARK UNBOUND:                 0.000
REMARK SMILES CC1(C)[C@@H]2CC[C@@]1(C)[C@H](O)C2
REMARK SMILES IDX 1 1 2 2 4 3 5 4 6 5 7 6 9 7 11 8 8 9 3 10 10 11
REMARK H PARENT 10 12
REMARK Flexibility Score: inf
ROOT
ATOM      1  C   UNL     1     164.237 173.456 170.761  1.00  0.00     0.012 C 
ATOM      2  C   UNL     1     162.763 173.217 170.307  1.00  0.00    -0.025 C 
ATOM      3  C   UNL     1     161.882 172.554 171.378  1.00  0.00    -0.002 C 
ATOM      4  C   UNL     1     162.544 171.169 171.576  1.00  0.00     0.005 C 
ATOM      5  C   UNL     1     163.021 170.811 170.154  1.00  0.00     0.010 C 
ATOM      6  C   UNL     1     162.558 172.039 169.322  1.00  0.00    -0.001 C 
ATOM      7  C   UNL     1     161.008 171.907 169.211  1.00  0.00     0.121 C 
ATOM      8  C   UNL     1     160.545 172.293 170.636  1.00  0.00     0.036 C 
ATOM      9  C   UNL     1     163.284 172.153 167.974  1.00  0.00     0.015 C 
ATOM     10  C   UNL     1     162.238 174.606 169.833  1.00  0.00     0.012 C 
ENDROOT
BRANCH   7  11
ATOM     11  O   UNL     1     160.477 172.769 168.239  1.00  0.00    -0.393 OA
ATOM     12  H   UNL     1     161.195 173.414 168.010  1.00  0.00     0.210 HD
ENDBRANCH   7  11
TORSDOF 1
ENDMDL
MODEL 6
REMARK VINA RESULT:    -3.101      2.490      4.203
REMARK INTER + INTRA:          -3.191
REMARK INTER:                  -3.191
REMARK INTRA:                   0.000
REMARK UNBOUND:                 0.000
REMARK SMILES CC1(C)[C@@H]2CC[C@@]1(C)[C@H](O)C2
REMARK SMILES IDX 1 1 2 2 4 3 5 4 6 5 7 6 9 7 11 8 8 9 3 10 10 11
REMARK H PARENT 10 12
REMARK Flexibility Score: inf
ROOT
ATOM      1  C   UNL     1     170.072 157.248 170.901  1.00  0.00     0.012 C 
ATOM      2  C   UNL     1     170.798 157.781 169.627  1.00  0.00    -0.025 C 
ATOM      3  C   UNL     1     171.539 156.692 168.833  1.00  0.00    -0.002 C 
ATOM      4  C   UNL     1     172.624 156.206 169.824  1.00  0.00     0.005 C 
ATOM      5  C   UNL     1     173.016 157.502 170.565  1.00  0.00     0.010 C 
ATOM      6  C   UNL     1     172.106 158.566 169.890  1.00  0.00    -0.001 C 
ATOM      7  C   UNL     1     172.707 158.786 168.468  1.00  0.00     0.121 C 
ATOM      8  C   UNL     1     172.284 157.491 167.733  1.00  0.00     0.036 C 
ATOM      9  C   UNL     1     171.967 159.847 170.726  1.00  0.00     0.015 C 
ATOM     10  C   UNL     1     169.706 158.526 168.801  1.00  0.00     0.012 C 
ENDROOT
BRANCH   7  11
ATOM     11  O   UNL     1     172.183 159.931 167.849  1.00  0.00    -0.393 OA
ATOM     12  H   UNL     1     171.195 159.849 167.892  1.00  0.00     0.210 HD
ENDBRANCH   7  11
TORSDOF 1
ENDMDL
MODEL 7
REMARK VINA RESULT:    -3.100      1.065      2.765
REMARK INTER + INTRA:          -3.191
REMARK INTER:                  -3.191
REMARK INTRA:                   0.000
REMARK UNBOUND:                 0.000
REMARK SMILES CC1(C)[C@@H]2CC[C@@]1(C)[C@H](O)C2
REMARK SMILES IDX 1 1 2 2 4 3 5 4 6 5 7 6 9 7 11 8 8 9 3 10 10 11
REMARK H PARENT 10 12
REMARK Flexibility Score: inf
ROOT
ATOM      1  C   UNL     1     166.977 157.817 170.838  1.00  0.00     0.012 C 
ATOM      2  C   UNL     1     168.454 157.990 170.367  1.00  0.00    -0.025 C 
ATOM      3  C   UNL     1     169.362 158.672 171.405  1.00  0.00    -0.002 C 
ATOM      4  C   UNL     1     168.743 160.085 171.544  1.00  0.00     0.005 C 
ATOM      5  C   UNL     1     168.270 160.394 170.109  1.00  0.00     0.010 C 
ATOM      6  C   UNL     1     168.691 159.116 169.331  1.00  0.00    -0.001 C 
ATOM      7  C   UNL     1     170.243 159.196 169.207  1.00  0.00     0.121 C 
ATOM      8  C   UNL     1     170.701 158.859 170.647  1.00  0.00     0.036 C 
ATOM      9  C   UNL     1     167.954 158.965 167.992  1.00  0.00     0.015 C 
ATOM     10  C   UNL     1     168.934 156.566 169.954  1.00  0.00     0.012 C 
ENDROOT
BRANCH   7  11
ATOM     11  O   UNL     1     170.742 158.275 168.273  1.00  0.00    -0.393 OA
ATOM     12  H   UNL     1     169.956 157.804 167.892  1.00  0.00     0.210 HD
ENDBRANCH   7  11
TORSDOF 1
ENDMDL
MODEL 8
REMARK VINA RESULT:    -3.077     15.144     16.401
REMARK INTER + INTRA:          -3.167
REMARK INTER:                  -3.167
REMARK INTRA:                   0.000
REMARK UNBOUND:                 0.000
REMARK SMILES CC1(C)[C@@H]2CC[C@@]1(C)[C@H](O)C2
REMARK SMILES IDX 1 1 2 2 4 3 5 4 6 5 7 6 9 7 11 8 8 9 3 10 10 11
REMARK H PARENT 10 12
REMARK Flexibility Score: inf
ROOT
ATOM      1  C   UNL     1     162.598 170.946 170.519  1.00  0.00     0.012 C 
ATOM      2  C   UNL     1     162.357 172.245 169.688  1.00  0.00    -0.025 C 
ATOM      3  C   UNL     1     162.825 173.529 170.393  1.00  0.00    -0.002 C 
ATOM      4  C   UNL     1     161.918 173.598 171.646  1.00  0.00     0.005 C 
ATOM      5  C   UNL     1     160.576 173.041 171.129  1.00  0.00     0.010 C 
ATOM      6  C   UNL     1     160.889 172.735 169.637  1.00  0.00    -0.001 C 
ATOM      7  C   UNL     1     160.980 174.125 168.937  1.00  0.00     0.121 C 
ATOM      8  C   UNL     1     162.341 174.658 169.446  1.00  0.00     0.036 C 
ATOM      9  C   UNL     1     159.878 171.769 169.003  1.00  0.00     0.015 C 
ATOM     10  C   UNL     1     163.046 171.998 168.312  1.00  0.00     0.012 C 
ENDROOT
BRANCH   7  11
ATOM     11  O   UNL     1     160.955 174.011 167.538  1.00  0.00    -0.393 OA
ATOM     12  H   UNL     1     161.899 173.916 167.246  1.00  0.00     0.210 HD
ENDBRANCH   7  11
TORSDOF 1
ENDMDL
MODEL 9
REMARK VINA RESULT:    -2.961     14.057     15.299
REMARK INTER + INTRA:          -3.047
REMARK INTER:                  -3.047
REMARK INTRA:                   0.000
REMARK UNBOUND:                 0.000
REMARK SMILES CC1(C)[C@@H]2CC[C@@]1(C)[C@H](O)C2
REMARK SMILES IDX 1 1 2 2 4 3 5 4 6 5 7 6 9 7 11 8 8 9 3 10 10 11
REMARK H PARENT 10 12
REMARK Flexibility Score: inf
ROOT
ATOM      1  C   UNL     1     162.366 173.223 172.564  1.00  0.00     0.012 C 
ATOM      2  C   UNL     1     162.430 172.974 171.025  1.00  0.00    -0.025 C 
ATOM      3  C   UNL     1     161.191 172.261 170.458  1.00  0.00    -0.002 C 
ATOM      4  C   UNL     1     161.223 170.881 171.160  1.00  0.00     0.005 C 
ATOM      5  C   UNL     1     162.733 170.579 171.252  1.00  0.00     0.010 C 
ATOM      6  C   UNL     1     163.370 171.826 170.579  1.00  0.00    -0.001 C 
ATOM      7  C   UNL     1     163.079 171.671 169.055  1.00  0.00     0.121 C 
ATOM      8  C   UNL     1     161.569 172.002 168.976  1.00  0.00     0.036 C 
ATOM      9  C   UNL     1     164.856 171.998 170.928  1.00  0.00     0.015 C 
ATOM     10  C   UNL     1     162.700 174.368 170.383  1.00  0.00     0.012 C 
ENDROOT
BRANCH   7  11
ATOM     11  O   UNL     1     163.848 172.556 168.282  1.00  0.00    -0.393 OA
ATOM     12  H   UNL     1     163.376 172.654 167.414  1.00  0.00     0.210 HD
ENDBRANCH   7  11
TORSDOF 1
ENDMDL
