MODEL 1
REMARK VINA RESULT:    -4.317      0.000      0.000
REMARK INTER + INTRA:          -4.892
REMARK INTER:                  -4.696
REMARK INTRA:                  -0.196
REMARK UNBOUND:                -0.196
REMARK SMILES Cc1ccc(C(C)C)c(O)c1
REMARK SMILES IDX 1 1 2 2 11 3 9 4 5 5 4 6 3 7 10 8 6 10 7 11 8 12
REMARK H PARENT 10 9
REMARK Flexibility Score: inf
ROOT
ATOM      1  C   UNL     1     178.119 165.503 151.288  1.00  0.00     0.044 C 
ATOM      2  C   UNL     1     177.098 164.430 151.045  1.00  0.00    -0.047 A 
ATOM      3  C   UNL     1     177.439 163.081 151.212  1.00  0.00     0.049 A 
ATOM      4  C   UNL     1     176.482 162.073 151.024  1.00  0.00     0.119 A 
ATOM      5  C   UNL     1     175.154 162.414 150.674  1.00  0.00    -0.004 A 
ATOM      6  C   UNL     1     174.821 163.774 150.529  1.00  0.00     0.008 A 
ATOM      7  C   UNL     1     175.781 164.770 150.720  1.00  0.00     0.004 A 
ENDROOT
BRANCH   4   8
ATOM      8  O   UNL     1     176.855 160.740 151.188  1.00  0.00    -0.508 OA
ATOM      9  H   UNL     1     177.826 160.463 151.272  1.00  0.00     0.293 HD
ENDBRANCH   4   8
BRANCH   5  10
ATOM     10  C   UNL     1     174.071 161.365 150.456  1.00  0.00     0.017 C 
ATOM     11  C   UNL     1     173.260 161.640 149.183  1.00  0.00     0.012 C 
ATOM     12  C   UNL     1     173.163 161.219 151.683  1.00  0.00     0.012 C 
ENDBRANCH   5  10
TORSDOF 2
ENDMDL
MODEL 2
REMARK VINA RESULT:    -4.314     17.302     18.280
REMARK INTER + INTRA:          -4.888
REMARK INTER:                  -4.692
REMARK INTRA:                  -0.195
REMARK UNBOUND:                -0.196
REMARK SMILES Cc1ccc(C(C)C)c(O)c1
REMARK SMILES IDX 1 1 2 2 11 3 9 4 5 5 4 6 3 7 10 8 6 10 7 11 8 12
REMARK H PARENT 10 9
REMARK Flexibility Score: inf
ROOT
ATOM      1  C   UNL     1     167.548 177.000 150.192  1.00  0.00     0.044 C 
ATOM      2  C   UNL     1     166.082 176.940 150.503  1.00  0.00    -0.047 A 
ATOM      3  C   UNL     1     165.442 175.702 150.651  1.00  0.00     0.049 A 
ATOM      4  C   UNL     1     164.080 175.634 150.979  1.00  0.00     0.119 A 
ATOM      5  C   UNL     1     163.341 176.824 151.176  1.00  0.00    -0.004 A 
ATOM      6  C   UNL     1     164.000 178.061 151.044  1.00  0.00     0.008 A 
ATOM      7  C   UNL     1     165.357 178.117 150.718  1.00  0.00     0.004 A 
ENDROOT
BRANCH   4   8
ATOM      8  O   UNL     1     163.472 174.387 151.110  1.00  0.00    -0.508 OA
ATOM      9  H   UNL     1     162.764 174.067 150.459  1.00  0.00     0.293 HD
ENDBRANCH   4   8
BRANCH   5  10
ATOM     10  C   UNL     1     161.859 176.815 151.533  1.00  0.00     0.017 C 
ATOM     11  C   UNL     1     160.978 177.106 150.313  1.00  0.00     0.012 C 
ATOM     12  C   UNL     1     161.547 177.768 152.694  1.00  0.00     0.012 C 
ENDBRANCH   5  10
TORSDOF 2
ENDMDL
MODEL 3
REMARK VINA RESULT:    -4.300     10.386     12.484
REMARK INTER + INTRA:          -4.873
REMARK INTER:                  -4.676
REMARK INTRA:                  -0.196
REMARK UNBOUND:                -0.196
REMARK SMILES Cc1ccc(C(C)C)c(O)c1
REMARK SMILES IDX 1 1 2 2 11 3 9 4 5 5 4 6 3 7 10 8 6 10 7 11 8 12
REMARK H PARENT 10 9
REMARK Flexibility Score: inf
ROOT
ATOM      1  C   UNL     1     176.278 171.314 150.259  1.00  0.00     0.044 C 
ATOM      2  C   UNL     1     175.797 172.704 150.550  1.00  0.00    -0.047 A 
ATOM      3  C   UNL     1     174.429 172.958 150.718  1.00  0.00     0.049 A 
ATOM      4  C   UNL     1     173.971 174.247 151.028  1.00  0.00     0.119 A 
ATOM      5  C   UNL     1     174.896 175.306 151.186  1.00  0.00    -0.004 A 
ATOM      6  C   UNL     1     176.270 175.034 151.034  1.00  0.00     0.008 A 
ATOM      7  C   UNL     1     176.714 173.746 150.726  1.00  0.00     0.004 A 
ENDROOT
BRANCH   4   8
ATOM      8  O   UNL     1     172.604 174.468 151.180  1.00  0.00    -0.508 OA
ATOM      9  H   UNL     1     172.141 175.263 150.755  1.00  0.00     0.293 HD
ENDBRANCH   4   8
BRANCH   5  10
ATOM     10  C   UNL     1     174.462 176.727 151.522  1.00  0.00     0.017 C 
ATOM     11  C   UNL     1     174.385 177.610 150.269  1.00  0.00     0.012 C 
ATOM     12  C   UNL     1     175.352 177.356 152.601  1.00  0.00     0.012 C 
ENDBRANCH   5  10
TORSDOF 2
ENDMDL
MODEL 4
REMARK VINA RESULT:    -4.282      9.455     11.178
REMARK INTER + INTRA:          -4.854
REMARK INTER:                  -4.657
REMARK INTRA:                  -0.196
REMARK UNBOUND:                -0.196
REMARK SMILES Cc1ccc(C(C)C)c(O)c1
REMARK SMILES IDX 1 1 2 2 11 3 9 4 5 5 4 6 3 7 10 8 6 10 7 11 8 12
REMARK H PARENT 10 9
REMARK Flexibility Score: inf
ROOT
ATOM      1  C   UNL     1     173.805 176.959 151.372  1.00  0.00     0.044 C 
ATOM      2  C   UNL     1     174.435 175.627 151.094  1.00  0.00    -0.047 A 
ATOM      3  C   UNL     1     175.816 175.452 151.255  1.00  0.00     0.049 A 
ATOM      4  C   UNL     1     176.410 174.201 151.034  1.00  0.00     0.119 A 
ATOM      5  C   UNL     1     175.611 173.096 150.656  1.00  0.00    -0.004 A 
ATOM      6  C   UNL     1     174.222 173.281 150.516  1.00  0.00     0.008 A 
ATOM      7  C   UNL     1     173.641 174.531 150.739  1.00  0.00     0.004 A 
ENDROOT
BRANCH   4   8
ATOM      8  O   UNL     1     177.787 174.061 151.194  1.00  0.00    -0.508 OA
ATOM      9  H   UNL     1     178.265 174.392 152.025  1.00  0.00     0.293 HD
ENDBRANCH   4   8
BRANCH   5  10
ATOM     10  C   UNL     1     176.198 171.713 150.400  1.00  0.00     0.017 C 
ATOM     11  C   UNL     1     175.563 171.042 149.176  1.00  0.00     0.012 C 
ATOM     12  C   UNL     1     176.109 170.818 151.643  1.00  0.00     0.012 C 
ENDBRANCH   5  10
TORSDOF 2
ENDMDL
MODEL 5
REMARK VINA RESULT:    -4.259     16.836     18.161
REMARK INTER + INTRA:          -4.828
REMARK INTER:                  -4.635
REMARK INTRA:                  -0.194
REMARK UNBOUND:                -0.196
REMARK SMILES Cc1ccc(C(C)C)c(O)c1
REMARK SMILES IDX 1 1 2 2 11 3 9 4 5 5 4 6 3 7 10 8 6 10 7 11 8 12
REMARK H PARENT 10 9
REMARK Flexibility Score: inf
ROOT
ATOM      1  C   UNL     1     160.568 176.733 150.910  1.00  0.00     0.044 C 
ATOM      2  C   UNL     1     162.062 176.612 150.953  1.00  0.00    -0.047 A 
ATOM      3  C   UNL     1     162.676 175.369 150.750  1.00  0.00     0.049 A 
ATOM      4  C   UNL     1     164.074 175.251 150.750  1.00  0.00     0.119 A 
ATOM      5  C   UNL     1     164.879 176.398 150.945  1.00  0.00    -0.004 A 
ATOM      6  C   UNL     1     164.250 177.644 151.128  1.00  0.00     0.008 A 
ATOM      7  C   UNL     1     162.858 177.750 151.125  1.00  0.00     0.004 A 
ENDROOT
BRANCH   4   8
ATOM      8  O   UNL     1     164.653 173.999 150.555  1.00  0.00    -0.508 OA
ATOM      9  H   UNL     1     164.281 173.337 149.883  1.00  0.00     0.293 HD
ENDBRANCH   4   8
BRANCH   5  10
ATOM     10  C   UNL     1     166.402 176.335 150.957  1.00  0.00     0.017 C 
ATOM     11  C   UNL     1     166.990 177.013 152.200  1.00  0.00     0.012 C 
ATOM     12  C   UNL     1     167.006 176.902 149.666  1.00  0.00     0.012 C 
ENDBRANCH   5  10
TORSDOF 2
ENDMDL
MODEL 6
REMARK VINA RESULT:    -4.240      9.912     11.698
REMARK INTER + INTRA:          -4.808
REMARK INTER:                  -4.612
REMARK INTRA:                  -0.196
REMARK UNBOUND:                -0.196
REMARK SMILES Cc1ccc(C(C)C)c(O)c1
REMARK SMILES IDX 1 1 2 2 11 3 9 4 5 5 4 6 3 7 10 8 6 10 7 11 8 12
REMARK H PARENT 10 9
REMARK Flexibility Score: inf
ROOT
ATOM      1  C   UNL     1     174.419 177.771 150.861  1.00  0.00     0.044 C 
ATOM      2  C   UNL     1     174.590 176.282 150.912  1.00  0.00    -0.047 A 
ATOM      3  C   UNL     1     173.486 175.438 150.731  1.00  0.00     0.049 A 
ATOM      4  C   UNL     1     173.640 174.044 150.739  1.00  0.00     0.119 A 
ATOM      5  C   UNL     1     174.924 173.476 150.918  1.00  0.00    -0.004 A 
ATOM      6  C   UNL     1     176.028 174.336 151.079  1.00  0.00     0.008 A 
ATOM      7  C   UNL     1     175.863 175.722 151.069  1.00  0.00     0.004 A 
ENDROOT
BRANCH   4   8
ATOM      8  O   UNL     1     172.521 173.232 150.566  1.00  0.00    -0.508 OA
ATOM      9  H   UNL     1     172.597 172.285 150.213  1.00  0.00     0.293 HD
ENDBRANCH   4   8
BRANCH   5  10
ATOM     10  C   UNL     1     175.157 171.971 150.937  1.00  0.00     0.017 C 
ATOM     11  C   UNL     1     176.248 171.575 151.939  1.00  0.00     0.012 C 
ATOM     12  C   UNL     1     175.453 171.422 149.535  1.00  0.00     0.012 C 
ENDBRANCH   5  10
TORSDOF 2
ENDMDL
MODEL 7
REMARK VINA RESULT:    -4.216      9.804     11.943
REMARK INTER + INTRA:          -4.781
REMARK INTER:                  -4.585
REMARK INTRA:                  -0.197
REMARK UNBOUND:                -0.196
REMARK SMILES Cc1ccc(C(C)C)c(O)c1
REMARK SMILES IDX 1 1 2 2 11 3 9 4 5 5 4 6 3 7 10 8 6 10 7 11 8 12
REMARK H PARENT 10 9
REMARK Flexibility Score: inf
ROOT
ATOM      1  C   UNL     1     174.401 170.721 149.733  1.00  0.00     0.044 C 
ATOM      2  C   UNL     1     174.697 172.104 150.234  1.00  0.00    -0.047 A 
ATOM      3  C   UNL     1     176.017 172.490 150.502  1.00  0.00     0.049 A 
ATOM      4  C   UNL     1     176.309 173.792 150.935  1.00  0.00     0.119 A 
ATOM      5  C   UNL     1     175.265 174.735 151.093  1.00  0.00    -0.004 A 
ATOM      6  C   UNL     1     173.946 174.339 150.801  1.00  0.00     0.008 A 
ATOM      7  C   UNL     1     173.667 173.040 150.370  1.00  0.00     0.004 A 
ENDROOT
BRANCH   4   8
ATOM      8  O   UNL     1     177.630 174.142 151.203  1.00  0.00    -0.508 OA
ATOM      9  H   UNL     1     177.901 175.099 151.398  1.00  0.00     0.293 HD
ENDBRANCH   4   8
BRANCH   5  10
ATOM     10  C   UNL     1     175.518 176.163 151.560  1.00  0.00     0.017 C 
ATOM     11  C   UNL     1     175.366 176.300 153.080  1.00  0.00     0.012 C 
ATOM     12  C   UNL     1     174.638 177.172 150.812  1.00  0.00     0.012 C 
ENDBRANCH   5  10
TORSDOF 2
ENDMDL
MODEL 8
REMARK VINA RESULT:    -4.181     18.170     19.219
REMARK INTER + INTRA:          -4.743
REMARK INTER:                  -4.547
REMARK INTRA:                  -0.197
REMARK UNBOUND:                -0.196
REMARK SMILES Cc1ccc(C(C)C)c(O)c1
REMARK SMILES IDX 1 1 2 2 11 3 9 4 5 5 4 6 3 7 10 8 6 10 7 11 8 12
REMARK H PARENT 10 9
REMARK Flexibility Score: inf
ROOT
ATOM      1  C   UNL     1     163.320 172.006 152.093  1.00  0.00     0.044 C 
ATOM      2  C   UNL     1     162.492 173.239 151.886  1.00  0.00    -0.047 A 
ATOM      3  C   UNL     1     161.129 173.238 152.212  1.00  0.00     0.049 A 
ATOM      4  C   UNL     1     160.354 174.396 152.057  1.00  0.00     0.119 A 
ATOM      5  C   UNL     1     160.950 175.587 151.577  1.00  0.00    -0.004 A 
ATOM      6  C   UNL     1     162.325 175.580 151.272  1.00  0.00     0.008 A 
ATOM      7  C   UNL     1     163.087 174.421 151.431  1.00  0.00     0.004 A 
ENDROOT
BRANCH   4   8
ATOM      8  O   UNL     1     159.000 174.360 152.381  1.00  0.00    -0.508 OA
ATOM      9  H   UNL     1     158.319 173.900 151.786  1.00  0.00     0.293 HD
ENDBRANCH   4   8
BRANCH   5  10
ATOM     10  C   UNL     1     160.162 176.877 151.387  1.00  0.00     0.017 C 
ATOM     11  C   UNL     1     160.555 177.599 150.092  1.00  0.00     0.012 C 
ATOM     12  C   UNL     1     160.277 177.801 152.605  1.00  0.00     0.012 C 
ENDBRANCH   5  10
TORSDOF 2
ENDMDL
MODEL 9
REMARK VINA RESULT:    -4.133     11.289     13.216
REMARK INTER + INTRA:          -4.691
REMARK INTER:                  -4.494
REMARK INTRA:                  -0.196
REMARK UNBOUND:                -0.196
REMARK SMILES Cc1ccc(C(C)C)c(O)c1
REMARK SMILES IDX 1 1 2 2 11 3 9 4 5 5 4 6 3 7 10 8 6 10 7 11 8 12
REMARK H PARENT 10 9
REMARK Flexibility Score: inf
ROOT
ATOM      1  C   UNL     1     172.448 178.125 151.987  1.00  0.00     0.044 C 
ATOM      2  C   UNL     1     173.551 177.110 151.943  1.00  0.00    -0.047 A 
ATOM      3  C   UNL     1     174.413 176.955 153.037  1.00  0.00     0.049 A 
ATOM      4  C   UNL     1     175.424 175.983 153.020  1.00  0.00     0.119 A 
ATOM      5  C   UNL     1     175.574 175.138 151.895  1.00  0.00    -0.004 A 
ATOM      6  C   UNL     1     174.689 175.291 150.811  1.00  0.00     0.008 A 
ATOM      7  C   UNL     1     173.685 176.261 150.838  1.00  0.00     0.004 A 
ENDROOT
BRANCH   4   8
ATOM      8  O   UNL     1     176.270 175.860 154.120  1.00  0.00    -0.508 OA
ATOM      9  H   UNL     1     176.517 176.657 154.696  1.00  0.00     0.293 HD
ENDBRANCH   4   8
BRANCH   5  10
ATOM     10  C   UNL     1     176.653 174.064 151.817  1.00  0.00     0.017 C 
ATOM     11  C   UNL     1     177.297 174.004 150.427  1.00  0.00     0.012 C 
ATOM     12  C   UNL     1     176.124 172.692 152.254  1.00  0.00     0.012 C 
ENDBRANCH   5  10
TORSDOF 2
ENDMDL
