MODEL 1
REMARK VINA RESULT:    -3.819      0.000      0.000
REMARK INTER + INTRA:          -4.824
REMARK INTER:                  -4.601
REMARK INTRA:                  -0.224
REMARK UNBOUND:                -0.224
REMARK SMILES OCC(O)CO
REMARK SMILES IDX 3 1 5 2 6 3 2 5 1 6 4 8
REMARK H PARENT 6 4 1 7 4 9
REMARK Flexibility Score: inf
ROOT
ATOM      1  C   UNL     1     -12.733  -4.896 -22.410  1.00  0.00     0.165 C 
ENDROOT
BRANCH   1   2
ATOM      2  C   UNL     1     -13.866  -3.865 -22.555  1.00  0.00     0.190 C 
BRANCH   2   3
ATOM      3  O   UNL     1     -13.552  -2.691 -21.854  1.00  0.00    -0.394 OA
ATOM      4  H   UNL     1     -13.164  -2.975 -20.984  1.00  0.00     0.210 HD
ENDBRANCH   2   3
ENDBRANCH   1   2
BRANCH   1   5
ATOM      5  C   UNL     1     -11.738  -4.505 -21.306  1.00  0.00     0.190 C 
BRANCH   5   6
ATOM      6  O   UNL     1     -12.322  -4.647 -20.040  1.00  0.00    -0.394 OA
ATOM      7  H   UNL     1     -12.883  -3.840 -19.904  1.00  0.00     0.210 HD
ENDBRANCH   5   6
ENDBRANCH   1   5
BRANCH   1   8
ATOM      8  O   UNL     1     -12.068  -5.093 -23.634  1.00  0.00    -0.388 OA
ATOM      9  H   UNL     1     -11.717  -4.215 -23.934  1.00  0.00     0.211 HD
ENDBRANCH   1   8
TORSDOF 5
ENDMDL
MODEL 2
REMARK VINA RESULT:    -3.655     20.391     20.964
REMARK INTER + INTRA:          -4.627
REMARK INTER:                  -4.412
REMARK INTRA:                  -0.215
REMARK UNBOUND:                -0.224
REMARK SMILES OCC(O)CO
REMARK SMILES IDX 3 1 5 2 6 3 2 5 1 6 4 8
REMARK H PARENT 6 4 1 7 4 9
REMARK Flexibility Score: inf
ROOT
ATOM      1  C   UNL     1     -19.974  12.230 -12.665  1.00  0.00     0.165 C 
ENDROOT
BRANCH   1   2
ATOM      2  C   UNL     1     -19.220  12.537 -11.358  1.00  0.00     0.190 C 
BRANCH   2   3
ATOM      3  O   UNL     1     -18.807  13.877 -11.336  1.00  0.00    -0.394 OA
ATOM      4  H   UNL     1     -18.863  14.207 -12.271  1.00  0.00     0.210 HD
ENDBRANCH   2   3
ENDBRANCH   1   2
BRANCH   1   5
ATOM      5  C   UNL     1     -20.214  13.497 -13.501  1.00  0.00     0.190 C 
BRANCH   5   6
ATOM      6  O   UNL     1     -19.130  13.740 -14.355  1.00  0.00    -0.394 OA
ATOM      7  H   UNL     1     -19.463  14.363 -15.052  1.00  0.00     0.210 HD
ENDBRANCH   5   6
ENDBRANCH   1   5
BRANCH   1   8
ATOM      8  O   UNL     1     -21.186  11.566 -12.406  1.00  0.00    -0.388 OA
ATOM      9  H   UNL     1     -21.294  11.502 -11.421  1.00  0.00     0.211 HD
ENDBRANCH   1   8
TORSDOF 5
ENDMDL
MODEL 3
REMARK VINA RESULT:    -3.647     19.471     20.428
REMARK INTER + INTRA:          -4.617
REMARK INTER:                  -4.398
REMARK INTRA:                  -0.219
REMARK UNBOUND:                -0.224
REMARK SMILES OCC(O)CO
REMARK SMILES IDX 3 1 5 2 6 3 2 5 1 6 4 8
REMARK H PARENT 6 4 1 7 4 9
REMARK Flexibility Score: inf
ROOT
ATOM      1  C   UNL     1     -18.414  13.714 -12.755  1.00  0.00     0.165 C 
ENDROOT
BRANCH   1   2
ATOM      2  C   UNL     1     -19.253  12.533 -13.275  1.00  0.00     0.190 C 
BRANCH   2   3
ATOM      3  O   UNL     1     -18.458  11.383 -13.392  1.00  0.00    -0.394 OA
ATOM      4  H   UNL     1     -18.525  10.902 -12.525  1.00  0.00     0.210 HD
ENDBRANCH   2   3
ENDBRANCH   1   2
BRANCH   1   5
ATOM      5  C   UNL     1     -16.969  13.667 -13.277  1.00  0.00     0.190 C 
BRANCH   5   6
ATOM      6  O   UNL     1     -16.949  13.650 -14.679  1.00  0.00    -0.394 OA
ATOM      7  H   UNL     1     -16.642  12.742 -14.938  1.00  0.00     0.210 HD
ENDBRANCH   5   6
ENDBRANCH   1   5
BRANCH   1   8
ATOM      8  O   UNL     1     -18.436  13.772 -11.350  1.00  0.00    -0.388 OA
ATOM      9  H   UNL     1     -19.358  13.558 -11.052  1.00  0.00     0.211 HD
ENDBRANCH   1   8
TORSDOF 5
ENDMDL
MODEL 4
REMARK VINA RESULT:    -3.645     19.039     19.831
REMARK INTER + INTRA:          -4.614
REMARK INTER:                  -4.391
REMARK INTRA:                  -0.223
REMARK UNBOUND:                -0.224
REMARK SMILES OCC(O)CO
REMARK SMILES IDX 3 1 5 2 6 3 2 5 1 6 4 8
REMARK H PARENT 6 4 1 7 4 9
REMARK Flexibility Score: inf
ROOT
ATOM      1  C   UNL     1     -17.838  12.643 -13.158  1.00  0.00     0.165 C 
ENDROOT
BRANCH   1   2
ATOM      2  C   UNL     1     -18.868  13.748 -13.455  1.00  0.00     0.190 C 
BRANCH   2   3
ATOM      3  O   UNL     1     -19.684  13.379 -14.533  1.00  0.00    -0.394 OA
ATOM      4  H   UNL     1     -19.371  13.901 -15.319  1.00  0.00     0.210 HD
ENDBRANCH   2   3
ENDBRANCH   1   2
BRANCH   1   5
ATOM      5  C   UNL     1     -16.702  12.623 -14.194  1.00  0.00     0.190 C 
BRANCH   5   6
ATOM      6  O   UNL     1     -16.847  13.676 -15.108  1.00  0.00    -0.394 OA
ATOM      7  H   UNL     1     -17.159  14.456 -14.581  1.00  0.00     0.210 HD
ENDBRANCH   5   6
ENDBRANCH   1   5
BRANCH   1   8
ATOM      8  O   UNL     1     -18.457  11.383 -13.072  1.00  0.00    -0.388 OA
ATOM      9  H   UNL     1     -18.347  11.053 -12.142  1.00  0.00     0.211 HD
ENDBRANCH   1   8
TORSDOF 5
ENDMDL
MODEL 5
REMARK VINA RESULT:    -3.643      0.876      2.691
REMARK INTER + INTRA:          -4.613
REMARK INTER:                  -4.610
REMARK INTRA:                  -0.002
REMARK UNBOUND:                -0.224
REMARK SMILES OCC(O)CO
REMARK SMILES IDX 3 1 5 2 6 3 2 5 1 6 4 8
REMARK H PARENT 6 4 1 7 4 9
REMARK Flexibility Score: inf
ROOT
ATOM      1  C   UNL     1     -13.164  -3.831 -21.795  1.00  0.00     0.165 C 
ENDROOT
BRANCH   1   2
ATOM      2  C   UNL     1     -12.305  -3.539 -20.551  1.00  0.00     0.190 C 
BRANCH   2   3
ATOM      3  O   UNL     1     -12.731  -4.322 -19.468  1.00  0.00    -0.394 OA
ATOM      4  H   UNL     1     -12.059  -5.046 -19.359  1.00  0.00     0.210 HD
ENDBRANCH   2   3
ENDBRANCH   1   2
BRANCH   1   5
ATOM      5  C   UNL     1     -12.562  -4.951 -22.658  1.00  0.00     0.190 C 
BRANCH   5   6
ATOM      6  O   UNL     1     -12.066  -4.436 -23.864  1.00  0.00    -0.394 OA
ATOM      7  H   UNL     1     -11.472  -5.137 -24.238  1.00  0.00     0.210 HD
ENDBRANCH   5   6
ENDBRANCH   1   5
BRANCH   1   8
ATOM      8  O   UNL     1     -13.364  -2.667 -22.557  1.00  0.00    -0.388 OA
ATOM      9  H   UNL     1     -14.188  -2.224 -22.224  1.00  0.00     0.211 HD
ENDBRANCH   1   8
TORSDOF 5
ENDMDL
MODEL 6
REMARK VINA RESULT:    -3.631     19.598     20.561
REMARK INTER + INTRA:          -4.598
REMARK INTER:                  -4.409
REMARK INTRA:                  -0.189
REMARK UNBOUND:                -0.224
REMARK SMILES OCC(O)CO
REMARK SMILES IDX 3 1 5 2 6 3 2 5 1 6 4 8
REMARK H PARENT 6 4 1 7 4 9
REMARK Flexibility Score: inf
ROOT
ATOM      1  C   UNL     1     -19.049  12.685 -13.281  1.00  0.00     0.165 C 
ENDROOT
BRANCH   1   2
ATOM      2  C   UNL     1     -18.485  13.721 -12.291  1.00  0.00     0.190 C 
BRANCH   2   3
ATOM      3  O   UNL     1     -18.903  13.428 -10.985  1.00  0.00    -0.394 OA
ATOM      4  H   UNL     1     -18.705  14.232 -10.436  1.00  0.00     0.210 HD
ENDBRANCH   2   3
ENDBRANCH   1   2
BRANCH   1   5
ATOM      5  C   UNL     1     -20.585  12.640 -13.251  1.00  0.00     0.190 C 
BRANCH   5   6
ATOM      6  O   UNL     1     -21.035  11.616 -12.406  1.00  0.00    -0.394 OA
ATOM      7  H   UNL     1     -22.022  11.595 -12.502  1.00  0.00     0.210 HD
ENDBRANCH   5   6
ENDBRANCH   1   5
BRANCH   1   8
ATOM      8  O   UNL     1     -18.508  11.409 -13.042  1.00  0.00    -0.388 OA
ATOM      9  H   UNL     1     -18.098  11.417 -12.138  1.00  0.00     0.211 HD
ENDBRANCH   1   8
TORSDOF 5
ENDMDL
MODEL 7
REMARK VINA RESULT:    -3.623     19.470     20.258
REMARK INTER + INTRA:          -4.588
REMARK INTER:                  -4.585
REMARK INTRA:                  -0.003
REMARK UNBOUND:                -0.224
REMARK SMILES OCC(O)CO
REMARK SMILES IDX 3 1 5 2 6 3 2 5 1 6 4 8
REMARK H PARENT 6 4 1 7 4 9
REMARK Flexibility Score: inf
ROOT
ATOM      1  C   UNL     1     -18.442  12.772 -13.455  1.00  0.00     0.165 C 
ENDROOT
BRANCH   1   2
ATOM      2  C   UNL     1     -17.011  13.285 -13.698  1.00  0.00     0.190 C 
BRANCH   2   3
ATOM      3  O   UNL     1     -16.811  13.551 -15.060  1.00  0.00    -0.394 OA
ATOM      4  H   UNL     1     -17.208  12.789 -15.559  1.00  0.00     0.210 HD
ENDBRANCH   2   3
ENDBRANCH   1   2
BRANCH   1   5
ATOM      5  C   UNL     1     -19.181  13.611 -12.400  1.00  0.00     0.190 C 
BRANCH   5   6
ATOM      6  O   UNL     1     -18.548  13.511 -11.154  1.00  0.00    -0.394 OA
ATOM      7  H   UNL     1     -17.627  13.857 -11.286  1.00  0.00     0.210 HD
ENDBRANCH   5   6
ENDBRANCH   1   5
BRANCH   1   8
ATOM      8  O   UNL     1     -18.439  11.412 -13.099  1.00  0.00    -0.388 OA
ATOM      9  H   UNL     1     -19.116  11.284 -12.384  1.00  0.00     0.211 HD
ENDBRANCH   1   8
TORSDOF 5
ENDMDL
MODEL 8
REMARK VINA RESULT:    -3.620      0.917      2.197
REMARK INTER + INTRA:          -4.584
REMARK INTER:                  -4.581
REMARK INTRA:                  -0.003
REMARK UNBOUND:                -0.224
REMARK SMILES OCC(O)CO
REMARK SMILES IDX 3 1 5 2 6 3 2 5 1 6 4 8
REMARK H PARENT 6 4 1 7 4 9
REMARK Flexibility Score: inf
ROOT
ATOM      1  C   UNL     1     -12.425  -3.535 -21.757  1.00  0.00     0.165 C 
ENDROOT
BRANCH   1   2
ATOM      2  C   UNL     1     -12.534  -4.945 -22.364  1.00  0.00     0.190 C 
BRANCH   2   3
ATOM      3  O   UNL     1     -12.131  -4.932 -23.707  1.00  0.00    -0.394 OA
ATOM      4  H   UNL     1     -12.769  -4.343 -24.190  1.00  0.00     0.210 HD
ENDBRANCH   2   3
ENDBRANCH   1   2
BRANCH   1   5
ATOM      5  C   UNL     1     -11.920  -3.573 -20.305  1.00  0.00     0.190 C 
BRANCH   5   6
ATOM      6  O   UNL     1     -12.730  -4.406 -19.520  1.00  0.00    -0.394 OA
ATOM      7  H   UNL     1     -13.645  -4.025 -19.570  1.00  0.00     0.210 HD
ENDBRANCH   5   6
ENDBRANCH   1   5
BRANCH   1   8
ATOM      8  O   UNL     1     -13.649  -2.850 -21.842  1.00  0.00    -0.388 OA
ATOM      9  H   UNL     1     -14.338  -3.495 -22.150  1.00  0.00     0.211 HD
ENDBRANCH   1   8
TORSDOF 5
ENDMDL
MODEL 9
REMARK VINA RESULT:    -3.598      1.605      2.801
REMARK INTER + INTRA:          -4.557
REMARK INTER:                  -4.347
REMARK INTRA:                  -0.210
REMARK UNBOUND:                -0.224
REMARK SMILES OCC(O)CO
REMARK SMILES IDX 3 1 5 2 6 3 2 5 1 6 4 8
REMARK H PARENT 6 4 1 7 4 9
REMARK Flexibility Score: inf
ROOT
ATOM      1  C   UNL     1     -12.047  -3.814 -20.516  1.00  0.00     0.165 C 
ENDROOT
BRANCH   1   2
ATOM      2  C   UNL     1     -12.853  -3.074 -19.433  1.00  0.00     0.190 C 
BRANCH   2   3
ATOM      3  O   UNL     1     -14.215  -3.387 -19.538  1.00  0.00    -0.394 OA
ATOM      4  H   UNL     1     -14.627  -2.678 -20.099  1.00  0.00     0.210 HD
ENDBRANCH   2   3
ENDBRANCH   1   2
BRANCH   1   5
ATOM      5  C   UNL     1     -12.825  -3.921 -21.837  1.00  0.00     0.190 C 
BRANCH   5   6
ATOM      6  O   UNL     1     -13.451  -2.705 -22.144  1.00  0.00    -0.394 OA
ATOM      7  H   UNL     1     -14.426  -2.888 -22.134  1.00  0.00     0.210 HD
ENDBRANCH   5   6
ENDBRANCH   1   5
BRANCH   1   8
ATOM      8  O   UNL     1     -11.644  -5.085 -20.069  1.00  0.00    -0.388 OA
ATOM      9  H   UNL     1     -11.922  -5.749 -20.753  1.00  0.00     0.211 HD
ENDBRANCH   1   8
TORSDOF 5
ENDMDL
