MODEL 1
REMARK VINA RESULT:    -5.803      0.000      0.000
REMARK INTER + INTRA:          -6.333
REMARK INTER:                  -6.143
REMARK INTRA:                  -0.190
REMARK UNBOUND:                -0.190
REMARK SMILES C=C(C)[C@@H]1CC=C(C)C(=O)C1
REMARK SMILES IDX 8 1 7 2 6 3 5 4 4 5 11 6 9 7 10 8 2 9 1 10 3 11
REMARK H PARENT
REMARK Flexibility Score: inf
ROOT
ATOM      1  C   UNL     1      -7.491  29.807  24.234  1.00  0.00     0.048 C 
ATOM      2  C   UNL     1      -8.283  30.873  23.527  1.00  0.00    -0.012 C 
ATOM      3  C   UNL     1      -8.404  32.089  24.082  1.00  0.00    -0.019 C 
ATOM      4  C   UNL     1      -9.207  33.191  23.447  1.00  0.00     0.036 C 
ATOM      5  C   UNL     1      -9.263  33.107  21.908  1.00  0.00     0.025 C 
ATOM      6  C   UNL     1      -9.578  31.676  21.424  1.00  0.00     0.089 C 
ATOM      7  C   UNL     1      -8.794  30.626  22.159  1.00  0.00     0.158 C 
ATOM      8  O   UNL     1      -8.609  29.507  21.609  1.00  0.00    -0.295 OA
ENDROOT
BRANCH   5   9
ATOM      9  C   UNL     1      -8.027  33.708  21.235  1.00  0.00    -0.077 C 
ATOM     10  C   UNL     1      -7.445  33.141  20.164  1.00  0.00     0.008 C 
ATOM     11  C   UNL     1      -7.424  34.981  21.775  1.00  0.00     0.039 C 
ENDBRANCH   5   9
TORSDOF 1
ENDMDL
MODEL 2
REMARK VINA RESULT:    -5.537      1.913      4.062
REMARK INTER + INTRA:          -6.051
REMARK INTER:                  -5.883
REMARK INTRA:                  -0.168
REMARK UNBOUND:                -0.190
REMARK SMILES C=C(C)[C@@H]1CC=C(C)C(=O)C1
REMARK SMILES IDX 8 1 7 2 6 3 5 4 4 5 11 6 9 7 10 8 2 9 1 10 3 11
REMARK H PARENT
REMARK Flexibility Score: inf
ROOT
ATOM      1  C   UNL     1      -7.512  34.843  22.066  1.00  0.00     0.048 C 
ATOM      2  C   UNL     1      -8.220  33.538  22.306  1.00  0.00    -0.012 C 
ATOM      3  C   UNL     1      -8.061  32.527  21.438  1.00  0.00    -0.019 C 
ATOM      4  C   UNL     1      -8.764  31.206  21.598  1.00  0.00     0.036 C 
ATOM      5  C   UNL     1      -9.063  30.839  23.066  1.00  0.00     0.025 C 
ATOM      6  C   UNL     1      -9.671  32.027  23.841  1.00  0.00     0.089 C 
ATOM      7  C   UNL     1      -8.964  33.324  23.569  1.00  0.00     0.158 C 
ATOM      8  O   UNL     1      -9.044  34.252  24.418  1.00  0.00    -0.295 OA
ENDROOT
BRANCH   5   9
ATOM      9  C   UNL     1      -7.862  30.212  23.777  1.00  0.00    -0.077 C 
ATOM     10  C   UNL     1      -6.794  29.744  23.108  1.00  0.00     0.008 C 
ATOM     11  C   UNL     1      -7.855  30.104  25.282  1.00  0.00     0.039 C 
ENDBRANCH   5   9
TORSDOF 1
ENDMDL
MODEL 3
REMARK VINA RESULT:    -5.448      1.538      2.277
REMARK INTER + INTRA:          -5.957
REMARK INTER:                  -5.798
REMARK INTRA:                  -0.159
REMARK UNBOUND:                -0.190
REMARK SMILES C=C(C)[C@@H]1CC=C(C)C(=O)C1
REMARK SMILES IDX 8 1 7 2 6 3 5 4 4 5 11 6 9 7 10 8 2 9 1 10 3 11
REMARK H PARENT
REMARK Flexibility Score: inf
ROOT
ATOM      1  C   UNL     1      -6.755  29.759  23.165  1.00  0.00     0.048 C 
ATOM      2  C   UNL     1      -7.782  30.849  23.312  1.00  0.00    -0.012 C 
ATOM      3  C   UNL     1      -8.329  31.087  24.514  1.00  0.00    -0.019 C 
ATOM      4  C   UNL     1      -9.384  32.140  24.726  1.00  0.00     0.036 C 
ATOM      5  C   UNL     1      -9.278  33.327  23.747  1.00  0.00     0.025 C 
ATOM      6  C   UNL     1      -9.081  32.853  22.293  1.00  0.00     0.089 C 
ATOM      7  C   UNL     1      -8.069  31.748  22.171  1.00  0.00     0.158 C 
ATOM      8  O   UNL     1      -7.492  31.569  21.066  1.00  0.00    -0.295 OA
ENDROOT
BRANCH   5   9
ATOM      9  C   UNL     1      -8.245  34.367  24.185  1.00  0.00    -0.077 C 
ATOM     10  C   UNL     1      -7.340  34.882  23.334  1.00  0.00     0.008 C 
ATOM     11  C   UNL     1      -8.222  34.846  25.615  1.00  0.00     0.039 C 
ENDBRANCH   5   9
TORSDOF 1
ENDMDL
MODEL 4
REMARK VINA RESULT:    -5.384      1.837      4.346
REMARK INTER + INTRA:          -5.889
REMARK INTER:                  -5.680
REMARK INTRA:                  -0.209
REMARK UNBOUND:                -0.190
REMARK SMILES C=C(C)[C@@H]1CC=C(C)C(=O)C1
REMARK SMILES IDX 8 1 7 2 6 3 5 4 4 5 11 6 9 7 10 8 2 9 1 10 3 11
REMARK H PARENT
REMARK Flexibility Score: inf
ROOT
ATOM      1  C   UNL     1      -9.098  33.415  23.019  1.00  0.00     0.048 C 
ATOM      2  C   UNL     1      -8.394  32.158  23.453  1.00  0.00    -0.012 C 
ATOM      3  C   UNL     1      -8.588  31.682  24.692  1.00  0.00    -0.019 C 
ATOM      4  C   UNL     1      -7.893  30.449  25.203  1.00  0.00     0.036 C 
ATOM      5  C   UNL     1      -7.554  29.429  24.097  1.00  0.00     0.025 C 
ATOM      6  C   UNL     1      -6.911  30.107  22.870  1.00  0.00     0.089 C 
ATOM      7  C   UNL     1      -7.615  31.373  22.468  1.00  0.00     0.158 C 
ATOM      8  O   UNL     1      -7.501  31.783  21.282  1.00  0.00    -0.295 OA
ENDROOT
BRANCH   5   9
ATOM      9  C   UNL     1      -8.738  28.531  23.734  1.00  0.00    -0.077 C 
ATOM     10  C   UNL     1      -9.750  28.296  24.588  1.00  0.00     0.008 C 
ATOM     11  C   UNL     1      -8.793  27.875  22.377  1.00  0.00     0.039 C 
ENDBRANCH   5   9
TORSDOF 1
ENDMDL
MODEL 5
REMARK VINA RESULT:    -5.295      2.270      3.469
REMARK INTER + INTRA:          -5.795
REMARK INTER:                  -5.703
REMARK INTRA:                  -0.092
REMARK UNBOUND:                -0.190
REMARK SMILES C=C(C)[C@@H]1CC=C(C)C(=O)C1
REMARK SMILES IDX 8 1 7 2 6 3 5 4 4 5 11 6 9 7 10 8 2 9 1 10 3 11
REMARK H PARENT
REMARK Flexibility Score: inf
ROOT
ATOM      1  C   UNL     1      -8.878  30.242  26.574  1.00  0.00     0.048 C 
ATOM      2  C   UNL     1      -8.225  30.643  25.278  1.00  0.00    -0.012 C 
ATOM      3  C   UNL     1      -7.525  29.737  24.579  1.00  0.00    -0.019 C 
ATOM      4  C   UNL     1      -6.821  30.077  23.293  1.00  0.00     0.036 C 
ATOM      5  C   UNL     1      -7.495  31.216  22.502  1.00  0.00     0.025 C 
ATOM      6  C   UNL     1      -7.856  32.410  23.411  1.00  0.00     0.089 C 
ATOM      7  C   UNL     1      -8.484  31.986  24.709  1.00  0.00     0.158 C 
ATOM      8  O   UNL     1      -9.208  32.807  25.332  1.00  0.00    -0.295 OA
ENDROOT
BRANCH   5   9
ATOM      9  C   UNL     1      -8.673  30.733  21.653  1.00  0.00    -0.077 C 
ATOM     10  C   UNL     1      -9.432  31.576  20.932  1.00  0.00     0.008 C 
ATOM     11  C   UNL     1      -9.012  29.264  21.609  1.00  0.00     0.039 C 
ENDBRANCH   5   9
TORSDOF 1
ENDMDL
MODEL 6
REMARK VINA RESULT:    -5.148      2.516      3.771
REMARK INTER + INTRA:          -5.639
REMARK INTER:                  -5.442
REMARK INTRA:                  -0.197
REMARK UNBOUND:                -0.190
REMARK SMILES C=C(C)[C@@H]1CC=C(C)C(=O)C1
REMARK SMILES IDX 8 1 7 2 6 3 5 4 4 5 11 6 9 7 10 8 2 9 1 10 3 11
REMARK H PARENT
REMARK Flexibility Score: inf
ROOT
ATOM      1  C   UNL     1      -8.133  34.332  26.169  1.00  0.00     0.048 C 
ATOM      2  C   UNL     1      -8.663  33.164  25.382  1.00  0.00    -0.012 C 
ATOM      3  C   UNL     1      -9.206  33.369  24.173  1.00  0.00    -0.019 C 
ATOM      4  C   UNL     1      -9.784  32.252  23.346  1.00  0.00     0.036 C 
ATOM      5  C   UNL     1      -9.113  30.886  23.599  1.00  0.00     0.025 C 
ATOM      6  C   UNL     1      -8.953  30.598  25.106  1.00  0.00     0.089 C 
ATOM      7  C   UNL     1      -8.446  31.785  25.876  1.00  0.00     0.158 C 
ATOM      8  O   UNL     1      -7.864  31.593  26.977  1.00  0.00    -0.295 OA
ENDROOT
BRANCH   5   9
ATOM      9  C   UNL     1      -7.813  30.708  22.813  1.00  0.00    -0.077 C 
ATOM     10  C   UNL     1      -7.531  31.433  21.717  1.00  0.00     0.008 C 
ATOM     11  C   UNL     1      -6.798  29.688  23.266  1.00  0.00     0.039 C 
ENDBRANCH   5   9
TORSDOF 1
ENDMDL
MODEL 7
REMARK VINA RESULT:    -5.086      1.968      4.105
REMARK INTER + INTRA:          -5.574
REMARK INTER:                  -5.666
REMARK INTRA:                   0.092
REMARK UNBOUND:                -0.190
REMARK SMILES C=C(C)[C@@H]1CC=C(C)C(=O)C1
REMARK SMILES IDX 8 1 7 2 6 3 5 4 4 5 11 6 9 7 10 8 2 9 1 10 3 11
REMARK H PARENT
REMARK Flexibility Score: inf
ROOT
ATOM      1  C   UNL     1      -7.140  33.576  19.747  1.00  0.00     0.048 C 
ATOM      2  C   UNL     1      -8.072  33.263  20.886  1.00  0.00    -0.012 C 
ATOM      3  C   UNL     1      -8.867  32.185  20.816  1.00  0.00    -0.019 C 
ATOM      4  C   UNL     1      -9.846  31.830  21.902  1.00  0.00     0.036 C 
ATOM      5  C   UNL     1      -9.407  32.297  23.305  1.00  0.00     0.025 C 
ATOM      6  C   UNL     1      -8.911  33.757  23.293  1.00  0.00     0.089 C 
ATOM      7  C   UNL     1      -8.001  34.055  22.136  1.00  0.00     0.158 C 
ATOM      8  O   UNL     1      -7.195  35.020  22.226  1.00  0.00    -0.295 OA
ENDROOT
BRANCH   5   9
ATOM      9  C   UNL     1      -8.421  31.334  23.970  1.00  0.00    -0.077 C 
ATOM     10  C   UNL     1      -8.258  31.281  25.304  1.00  0.00     0.008 C 
ATOM     11  C   UNL     1      -7.591  30.405  23.119  1.00  0.00     0.039 C 
ENDBRANCH   5   9
TORSDOF 1
ENDMDL
MODEL 8
REMARK VINA RESULT:    -5.069      2.335      3.798
REMARK INTER + INTRA:          -5.556
REMARK INTER:                  -5.360
REMARK INTRA:                  -0.196
REMARK UNBOUND:                -0.190
REMARK SMILES C=C(C)[C@@H]1CC=C(C)C(=O)C1
REMARK SMILES IDX 8 1 7 2 6 3 5 4 4 5 11 6 9 7 10 8 2 9 1 10 3 11
REMARK H PARENT
REMARK Flexibility Score: inf
ROOT
ATOM      1  C   UNL     1      -6.759  29.750  23.135  1.00  0.00     0.048 C 
ATOM      2  C   UNL     1      -7.867  30.454  23.871  1.00  0.00    -0.012 C 
ATOM      3  C   UNL     1      -8.309  29.958  25.037  1.00  0.00    -0.019 C 
ATOM      4  C   UNL     1      -9.434  30.592  25.809  1.00  0.00     0.036 C 
ATOM      5  C   UNL     1      -9.547  32.116  25.599  1.00  0.00     0.025 C 
ATOM      6  C   UNL     1      -9.454  32.496  24.107  1.00  0.00     0.089 C 
ATOM      7  C   UNL     1      -8.357  31.765  23.386  1.00  0.00     0.158 C 
ATOM      8  O   UNL     1      -7.881  32.265  22.332  1.00  0.00    -0.295 OA
ENDROOT
BRANCH   5   9
ATOM      9  C   UNL     1      -8.581  32.910  26.481  1.00  0.00    -0.077 C 
ATOM     10  C   UNL     1      -8.034  32.392  27.595  1.00  0.00     0.008 C 
ATOM     11  C   UNL     1      -8.217  34.325  26.108  1.00  0.00     0.039 C 
ENDBRANCH   5   9
TORSDOF 1
ENDMDL
MODEL 9
REMARK VINA RESULT:    -3.895      1.878      2.865
REMARK INTER + INTRA:          -4.313
REMARK INTER:                  -4.247
REMARK INTRA:                  -0.066
REMARK UNBOUND:                -0.190
REMARK SMILES C=C(C)[C@@H]1CC=C(C)C(=O)C1
REMARK SMILES IDX 8 1 7 2 6 3 5 4 4 5 11 6 9 7 10 8 2 9 1 10 3 11
REMARK H PARENT
REMARK Flexibility Score: inf
ROOT
ATOM      1  C   UNL     1      -9.570  27.875  23.891  1.00  0.00     0.048 C 
ATOM      2  C   UNL     1      -8.729  29.111  23.718  1.00  0.00    -0.012 C 
ATOM      3  C   UNL     1      -7.723  29.111  22.831  1.00  0.00    -0.019 C 
ATOM      4  C   UNL     1      -6.823  30.300  22.629  1.00  0.00     0.036 C 
ATOM      5  C   UNL     1      -7.508  31.650  22.923  1.00  0.00     0.025 C 
ATOM      6  C   UNL     1      -8.295  31.616  24.250  1.00  0.00     0.089 C 
ATOM      7  C   UNL     1      -9.108  30.363  24.413  1.00  0.00     0.158 C 
ATOM      8  O   UNL     1     -10.103  30.379  25.186  1.00  0.00    -0.295 OA
ENDROOT
BRANCH   5   9
ATOM      9  C   UNL     1      -8.341  32.163  21.746  1.00  0.00    -0.077 C 
ATOM     10  C   UNL     1      -7.793  32.469  20.557  1.00  0.00     0.008 C 
ATOM     11  C   UNL     1      -9.831  32.340  21.903  1.00  0.00     0.039 C 
ENDBRANCH   5   9
TORSDOF 1
ENDMDL
