MODEL 1
REMARK VINA RESULT:    -3.448      0.000      0.000
REMARK INTER + INTRA:          -4.072
REMARK INTER:                  -4.053
REMARK INTRA:                  -0.018
REMARK UNBOUND:                -0.018
REMARK SMILES CCCCC(=O)[O-]
REMARK SMILES IDX 4 1 5 2 6 3 7 4 3 5 2 6 1 7
REMARK H PARENT
REMARK Flexibility Score: inf
ROOT
ATOM      1  C   UNL     1      26.757  -7.210  39.581  1.00  0.00     0.053 C 
ENDROOT
BRANCH   1   2
ATOM      2  C   UNL     1      25.851  -6.022  39.659  1.00  0.00     0.041 C 
ATOM      3  O   UNL     1      25.483  -5.579  40.779  1.00  0.00    -0.550 OA
ATOM      4  O   UNL     1      25.373  -5.435  38.495  1.00  0.00    -0.550 OA
ENDBRANCH   1   2
BRANCH   1   5
ATOM      5  C   UNL     1      28.195  -6.770  39.293  1.00  0.00     0.006 C 
BRANCH   5   6
ATOM      6  C   UNL     1      28.947  -7.838  38.489  1.00  0.00    -0.003 C 
ATOM      7  C   UNL     1      30.109  -7.227  37.712  1.00  0.00     0.004 C 
ENDBRANCH   5   6
ENDBRANCH   1   5
TORSDOF 3
ENDMDL
MODEL 2
REMARK VINA RESULT:    -3.427     18.970     20.150
REMARK INTER + INTRA:          -4.047
REMARK INTER:                  -3.955
REMARK INTRA:                  -0.091
REMARK UNBOUND:                -0.018
REMARK SMILES CCCCC(=O)[O-]
REMARK SMILES IDX 4 1 5 2 6 3 7 4 3 5 2 6 1 7
REMARK H PARENT
REMARK Flexibility Score: inf
ROOT
ATOM      1  C   UNL     1      12.356   4.868  38.973  1.00  0.00     0.053 C 
ENDROOT
BRANCH   1   2
ATOM      2  C   UNL     1      11.386   4.748  37.840  1.00  0.00     0.041 C 
ATOM      3  O   UNL     1      11.547   3.862  36.960  1.00  0.00    -0.550 OA
ATOM      4  O   UNL     1      10.333   5.647  37.728  1.00  0.00    -0.550 OA
ENDBRANCH   1   2
BRANCH   1   5
ATOM      5  C   UNL     1      12.616   6.340  39.303  1.00  0.00     0.006 C 
BRANCH   5   6
ATOM      6  C   UNL     1      12.096   6.691  40.702  1.00  0.00    -0.003 C 
ATOM      7  C   UNL     1      10.792   7.479  40.625  1.00  0.00     0.004 C 
ENDBRANCH   5   6
ENDBRANCH   1   5
TORSDOF 3
ENDMDL
MODEL 3
REMARK VINA RESULT:    -3.414     18.936     19.983
REMARK INTER + INTRA:          -4.031
REMARK INTER:                  -4.012
REMARK INTRA:                  -0.019
REMARK UNBOUND:                -0.018
REMARK SMILES CCCCC(=O)[O-]
REMARK SMILES IDX 4 1 5 2 6 3 7 4 3 5 2 6 1 7
REMARK H PARENT
REMARK Flexibility Score: inf
ROOT
ATOM      1  C   UNL     1      10.866   5.874  38.453  1.00  0.00     0.053 C 
ENDROOT
BRANCH   1   2
ATOM      2  C   UNL     1      11.677   6.793  39.312  1.00  0.00     0.041 C 
ATOM      3  O   UNL     1      12.922   6.883  39.144  1.00  0.00    -0.550 OA
ATOM      4  O   UNL     1      11.065   7.513  40.330  1.00  0.00    -0.550 OA
ENDBRANCH   1   2
BRANCH   1   5
ATOM      5  C   UNL     1      11.668   4.617  38.106  1.00  0.00     0.006 C 
BRANCH   5   6
ATOM      6  C   UNL     1      10.782   3.570  37.420  1.00  0.00    -0.003 C 
ATOM      7  C   UNL     1      11.539   2.848  36.310  1.00  0.00     0.004 C 
ENDBRANCH   5   6
ENDBRANCH   1   5
TORSDOF 3
ENDMDL
MODEL 4
REMARK VINA RESULT:    -3.413      2.231      2.987
REMARK INTER + INTRA:          -4.030
REMARK INTER:                  -3.949
REMARK INTRA:                  -0.081
REMARK UNBOUND:                -0.018
REMARK SMILES CCCCC(=O)[O-]
REMARK SMILES IDX 4 1 5 2 6 3 7 4 3 5 2 6 1 7
REMARK H PARENT
REMARK Flexibility Score: inf
ROOT
ATOM      1  C   UNL     1      24.448  -5.957  39.823  1.00  0.00     0.053 C 
ENDROOT
BRANCH   1   2
ATOM      2  C   UNL     1      24.125  -7.417  39.884  1.00  0.00     0.041 C 
ATOM      3  O   UNL     1      22.933  -7.796  40.038  1.00  0.00    -0.550 OA
ATOM      4  O   UNL     1      25.144  -8.358  39.818  1.00  0.00    -0.550 OA
ENDBRANCH   1   2
BRANCH   1   5
ATOM      5  C   UNL     1      25.792  -5.677  40.501  1.00  0.00     0.006 C 
BRANCH   5   6
ATOM      6  C   UNL     1      26.876  -5.362  39.464  1.00  0.00    -0.003 C 
ATOM      7  C   UNL     1      28.005  -6.387  39.517  1.00  0.00     0.004 C 
ENDBRANCH   5   6
ENDBRANCH   1   5
TORSDOF 3
ENDMDL
MODEL 5
REMARK VINA RESULT:    -3.402      2.506      3.944
REMARK INTER + INTRA:          -4.017
REMARK INTER:                  -3.972
REMARK INTRA:                  -0.045
REMARK UNBOUND:                -0.018
REMARK SMILES CCCCC(=O)[O-]
REMARK SMILES IDX 4 1 5 2 6 3 7 4 3 5 2 6 1 7
REMARK H PARENT
REMARK Flexibility Score: inf
ROOT
ATOM      1  C   UNL     1      26.394  -5.884  39.716  1.00  0.00     0.053 C 
ENDROOT
BRANCH   1   2
ATOM      2  C   UNL     1      26.664  -7.355  39.672  1.00  0.00     0.041 C 
ATOM      3  O   UNL     1      27.770  -7.783  39.249  1.00  0.00    -0.550 OA
ATOM      4  O   UNL     1      25.677  -8.255  40.053  1.00  0.00    -0.550 OA
ENDBRANCH   1   2
BRANCH   1   5
ATOM      5  C   UNL     1      25.087  -5.600  40.462  1.00  0.00     0.006 C 
BRANCH   5   6
ATOM      6  C   UNL     1      23.955  -5.268  39.482  1.00  0.00    -0.003 C 
ATOM      7  C   UNL     1      24.502  -4.956  38.092  1.00  0.00     0.004 C 
ENDBRANCH   5   6
ENDBRANCH   1   5
TORSDOF 3
ENDMDL
MODEL 6
REMARK VINA RESULT:    -3.382      2.667      4.475
REMARK INTER + INTRA:          -3.993
REMARK INTER:                  -3.972
REMARK INTRA:                  -0.021
REMARK UNBOUND:                -0.018
REMARK SMILES CCCCC(=O)[O-]
REMARK SMILES IDX 4 1 5 2 6 3 7 4 3 5 2 6 1 7
REMARK H PARENT
REMARK Flexibility Score: inf
ROOT
ATOM      1  C   UNL     1      25.584  -7.997  39.939  1.00  0.00     0.053 C 
ENDROOT
BRANCH   1   2
ATOM      2  C   UNL     1      26.733  -7.039  39.880  1.00  0.00     0.041 C 
ATOM      3  O   UNL     1      26.642  -5.908  40.427  1.00  0.00    -0.550 OA
ATOM      4  O   UNL     1      27.884  -7.376  39.181  1.00  0.00    -0.550 OA
ENDBRANCH   1   2
BRANCH   1   5
ATOM      5  C   UNL     1      24.255  -7.238  39.981  1.00  0.00     0.006 C 
BRANCH   5   6
ATOM      6  C   UNL     1      23.168  -7.989  39.203  1.00  0.00    -0.003 C 
ATOM      7  C   UNL     1      21.847  -7.995  39.967  1.00  0.00     0.004 C 
ENDBRANCH   5   6
ENDBRANCH   1   5
TORSDOF 3
ENDMDL
MODEL 7
REMARK VINA RESULT:    -3.380     18.989     19.799
REMARK INTER + INTRA:          -3.992
REMARK INTER:                  -3.970
REMARK INTRA:                  -0.022
REMARK UNBOUND:                -0.018
REMARK SMILES CCCCC(=O)[O-]
REMARK SMILES IDX 4 1 5 2 6 3 7 4 3 5 2 6 1 7
REMARK H PARENT
REMARK Flexibility Score: inf
ROOT
ATOM      1  C   UNL     1      11.670   4.220  37.989  1.00  0.00     0.053 C 
ENDROOT
BRANCH   1   2
ATOM      2  C   UNL     1      11.049   3.301  36.984  1.00  0.00     0.041 C 
ATOM      3  O   UNL     1       9.876   2.875  37.156  1.00  0.00    -0.550 OA
ATOM      4  O   UNL     1      11.781   2.877  35.883  1.00  0.00    -0.550 OA
ENDBRANCH   1   2
BRANCH   1   5
ATOM      5  C   UNL     1      10.846   5.503  38.125  1.00  0.00     0.006 C 
BRANCH   5   6
ATOM      6  C   UNL     1      11.159   6.220  39.443  1.00  0.00    -0.003 C 
ATOM      7  C   UNL     1      12.504   6.939  39.375  1.00  0.00     0.004 C 
ENDBRANCH   5   6
ENDBRANCH   1   5
TORSDOF 3
ENDMDL
MODEL 8
REMARK VINA RESULT:    -3.376     19.080     20.157
REMARK INTER + INTRA:          -3.987
REMARK INTER:                  -3.900
REMARK INTRA:                  -0.087
REMARK UNBOUND:                -0.018
REMARK SMILES CCCCC(=O)[O-]
REMARK SMILES IDX 4 1 5 2 6 3 7 4 3 5 2 6 1 7
REMARK H PARENT
REMARK Flexibility Score: inf
ROOT
ATOM      1  C   UNL     1      12.210   6.476  39.886  1.00  0.00     0.053 C 
ENDROOT
BRANCH   1   2
ATOM      2  C   UNL     1      10.789   6.926  40.012  1.00  0.00     0.041 C 
ATOM      3  O   UNL     1       9.948   6.624  39.124  1.00  0.00    -0.550 OA
ATOM      4  O   UNL     1      10.403   7.719  41.084  1.00  0.00    -0.550 OA
ENDBRANCH   1   2
BRANCH   1   5
ATOM      5  C   UNL     1      12.320   5.316  38.893  1.00  0.00     0.006 C 
BRANCH   5   6
ATOM      6  C   UNL     1      12.866   4.056  39.577  1.00  0.00    -0.003 C 
ATOM      7  C   UNL     1      11.756   3.293  40.295  1.00  0.00     0.004 C 
ENDBRANCH   5   6
ENDBRANCH   1   5
TORSDOF 3
ENDMDL
MODEL 9
REMARK VINA RESULT:    -3.372     18.914     19.552
REMARK INTER + INTRA:          -3.982
REMARK INTER:                  -3.966
REMARK INTRA:                  -0.016
REMARK UNBOUND:                -0.018
REMARK SMILES CCCCC(=O)[O-]
REMARK SMILES IDX 4 1 5 2 6 3 7 4 3 5 2 6 1 7
REMARK H PARENT
REMARK Flexibility Score: inf
ROOT
ATOM      1  C   UNL     1      12.170   5.014  38.989  1.00  0.00     0.053 C 
ENDROOT
BRANCH   1   2
ATOM      2  C   UNL     1      11.949   6.470  39.252  1.00  0.00     0.041 C 
ATOM      3  O   UNL     1      10.801   6.891  39.555  1.00  0.00    -0.550 OA
ATOM      4  O   UNL     1      12.998   7.369  39.115  1.00  0.00    -0.550 OA
ENDBRANCH   1   2
BRANCH   1   5
ATOM      5  C   UNL     1      11.429   4.579  37.722  1.00  0.00     0.006 C 
BRANCH   5   6
ATOM      6  C   UNL     1      11.691   3.100  37.411  1.00  0.00    -0.003 C 
ATOM      7  C   UNL     1      11.721   2.850  35.906  1.00  0.00     0.004 C 
ENDBRANCH   5   6
ENDBRANCH   1   5
TORSDOF 3
ENDMDL
