MODEL 1
REMARK VINA RESULT:    -4.888      0.000      0.000
REMARK INTER + INTRA:         -16.662
REMARK INTER:                 -12.890
REMARK INTRA:                  -3.773
REMARK UNBOUND:                -3.773
REMARK SMILES CCCCCCCCCCCCCCCCCCCCCCCCCCCCCC(=O)[O-]
REMARK SMILES IDX 16 1 17 2 18 3 19 4 20 5 21 6 22 7 23 8 24 9 25 10 26 11
REMARK SMILES IDX 27 12 28 13 29 14 30 15 31 16 32 17 15 18 14 19 13 20 12 21
REMARK SMILES IDX 11 22 10 23 9 24 8 25 7 26 6 27 5 28 4 29 3 30 2 31 1 32
REMARK H PARENT
REMARK Flexibility Score: inf
ROOT
ATOM      1  C   UNL     1       6.644  -0.630  52.415  1.00  0.00     0.000 C 
ENDROOT
BRANCH   1   2
ATOM      2  C   UNL     1       7.036  -1.876  51.604  1.00  0.00     0.000 C 
BRANCH   2   3
ATOM      3  C   UNL     1       5.841  -2.411  50.804  1.00  0.00     0.000 C 
BRANCH   3   4
ATOM      4  C   UNL     1       5.743  -3.948  50.825  1.00  0.00     0.000 C 
BRANCH   4   5
ATOM      5  C   UNL     1       5.266  -4.588  49.508  1.00  0.00     0.000 C 
BRANCH   5   6
ATOM      6  C   UNL     1       6.351  -5.436  48.829  1.00  0.00     0.000 C 
BRANCH   6   7
ATOM      7  C   UNL     1       7.626  -5.479  49.686  1.00  0.00     0.000 C 
BRANCH   7   8
ATOM      8  C   UNL     1       8.843  -4.861  48.977  1.00  0.00     0.000 C 
BRANCH   8   9
ATOM      9  C   UNL     1       8.504  -3.841  47.870  1.00  0.00     0.000 C 
BRANCH   9  10
ATOM     10  C   UNL     1       8.627  -2.368  48.316  1.00  0.00     0.000 C 
BRANCH  10  11
ATOM     11  C   UNL     1       7.976  -1.398  47.314  1.00  0.00     0.000 C 
BRANCH  11  12
ATOM     12  C   UNL     1       6.646  -0.818  47.820  1.00  0.00     0.000 C 
BRANCH  12  13
ATOM     13  C   UNL     1       5.423  -1.566  47.264  1.00  0.00     0.006 C 
BRANCH  13  14
ATOM     14  C   UNL     1       5.468  -1.638  45.732  1.00  0.00     0.053 C 
BRANCH  14  15
ATOM     15  C   UNL     1       4.994  -2.971  45.236  1.00  0.00     0.041 C 
ATOM     16  O   UNL     1       5.095  -3.998  45.961  1.00  0.00    -0.550 OA
ATOM     17  O   UNL     1       4.402  -3.074  43.982  1.00  0.00    -0.550 OA
ENDBRANCH  14  15
ENDBRANCH  13  14
ENDBRANCH  12  13
ENDBRANCH  11  12
ENDBRANCH  10  11
ENDBRANCH   9  10
ENDBRANCH   8   9
ENDBRANCH   7   8
ENDBRANCH   6   7
ENDBRANCH   5   6
ENDBRANCH   4   5
ENDBRANCH   3   4
ENDBRANCH   2   3
ENDBRANCH   1   2
BRANCH   1  18
ATOM     18  C   UNL     1       7.658  -0.299  53.522  1.00  0.00     0.000 C 
BRANCH  18  19
ATOM     19  C   UNL     1       7.822   1.203  53.825  1.00  0.00     0.000 C 
BRANCH  19  20
ATOM     20  C   UNL     1       8.079   1.516  55.313  1.00  0.00     0.000 C 
BRANCH  20  21
ATOM     21  C   UNL     1       9.250   0.706  55.897  1.00  0.00     0.000 C 
BRANCH  21  22
ATOM     22  C   UNL     1      10.551   1.523  55.996  1.00  0.00     0.000 C 
BRANCH  22  23
ATOM     23  C   UNL     1      10.329   3.050  55.982  1.00  0.00     0.000 C 
BRANCH  23  24
ATOM     24  C   UNL     1      11.458   3.799  55.253  1.00  0.00    -0.000 C 
BRANCH  24  25
ATOM     25  C   UNL     1      11.697   3.247  53.829  1.00  0.00    -0.000 C 
BRANCH  25  26
ATOM     26  C   UNL     1      11.831   4.345  52.764  1.00  0.00    -0.000 C 
BRANCH  26  27
ATOM     27  C   UNL     1      11.065   4.016  51.476  1.00  0.00    -0.000 C 
BRANCH  27  28
ATOM     28  C   UNL     1      10.085   5.143  51.122  1.00  0.00    -0.000 C 
BRANCH  28  29
ATOM     29  C   UNL     1       9.253   5.605  52.327  1.00  0.00    -0.000 C 
BRANCH  29  30
ATOM     30  C   UNL     1       8.276   4.525  52.822  1.00  0.00    -0.000 C 
BRANCH  30  31
ATOM     31  C   UNL     1       7.001   5.123  53.439  1.00  0.00    -0.003 C 
ATOM     32  C   UNL     1       5.726   4.622  52.760  1.00  0.00     0.004 C 
ENDBRANCH  30  31
ENDBRANCH  29  30
ENDBRANCH  28  29
ENDBRANCH  27  28
ENDBRANCH  26  27
ENDBRANCH  25  26
ENDBRANCH  24  25
ENDBRANCH  23  24
ENDBRANCH  22  23
ENDBRANCH  21  22
ENDBRANCH  20  21
ENDBRANCH  19  20
ENDBRANCH  18  19
ENDBRANCH   1  18
TORSDOF 28
ENDMDL
MODEL 2
REMARK VINA RESULT:    -4.817      3.862      9.720
REMARK INTER + INTRA:         -16.475
REMARK INTER:                 -12.688
REMARK INTRA:                  -3.787
REMARK UNBOUND:                -3.773
REMARK SMILES CCCCCCCCCCCCCCCCCCCCCCCCCCCCCC(=O)[O-]
REMARK SMILES IDX 16 1 17 2 18 3 19 4 20 5 21 6 22 7 23 8 24 9 25 10 26 11
REMARK SMILES IDX 27 12 28 13 29 14 30 15 31 16 32 17 15 18 14 19 13 20 12 21
REMARK SMILES IDX 11 22 10 23 9 24 8 25 7 26 6 27 5 28 4 29 3 30 2 31 1 32
REMARK H PARENT
REMARK Flexibility Score: inf
ROOT
ATOM      1  C   UNL     1       7.763  -0.391  53.515  1.00  0.00     0.000 C 
ENDROOT
BRANCH   1   2
ATOM      2  C   UNL     1       7.852   1.103  53.868  1.00  0.00     0.000 C 
BRANCH   2   3
ATOM      3  C   UNL     1       8.234   1.298  55.342  1.00  0.00     0.000 C 
BRANCH   3   4
ATOM      4  C   UNL     1       9.594   0.668  55.699  1.00  0.00     0.000 C 
BRANCH   4   5
ATOM      5  C   UNL     1      10.720   1.676  55.994  1.00  0.00     0.000 C 
BRANCH   5   6
ATOM      6  C   UNL     1      10.730   2.863  55.021  1.00  0.00     0.000 C 
BRANCH   6   7
ATOM      7  C   UNL     1      11.286   2.443  53.651  1.00  0.00     0.000 C 
BRANCH   7   8
ATOM      8  C   UNL     1      12.233   3.491  53.044  1.00  0.00     0.000 C 
BRANCH   8   9
ATOM      9  C   UNL     1      11.542   4.761  52.507  1.00  0.00     0.000 C 
BRANCH   9  10
ATOM     10  C   UNL     1      10.887   4.580  51.120  1.00  0.00     0.000 C 
BRANCH  10  11
ATOM     11  C   UNL     1       9.388   4.926  51.133  1.00  0.00     0.000 C 
BRANCH  11  12
ATOM     12  C   UNL     1       8.736   4.713  52.509  1.00  0.00     0.000 C 
BRANCH  12  13
ATOM     13  C   UNL     1       8.146   6.007  53.092  1.00  0.00     0.006 C 
BRANCH  13  14
ATOM     14  C   UNL     1       8.735   7.245  52.402  1.00  0.00     0.053 C 
BRANCH  14  15
ATOM     15  C   UNL     1       7.855   8.444  52.591  1.00  0.00     0.041 C 
ATOM     16  O   UNL     1       7.889   9.399  51.770  1.00  0.00    -0.550 OA
ATOM     17  O   UNL     1       6.965   8.489  53.658  1.00  0.00    -0.550 OA
ENDBRANCH  14  15
ENDBRANCH  13  14
ENDBRANCH  12  13
ENDBRANCH  11  12
ENDBRANCH  10  11
ENDBRANCH   9  10
ENDBRANCH   8   9
ENDBRANCH   7   8
ENDBRANCH   6   7
ENDBRANCH   5   6
ENDBRANCH   4   5
ENDBRANCH   3   4
ENDBRANCH   2   3
ENDBRANCH   1   2
BRANCH   1  18
ATOM     18  C   UNL     1       6.654  -0.693  52.493  1.00  0.00     0.000 C 
BRANCH  18  19
ATOM     19  C   UNL     1       7.031  -1.726  51.413  1.00  0.00     0.000 C 
BRANCH  19  20
ATOM     20  C   UNL     1       5.824  -2.275  50.626  1.00  0.00     0.000 C 
BRANCH  20  21
ATOM     21  C   UNL     1       5.498  -3.737  50.980  1.00  0.00     0.000 C 
BRANCH  21  22
ATOM     22  C   UNL     1       4.540  -4.398  49.973  1.00  0.00     0.000 C 
BRANCH  22  23
ATOM     23  C   UNL     1       4.378  -3.606  48.658  1.00  0.00     0.000 C 
BRANCH  23  24
ATOM     24  C   UNL     1       4.978  -4.349  47.451  1.00  0.00    -0.000 C 
BRANCH  24  25
ATOM     25  C   UNL     1       5.482  -3.376  46.361  1.00  0.00    -0.000 C 
BRANCH  25  26
ATOM     26  C   UNL     1       5.749  -1.958  46.886  1.00  0.00    -0.000 C 
BRANCH  26  27
ATOM     27  C   UNL     1       7.175  -1.478  46.591  1.00  0.00    -0.000 C 
BRANCH  27  28
ATOM     28  C   UNL     1       8.020  -1.456  47.873  1.00  0.00    -0.000 C 
BRANCH  28  29
ATOM     29  C   UNL     1       9.193  -2.446  47.826  1.00  0.00    -0.000 C 
BRANCH  29  30
ATOM     30  C   UNL     1       9.112  -3.515  48.930  1.00  0.00    -0.000 C 
BRANCH  30  31
ATOM     31  C   UNL     1       8.466  -4.821  48.437  1.00  0.00    -0.003 C 
ATOM     32  C   UNL     1       8.109  -5.770  49.582  1.00  0.00     0.004 C 
ENDBRANCH  30  31
ENDBRANCH  29  30
ENDBRANCH  28  29
ENDBRANCH  27  28
ENDBRANCH  26  27
ENDBRANCH  25  26
ENDBRANCH  24  25
ENDBRANCH  23  24
ENDBRANCH  22  23
ENDBRANCH  21  22
ENDBRANCH  20  21
ENDBRANCH  19  20
ENDBRANCH  18  19
ENDBRANCH   1  18
TORSDOF 28
ENDMDL
MODEL 3
REMARK VINA RESULT:    -4.817      3.708      9.474
REMARK INTER + INTRA:         -16.474
REMARK INTER:                 -13.282
REMARK INTRA:                  -3.192
REMARK UNBOUND:                -3.773
REMARK SMILES CCCCCCCCCCCCCCCCCCCCCCCCCCCCCC(=O)[O-]
REMARK SMILES IDX 16 1 17 2 18 3 19 4 20 5 21 6 22 7 23 8 24 9 25 10 26 11
REMARK SMILES IDX 27 12 28 13 29 14 30 15 31 16 32 17 15 18 14 19 13 20 12 21
REMARK SMILES IDX 11 22 10 23 9 24 8 25 7 26 6 27 5 28 4 29 3 30 2 31 1 32
REMARK H PARENT
REMARK Flexibility Score: inf
ROOT
ATOM      1  C   UNL     1       8.128  -0.169  53.819  1.00  0.00     0.000 C 
ENDROOT
BRANCH   1   2
ATOM      2  C   UNL     1       8.183   1.246  54.417  1.00  0.00     0.000 C 
BRANCH   2   3
ATOM      3  C   UNL     1       7.006   2.099  53.924  1.00  0.00     0.000 C 
BRANCH   3   4
ATOM      4  C   UNL     1       7.433   3.510  53.476  1.00  0.00     0.000 C 
BRANCH   4   5
ATOM      5  C   UNL     1       6.292   4.397  52.946  1.00  0.00     0.000 C 
BRANCH   5   6
ATOM      6  C   UNL     1       6.550   5.895  53.165  1.00  0.00     0.000 C 
BRANCH   6   7
ATOM      7  C   UNL     1       8.051   6.171  53.341  1.00  0.00     0.000 C 
BRANCH   7   8
ATOM      8  C   UNL     1       8.556   7.318  52.450  1.00  0.00     0.000 C 
BRANCH   8   9
ATOM      9  C   UNL     1       9.583   6.906  51.375  1.00  0.00     0.000 C 
BRANCH   9  10
ATOM     10  C   UNL     1       9.547   5.405  51.016  1.00  0.00     0.000 C 
BRANCH  10  11
ATOM     11  C   UNL     1       9.883   5.150  49.536  1.00  0.00     0.000 C 
BRANCH  11  12
ATOM     12  C   UNL     1       8.677   5.354  48.605  1.00  0.00     0.000 C 
BRANCH  12  13
ATOM     13  C   UNL     1       8.784   6.640  47.769  1.00  0.00     0.006 C 
BRANCH  13  14
ATOM     14  C   UNL     1      10.160   6.754  47.102  1.00  0.00     0.053 C 
BRANCH  14  15
ATOM     15  C   UNL     1      10.151   7.776  46.005  1.00  0.00     0.041 C 
ATOM     16  O   UNL     1      10.132   7.418  44.796  1.00  0.00    -0.550 OA
ATOM     17  O   UNL     1      10.122   9.130  46.318  1.00  0.00    -0.550 OA
ENDBRANCH  14  15
ENDBRANCH  13  14
ENDBRANCH  12  13
ENDBRANCH  11  12
ENDBRANCH  10  11
ENDBRANCH   9  10
ENDBRANCH   8   9
ENDBRANCH   7   8
ENDBRANCH   6   7
ENDBRANCH   5   6
ENDBRANCH   4   5
ENDBRANCH   3   4
ENDBRANCH   2   3
ENDBRANCH   1   2
BRANCH   1  18
ATOM     18  C   UNL     1       7.031  -0.321  52.753  1.00  0.00     0.000 C 
BRANCH  18  19
ATOM     19  C   UNL     1       6.679  -1.775  52.385  1.00  0.00     0.000 C 
BRANCH  19  20
ATOM     20  C   UNL     1       6.245  -1.961  50.917  1.00  0.00     0.000 C 
BRANCH  20  21
ATOM     21  C   UNL     1       6.242  -3.437  50.480  1.00  0.00     0.000 C 
BRANCH  21  22
ATOM     22  C   UNL     1       5.078  -3.778  49.533  1.00  0.00     0.000 C 
BRANCH  22  23
ATOM     23  C   UNL     1       4.662  -2.610  48.614  1.00  0.00     0.000 C 
BRANCH  23  24
ATOM     24  C   UNL     1       5.513  -2.541  47.333  1.00  0.00    -0.000 C 
BRANCH  24  25
ATOM     25  C   UNL     1       5.891  -1.090  46.963  1.00  0.00    -0.000 C 
BRANCH  25  26
ATOM     26  C   UNL     1       7.396  -0.804  47.077  1.00  0.00    -0.000 C 
BRANCH  26  27
ATOM     27  C   UNL     1       8.237  -2.084  47.151  1.00  0.00    -0.000 C 
BRANCH  27  28
ATOM     28  C   UNL     1       9.060  -2.122  48.447  1.00  0.00    -0.000 C 
BRANCH  28  29
ATOM     29  C   UNL     1       9.840  -3.435  48.615  1.00  0.00    -0.000 C 
BRANCH  29  30
ATOM     30  C   UNL     1       8.932  -4.620  48.988  1.00  0.00    -0.000 C 
BRANCH  30  31
ATOM     31  C   UNL     1       8.799  -5.641  47.846  1.00  0.00    -0.003 C 
ATOM     32  C   UNL     1       7.347  -5.863  47.421  1.00  0.00     0.004 C 
ENDBRANCH  30  31
ENDBRANCH  29  30
ENDBRANCH  28  29
ENDBRANCH  27  28
ENDBRANCH  26  27
ENDBRANCH  25  26
ENDBRANCH  24  25
ENDBRANCH  23  24
ENDBRANCH  22  23
ENDBRANCH  21  22
ENDBRANCH  20  21
ENDBRANCH  19  20
ENDBRANCH  18  19
ENDBRANCH   1  18
TORSDOF 28
ENDMDL
MODEL 4
REMARK VINA RESULT:    -4.803      3.576      9.037
REMARK INTER + INTRA:         -16.437
REMARK INTER:                 -12.815
REMARK INTRA:                  -3.622
REMARK UNBOUND:                -3.773
REMARK SMILES CCCCCCCCCCCCCCCCCCCCCCCCCCCCCC(=O)[O-]
REMARK SMILES IDX 16 1 17 2 18 3 19 4 20 5 21 6 22 7 23 8 24 9 25 10 26 11
REMARK SMILES IDX 27 12 28 13 29 14 30 15 31 16 32 17 15 18 14 19 13 20 12 21
REMARK SMILES IDX 11 22 10 23 9 24 8 25 7 26 6 27 5 28 4 29 3 30 2 31 1 32
REMARK H PARENT
REMARK Flexibility Score: inf
ROOT
ATOM      1  C   UNL     1       6.877  -0.511  52.747  1.00  0.00     0.000 C 
ENDROOT
BRANCH   1   2
ATOM      2  C   UNL     1       8.051  -0.413  53.734  1.00  0.00     0.000 C 
BRANCH   2   3
ATOM      3  C   UNL     1       8.177   1.007  54.302  1.00  0.00     0.000 C 
BRANCH   3   4
ATOM      4  C   UNL     1       9.623   1.373  54.689  1.00  0.00     0.000 C 
BRANCH   4   5
ATOM      5  C   UNL     1      10.241   2.527  53.879  1.00  0.00     0.000 C 
BRANCH   5   6
ATOM      6  C   UNL     1       9.217   3.607  53.500  1.00  0.00     0.000 C 
BRANCH   6   7
ATOM      7  C   UNL     1       9.624   4.312  52.196  1.00  0.00     0.000 C 
BRANCH   7   8
ATOM      8  C   UNL     1      11.140   4.545  52.093  1.00  0.00     0.000 C 
BRANCH   8   9
ATOM      9  C   UNL     1      11.802   3.977  50.821  1.00  0.00     0.000 C 
BRANCH   9  10
ATOM     10  C   UNL     1      12.015   5.022  49.704  1.00  0.00     0.000 C 
BRANCH  10  11
ATOM     11  C   UNL     1      11.524   4.521  48.334  1.00  0.00     0.000 C 
BRANCH  11  12
ATOM     12  C   UNL     1       9.997   4.351  48.272  1.00  0.00     0.000 C 
BRANCH  12  13
ATOM     13  C   UNL     1       9.241   5.599  48.755  1.00  0.00     0.006 C 
BRANCH  13  14
ATOM     14  C   UNL     1       8.507   6.285  47.596  1.00  0.00     0.053 C 
BRANCH  14  15
ATOM     15  C   UNL     1       9.338   7.381  46.998  1.00  0.00     0.041 C 
ATOM     16  O   UNL     1      10.327   7.108  46.265  1.00  0.00    -0.550 OA
ATOM     17  O   UNL     1       8.995   8.710  47.217  1.00  0.00    -0.550 OA
ENDBRANCH  14  15
ENDBRANCH  13  14
ENDBRANCH  12  13
ENDBRANCH  11  12
ENDBRANCH  10  11
ENDBRANCH   9  10
ENDBRANCH   8   9
ENDBRANCH   7   8
ENDBRANCH   6   7
ENDBRANCH   5   6
ENDBRANCH   4   5
ENDBRANCH   3   4
ENDBRANCH   2   3
ENDBRANCH   1   2
BRANCH   1  18
ATOM     18  C   UNL     1       7.065  -1.629  51.709  1.00  0.00     0.000 C 
BRANCH  18  19
ATOM     19  C   UNL     1       5.908  -1.782  50.702  1.00  0.00     0.000 C 
BRANCH  19  20
ATOM     20  C   UNL     1       5.446  -3.239  50.498  1.00  0.00     0.000 C 
BRANCH  20  21
ATOM     21  C   UNL     1       4.998  -3.523  49.054  1.00  0.00     0.000 C 
BRANCH  21  22
ATOM     22  C   UNL     1       5.217  -4.989  48.637  1.00  0.00     0.000 C 
BRANCH  22  23
ATOM     23  C   UNL     1       6.269  -5.167  47.522  1.00  0.00     0.000 C 
BRANCH  23  24
ATOM     24  C   UNL     1       7.594  -5.741  48.053  1.00  0.00    -0.000 C 
BRANCH  24  25
ATOM     25  C   UNL     1       8.760  -4.736  47.920  1.00  0.00    -0.000 C 
BRANCH  25  26
ATOM     26  C   UNL     1       8.829  -3.726  49.074  1.00  0.00    -0.000 C 
BRANCH  26  27
ATOM     27  C   UNL     1       8.987  -2.280  48.587  1.00  0.00    -0.000 C 
BRANCH  27  28
ATOM     28  C   UNL     1       8.083  -2.011  47.375  1.00  0.00    -0.000 C 
BRANCH  28  29
ATOM     29  C   UNL     1       7.270  -0.716  47.519  1.00  0.00    -0.000 C 
BRANCH  29  30
ATOM     30  C   UNL     1       6.096  -0.640  46.527  1.00  0.00    -0.000 C 
BRANCH  30  31
ATOM     31  C   UNL     1       5.704  -2.020  45.973  1.00  0.00    -0.003 C 
ATOM     32  C   UNL     1       4.765  -1.926  44.769  1.00  0.00     0.004 C 
ENDBRANCH  30  31
ENDBRANCH  29  30
ENDBRANCH  28  29
ENDBRANCH  27  28
ENDBRANCH  26  27
ENDBRANCH  25  26
ENDBRANCH  24  25
ENDBRANCH  23  24
ENDBRANCH  22  23
ENDBRANCH  21  22
ENDBRANCH  20  21
ENDBRANCH  19  20
ENDBRANCH  18  19
ENDBRANCH   1  18
TORSDOF 28
ENDMDL
MODEL 5
REMARK VINA RESULT:    -4.797      1.534      2.293
REMARK INTER + INTRA:         -16.421
REMARK INTER:                 -12.872
REMARK INTRA:                  -3.549
REMARK UNBOUND:                -3.773
REMARK SMILES CCCCCCCCCCCCCCCCCCCCCCCCCCCCCC(=O)[O-]
REMARK SMILES IDX 16 1 17 2 18 3 19 4 20 5 21 6 22 7 23 8 24 9 25 10 26 11
REMARK SMILES IDX 27 12 28 13 29 14 30 15 31 16 32 17 15 18 14 19 13 20 12 21
REMARK SMILES IDX 11 22 10 23 9 24 8 25 7 26 6 27 5 28 4 29 3 30 2 31 1 32
REMARK H PARENT
REMARK Flexibility Score: inf
ROOT
ATOM      1  C   UNL     1       6.298  -2.661  51.128  1.00  0.00     0.000 C 
ENDROOT
BRANCH   1   2
ATOM      2  C   UNL     1       5.380  -2.653  49.895  1.00  0.00     0.000 C 
BRANCH   2   3
ATOM      3  C   UNL     1       4.985  -4.080  49.492  1.00  0.00     0.000 C 
BRANCH   3   4
ATOM      4  C   UNL     1       5.631  -5.157  50.385  1.00  0.00     0.000 C 
BRANCH   4   5
ATOM      5  C   UNL     1       6.684  -6.036  49.686  1.00  0.00     0.000 C 
BRANCH   5   6
ATOM      6  C   UNL     1       6.891  -5.662  48.211  1.00  0.00     0.000 C 
BRANCH   6   7
ATOM      7  C   UNL     1       8.367  -5.340  47.931  1.00  0.00     0.000 C 
BRANCH   7   8
ATOM      8  C   UNL     1       9.009  -4.478  49.031  1.00  0.00     0.000 C 
BRANCH   8   9
ATOM      9  C   UNL     1       9.701  -3.193  48.533  1.00  0.00     0.000 C 
BRANCH   9  10
ATOM     10  C   UNL     1       8.760  -1.972  48.435  1.00  0.00     0.000 C 
BRANCH  10  11
ATOM     11  C   UNL     1       8.038  -1.899  47.078  1.00  0.00     0.000 C 
BRANCH  11  12
ATOM     12  C   UNL     1       7.113  -0.677  46.958  1.00  0.00     0.000 C 
BRANCH  12  13
ATOM     13  C   UNL     1       5.650  -1.064  46.691  1.00  0.00     0.006 C 
BRANCH  13  14
ATOM     14  C   UNL     1       5.557  -2.416  45.972  1.00  0.00     0.053 C 
BRANCH  14  15
ATOM     15  C   UNL     1       4.791  -2.299  44.688  1.00  0.00     0.041 C 
ATOM     16  O   UNL     1       4.579  -1.170  44.170  1.00  0.00    -0.550 OA
ATOM     17  O   UNL     1       4.343  -3.445  44.041  1.00  0.00    -0.550 OA
ENDBRANCH  14  15
ENDBRANCH  13  14
ENDBRANCH  12  13
ENDBRANCH  11  12
ENDBRANCH  10  11
ENDBRANCH   9  10
ENDBRANCH   8   9
ENDBRANCH   7   8
ENDBRANCH   6   7
ENDBRANCH   5   6
ENDBRANCH   4   5
ENDBRANCH   3   4
ENDBRANCH   2   3
ENDBRANCH   1   2
BRANCH   1  18
ATOM     18  C   UNL     1       6.454  -1.269  51.761  1.00  0.00     0.000 C 
BRANCH  18  19
ATOM     19  C   UNL     1       7.291  -1.234  53.055  1.00  0.00     0.000 C 
BRANCH  19  20
ATOM     20  C   UNL     1       7.630   0.190  53.542  1.00  0.00     0.000 C 
BRANCH  20  21
ATOM     21  C   UNL     1       8.801   0.213  54.540  1.00  0.00     0.000 C 
BRANCH  21  22
ATOM     22  C   UNL     1       8.984   1.584  55.216  1.00  0.00     0.000 C 
BRANCH  22  23
ATOM     23  C   UNL     1       9.155   2.750  54.219  1.00  0.00     0.000 C 
BRANCH  23  24
ATOM     24  C   UNL     1       9.990   3.901  54.803  1.00  0.00    -0.000 C 
BRANCH  24  25
ATOM     25  C   UNL     1       9.541   5.278  54.265  1.00  0.00    -0.000 C 
BRANCH  25  26
ATOM     26  C   UNL     1       8.338   5.198  53.313  1.00  0.00    -0.000 C 
BRANCH  26  27
ATOM     27  C   UNL     1       8.713   5.511  51.859  1.00  0.00    -0.000 C 
BRANCH  27  28
ATOM     28  C   UNL     1      10.065   6.235  51.789  1.00  0.00    -0.000 C 
BRANCH  28  29
ATOM     29  C   UNL     1       9.934   7.690  51.314  1.00  0.00    -0.000 C 
BRANCH  29  30
ATOM     30  C   UNL     1       9.501   8.644  52.441  1.00  0.00    -0.000 C 
BRANCH  30  31
ATOM     31  C   UNL     1       8.059   9.146  52.265  1.00  0.00    -0.003 C 
ATOM     32  C   UNL     1       7.119   8.632  53.357  1.00  0.00     0.004 C 
ENDBRANCH  30  31
ENDBRANCH  29  30
ENDBRANCH  28  29
ENDBRANCH  27  28
ENDBRANCH  26  27
ENDBRANCH  25  26
ENDBRANCH  24  25
ENDBRANCH  23  24
ENDBRANCH  22  23
ENDBRANCH  21  22
ENDBRANCH  20  21
ENDBRANCH  19  20
ENDBRANCH  18  19
ENDBRANCH   1  18
TORSDOF 28
ENDMDL
MODEL 6
REMARK VINA RESULT:    -4.761      9.132     13.532
REMARK INTER + INTRA:         -16.326
REMARK INTER:                 -11.826
REMARK INTRA:                  -4.501
REMARK UNBOUND:                -3.773
REMARK SMILES CCCCCCCCCCCCCCCCCCCCCCCCCCCCCC(=O)[O-]
REMARK SMILES IDX 16 1 17 2 18 3 19 4 20 5 21 6 22 7 23 8 24 9 25 10 26 11
REMARK SMILES IDX 27 12 28 13 29 14 30 15 31 16 32 17 15 18 14 19 13 20 12 21
REMARK SMILES IDX 11 22 10 23 9 24 8 25 7 26 6 27 5 28 4 29 3 30 2 31 1 32
REMARK H PARENT
REMARK Flexibility Score: inf
ROOT
ATOM      1  C   UNL     1       5.727  10.735  46.168  1.00  0.00     0.000 C 
ENDROOT
BRANCH   1   2
ATOM      2  C   UNL     1       6.566  10.879  44.888  1.00  0.00     0.000 C 
BRANCH   2   3
ATOM      3  C   UNL     1       7.183  12.281  44.788  1.00  0.00     0.000 C 
BRANCH   3   4
ATOM      4  C   UNL     1       8.723  12.259  44.758  1.00  0.00     0.000 C 
BRANCH   4   5
ATOM      5  C   UNL     1       9.399  12.128  46.135  1.00  0.00     0.000 C 
BRANCH   5   6
ATOM      6  C   UNL     1      10.156  10.803  46.306  1.00  0.00     0.000 C 
BRANCH   6   7
ATOM      7  C   UNL     1      10.197  10.023  44.983  1.00  0.00     0.000 C 
BRANCH   7   8
ATOM      8  C   UNL     1      10.266   8.501  45.188  1.00  0.00     0.000 C 
BRANCH   8   9
ATOM      9  C   UNL     1       8.900   7.801  45.344  1.00  0.00     0.000 C 
BRANCH   9  10
ATOM     10  C   UNL     1       8.610   7.303  46.777  1.00  0.00     0.000 C 
BRANCH  10  11
ATOM     11  C   UNL     1       9.868   6.746  47.467  1.00  0.00     0.000 C 
BRANCH  11  12
ATOM     12  C   UNL     1       9.904   7.044  48.975  1.00  0.00     0.000 C 
BRANCH  12  13
ATOM     13  C   UNL     1       9.035   8.251  49.362  1.00  0.00     0.006 C 
BRANCH  13  14
ATOM     14  C   UNL     1       9.524   8.889  50.668  1.00  0.00     0.053 C 
BRANCH  14  15
ATOM     15  C   UNL     1       8.623   8.542  51.815  1.00  0.00     0.041 C 
ATOM     16  O   UNL     1       8.768   7.456  52.438  1.00  0.00    -0.550 OA
ATOM     17  O   UNL     1       7.644   9.440  52.223  1.00  0.00    -0.550 OA
ENDBRANCH  14  15
ENDBRANCH  13  14
ENDBRANCH  12  13
ENDBRANCH  11  12
ENDBRANCH  10  11
ENDBRANCH   9  10
ENDBRANCH   8   9
ENDBRANCH   7   8
ENDBRANCH   6   7
ENDBRANCH   5   6
ENDBRANCH   4   5
ENDBRANCH   3   4
ENDBRANCH   2   3
ENDBRANCH   1   2
BRANCH   1  18
ATOM     18  C   UNL     1       6.570  10.328  47.387  1.00  0.00     0.000 C 
BRANCH  18  19
ATOM     19  C   UNL     1       6.216  11.062  48.696  1.00  0.00     0.000 C 
BRANCH  19  20
ATOM     20  C   UNL     1       5.679  12.492  48.484  1.00  0.00     0.000 C 
BRANCH  20  21
ATOM     21  C   UNL     1       4.264  12.686  49.056  1.00  0.00     0.000 C 
BRANCH  21  22
ATOM     22  C   UNL     1       3.541  11.354  49.329  1.00  0.00     0.000 C 
BRANCH  22  23
ATOM     23  C   UNL     1       2.179  11.229  48.614  1.00  0.00     0.000 C 
BRANCH  23  24
ATOM     24  C   UNL     1       2.302  10.562  47.233  1.00  0.00    -0.000 C 
BRANCH  24  25
ATOM     25  C   UNL     1       1.417   9.301  47.116  1.00  0.00    -0.000 C 
BRANCH  25  26
ATOM     26  C   UNL     1       0.564   9.036  48.365  1.00  0.00    -0.000 C 
BRANCH  26  27
ATOM     27  C   UNL     1      -0.860   8.579  48.022  1.00  0.00    -0.000 C 
BRANCH  27  28
ATOM     28  C   UNL     1      -1.727   9.772  47.594  1.00  0.00    -0.000 C 
BRANCH  28  29
ATOM     29  C   UNL     1      -2.302   9.608  46.179  1.00  0.00    -0.000 C 
BRANCH  29  30
ATOM     30  C   UNL     1      -1.408  10.241  45.099  1.00  0.00    -0.000 C 
BRANCH  30  31
ATOM     31  C   UNL     1      -0.821   9.196  44.135  1.00  0.00    -0.003 C 
ATOM     32  C   UNL     1      -1.249   7.769  44.480  1.00  0.00     0.004 C 
ENDBRANCH  30  31
ENDBRANCH  29  30
ENDBRANCH  28  29
ENDBRANCH  27  28
ENDBRANCH  26  27
ENDBRANCH  25  26
ENDBRANCH  24  25
ENDBRANCH  23  24
ENDBRANCH  22  23
ENDBRANCH  21  22
ENDBRANCH  20  21
ENDBRANCH  19  20
ENDBRANCH  18  19
ENDBRANCH   1  18
TORSDOF 28
ENDMDL
MODEL 7
REMARK VINA RESULT:    -4.752      9.632     14.347
REMARK INTER + INTRA:         -16.305
REMARK INTER:                 -12.459
REMARK INTRA:                  -3.846
REMARK UNBOUND:                -3.773
REMARK SMILES CCCCCCCCCCCCCCCCCCCCCCCCCCCCCC(=O)[O-]
REMARK SMILES IDX 16 1 17 2 18 3 19 4 20 5 21 6 22 7 23 8 24 9 25 10 26 11
REMARK SMILES IDX 27 12 28 13 29 14 30 15 31 16 32 17 15 18 14 19 13 20 12 21
REMARK SMILES IDX 11 22 10 23 9 24 8 25 7 26 6 27 5 28 4 29 3 30 2 31 1 32
REMARK H PARENT
REMARK Flexibility Score: inf
ROOT
ATOM      1  C   UNL     1       1.639  11.485  47.643  1.00  0.00     0.000 C 
ENDROOT
BRANCH   1   2
ATOM      2  C   UNL     1       2.268  11.893  48.985  1.00  0.00     0.000 C 
BRANCH   2   3
ATOM      3  C   UNL     1       3.577  11.133  49.234  1.00  0.00     0.000 C 
BRANCH   3   4
ATOM      4  C   UNL     1       4.792  12.066  49.402  1.00  0.00     0.000 C 
BRANCH   4   5
ATOM      5  C   UNL     1       5.843  11.972  48.281  1.00  0.00     0.000 C 
BRANCH   5   6
ATOM      6  C   UNL     1       5.230  12.073  46.876  1.00  0.00     0.000 C 
BRANCH   6   7
ATOM      7  C   UNL     1       5.618  10.855  46.023  1.00  0.00     0.000 C 
BRANCH   7   8
ATOM      8  C   UNL     1       6.983  10.264  46.412  1.00  0.00     0.000 C 
BRANCH   8   9
ATOM      9  C   UNL     1       8.063  10.336  45.314  1.00  0.00     0.000 C 
BRANCH   9  10
ATOM     10  C   UNL     1       9.509  10.302  45.853  1.00  0.00     0.000 C 
BRANCH  10  11
ATOM     11  C   UNL     1      10.447   9.473  44.958  1.00  0.00     0.000 C 
BRANCH  11  12
ATOM     12  C   UNL     1      10.243   7.958  45.118  1.00  0.00     0.000 C 
BRANCH  12  13
ATOM     13  C   UNL     1      10.098   7.532  46.588  1.00  0.00     0.006 C 
BRANCH  13  14
ATOM     14  C   UNL     1       8.686   7.006  46.876  1.00  0.00     0.053 C 
BRANCH  14  15
ATOM     15  C   UNL     1       8.687   6.047  48.029  1.00  0.00     0.041 C 
ATOM     16  O   UNL     1       8.074   4.949  47.948  1.00  0.00    -0.550 OA
ATOM     17  O   UNL     1       9.401   6.350  49.182  1.00  0.00    -0.550 OA
ENDBRANCH  14  15
ENDBRANCH  13  14
ENDBRANCH  12  13
ENDBRANCH  11  12
ENDBRANCH  10  11
ENDBRANCH   9  10
ENDBRANCH   8   9
ENDBRANCH   7   8
ENDBRANCH   6   7
ENDBRANCH   5   6
ENDBRANCH   4   5
ENDBRANCH   3   4
ENDBRANCH   2   3
ENDBRANCH   1   2
BRANCH   1  18
ATOM     18  C   UNL     1       2.115  10.105  47.161  1.00  0.00     0.000 C 
BRANCH  18  19
ATOM     19  C   UNL     1       1.012   9.031  47.076  1.00  0.00     0.000 C 
BRANCH  19  20
ATOM     20  C   UNL     1       0.020   9.060  48.256  1.00  0.00     0.000 C 
BRANCH  20  21
ATOM     21  C   UNL     1      -1.388   8.584  47.859  1.00  0.00     0.000 C 
BRANCH  21  22
ATOM     22  C   UNL     1      -2.465   9.666  48.061  1.00  0.00     0.000 C 
BRANCH  22  23
ATOM     23  C   UNL     1      -1.950  11.103  47.836  1.00  0.00     0.000 C 
BRANCH  23  24
ATOM     24  C   UNL     1      -2.841  11.898  46.866  1.00  0.00    -0.000 C 
BRANCH  24  25
ATOM     25  C   UNL     1      -2.050  12.420  45.645  1.00  0.00    -0.000 C 
BRANCH  25  26
ATOM     26  C   UNL     1      -1.057  11.395  45.079  1.00  0.00    -0.000 C 
BRANCH  26  27
ATOM     27  C   UNL     1      -1.751  10.246  44.336  1.00  0.00    -0.000 C 
BRANCH  27  28
ATOM     28  C   UNL     1      -0.806   9.046  44.183  1.00  0.00    -0.000 C 
BRANCH  28  29
ATOM     29  C   UNL     1      -1.516   7.701  44.397  1.00  0.00    -0.000 C 
BRANCH  29  30
ATOM     30  C   UNL     1      -1.475   6.803  43.149  1.00  0.00    -0.000 C 
BRANCH  30  31
ATOM     31  C   UNL     1      -0.462   7.297  42.102  1.00  0.00    -0.003 C 
ATOM     32  C   UNL     1      -1.107   7.585  40.746  1.00  0.00     0.004 C 
ENDBRANCH  30  31
ENDBRANCH  29  30
ENDBRANCH  28  29
ENDBRANCH  27  28
ENDBRANCH  26  27
ENDBRANCH  25  26
ENDBRANCH  24  25
ENDBRANCH  23  24
ENDBRANCH  22  23
ENDBRANCH  21  22
ENDBRANCH  20  21
ENDBRANCH  19  20
ENDBRANCH  18  19
ENDBRANCH   1  18
TORSDOF 28
ENDMDL
MODEL 8
REMARK VINA RESULT:    -4.731      6.617      9.897
REMARK INTER + INTRA:         -16.247
REMARK INTER:                 -12.188
REMARK INTRA:                  -4.060
REMARK UNBOUND:                -3.773
REMARK SMILES CCCCCCCCCCCCCCCCCCCCCCCCCCCCCC(=O)[O-]
REMARK SMILES IDX 16 1 17 2 18 3 19 4 20 5 21 6 22 7 23 8 24 9 25 10 26 11
REMARK SMILES IDX 27 12 28 13 29 14 30 15 31 16 32 17 15 18 14 19 13 20 12 21
REMARK SMILES IDX 11 22 10 23 9 24 8 25 7 26 6 27 5 28 4 29 3 30 2 31 1 32
REMARK H PARENT
REMARK Flexibility Score: inf
ROOT
ATOM      1  C   UNL     1       6.318   5.481  53.119  1.00  0.00     0.000 C 
ENDROOT
BRANCH   1   2
ATOM      2  C   UNL     1       7.496   6.438  53.364  1.00  0.00     0.000 C 
BRANCH   2   3
ATOM      3  C   UNL     1       7.012   7.888  53.490  1.00  0.00     0.000 C 
BRANCH   3   4
ATOM      4  C   UNL     1       7.770   8.857  52.563  1.00  0.00     0.000 C 
BRANCH   4   5
ATOM      5  C   UNL     1       8.951   8.234  51.797  1.00  0.00     0.000 C 
BRANCH   5   6
ATOM      6  C   UNL     1       9.442   9.114  50.637  1.00  0.00     0.000 C 
BRANCH   6   7
ATOM      7  C   UNL     1       9.042   8.505  49.284  1.00  0.00     0.000 C 
BRANCH   7   8
ATOM      8  C   UNL     1       8.081   9.402  48.486  1.00  0.00     0.000 C 
BRANCH   8   9
ATOM      9  C   UNL     1       7.293  10.425  49.329  1.00  0.00     0.000 C 
BRANCH   9  10
ATOM     10  C   UNL     1       6.176  11.153  48.550  1.00  0.00     0.000 C 
BRANCH  10  11
ATOM     11  C   UNL     1       4.936  11.421  49.420  1.00  0.00     0.000 C 
BRANCH  11  12
ATOM     12  C   UNL     1       3.664  11.664  48.592  1.00  0.00     0.000 C 
BRANCH  12  13
ATOM     13  C   UNL     1       2.394  11.158  49.294  1.00  0.00     0.006 C 
BRANCH  13  14
ATOM     14  C   UNL     1       1.634  10.159  48.413  1.00  0.00     0.053 C 
BRANCH  14  15
ATOM     15  C   UNL     1       0.554  10.838  47.625  1.00  0.00     0.041 C 
ATOM     16  O   UNL     1      -0.647  10.778  48.001  1.00  0.00    -0.550 OA
ATOM     17  O   UNL     1       0.881  11.574  46.492  1.00  0.00    -0.550 OA
ENDBRANCH  14  15
ENDBRANCH  13  14
ENDBRANCH  12  13
ENDBRANCH  11  12
ENDBRANCH  10  11
ENDBRANCH   9  10
ENDBRANCH   8   9
ENDBRANCH   7   8
ENDBRANCH   6   7
ENDBRANCH   5   6
ENDBRANCH   4   5
ENDBRANCH   3   4
ENDBRANCH   2   3
ENDBRANCH   1   2
BRANCH   1  18
ATOM     18  C   UNL     1       6.746   4.005  53.104  1.00  0.00     0.000 C 
BRANCH  18  19
ATOM     19  C   UNL     1       7.752   3.609  54.202  1.00  0.00     0.000 C 
BRANCH  19  20
ATOM     20  C   UNL     1       8.090   2.104  54.227  1.00  0.00     0.000 C 
BRANCH  20  21
ATOM     21  C   UNL     1       9.483   1.818  54.814  1.00  0.00     0.000 C 
BRANCH  21  22
ATOM     22  C   UNL     1       9.958   2.912  55.787  1.00  0.00     0.000 C 
BRANCH  22  23
ATOM     23  C   UNL     1      11.494   3.049  55.867  1.00  0.00     0.000 C 
BRANCH  23  24
ATOM     24  C   UNL     1      11.958   4.510  55.738  1.00  0.00    -0.000 C 
BRANCH  24  25
ATOM     25  C   UNL     1      10.830   5.437  55.233  1.00  0.00    -0.000 C 
BRANCH  25  26
ATOM     26  C   UNL     1      11.292   6.429  54.156  1.00  0.00    -0.000 C 
BRANCH  26  27
ATOM     27  C   UNL     1      11.623   5.742  52.824  1.00  0.00    -0.000 C 
BRANCH  27  28
ATOM     28  C   UNL     1      10.536   4.723  52.452  1.00  0.00    -0.000 C 
BRANCH  28  29
ATOM     29  C   UNL     1      10.562   4.347  50.963  1.00  0.00    -0.000 C 
BRANCH  29  30
ATOM     30  C   UNL     1       9.418   4.999  50.167  1.00  0.00    -0.000 C 
BRANCH  30  31
ATOM     31  C   UNL     1       9.599   4.851  48.647  1.00  0.00    -0.003 C 
ATOM     32  C   UNL     1      10.915   5.451  48.150  1.00  0.00     0.004 C 
ENDBRANCH  30  31
ENDBRANCH  29  30
ENDBRANCH  28  29
ENDBRANCH  27  28
ENDBRANCH  26  27
ENDBRANCH  25  26
ENDBRANCH  24  25
ENDBRANCH  23  24
ENDBRANCH  22  23
ENDBRANCH  21  22
ENDBRANCH  20  21
ENDBRANCH  19  20
ENDBRANCH  18  19
ENDBRANCH   1  18
TORSDOF 28
ENDMDL
MODEL 9
REMARK VINA RESULT:    -4.680      9.738     13.731
REMARK INTER + INTRA:         -16.113
REMARK INTER:                 -11.609
REMARK INTRA:                  -4.504
REMARK UNBOUND:                -3.773
REMARK SMILES CCCCCCCCCCCCCCCCCCCCCCCCCCCCCC(=O)[O-]
REMARK SMILES IDX 16 1 17 2 18 3 19 4 20 5 21 6 22 7 23 8 24 9 25 10 26 11
REMARK SMILES IDX 27 12 28 13 29 14 30 15 31 16 32 17 15 18 14 19 13 20 12 21
REMARK SMILES IDX 11 22 10 23 9 24 8 25 7 26 6 27 5 28 4 29 3 30 2 31 1 32
REMARK H PARENT
REMARK Flexibility Score: inf
ROOT
ATOM      1  C   UNL     1       6.394  11.394  48.666  1.00  0.00     0.000 C 
ENDROOT
BRANCH   1   2
ATOM      2  C   UNL     1       5.373  12.509  48.388  1.00  0.00     0.000 C 
BRANCH   2   3
ATOM      3  C   UNL     1       4.357  12.624  49.533  1.00  0.00     0.000 C 
BRANCH   3   4
ATOM      4  C   UNL     1       2.917  12.854  49.037  1.00  0.00     0.000 C 
BRANCH   4   5
ATOM      5  C   UNL     1       2.179  11.586  48.569  1.00  0.00     0.000 C 
BRANCH   5   6
ATOM      6  C   UNL     1       2.212  11.403  47.045  1.00  0.00     0.000 C 
BRANCH   6   7
ATOM      7  C   UNL     1       0.806  11.102  46.501  1.00  0.00     0.000 C 
BRANCH   7   8
ATOM      8  C   UNL     1      -0.084  10.370  47.520  1.00  0.00     0.000 C 
BRANCH   8   9
ATOM      9  C   UNL     1      -1.488  10.977  47.714  1.00  0.00     0.000 C 
BRANCH   9  10
ATOM     10  C   UNL     1      -2.642   9.982  47.461  1.00  0.00     0.000 C 
BRANCH  10  11
ATOM     11  C   UNL     1      -2.133   8.557  47.183  1.00  0.00     0.000 C 
BRANCH  11  12
ATOM     12  C   UNL     1      -2.497   8.054  45.777  1.00  0.00     0.000 C 
BRANCH  12  13
ATOM     13  C   UNL     1      -1.260   7.747  44.918  1.00  0.00     0.006 C 
BRANCH  13  14
ATOM     14  C   UNL     1      -0.912   8.930  44.005  1.00  0.00     0.053 C 
BRANCH  14  15
ATOM     15  C   UNL     1      -1.197   8.611  42.568  1.00  0.00     0.041 C 
ATOM     16  O   UNL     1      -0.536   9.161  41.647  1.00  0.00    -0.550 OA
ATOM     17  O   UNL     1      -2.171   7.673  42.246  1.00  0.00    -0.550 OA
ENDBRANCH  14  15
ENDBRANCH  13  14
ENDBRANCH  12  13
ENDBRANCH  11  12
ENDBRANCH  10  11
ENDBRANCH   9  10
ENDBRANCH   8   9
ENDBRANCH   7   8
ENDBRANCH   6   7
ENDBRANCH   5   6
ENDBRANCH   4   5
ENDBRANCH   3   4
ENDBRANCH   2   3
ENDBRANCH   1   2
BRANCH   1  18
ATOM     18  C   UNL     1       6.461  10.355  47.534  1.00  0.00     0.000 C 
BRANCH  18  19
ATOM     19  C   UNL     1       5.666  10.723  46.266  1.00  0.00     0.000 C 
BRANCH  19  20
ATOM     20  C   UNL     1       6.529  10.806  44.990  1.00  0.00     0.000 C 
BRANCH  20  21
ATOM     21  C   UNL     1       6.694  12.247  44.478  1.00  0.00     0.000 C 
BRANCH  21  22
ATOM     22  C   UNL     1       8.134  12.564  44.036  1.00  0.00     0.000 C 
BRANCH  22  23
ATOM     23  C   UNL     1       8.808  13.678  44.866  1.00  0.00     0.000 C 
BRANCH  23  24
ATOM     24  C   UNL     1       8.177  13.832  46.260  1.00  0.00    -0.000 C 
BRANCH  24  25
ATOM     25  C   UNL     1       9.180  13.513  47.391  1.00  0.00    -0.000 C 
BRANCH  25  26
ATOM     26  C   UNL     1      10.248  12.486  46.988  1.00  0.00    -0.000 C 
BRANCH  26  27
ATOM     27  C   UNL     1       9.942  11.078  47.515  1.00  0.00    -0.000 C 
BRANCH  27  28
ATOM     28  C   UNL     1      10.707  10.017  46.712  1.00  0.00    -0.000 C 
BRANCH  28  29
ATOM     29  C   UNL     1      10.023   9.675  45.379  1.00  0.00    -0.000 C 
BRANCH  29  30
ATOM     30  C   UNL     1       9.752   8.169  45.221  1.00  0.00    -0.000 C 
BRANCH  30  31
ATOM     31  C   UNL     1       8.468   7.724  45.939  1.00  0.00    -0.003 C 
ATOM     32  C   UNL     1       8.750   6.954  47.230  1.00  0.00     0.004 C 
ENDBRANCH  30  31
ENDBRANCH  29  30
ENDBRANCH  28  29
ENDBRANCH  27  28
ENDBRANCH  26  27
ENDBRANCH  25  26
ENDBRANCH  24  25
ENDBRANCH  23  24
ENDBRANCH  22  23
ENDBRANCH  21  22
ENDBRANCH  20  21
ENDBRANCH  19  20
ENDBRANCH  18  19
ENDBRANCH   1  18
TORSDOF 28
ENDMDL
