MODEL 1
REMARK VINA RESULT:    -3.661      0.000      0.000
REMARK INTER + INTRA:          -4.026
REMARK INTER:                  -3.982
REMARK INTRA:                  -0.045
REMARK UNBOUND:                -0.045
REMARK SMILES COc1ccccc1O
REMARK SMILES IDX 3 1 4 2 5 3 6 4 7 5 8 6 2 7 1 8 9 9
REMARK H PARENT 9 10
REMARK Flexibility Score: inf
ROOT
ATOM      1  C   UNL     1      17.734  -4.180   5.987  1.00  0.00     0.160 A 
ATOM      2  C   UNL     1      16.352  -4.454   6.013  1.00  0.00     0.050 A 
ATOM      3  C   UNL     1      15.871  -5.597   6.658  1.00  0.00     0.004 A 
ATOM      4  C   UNL     1      16.760  -6.475   7.282  1.00  0.00     0.004 A 
ATOM      5  C   UNL     1      18.132  -6.212   7.262  1.00  0.00     0.050 A 
ATOM      6  C   UNL     1      18.622  -5.068   6.616  1.00  0.00     0.157 A 
ENDROOT
BRANCH   1   7
ATOM      7  O   UNL     1      18.261  -3.045   5.351  1.00  0.00    -0.493 OA
ATOM      8  C   UNL     1      18.257  -2.839   3.942  1.00  0.00     0.278 C 
ENDBRANCH   1   7
BRANCH   6   9
ATOM      9  O   UNL     1      19.990  -4.804   6.595  1.00  0.00    -0.504 OA
ATOM     10  H   UNL     1      20.401  -4.089   7.183  1.00  0.00     0.293 HD
ENDBRANCH   6   9
TORSDOF 2
ENDMDL
MODEL 2
REMARK VINA RESULT:    -3.560      1.978      3.368
REMARK INTER + INTRA:          -3.917
REMARK INTER:                  -3.876
REMARK INTRA:                  -0.041
REMARK UNBOUND:                -0.045
REMARK SMILES COc1ccccc1O
REMARK SMILES IDX 3 1 4 2 5 3 6 4 7 5 8 6 2 7 1 8 9 9
REMARK H PARENT 9 10
REMARK Flexibility Score: inf
ROOT
ATOM      1  C   UNL     1      16.718  -5.651   6.777  1.00  0.00     0.160 A 
ATOM      2  C   UNL     1      16.221  -4.527   6.088  1.00  0.00     0.050 A 
ATOM      3  C   UNL     1      17.095  -3.538   5.628  1.00  0.00     0.004 A 
ATOM      4  C   UNL     1      18.468  -3.658   5.850  1.00  0.00     0.004 A 
ATOM      5  C   UNL     1      18.971  -4.769   6.531  1.00  0.00     0.050 A 
ATOM      6  C   UNL     1      18.101  -5.766   6.996  1.00  0.00     0.157 A 
ENDROOT
BRANCH   1   7
ATOM      7  O   UNL     1      15.878  -6.668   7.256  1.00  0.00    -0.493 OA
ATOM      8  C   UNL     1      15.182  -6.617   8.497  1.00  0.00     0.278 C 
ENDBRANCH   1   7
BRANCH   6   9
ATOM      9  O   UNL     1      18.601  -6.875   7.676  1.00  0.00    -0.504 OA
ATOM     10  H   UNL     1      18.189  -7.794   7.566  1.00  0.00     0.293 HD
ENDBRANCH   6   9
TORSDOF 2
ENDMDL
MODEL 3
REMARK VINA RESULT:    -3.368      2.209      3.316
REMARK INTER + INTRA:          -3.708
REMARK INTER:                  -3.666
REMARK INTRA:                  -0.042
REMARK UNBOUND:                -0.045
REMARK SMILES COc1ccccc1O
REMARK SMILES IDX 3 1 4 2 5 3 6 4 7 5 8 6 2 7 1 8 9 9
REMARK H PARENT 9 10
REMARK Flexibility Score: inf
ROOT
ATOM      1  C   UNL     1      17.754  -6.070   5.282  1.00  0.00     0.160 A 
ATOM      2  C   UNL     1      17.376  -5.313   4.156  1.00  0.00     0.050 A 
ATOM      3  C   UNL     1      17.572  -3.929   4.138  1.00  0.00     0.004 A 
ATOM      4  C   UNL     1      18.145  -3.289   5.238  1.00  0.00     0.004 A 
ATOM      5  C   UNL     1      18.525  -4.031   6.360  1.00  0.00     0.050 A 
ATOM      6  C   UNL     1      18.331  -5.419   6.385  1.00  0.00     0.157 A 
ENDROOT
BRANCH   1   7
ATOM      7  O   UNL     1      17.576  -7.461   5.344  1.00  0.00    -0.493 OA
ATOM      8  C   UNL     1      18.194  -8.391   4.460  1.00  0.00     0.278 C 
ENDBRANCH   1   7
BRANCH   6   9
ATOM      9  O   UNL     1      18.708  -6.161   7.503  1.00  0.00    -0.504 OA
ATOM     10  H   UNL     1      19.651  -6.516   7.610  1.00  0.00     0.293 HD
ENDBRANCH   6   9
TORSDOF 2
ENDMDL
MODEL 4
REMARK VINA RESULT:    -3.350     18.743     19.833
REMARK INTER + INTRA:          -3.688
REMARK INTER:                  -3.643
REMARK INTRA:                  -0.045
REMARK UNBOUND:                -0.045
REMARK SMILES COc1ccccc1O
REMARK SMILES IDX 3 1 4 2 5 3 6 4 7 5 8 6 2 7 1 8 9 9
REMARK H PARENT 9 10
REMARK Flexibility Score: inf
ROOT
ATOM      1  C   UNL     1      13.594 -17.789  19.780  1.00  0.00     0.160 A 
ATOM      2  C   UNL     1      12.966 -17.768  18.519  1.00  0.00     0.050 A 
ATOM      3  C   UNL     1      11.587 -17.974  18.415  1.00  0.00     0.004 A 
ATOM      4  C   UNL     1      10.824 -18.202  19.562  1.00  0.00     0.004 A 
ATOM      5  C   UNL     1      11.438 -18.224  20.816  1.00  0.00     0.050 A 
ATOM      6  C   UNL     1      12.821 -18.019  20.929  1.00  0.00     0.157 A 
ENDROOT
BRANCH   1   7
ATOM      7  O   UNL     1      14.975 -17.587  19.932  1.00  0.00    -0.493 OA
ATOM      8  C   UNL     1      15.973 -18.519  19.527  1.00  0.00     0.278 C 
ENDBRANCH   1   7
BRANCH   6   9
ATOM      9  O   UNL     1      13.435 -18.041  22.180  1.00  0.00    -0.504 OA
ATOM     10  H   UNL     1      13.139 -18.684  22.904  1.00  0.00     0.293 HD
ENDBRANCH   6   9
TORSDOF 2
ENDMDL
MODEL 5
REMARK VINA RESULT:    -3.154     18.420     19.739
REMARK INTER + INTRA:          -3.475
REMARK INTER:                  -3.447
REMARK INTRA:                  -0.028
REMARK UNBOUND:                -0.045
REMARK SMILES COc1ccccc1O
REMARK SMILES IDX 3 1 4 2 5 3 6 4 7 5 8 6 2 7 1 8 9 9
REMARK H PARENT 9 10
REMARK Flexibility Score: inf
ROOT
ATOM      1  C   UNL     1      13.395 -17.844  20.352  1.00  0.00     0.160 A 
ATOM      2  C   UNL     1      13.240 -17.057  19.194  1.00  0.00     0.050 A 
ATOM      3  C   UNL     1      14.360 -16.645  18.465  1.00  0.00     0.004 A 
ATOM      4  C   UNL     1      15.641 -17.013  18.882  1.00  0.00     0.004 A 
ATOM      5  C   UNL     1      15.805 -17.794  20.029  1.00  0.00     0.050 A 
ATOM      6  C   UNL     1      14.687 -18.211  20.765  1.00  0.00     0.157 A 
ENDROOT
BRANCH   1   7
ATOM      7  O   UNL     1      12.300 -18.280  21.114  1.00  0.00    -0.493 OA
ATOM      8  C   UNL     1      10.966 -18.370  20.625  1.00  0.00     0.278 C 
ENDBRANCH   1   7
BRANCH   6   9
ATOM      9  O   UNL     1      14.849 -18.990  21.910  1.00  0.00    -0.504 OA
ATOM     10  H   UNL     1      14.081 -19.159  22.548  1.00  0.00     0.293 HD
ENDBRANCH   6   9
TORSDOF 2
ENDMDL
MODEL 6
REMARK VINA RESULT:    -3.091     18.701     19.923
REMARK INTER + INTRA:          -3.407
REMARK INTER:                  -3.363
REMARK INTRA:                  -0.044
REMARK UNBOUND:                -0.045
REMARK SMILES COc1ccccc1O
REMARK SMILES IDX 3 1 4 2 5 3 6 4 7 5 8 6 2 7 1 8 9 9
REMARK H PARENT 9 10
REMARK Flexibility Score: inf
ROOT
ATOM      1  C   UNL     1      12.670 -17.833  20.194  1.00  0.00     0.160 A 
ATOM      2  C   UNL     1      13.357 -18.055  21.404  1.00  0.00     0.050 A 
ATOM      3  C   UNL     1      14.737 -18.280  21.400  1.00  0.00     0.004 A 
ATOM      4  C   UNL     1      15.442 -18.286  20.196  1.00  0.00     0.004 A 
ATOM      5  C   UNL     1      14.770 -18.067  18.991  1.00  0.00     0.050 A 
ATOM      6  C   UNL     1      13.386 -17.841  18.986  1.00  0.00     0.157 A 
ENDROOT
BRANCH   1   7
ATOM      7  O   UNL     1      11.286 -17.603  20.151  1.00  0.00    -0.493 OA
ATOM      8  C   UNL     1      10.299 -18.568  20.500  1.00  0.00     0.278 C 
ENDBRANCH   1   7
BRANCH   6   9
ATOM      9  O   UNL     1      12.713 -17.622  17.785  1.00  0.00    -0.504 OA
ATOM     10  H   UNL     1      12.100 -18.322  17.386  1.00  0.00     0.293 HD
ENDBRANCH   6   9
TORSDOF 2
ENDMDL
MODEL 7
REMARK VINA RESULT:    -3.054      5.878      6.806
REMARK INTER + INTRA:          -3.367
REMARK INTER:                  -3.321
REMARK INTRA:                  -0.046
REMARK UNBOUND:                -0.045
REMARK SMILES COc1ccccc1O
REMARK SMILES IDX 3 1 4 2 5 3 6 4 7 5 8 6 2 7 1 8 9 9
REMARK H PARENT 9 10
REMARK Flexibility Score: inf
ROOT
ATOM      1  C   UNL     1      14.931  -6.285  11.441  1.00  0.00     0.160 A 
ATOM      2  C   UNL     1      14.097  -5.149  11.418  1.00  0.00     0.050 A 
ATOM      3  C   UNL     1      14.065  -4.276  12.509  1.00  0.00     0.004 A 
ATOM      4  C   UNL     1      14.860  -4.524  13.629  1.00  0.00     0.004 A 
ATOM      5  C   UNL     1      15.690  -5.647  13.662  1.00  0.00     0.050 A 
ATOM      6  C   UNL     1      15.728  -6.529  12.572  1.00  0.00     0.157 A 
ENDROOT
BRANCH   1   7
ATOM      7  O   UNL     1      14.995  -7.189  10.369  1.00  0.00    -0.493 OA
ATOM      8  C   UNL     1      15.750  -6.974   9.181  1.00  0.00     0.278 C 
ENDBRANCH   1   7
BRANCH   6   9
ATOM      9  O   UNL     1      16.556  -7.650  12.602  1.00  0.00    -0.504 OA
ATOM     10  H   UNL     1      17.437  -7.644  13.101  1.00  0.00     0.293 HD
ENDBRANCH   6   9
TORSDOF 2
ENDMDL
MODEL 8
REMARK VINA RESULT:    -3.052     17.692     19.166
REMARK INTER + INTRA:          -3.364
REMARK INTER:                  -3.320
REMARK INTRA:                  -0.044
REMARK UNBOUND:                -0.045
REMARK SMILES COc1ccccc1O
REMARK SMILES IDX 3 1 4 2 5 3 6 4 7 5 8 6 2 7 1 8 9 9
REMARK H PARENT 9 10
REMARK Flexibility Score: inf
ROOT
ATOM      1  C   UNL     1      15.869 -17.391  20.206  1.00  0.00     0.160 A 
ATOM      2  C   UNL     1      15.987 -16.464  19.151  1.00  0.00     0.050 A 
ATOM      3  C   UNL     1      14.902 -16.219  18.303  1.00  0.00     0.004 A 
ATOM      4  C   UNL     1      13.695 -16.893  18.497  1.00  0.00     0.004 A 
ATOM      5  C   UNL     1      13.568 -17.813  19.541  1.00  0.00     0.050 A 
ATOM      6  C   UNL     1      14.651 -18.064  20.396  1.00  0.00     0.157 A 
ENDROOT
BRANCH   1   7
ATOM      7  O   UNL     1      16.930 -17.668  21.081  1.00  0.00    -0.493 OA
ATOM      8  C   UNL     1      17.455 -16.742  22.027  1.00  0.00     0.278 C 
ENDBRANCH   1   7
BRANCH   6   9
ATOM      9  O   UNL     1      14.526 -18.982  21.437  1.00  0.00    -0.504 OA
ATOM     10  H   UNL     1      15.289 -19.163  22.078  1.00  0.00     0.293 HD
ENDBRANCH   6   9
TORSDOF 2
ENDMDL
MODEL 9
REMARK VINA RESULT:    -3.002      1.657      2.109
REMARK INTER + INTRA:          -3.310
REMARK INTER:                  -3.263
REMARK INTRA:                  -0.046
REMARK UNBOUND:                -0.045
REMARK SMILES COc1ccccc1O
REMARK SMILES IDX 3 1 4 2 5 3 6 4 7 5 8 6 2 7 1 8 9 9
REMARK H PARENT 9 10
REMARK Flexibility Score: inf
ROOT
ATOM      1  C   UNL     1      16.472  -5.581   6.393  1.00  0.00     0.160 A 
ATOM      2  C   UNL     1      15.108  -5.230   6.438  1.00  0.00     0.050 A 
ATOM      3  C   UNL     1      14.311  -5.634   7.513  1.00  0.00     0.004 A 
ATOM      4  C   UNL     1      14.863  -6.388   8.550  1.00  0.00     0.004 A 
ATOM      5  C   UNL     1      16.214  -6.741   8.515  1.00  0.00     0.050 A 
ATOM      6  C   UNL     1      17.020  -6.340   7.440  1.00  0.00     0.157 A 
ENDROOT
BRANCH   1   7
ATOM      7  O   UNL     1      17.309  -5.198   5.334  1.00  0.00    -0.493 OA
ATOM      8  C   UNL     1      17.878  -3.901   5.188  1.00  0.00     0.278 C 
ENDBRANCH   1   7
BRANCH   6   9
ATOM      9  O   UNL     1      18.369  -6.692   7.403  1.00  0.00    -0.504 OA
ATOM     10  H   UNL     1      18.669  -7.654   7.504  1.00  0.00     0.293 HD
ENDBRANCH   6   9
TORSDOF 2
ENDMDL
