MODEL 1
REMARK VINA RESULT:    -4.671      0.000      0.000
REMARK INTER + INTRA:          -5.452
REMARK INTER:                  -5.353
REMARK INTRA:                  -0.099
REMARK UNBOUND:                -0.099
REMARK SMILES COc1cc(C(=O)[O-])ccc1O
REMARK SMILES IDX 5 1 9 2 4 3 10 4 3 5 11 6 6 7 7 8 8 9 2 10 1 11 12 12
REMARK H PARENT 12 13
REMARK Flexibility Score: inf
ROOT
ATOM      1  C   UNL     1     -11.222  -4.031   4.802  1.00  0.00     0.001 A 
ATOM      2  C   UNL     1      -9.953  -3.447   4.669  1.00  0.00     0.014 A 
ATOM      3  C   UNL     1     -11.330  -5.310   5.379  1.00  0.00     0.060 A 
ATOM      4  C   UNL     1      -8.813  -4.127   5.104  1.00  0.00     0.051 A 
ATOM      5  C   UNL     1     -10.183  -6.000   5.821  1.00  0.00     0.161 A 
ATOM      6  C   UNL     1      -8.921  -5.396   5.678  1.00  0.00     0.157 A 
ENDROOT
BRANCH   1   7
ATOM      7  C   UNL     1     -12.427  -3.307   4.338  1.00  0.00     0.072 C 
ATOM      8  O   UNL     1     -12.478  -2.822   3.177  1.00  0.00    -0.545 OA
ATOM      9  O   UNL     1     -13.522  -3.150   5.181  1.00  0.00    -0.545 OA
ENDBRANCH   1   7
BRANCH   5  10
ATOM     10  O   UNL     1     -10.260  -7.277   6.400  1.00  0.00    -0.493 OA
ATOM     11  C   UNL     1     -10.396  -8.491   5.668  1.00  0.00     0.278 C 
ENDBRANCH   5  10
BRANCH   6  12
ATOM     12  O   UNL     1      -7.759  -6.043   6.102  1.00  0.00    -0.504 OA
ATOM     13  H   UNL     1      -7.253  -5.755   6.930  1.00  0.00     0.293 HD
ENDBRANCH   6  12
TORSDOF 3
ENDMDL
MODEL 2
REMARK VINA RESULT:    -4.478      8.281      9.764
REMARK INTER + INTRA:          -5.231
REMARK INTER:                  -5.149
REMARK INTRA:                  -0.082
REMARK UNBOUND:                -0.099
REMARK SMILES COc1cc(C(=O)[O-])ccc1O
REMARK SMILES IDX 5 1 9 2 4 3 10 4 3 5 11 6 6 7 7 8 8 9 2 10 1 11 12 12
REMARK H PARENT 12 13
REMARK Flexibility Score: inf
ROOT
ATOM      1  C   UNL     1     -15.631   3.883   3.351  1.00  0.00     0.001 A 
ATOM      2  C   UNL     1     -15.635   3.186   2.133  1.00  0.00     0.014 A 
ATOM      3  C   UNL     1     -14.463   3.884   4.135  1.00  0.00     0.060 A 
ATOM      4  C   UNL     1     -14.495   2.502   1.706  1.00  0.00     0.051 A 
ATOM      5  C   UNL     1     -13.308   3.196   3.709  1.00  0.00     0.161 A 
ATOM      6  C   UNL     1     -13.335   2.505   2.486  1.00  0.00     0.157 A 
ENDROOT
BRANCH   1   7
ATOM      7  C   UNL     1     -16.843   4.606   3.799  1.00  0.00     0.072 C 
ATOM      8  O   UNL     1     -17.916   3.984   4.021  1.00  0.00    -0.545 OA
ATOM      9  O   UNL     1     -16.815   5.984   3.979  1.00  0.00    -0.545 OA
ENDBRANCH   1   7
BRANCH   5  10
ATOM     10  O   UNL     1     -12.129   3.180   4.471  1.00  0.00    -0.493 OA
ATOM     11  C   UNL     1     -12.074   2.925   5.871  1.00  0.00     0.278 C 
ENDBRANCH   5  10
BRANCH   6  12
ATOM     12  O   UNL     1     -12.214   1.810   2.026  1.00  0.00    -0.504 OA
ATOM     13  H   UNL     1     -11.359   1.749   2.565  1.00  0.00     0.293 HD
ENDBRANCH   6  12
TORSDOF 3
ENDMDL
MODEL 3
REMARK VINA RESULT:    -4.403      9.628     12.450
REMARK INTER + INTRA:          -5.145
REMARK INTER:                  -5.047
REMARK INTRA:                  -0.098
REMARK UNBOUND:                -0.099
REMARK SMILES COc1cc(C(=O)[O-])ccc1O
REMARK SMILES IDX 5 1 9 2 4 3 10 4 3 5 11 6 6 7 7 8 8 9 2 10 1 11 12 12
REMARK H PARENT 12 13
REMARK Flexibility Score: inf
ROOT
ATOM      1  C   UNL     1     -15.305   4.343   3.784  1.00  0.00     0.001 A 
ATOM      2  C   UNL     1     -16.600   3.806   3.705  1.00  0.00     0.014 A 
ATOM      3  C   UNL     1     -15.120   5.591   4.407  1.00  0.00     0.060 A 
ATOM      4  C   UNL     1     -17.687   4.501   4.236  1.00  0.00     0.051 A 
ATOM      5  C   UNL     1     -16.215   6.297   4.947  1.00  0.00     0.161 A 
ATOM      6  C   UNL     1     -17.502   5.739   4.855  1.00  0.00     0.157 A 
ENDROOT
BRANCH   1   7
ATOM      7  C   UNL     1     -14.155   3.602   3.219  1.00  0.00     0.072 C 
ATOM      8  O   UNL     1     -13.055   3.559   3.832  1.00  0.00    -0.545 OA
ATOM      9  O   UNL     1     -14.272   2.942   2.001  1.00  0.00    -0.545 OA
ENDBRANCH   1   7
BRANCH   5  10
ATOM     10  O   UNL     1     -16.059   7.544   5.573  1.00  0.00    -0.493 OA
ATOM     11  C   UNL     1     -16.030   8.794   4.891  1.00  0.00     0.278 C 
ENDBRANCH   5  10
BRANCH   6  12
ATOM     12  O   UNL     1     -18.614   6.404   5.375  1.00  0.00    -0.504 OA
ATOM     13  H   UNL     1     -19.512   5.949   5.484  1.00  0.00     0.293 HD
ENDBRANCH   6  12
TORSDOF 3
ENDMDL
MODEL 4
REMARK VINA RESULT:    -4.306      2.438      3.217
REMARK INTER + INTRA:          -5.034
REMARK INTER:                  -4.936
REMARK INTRA:                  -0.099
REMARK UNBOUND:                -0.099
REMARK SMILES COc1cc(C(=O)[O-])ccc1O
REMARK SMILES IDX 5 1 9 2 4 3 10 4 3 5 11 6 6 7 7 8 8 9 2 10 1 11 12 12
REMARK H PARENT 12 13
REMARK Flexibility Score: inf
ROOT
ATOM      1  C   UNL     1      -9.575  -5.317   5.281  1.00  0.00     0.001 A 
ATOM      2  C   UNL     1     -10.262  -5.899   4.205  1.00  0.00     0.014 A 
ATOM      3  C   UNL     1      -9.333  -6.086   6.434  1.00  0.00     0.060 A 
ATOM      4  C   UNL     1     -10.699  -7.222   4.278  1.00  0.00     0.051 A 
ATOM      5  C   UNL     1      -9.772  -7.424   6.513  1.00  0.00     0.161 A 
ATOM      6  C   UNL     1     -10.458  -7.986   5.423  1.00  0.00     0.157 A 
ENDROOT
BRANCH   1   7
ATOM      7  C   UNL     1      -9.113  -3.913   5.198  1.00  0.00     0.072 C 
ATOM      8  O   UNL     1      -8.443  -3.514   4.208  1.00  0.00    -0.545 OA
ATOM      9  O   UNL     1      -9.411  -3.012   6.215  1.00  0.00    -0.545 OA
ENDBRANCH   1   7
BRANCH   5  10
ATOM     10  O   UNL     1      -9.544  -8.215   7.651  1.00  0.00    -0.493 OA
ATOM     11  C   UNL     1     -10.337  -8.178   8.834  1.00  0.00     0.278 C 
ENDBRANCH   5  10
BRANCH   6  12
ATOM     12  O   UNL     1     -10.911  -9.306   5.458  1.00  0.00    -0.504 OA
ATOM     13  H   UNL     1     -11.315  -9.715   6.292  1.00  0.00     0.293 HD
ENDBRANCH   6  12
TORSDOF 3
ENDMDL
MODEL 5
REMARK VINA RESULT:    -4.183      8.762      9.943
REMARK INTER + INTRA:          -4.893
REMARK INTER:                  -4.814
REMARK INTRA:                  -0.079
REMARK UNBOUND:                -0.099
REMARK SMILES COc1cc(C(=O)[O-])ccc1O
REMARK SMILES IDX 5 1 9 2 4 3 10 4 3 5 11 6 6 7 7 8 8 9 2 10 1 11 12 12
REMARK H PARENT 12 13
REMARK Flexibility Score: inf
ROOT
ATOM      1  C   UNL     1     -15.356   4.056   4.370  1.00  0.00     0.001 A 
ATOM      2  C   UNL     1     -14.189   4.029   5.149  1.00  0.00     0.014 A 
ATOM      3  C   UNL     1     -15.306   3.584   3.045  1.00  0.00     0.060 A 
ATOM      4  C   UNL     1     -12.995   3.539   4.616  1.00  0.00     0.051 A 
ATOM      5  C   UNL     1     -14.103   3.088   2.502  1.00  0.00     0.161 A 
ATOM      6  C   UNL     1     -12.946   3.070   3.301  1.00  0.00     0.157 A 
ENDROOT
BRANCH   1   7
ATOM      7  C   UNL     1     -16.620   4.575   4.940  1.00  0.00     0.072 C 
ATOM      8  O   UNL     1     -16.602   5.431   5.865  1.00  0.00    -0.545 OA
ATOM      9  O   UNL     1     -17.845   4.125   4.463  1.00  0.00    -0.545 OA
ENDBRANCH   1   7
BRANCH   5  10
ATOM     10  O   UNL     1     -14.023   2.611   1.184  1.00  0.00    -0.493 OA
ATOM     11  C   UNL     1     -15.145   2.229   0.392  1.00  0.00     0.278 C 
ENDBRANCH   5  10
BRANCH   6  12
ATOM     12  O   UNL     1     -11.734   2.589   2.803  1.00  0.00    -0.504 OA
ATOM     13  H   UNL     1     -11.563   1.600   2.664  1.00  0.00     0.293 HD
ENDBRANCH   6  12
TORSDOF 3
ENDMDL
MODEL 6
REMARK VINA RESULT:    -4.130      8.885     11.473
REMARK INTER + INTRA:          -4.833
REMARK INTER:                  -4.749
REMARK INTRA:                  -0.084
REMARK UNBOUND:                -0.099
REMARK SMILES COc1cc(C(=O)[O-])ccc1O
REMARK SMILES IDX 5 1 9 2 4 3 10 4 3 5 11 6 6 7 7 8 8 9 2 10 1 11 12 12
REMARK H PARENT 12 13
REMARK Flexibility Score: inf
ROOT
ATOM      1  C   UNL     1     -15.259   3.915   4.573  1.00  0.00     0.001 A 
ATOM      2  C   UNL     1     -15.770   4.827   3.636  1.00  0.00     0.014 A 
ATOM      3  C   UNL     1     -15.913   3.768   5.811  1.00  0.00     0.060 A 
ATOM      4  C   UNL     1     -16.910   5.577   3.929  1.00  0.00     0.051 A 
ATOM      5  C   UNL     1     -17.065   4.523   6.112  1.00  0.00     0.161 A 
ATOM      6  C   UNL     1     -17.559   5.430   5.158  1.00  0.00     0.157 A 
ENDROOT
BRANCH   1   7
ATOM      7  C   UNL     1     -14.050   3.121   4.258  1.00  0.00     0.072 C 
ATOM      8  O   UNL     1     -13.551   2.344   5.115  1.00  0.00    -0.545 OA
ATOM      9  O   UNL     1     -13.446   3.224   3.010  1.00  0.00    -0.545 OA
ENDBRANCH   1   7
BRANCH   5  10
ATOM     10  O   UNL     1     -17.737   4.397   7.338  1.00  0.00    -0.493 OA
ATOM     11  C   UNL     1     -17.850   3.186   8.079  1.00  0.00     0.278 C 
ENDBRANCH   5  10
BRANCH   6  12
ATOM     12  O   UNL     1     -18.697   6.198   5.414  1.00  0.00    -0.504 OA
ATOM     13  H   UNL     1     -18.970   6.971   4.820  1.00  0.00     0.293 HD
ENDBRANCH   6  12
TORSDOF 3
ENDMDL
MODEL 7
REMARK VINA RESULT:    -4.090      1.709      2.276
REMARK INTER + INTRA:          -4.787
REMARK INTER:                  -4.697
REMARK INTRA:                  -0.090
REMARK UNBOUND:                -0.099
REMARK SMILES COc1cc(C(=O)[O-])ccc1O
REMARK SMILES IDX 5 1 9 2 4 3 10 4 3 5 11 6 6 7 7 8 8 9 2 10 1 11 12 12
REMARK H PARENT 12 13
REMARK Flexibility Score: inf
ROOT
ATOM      1  C   UNL     1     -11.160  -3.623   5.305  1.00  0.00     0.001 A 
ATOM      2  C   UNL     1     -10.474  -4.256   4.257  1.00  0.00     0.014 A 
ATOM      3  C   UNL     1     -10.705  -3.798   6.624  1.00  0.00     0.060 A 
ATOM      4  C   UNL     1      -9.355  -5.047   4.521  1.00  0.00     0.051 A 
ATOM      5  C   UNL     1      -9.575  -4.596   6.898  1.00  0.00     0.161 A 
ATOM      6  C   UNL     1      -8.903  -5.220   5.832  1.00  0.00     0.157 A 
ENDROOT
BRANCH   1   7
ATOM      7  C   UNL     1     -12.346  -2.784   5.018  1.00  0.00     0.072 C 
ATOM      8  O   UNL     1     -12.812  -2.709   3.850  1.00  0.00    -0.545 OA
ATOM      9  O   UNL     1     -12.962  -2.065   6.036  1.00  0.00    -0.545 OA
ENDBRANCH   1   7
BRANCH   5  10
ATOM     10  O   UNL     1      -9.099  -4.788   8.204  1.00  0.00    -0.493 OA
ATOM     11  C   UNL     1      -8.819  -3.739   9.126  1.00  0.00     0.278 C 
ENDBRANCH   5  10
BRANCH   6  12
ATOM     12  O   UNL     1      -7.780  -6.019   6.057  1.00  0.00    -0.504 OA
ATOM     13  H   UNL     1      -7.788  -7.018   5.893  1.00  0.00     0.293 HD
ENDBRANCH   6  12
TORSDOF 3
ENDMDL
MODEL 8
REMARK VINA RESULT:    -3.979      9.783     11.017
REMARK INTER + INTRA:          -4.659
REMARK INTER:                  -4.560
REMARK INTRA:                  -0.099
REMARK UNBOUND:                -0.099
REMARK SMILES COc1cc(C(=O)[O-])ccc1O
REMARK SMILES IDX 5 1 9 2 4 3 10 4 3 5 11 6 6 7 7 8 8 9 2 10 1 11 12 12
REMARK H PARENT 12 13
REMARK Flexibility Score: inf
ROOT
ATOM      1  C   UNL     1     -19.317  -5.457   9.968  1.00  0.00     0.001 A 
ATOM      2  C   UNL     1     -19.356  -6.289   8.839  1.00  0.00     0.014 A 
ATOM      3  C   UNL     1     -19.782  -5.954  11.200  1.00  0.00     0.060 A 
ATOM      4  C   UNL     1     -19.850  -7.591   8.936  1.00  0.00     0.051 A 
ATOM      5  C   UNL     1     -20.282  -7.269  11.305  1.00  0.00     0.161 A 
ATOM      6  C   UNL     1     -20.311  -8.084  10.159  1.00  0.00     0.157 A 
ENDROOT
BRANCH   1   7
ATOM      7  C   UNL     1     -18.792  -4.078   9.860  1.00  0.00     0.072 C 
ATOM      8  O   UNL     1     -19.366  -3.124  10.450  1.00  0.00    -0.545 OA
ATOM      9  O   UNL     1     -17.656  -3.814   9.103  1.00  0.00    -0.545 OA
ENDBRANCH   1   7
BRANCH   5  10
ATOM     10  O   UNL     1     -20.753  -7.790  12.520  1.00  0.00    -0.493 OA
ATOM     11  C   UNL     1     -19.928  -8.370  13.526  1.00  0.00     0.278 C 
ENDBRANCH   5  10
BRANCH   6  12
ATOM     12  O   UNL     1     -20.798  -9.391  10.218  1.00  0.00    -0.504 OA
ATOM     13  H   UNL     1     -20.657 -10.053   9.464  1.00  0.00     0.293 HD
ENDBRANCH   6  12
TORSDOF 3
ENDMDL
