MODEL 1
REMARK VINA RESULT:    -1.987      0.000      0.000
REMARK INTER + INTRA:          -1.987
REMARK INTER:                  -1.987
REMARK INTRA:                   0.000
REMARK UNBOUND:                 0.000
REMARK SMILES CC(=O)[O-]
REMARK SMILES IDX 1 1 2 2 3 3 4 4
REMARK H PARENT
REMARK Flexibility Score: inf
ROOT
ATOM      1  C   UNL     1     -18.009 -27.316  11.632  1.00  0.00     0.063 C 
ATOM      2  C   UNL     1     -16.580 -27.049  11.303  1.00  0.00     0.038 C 
ATOM      3  O   UNL     1     -16.098 -27.448  10.210  1.00  0.00    -0.550 OA
ATOM      4  O   UNL     1     -15.760 -26.409  12.224  1.00  0.00    -0.550 OA
ENDROOT
TORSDOF 0
ENDMDL
MODEL 2
REMARK VINA RESULT:    -1.947      1.523      1.823
REMARK INTER + INTRA:          -1.947
REMARK INTER:                  -1.947
REMARK INTRA:                   0.000
REMARK UNBOUND:                 0.000
REMARK SMILES CC(=O)[O-]
REMARK SMILES IDX 1 1 2 2 3 3 4 4
REMARK H PARENT
REMARK Flexibility Score: inf
ROOT
ATOM      1  C   UNL     1     -15.780 -26.658  11.900  1.00  0.00     0.063 C 
ATOM      2  C   UNL     1     -16.897 -27.314  11.162  1.00  0.00     0.038 C 
ATOM      3  O   UNL     1     -16.652 -28.067  10.184  1.00  0.00    -0.550 OA
ATOM      4  O   UNL     1     -18.215 -27.052  11.517  1.00  0.00    -0.550 OA
ENDROOT
TORSDOF 0
ENDMDL
MODEL 3
REMARK VINA RESULT:    -1.907     19.453     19.835
REMARK INTER + INTRA:          -1.907
REMARK INTER:                  -1.907
REMARK INTRA:                   0.000
REMARK UNBOUND:                 0.000
REMARK SMILES CC(=O)[O-]
REMARK SMILES IDX 1 1 2 2 3 3 4 4
REMARK H PARENT
REMARK Flexibility Score: inf
ROOT
ATOM      1  C   UNL     1     -30.832 -12.652  13.052  1.00  0.00     0.063 C 
ATOM      2  C   UNL     1     -30.725 -13.562  14.228  1.00  0.00     0.038 C 
ATOM      3  O   UNL     1     -30.319 -14.744  14.077  1.00  0.00    -0.550 OA
ATOM      4  O   UNL     1     -31.124 -13.126  15.485  1.00  0.00    -0.550 OA
ENDROOT
TORSDOF 0
ENDMDL
MODEL 4
REMARK VINA RESULT:    -1.875     19.078     19.482
REMARK INTER + INTRA:          -1.875
REMARK INTER:                  -1.875
REMARK INTRA:                   0.000
REMARK UNBOUND:                 0.000
REMARK SMILES CC(=O)[O-]
REMARK SMILES IDX 1 1 2 2 3 3 4 4
REMARK H PARENT
REMARK Flexibility Score: inf
ROOT
ATOM      1  C   UNL     1     -30.432 -15.387  13.902  1.00  0.00     0.063 C 
ATOM      2  C   UNL     1     -30.655 -13.914  13.962  1.00  0.00     0.038 C 
ATOM      3  O   UNL     1     -30.911 -13.358  15.062  1.00  0.00    -0.550 OA
ATOM      4  O   UNL     1     -30.637 -13.159  12.796  1.00  0.00    -0.550 OA
ENDROOT
TORSDOF 0
ENDMDL
MODEL 5
REMARK VINA RESULT:    -1.874     17.129     17.407
REMARK INTER + INTRA:          -1.874
REMARK INTER:                  -1.874
REMARK INTRA:                   0.000
REMARK UNBOUND:                 0.000
REMARK SMILES CC(=O)[O-]
REMARK SMILES IDX 1 1 2 2 3 3 4 4
REMARK H PARENT
REMARK Flexibility Score: inf
ROOT
ATOM      1  C   UNL     1     -30.232 -17.925  13.829  1.00  0.00     0.063 C 
ATOM      2  C   UNL     1     -30.357 -16.558  13.245  1.00  0.00     0.038 C 
ATOM      3  O   UNL     1     -30.596 -16.415  12.018  1.00  0.00    -0.550 OA
ATOM      4  O   UNL     1     -30.154 -15.439  14.043  1.00  0.00    -0.550 OA
ENDROOT
TORSDOF 0
ENDMDL
MODEL 6
REMARK VINA RESULT:    -1.871     15.156     15.341
REMARK INTER + INTRA:          -1.871
REMARK INTER:                  -1.871
REMARK INTRA:                   0.000
REMARK UNBOUND:                 0.000
REMARK SMILES CC(=O)[O-]
REMARK SMILES IDX 1 1 2 2 3 3 4 4
REMARK H PARENT
REMARK Flexibility Score: inf
ROOT
ATOM      1  C   UNL     1     -31.068 -22.274  14.163  1.00  0.00     0.063 C 
ATOM      2  C   UNL     1     -30.611 -21.344  13.091  1.00  0.00     0.038 C 
ATOM      3  O   UNL     1     -30.246 -20.175  13.382  1.00  0.00    -0.550 OA
ATOM      4  O   UNL     1     -30.638 -21.746  11.761  1.00  0.00    -0.550 OA
ENDROOT
TORSDOF 0
ENDMDL
MODEL 7
REMARK VINA RESULT:    -1.870     15.367     15.595
REMARK INTER + INTRA:          -1.870
REMARK INTER:                  -1.870
REMARK INTRA:                   0.000
REMARK UNBOUND:                 0.000
REMARK SMILES CC(=O)[O-]
REMARK SMILES IDX 1 1 2 2 3 3 4 4
REMARK H PARENT
REMARK Flexibility Score: inf
ROOT
ATOM      1  C   UNL     1     -30.688 -21.535  12.274  1.00  0.00     0.063 C 
ATOM      2  C   UNL     1     -30.601 -20.729  13.525  1.00  0.00     0.038 C 
ATOM      3  O   UNL     1     -31.124 -21.155  14.588  1.00  0.00    -0.550 OA
ATOM      4  O   UNL     1     -29.991 -19.481  13.510  1.00  0.00    -0.550 OA
ENDROOT
TORSDOF 0
ENDMDL
MODEL 8
REMARK VINA RESULT:    -1.862     16.202     16.581
REMARK INTER + INTRA:          -1.862
REMARK INTER:                  -1.862
REMARK INTRA:                   0.000
REMARK UNBOUND:                 0.000
REMARK SMILES CC(=O)[O-]
REMARK SMILES IDX 1 1 2 2 3 3 4 4
REMARK H PARENT
REMARK Flexibility Score: inf
ROOT
ATOM      1  C   UNL     1     -30.075 -17.112  13.547  1.00  0.00     0.063 C 
ATOM      2  C   UNL     1     -30.380 -18.460  14.109  1.00  0.00     0.038 C 
ATOM      3  O   UNL     1     -30.006 -19.497  13.500  1.00  0.00    -0.550 OA
ATOM      4  O   UNL     1     -31.125 -18.576  15.275  1.00  0.00    -0.550 OA
ENDROOT
TORSDOF 0
ENDMDL
MODEL 9
REMARK VINA RESULT:    -1.809     17.227     17.569
REMARK INTER + INTRA:          -1.809
REMARK INTER:                  -1.809
REMARK INTRA:                   0.000
REMARK UNBOUND:                 0.000
REMARK SMILES CC(=O)[O-]
REMARK SMILES IDX 1 1 2 2 3 3 4 4
REMARK H PARENT
REMARK Flexibility Score: inf
ROOT
ATOM      1  C   UNL     1     -30.421 -15.145  13.932  1.00  0.00     0.063 C 
ATOM      2  C   UNL     1     -30.376 -16.429  13.176  1.00  0.00     0.038 C 
ATOM      3  O   UNL     1     -30.770 -16.472  11.981  1.00  0.00    -0.550 OA
ATOM      4  O   UNL     1     -29.952 -17.593  13.804  1.00  0.00    -0.550 OA
ENDROOT
TORSDOF 0
ENDMDL
