MODEL 1
REMARK VINA RESULT:    -4.136      0.000      0.000
REMARK INTER + INTRA:          -5.773
REMARK INTER:                  -5.587
REMARK INTRA:                  -0.186
REMARK UNBOUND:                -0.186
REMARK SMILES CCCCCCCC(=O)[O-]
REMARK SMILES IDX 5 1 6 2 7 3 8 4 9 5 10 6 4 7 3 8 2 9 1 10
REMARK H PARENT
REMARK Flexibility Score: inf
ROOT
ATOM      1  C   UNL     1      32.460   5.907  47.982  1.00  0.00     0.000 C 
ENDROOT
BRANCH   1   2
ATOM      2  C   UNL     1      33.676   6.603  47.359  1.00  0.00     0.006 C 
BRANCH   2   3
ATOM      3  C   UNL     1      34.022   5.991  45.998  1.00  0.00     0.053 C 
BRANCH   3   4
ATOM      4  C   UNL     1      34.996   4.867  46.162  1.00  0.00     0.041 C 
ATOM      5  O   UNL     1      35.210   4.071  45.211  1.00  0.00    -0.550 OA
ATOM      6  O   UNL     1      35.633   4.670  47.380  1.00  0.00    -0.550 OA
ENDBRANCH   3   4
ENDBRANCH   2   3
ENDBRANCH   1   2
BRANCH   1   7
ATOM      7  C   UNL     1      31.169   6.292  47.248  1.00  0.00     0.000 C 
BRANCH   7   8
ATOM      8  C   UNL     1      30.119   6.830  48.229  1.00  0.00    -0.000 C 
BRANCH   8   9
ATOM      9  C   UNL     1      29.101   5.760  48.652  1.00  0.00    -0.003 C 
ATOM     10  C   UNL     1      28.055   5.479  47.572  1.00  0.00     0.004 C 
ENDBRANCH   8   9
ENDBRANCH   7   8
ENDBRANCH   1   7
TORSDOF 6
ENDMDL
MODEL 2
REMARK VINA RESULT:    -4.070      1.624      1.944
REMARK INTER + INTRA:          -5.684
REMARK INTER:                  -5.383
REMARK INTRA:                  -0.301
REMARK UNBOUND:                -0.186
REMARK SMILES CCCCCCCC(=O)[O-]
REMARK SMILES IDX 5 1 6 2 7 3 8 4 9 5 10 6 4 7 3 8 2 9 1 10
REMARK H PARENT
REMARK Flexibility Score: inf
ROOT
ATOM      1  C   UNL     1      31.676   5.901  47.702  1.00  0.00     0.000 C 
ENDROOT
BRANCH   1   2
ATOM      2  C   UNL     1      33.191   6.073  47.537  1.00  0.00     0.006 C 
BRANCH   2   3
ATOM      3  C   UNL     1      33.516   7.354  46.763  1.00  0.00     0.053 C 
BRANCH   3   4
ATOM      4  C   UNL     1      34.001   7.024  45.386  1.00  0.00     0.041 C 
ATOM      5  O   UNL     1      34.140   5.823  45.035  1.00  0.00    -0.550 OA
ATOM      6  O   UNL     1      34.346   8.042  44.507  1.00  0.00    -0.550 OA
ENDBRANCH   3   4
ENDBRANCH   2   3
ENDBRANCH   1   2
BRANCH   1   7
ATOM      7  C   UNL     1      31.000   7.243  48.012  1.00  0.00     0.000 C 
BRANCH   7   8
ATOM      8  C   UNL     1      29.628   7.028  48.668  1.00  0.00    -0.000 C 
BRANCH   8   9
ATOM      9  C   UNL     1      29.092   5.602  48.464  1.00  0.00    -0.003 C 
ATOM     10  C   UNL     1      27.983   5.532  47.414  1.00  0.00     0.004 C 
ENDBRANCH   8   9
ENDBRANCH   7   8
ENDBRANCH   1   7
TORSDOF 6
ENDMDL
MODEL 3
REMARK VINA RESULT:    -4.000      1.051      1.358
REMARK INTER + INTRA:          -5.589
REMARK INTER:                  -5.338
REMARK INTRA:                  -0.251
REMARK UNBOUND:                -0.186
REMARK SMILES CCCCCCCC(=O)[O-]
REMARK SMILES IDX 5 1 6 2 7 3 8 4 9 5 10 6 4 7 3 8 2 9 1 10
REMARK H PARENT
REMARK Flexibility Score: inf
ROOT
ATOM      1  C   UNL     1      31.661   6.460  47.600  1.00  0.00     0.000 C 
ENDROOT
BRANCH   1   2
ATOM      2  C   UNL     1      33.130   6.843  47.390  1.00  0.00     0.006 C 
BRANCH   2   3
ATOM      3  C   UNL     1      34.001   5.597  47.202  1.00  0.00     0.053 C 
BRANCH   3   4
ATOM      4  C   UNL     1      34.434   5.471  45.775  1.00  0.00     0.041 C 
ATOM      5  O   UNL     1      34.100   6.345  44.933  1.00  0.00    -0.550 OA
ATOM      6  O   UNL     1      35.166   4.365  45.365  1.00  0.00    -0.550 OA
ENDBRANCH   3   4
ENDBRANCH   2   3
ENDBRANCH   1   2
BRANCH   1   7
ATOM      7  C   UNL     1      30.884   7.603  48.266  1.00  0.00     0.000 C 
BRANCH   7   8
ATOM      8  C   UNL     1      29.564   7.095  48.863  1.00  0.00    -0.000 C 
BRANCH   8   9
ATOM      9  C   UNL     1      29.233   5.658  48.430  1.00  0.00    -0.003 C 
ATOM     10  C   UNL     1      28.023   5.586  47.497  1.00  0.00     0.004 C 
ENDBRANCH   8   9
ENDBRANCH   7   8
ENDBRANCH   1   7
TORSDOF 6
ENDMDL
MODEL 4
REMARK VINA RESULT:    -3.803     16.622     17.648
REMARK INTER + INTRA:          -5.323
REMARK INTER:                  -4.868
REMARK INTRA:                  -0.455
REMARK UNBOUND:                -0.186
REMARK SMILES CCCCCCCC(=O)[O-]
REMARK SMILES IDX 5 1 6 2 7 3 8 4 9 5 10 6 4 7 3 8 2 9 1 10
REMARK H PARENT
REMARK Flexibility Score: inf
ROOT
ATOM      1  C   UNL     1      22.181  10.310  35.587  1.00  0.00     0.000 C 
ENDROOT
BRANCH   1   2
ATOM      2  C   UNL     1      20.873   9.782  34.987  1.00  0.00     0.006 C 
BRANCH   2   3
ATOM      3  C   UNL     1      19.939   9.258  36.083  1.00  0.00     0.053 C 
BRANCH   3   4
ATOM      4  C   UNL     1      19.780   7.775  35.970  1.00  0.00     0.041 C 
ATOM      5  O   UNL     1      19.039   7.154  36.777  1.00  0.00    -0.550 OA
ATOM      6  O   UNL     1      20.488   7.070  35.006  1.00  0.00    -0.550 OA
ENDBRANCH   3   4
ENDBRANCH   2   3
ENDBRANCH   1   2
BRANCH   1   7
ATOM      7  C   UNL     1      22.201  11.844  35.599  1.00  0.00     0.000 C 
BRANCH   7   8
ATOM      8  C   UNL     1      21.133  12.415  34.655  1.00  0.00    -0.000 C 
BRANCH   8   9
ATOM      9  C   UNL     1      20.261  13.485  35.329  1.00  0.00    -0.003 C 
ATOM     10  C   UNL     1      19.049  12.893  36.050  1.00  0.00     0.004 C 
ENDBRANCH   8   9
ENDBRANCH   7   8
ENDBRANCH   1   7
TORSDOF 6
ENDMDL
MODEL 5
REMARK VINA RESULT:    -3.777      3.328      4.111
REMARK INTER + INTRA:          -5.288
REMARK INTER:                  -4.978
REMARK INTRA:                  -0.310
REMARK UNBOUND:                -0.186
REMARK SMILES CCCCCCCC(=O)[O-]
REMARK SMILES IDX 5 1 6 2 7 3 8 4 9 5 10 6 4 7 3 8 2 9 1 10
REMARK H PARENT
REMARK Flexibility Score: inf
ROOT
ATOM      1  C   UNL     1      33.940   6.137  45.493  1.00  0.00     0.000 C 
ENDROOT
BRANCH   1   2
ATOM      2  C   UNL     1      34.077   7.419  44.664  1.00  0.00     0.006 C 
BRANCH   2   3
ATOM      3  C   UNL     1      34.142   8.654  45.569  1.00  0.00     0.053 C 
BRANCH   3   4
ATOM      4  C   UNL     1      34.546   9.860  44.781  1.00  0.00     0.041 C 
ATOM      5  O   UNL     1      35.321  10.715  45.284  1.00  0.00    -0.550 OA
ATOM      6  O   UNL     1      34.028  10.065  43.508  1.00  0.00    -0.550 OA
ENDBRANCH   3   4
ENDBRANCH   2   3
ENDBRANCH   1   2
BRANCH   1   7
ATOM      7  C   UNL     1      33.832   6.458  46.989  1.00  0.00     0.000 C 
BRANCH   7   8
ATOM      8  C   UNL     1      32.658   5.703  47.630  1.00  0.00    -0.000 C 
BRANCH   8   9
ATOM      9  C   UNL     1      31.296   6.316  47.270  1.00  0.00    -0.003 C 
ATOM     10  C   UNL     1      30.175   5.857  48.205  1.00  0.00     0.004 C 
ENDBRANCH   8   9
ENDBRANCH   7   8
ENDBRANCH   1   7
TORSDOF 6
ENDMDL
MODEL 6
REMARK VINA RESULT:    -3.741     16.554     17.123
REMARK INTER + INTRA:          -5.239
REMARK INTER:                  -4.942
REMARK INTRA:                  -0.298
REMARK UNBOUND:                -0.186
REMARK SMILES CCCCCCCC(=O)[O-]
REMARK SMILES IDX 5 1 6 2 7 3 8 4 9 5 10 6 4 7 3 8 2 9 1 10
REMARK H PARENT
REMARK Flexibility Score: inf
ROOT
ATOM      1  C   UNL     1      20.336   9.347  36.002  1.00  0.00     0.000 C 
ENDROOT
BRANCH   1   2
ATOM      2  C   UNL     1      20.153  10.736  35.380  1.00  0.00     0.006 C 
BRANCH   2   3
ATOM      3  C   UNL     1      21.353  11.638  35.686  1.00  0.00     0.053 C 
BRANCH   3   4
ATOM      4  C   UNL     1      22.527  11.251  34.844  1.00  0.00     0.041 C 
ATOM      5  O   UNL     1      22.481  11.385  33.593  1.00  0.00    -0.550 OA
ATOM      6  O   UNL     1      23.655  10.696  35.435  1.00  0.00    -0.550 OA
ENDBRANCH   3   4
ENDBRANCH   2   3
ENDBRANCH   1   2
BRANCH   1   7
ATOM      7  C   UNL     1      20.414   8.264  34.919  1.00  0.00     0.000 C 
BRANCH   7   8
ATOM      8  C   UNL     1      20.283   6.863  35.532  1.00  0.00    -0.000 C 
BRANCH   8   9
ATOM      9  C   UNL     1      19.327   6.831  36.733  1.00  0.00    -0.003 C 
ATOM     10  C   UNL     1      18.112   5.932  36.498  1.00  0.00     0.004 C 
ENDBRANCH   8   9
ENDBRANCH   7   8
ENDBRANCH   1   7
TORSDOF 6
ENDMDL
MODEL 7
REMARK VINA RESULT:    -3.740      2.549      4.468
REMARK INTER + INTRA:          -5.238
REMARK INTER:                  -4.852
REMARK INTRA:                  -0.386
REMARK UNBOUND:                -0.186
REMARK SMILES CCCCCCCC(=O)[O-]
REMARK SMILES IDX 5 1 6 2 7 3 8 4 9 5 10 6 4 7 3 8 2 9 1 10
REMARK H PARENT
REMARK Flexibility Score: inf
ROOT
ATOM      1  C   UNL     1      33.377   7.720  47.348  1.00  0.00     0.000 C 
ENDROOT
BRANCH   1   2
ATOM      2  C   UNL     1      32.952   6.402  46.690  1.00  0.00     0.006 C 
BRANCH   2   3
ATOM      3  C   UNL     1      33.451   5.199  47.497  1.00  0.00     0.053 C 
BRANCH   3   4
ATOM      4  C   UNL     1      34.836   4.823  47.073  1.00  0.00     0.041 C 
ATOM      5  O   UNL     1      35.770   4.793  47.917  1.00  0.00    -0.550 OA
ATOM      6  O   UNL     1      35.105   4.553  45.738  1.00  0.00    -0.550 OA
ENDBRANCH   3   4
ENDBRANCH   2   3
ENDBRANCH   1   2
BRANCH   1   7
ATOM      7  C   UNL     1      34.000   8.673  46.320  1.00  0.00     0.000 C 
BRANCH   7   8
ATOM      8  C   UNL     1      34.178   7.976  44.963  1.00  0.00    -0.000 C 
BRANCH   8   9
ATOM      9  C   UNL     1      34.712   8.924  43.878  1.00  0.00    -0.003 C 
ATOM     10  C   UNL     1      33.957  10.253  43.830  1.00  0.00     0.004 C 
ENDBRANCH   8   9
ENDBRANCH   7   8
ENDBRANCH   1   7
TORSDOF 6
ENDMDL
MODEL 8
REMARK VINA RESULT:    -3.725     16.956     17.587
REMARK INTER + INTRA:          -5.217
REMARK INTER:                  -4.947
REMARK INTRA:                  -0.270
REMARK UNBOUND:                -0.186
REMARK SMILES CCCCCCCC(=O)[O-]
REMARK SMILES IDX 5 1 6 2 7 3 8 4 9 5 10 6 4 7 3 8 2 9 1 10
REMARK H PARENT
REMARK Flexibility Score: inf
ROOT
ATOM      1  C   UNL     1      20.731   9.684  35.764  1.00  0.00     0.000 C 
ENDROOT
BRANCH   1   2
ATOM      2  C   UNL     1      22.098  10.350  35.564  1.00  0.00     0.006 C 
BRANCH   2   3
ATOM      3  C   UNL     1      21.968  11.876  35.548  1.00  0.00     0.053 C 
BRANCH   3   4
ATOM      4  C   UNL     1      21.691  12.363  34.160  1.00  0.00     0.041 C 
ATOM      5  O   UNL     1      21.101  13.461  33.981  1.00  0.00    -0.550 OA
ATOM      6  O   UNL     1      22.038  11.582  33.066  1.00  0.00    -0.550 OA
ENDBRANCH   3   4
ENDBRANCH   2   3
ENDBRANCH   1   2
BRANCH   1   7
ATOM      7  C   UNL     1      20.463   8.637  34.675  1.00  0.00     0.000 C 
BRANCH   7   8
ATOM      8  C   UNL     1      20.314   7.236  35.285  1.00  0.00    -0.000 C 
BRANCH   8   9
ATOM      9  C   UNL     1      19.437   7.231  36.546  1.00  0.00    -0.003 C 
ATOM     10  C   UNL     1      18.752   5.884  36.784  1.00  0.00     0.004 C 
ENDBRANCH   8   9
ENDBRANCH   7   8
ENDBRANCH   1   7
TORSDOF 6
ENDMDL
MODEL 9
REMARK VINA RESULT:    -3.710      3.607      5.478
REMARK INTER + INTRA:          -5.198
REMARK INTER:                  -4.953
REMARK INTRA:                  -0.245
REMARK UNBOUND:                -0.186
REMARK SMILES CCCCCCCC(=O)[O-]
REMARK SMILES IDX 5 1 6 2 7 3 8 4 9 5 10 6 4 7 3 8 2 9 1 10
REMARK H PARENT
REMARK Flexibility Score: inf
ROOT
ATOM      1  C   UNL     1      33.777   6.336  45.917  1.00  0.00     0.000 C 
ENDROOT
BRANCH   1   2
ATOM      2  C   UNL     1      32.930   6.763  47.121  1.00  0.00     0.006 C 
BRANCH   2   3
ATOM      3  C   UNL     1      31.544   6.112  47.077  1.00  0.00     0.053 C 
BRANCH   3   4
ATOM      4  C   UNL     1      30.571   6.894  47.901  1.00  0.00     0.041 C 
ATOM      5  O   UNL     1      29.442   6.410  48.178  1.00  0.00    -0.550 OA
ATOM      6  O   UNL     1      30.891   8.178  48.323  1.00  0.00    -0.550 OA
ENDBRANCH   3   4
ENDBRANCH   2   3
ENDBRANCH   1   2
BRANCH   1   7
ATOM      7  C   UNL     1      33.981   7.505  44.945  1.00  0.00     0.000 C 
BRANCH   7   8
ATOM      8  C   UNL     1      34.197   8.821  45.706  1.00  0.00    -0.000 C 
BRANCH   8   9
ATOM      9  C   UNL     1      34.598   9.979  44.780  1.00  0.00    -0.003 C 
ATOM     10  C   UNL     1      33.924   9.901  43.410  1.00  0.00     0.004 C 
ENDBRANCH   8   9
ENDBRANCH   7   8
ENDBRANCH   1   7
TORSDOF 6
ENDMDL
