MODEL 1
REMARK VINA RESULT:    -4.775      0.000      0.000
REMARK INTER + INTRA:         -10.537
REMARK INTER:                  -8.684
REMARK INTRA:                  -1.853
REMARK UNBOUND:                -1.853
REMARK SMILES CCCCCCCCCCCCCC[C@@H](C)C(=O)[O-]
REMARK SMILES IDX 9 1 10 2 11 3 12 4 13 5 14 6 15 7 16 8 17 9 18 10 19 11 8 12
REMARK SMILES IDX 7 13 6 14 5 15 4 16 3 17 2 18 1 19
REMARK H PARENT
REMARK Flexibility Score: inf
ROOT
ATOM      1  C   UNL     1       5.809  -1.428  17.346  1.00  0.00     0.000 C 
ENDROOT
BRANCH   1   2
ATOM      2  C   UNL     1       5.879  -1.650  15.822  1.00  0.00     0.000 C 
BRANCH   2   3
ATOM      3  C   UNL     1       6.241  -0.404  14.989  1.00  0.00     0.000 C 
BRANCH   3   4
ATOM      4  C   UNL     1       5.744  -0.442  13.531  1.00  0.00     0.000 C 
BRANCH   4   5
ATOM      5  C   UNL     1       4.333  -1.059  13.377  1.00  0.00     0.001 C 
BRANCH   5   6
ATOM      6  C   UNL     1       3.205  -0.122  13.850  1.00  0.00     0.009 C 
BRANCH   6   7
ATOM      7  C   UNL     1       2.005  -0.867  14.479  1.00  0.00     0.032 C 
ATOM      8  C   UNL     1       2.491  -1.912  15.487  1.00  0.00     0.014 C 
BRANCH   7   9
ATOM      9  C   UNL     1       1.049   0.081  15.155  1.00  0.00     0.044 C 
ATOM     10  O   UNL     1      -0.124   0.229  14.717  1.00  0.00    -0.550 OA
ATOM     11  O   UNL     1       1.469   0.826  16.249  1.00  0.00    -0.550 OA
ENDBRANCH   7   9
ENDBRANCH   6   7
ENDBRANCH   5   6
ENDBRANCH   4   5
ENDBRANCH   3   4
ENDBRANCH   2   3
ENDBRANCH   1   2
BRANCH   1  12
ATOM     12  C   UNL     1       5.985   0.044  17.774  1.00  0.00     0.000 C 
BRANCH  12  13
ATOM     13  C   UNL     1       4.741   0.603  18.489  1.00  0.00    -0.000 C 
BRANCH  13  14
ATOM     14  C   UNL     1       4.263   1.936  17.875  1.00  0.00    -0.000 C 
BRANCH  14  15
ATOM     15  C   UNL     1       4.355   1.978  16.337  1.00  0.00    -0.000 C 
BRANCH  15  16
ATOM     16  C   UNL     1       4.525   3.385  15.741  1.00  0.00    -0.000 C 
BRANCH  16  17
ATOM     17  C   UNL     1       3.361   3.781  14.815  1.00  0.00    -0.000 C 
BRANCH  17  18
ATOM     18  C   UNL     1       3.752   3.731  13.329  1.00  0.00    -0.003 C 
ATOM     19  C   UNL     1       5.179   3.223  13.113  1.00  0.00     0.004 C 
ENDBRANCH  17  18
ENDBRANCH  16  17
ENDBRANCH  15  16
ENDBRANCH  14  15
ENDBRANCH  13  14
ENDBRANCH  12  13
ENDBRANCH   1  12
TORSDOF 14
ENDMDL
MODEL 2
REMARK VINA RESULT:    -4.652      1.917      4.525
REMARK INTER + INTRA:         -10.313
REMARK INTER:                  -8.166
REMARK INTRA:                  -2.147
REMARK UNBOUND:                -1.853
REMARK SMILES CCCCCCCCCCCCCC[C@@H](C)C(=O)[O-]
REMARK SMILES IDX 9 1 10 2 11 3 12 4 13 5 14 6 15 7 16 8 17 9 18 10 19 11 8 12
REMARK SMILES IDX 7 13 6 14 5 15 4 16 3 17 2 18 1 19
REMARK H PARENT
REMARK Flexibility Score: inf
ROOT
ATOM      1  C   UNL     1       5.867   1.693  13.028  1.00  0.00     0.000 C 
ENDROOT
BRANCH   1   2
ATOM      2  C   UNL     1       5.728   0.158  13.042  1.00  0.00     0.000 C 
BRANCH   2   3
ATOM      3  C   UNL     1       6.744  -0.589  13.931  1.00  0.00     0.000 C 
BRANCH   3   4
ATOM      4  C   UNL     1       6.229  -1.920  14.512  1.00  0.00     0.000 C 
BRANCH   4   5
ATOM      5  C   UNL     1       6.007  -1.879  16.042  1.00  0.00     0.001 C 
BRANCH   5   6
ATOM      6  C   UNL     1       5.052  -0.756  16.489  1.00  0.00     0.009 C 
BRANCH   6   7
ATOM      7  C   UNL     1       5.704   0.264  17.451  1.00  0.00     0.032 C 
ATOM      8  C   UNL     1       6.036   1.563  16.712  1.00  0.00     0.014 C 
BRANCH   7   9
ATOM      9  C   UNL     1       4.817   0.566  18.631  1.00  0.00     0.044 C 
ATOM     10  O   UNL     1       4.822  -0.184  19.644  1.00  0.00    -0.550 OA
ATOM     11  O   UNL     1       3.962   1.660  18.593  1.00  0.00    -0.550 OA
ENDBRANCH   7   9
ENDBRANCH   6   7
ENDBRANCH   5   6
ENDBRANCH   4   5
ENDBRANCH   3   4
ENDBRANCH   2   3
ENDBRANCH   1   2
BRANCH   1  12
ATOM     12  C   UNL     1       4.526   2.443  12.876  1.00  0.00     0.000 C 
BRANCH  12  13
ATOM     13  C   UNL     1       4.220   3.353  14.080  1.00  0.00    -0.000 C 
BRANCH  13  14
ATOM     14  C   UNL     1       2.896   2.974  14.777  1.00  0.00    -0.000 C 
BRANCH  14  15
ATOM     15  C   UNL     1       2.835   1.504  15.236  1.00  0.00    -0.000 C 
BRANCH  15  16
ATOM     16  C   UNL     1       2.015   0.578  14.322  1.00  0.00    -0.000 C 
BRANCH  16  17
ATOM     17  C   UNL     1       1.190  -0.455  15.111  1.00  0.00    -0.000 C 
BRANCH  17  18
ATOM     18  C   UNL     1       1.727  -1.885  14.943  1.00  0.00    -0.003 C 
ATOM     19  C   UNL     1       2.841  -1.976  13.899  1.00  0.00     0.004 C 
ENDBRANCH  17  18
ENDBRANCH  16  17
ENDBRANCH  15  16
ENDBRANCH  14  15
ENDBRANCH  13  14
ENDBRANCH  12  13
ENDBRANCH   1  12
TORSDOF 14
ENDMDL
MODEL 3
REMARK VINA RESULT:    -4.651      1.120      2.939
REMARK INTER + INTRA:         -10.310
REMARK INTER:                  -8.330
REMARK INTRA:                  -1.980
REMARK UNBOUND:                -1.853
REMARK SMILES CCCCCCCCCCCCCC[C@@H](C)C(=O)[O-]
REMARK SMILES IDX 9 1 10 2 11 3 12 4 13 5 14 6 15 7 16 8 17 9 18 10 19 11 8 12
REMARK SMILES IDX 7 13 6 14 5 15 4 16 3 17 2 18 1 19
REMARK H PARENT
REMARK Flexibility Score: inf
ROOT
ATOM      1  C   UNL     1       4.387   1.245  18.694  1.00  0.00     0.000 C 
ENDROOT
BRANCH   1   2
ATOM      2  C   UNL     1       5.741   0.595  18.347  1.00  0.00     0.000 C 
BRANCH   2   3
ATOM      3  C   UNL     1       5.952  -0.829  18.902  1.00  0.00     0.000 C 
BRANCH   3   4
ATOM      4  C   UNL     1       5.670  -1.958  17.891  1.00  0.00     0.000 C 
BRANCH   4   5
ATOM      5  C   UNL     1       5.247  -1.442  16.495  1.00  0.00     0.001 C 
BRANCH   5   6
ATOM      6  C   UNL     1       3.724  -1.486  16.265  1.00  0.00     0.009 C 
BRANCH   6   7
ATOM      7  C   UNL     1       3.267  -0.728  14.998  1.00  0.00     0.032 C 
ATOM      8  C   UNL     1       3.478  -1.591  13.751  1.00  0.00     0.014 C 
BRANCH   7   9
ATOM      9  C   UNL     1       1.824  -0.309  15.085  1.00  0.00     0.044 C 
ATOM     10  O   UNL     1       1.499   0.753  15.683  1.00  0.00    -0.550 OA
ATOM     11  O   UNL     1       0.834  -1.113  14.535  1.00  0.00    -0.550 OA
ENDBRANCH   7   9
ENDBRANCH   6   7
ENDBRANCH   5   6
ENDBRANCH   4   5
ENDBRANCH   3   4
ENDBRANCH   2   3
ENDBRANCH   1   2
BRANCH   1  12
ATOM     12  C   UNL     1       3.773   2.068  17.542  1.00  0.00     0.000 C 
BRANCH  12  13
ATOM     13  C   UNL     1       4.739   2.230  16.354  1.00  0.00    -0.000 C 
BRANCH  13  14
ATOM     14  C   UNL     1       4.581   3.598  15.657  1.00  0.00    -0.000 C 
BRANCH  14  15
ATOM     15  C   UNL     1       3.668   3.560  14.416  1.00  0.00    -0.000 C 
BRANCH  15  16
ATOM     16  C   UNL     1       4.396   3.275  13.091  1.00  0.00    -0.000 C 
BRANCH  16  17
ATOM     17  C   UNL     1       4.679   1.777  12.880  1.00  0.00    -0.000 C 
BRANCH  17  18
ATOM     18  C   UNL     1       6.183   1.460  12.875  1.00  0.00    -0.003 C 
ATOM     19  C   UNL     1       6.603   0.581  14.054  1.00  0.00     0.004 C 
ENDBRANCH  17  18
ENDBRANCH  16  17
ENDBRANCH  15  16
ENDBRANCH  14  15
ENDBRANCH  13  14
ENDBRANCH  12  13
ENDBRANCH   1  12
TORSDOF 14
ENDMDL
MODEL 4
REMARK VINA RESULT:    -4.520      2.210      5.354
REMARK INTER + INTRA:         -10.072
REMARK INTER:                  -8.048
REMARK INTRA:                  -2.025
REMARK UNBOUND:                -1.853
REMARK SMILES CCCCCCCCCCCCCC[C@@H](C)C(=O)[O-]
REMARK SMILES IDX 9 1 10 2 11 3 12 4 13 5 14 6 15 7 16 8 17 9 18 10 19 11 8 12
REMARK SMILES IDX 7 13 6 14 5 15 4 16 3 17 2 18 1 19
REMARK H PARENT
REMARK Flexibility Score: inf
ROOT
ATOM      1  C   UNL     1       4.119   3.705  14.148  1.00  0.00     0.000 C 
ENDROOT
BRANCH   1   2
ATOM      2  C   UNL     1       2.866   2.930  14.601  1.00  0.00     0.000 C 
BRANCH   2   3
ATOM      3  C   UNL     1       3.035   2.093  15.886  1.00  0.00     0.000 C 
BRANCH   3   4
ATOM      4  C   UNL     1       4.363   2.327  16.632  1.00  0.00     0.000 C 
BRANCH   4   5
ATOM      5  C   UNL     1       5.252   1.064  16.718  1.00  0.00     0.001 C 
BRANCH   5   6
ATOM      6  C   UNL     1       4.447  -0.232  16.936  1.00  0.00     0.009 C 
BRANCH   6   7
ATOM      7  C   UNL     1       5.035  -1.148  18.034  1.00  0.00     0.032 C 
ATOM      8  C   UNL     1       6.326  -1.811  17.545  1.00  0.00     0.014 C 
BRANCH   7   9
ATOM      9  C   UNL     1       5.305  -0.393  19.308  1.00  0.00     0.044 C 
ATOM     10  O   UNL     1       4.513   0.506  19.701  1.00  0.00    -0.550 OA
ATOM     11  O   UNL     1       6.452  -0.662  20.044  1.00  0.00    -0.550 OA
ENDBRANCH   7   9
ENDBRANCH   6   7
ENDBRANCH   5   6
ENDBRANCH   4   5
ENDBRANCH   3   4
ENDBRANCH   2   3
ENDBRANCH   1   2
BRANCH   1  12
ATOM     12  C   UNL     1       4.798   3.119  12.892  1.00  0.00     0.000 C 
BRANCH  12  13
ATOM     13  C   UNL     1       4.777   1.579  12.875  1.00  0.00    -0.000 C 
BRANCH  13  14
ATOM     14  C   UNL     1       6.192   0.974  12.988  1.00  0.00    -0.000 C 
BRANCH  14  15
ATOM     15  C   UNL     1       6.228  -0.389  13.706  1.00  0.00    -0.000 C 
BRANCH  15  16
ATOM     16  C   UNL     1       5.425  -1.503  13.011  1.00  0.00    -0.000 C 
BRANCH  16  17
ATOM     17  C   UNL     1       4.353  -2.120  13.927  1.00  0.00    -0.000 C 
BRANCH  17  18
ATOM     18  C   UNL     1       3.089  -1.250  14.018  1.00  0.00    -0.003 C 
ATOM     19  C   UNL     1       2.016  -1.864  14.918  1.00  0.00     0.004 C 
ENDBRANCH  17  18
ENDBRANCH  16  17
ENDBRANCH  15  16
ENDBRANCH  14  15
ENDBRANCH  13  14
ENDBRANCH  12  13
ENDBRANCH   1  12
TORSDOF 14
ENDMDL
MODEL 5
REMARK VINA RESULT:    -4.356      1.399      4.244
REMARK INTER + INTRA:          -9.775
REMARK INTER:                  -7.722
REMARK INTRA:                  -2.053
REMARK UNBOUND:                -1.853
REMARK SMILES CCCCCCCCCCCCCC[C@@H](C)C(=O)[O-]
REMARK SMILES IDX 9 1 10 2 11 3 12 4 13 5 14 6 15 7 16 8 17 9 18 10 19 11 8 12
REMARK SMILES IDX 7 13 6 14 5 15 4 16 3 17 2 18 1 19
REMARK H PARENT
REMARK Flexibility Score: inf
ROOT
ATOM      1  C   UNL     1       3.705   3.768  15.103  1.00  0.00     0.000 C 
ENDROOT
BRANCH   1   2
ATOM      2  C   UNL     1       4.611   3.848  13.859  1.00  0.00     0.000 C 
BRANCH   2   3
ATOM      3  C   UNL     1       4.641   2.580  12.981  1.00  0.00     0.000 C 
BRANCH   3   4
ATOM      4  C   UNL     1       5.765   1.585  13.331  1.00  0.00     0.000 C 
BRANCH   4   5
ATOM      5  C   UNL     1       5.455   0.131  12.904  1.00  0.00     0.001 C 
BRANCH   5   6
ATOM      6  C   UNL     1       3.965  -0.238  13.038  1.00  0.00     0.009 C 
BRANCH   6   7
ATOM      7  C   UNL     1       3.721  -1.553  13.812  1.00  0.00     0.032 C 
ATOM      8  C   UNL     1       4.903  -1.860  14.736  1.00  0.00     0.014 C 
BRANCH   7   9
ATOM      9  C   UNL     1       2.450  -1.501  14.618  1.00  0.00     0.044 C 
ATOM     10  O   UNL     1       1.387  -1.049  14.111  1.00  0.00    -0.550 OA
ATOM     11  O   UNL     1       2.450  -1.923  15.941  1.00  0.00    -0.550 OA
ENDBRANCH   7   9
ENDBRANCH   6   7
ENDBRANCH   5   6
ENDBRANCH   4   5
ENDBRANCH   3   4
ENDBRANCH   2   3
ENDBRANCH   1   2
BRANCH   1  12
ATOM     12  C   UNL     1       2.652   2.642  15.041  1.00  0.00     0.000 C 
BRANCH  12  13
ATOM     13  C   UNL     1       2.858   1.581  16.138  1.00  0.00    -0.000 C 
BRANCH  13  14
ATOM     14  C   UNL     1       4.261   1.665  16.776  1.00  0.00    -0.000 C 
BRANCH  14  15
ATOM     15  C   UNL     1       4.239   1.735  18.316  1.00  0.00    -0.000 C 
BRANCH  15  16
ATOM     16  C   UNL     1       4.763   0.474  19.024  1.00  0.00    -0.000 C 
BRANCH  16  17
ATOM     17  C   UNL     1       4.957  -0.710  18.060  1.00  0.00    -0.000 C 
BRANCH  17  18
ATOM     18  C   UNL     1       6.099  -1.641  18.498  1.00  0.00    -0.003 C 
ATOM     19  C   UNL     1       6.916  -1.065  19.655  1.00  0.00     0.004 C 
ENDBRANCH  17  18
ENDBRANCH  16  17
ENDBRANCH  15  16
ENDBRANCH  14  15
ENDBRANCH  13  14
ENDBRANCH  12  13
ENDBRANCH   1  12
TORSDOF 14
ENDMDL
MODEL 6
REMARK VINA RESULT:    -4.346      1.315      3.891
REMARK INTER + INTRA:          -9.756
REMARK INTER:                  -7.647
REMARK INTRA:                  -2.109
REMARK UNBOUND:                -1.853
REMARK SMILES CCCCCCCCCCCCCC[C@@H](C)C(=O)[O-]
REMARK SMILES IDX 9 1 10 2 11 3 12 4 13 5 14 6 15 7 16 8 17 9 18 10 19 11 8 12
REMARK SMILES IDX 7 13 6 14 5 15 4 16 3 17 2 18 1 19
REMARK H PARENT
REMARK Flexibility Score: inf
ROOT
ATOM      1  C   UNL     1       4.744   2.853  13.054  1.00  0.00     0.000 C 
ENDROOT
BRANCH   1   2
ATOM      2  C   UNL     1       5.429   1.484  12.875  1.00  0.00     0.000 C 
BRANCH   2   3
ATOM      3  C   UNL     1       6.155   0.941  14.123  1.00  0.00     0.000 C 
BRANCH   3   4
ATOM      4  C   UNL     1       6.621  -0.524  14.005  1.00  0.00     0.000 C 
BRANCH   4   5
ATOM      5  C   UNL     1       5.639  -1.535  14.642  1.00  0.00     0.001 C 
BRANCH   5   6
ATOM      6  C   UNL     1       4.364  -1.755  13.805  1.00  0.00     0.009 C 
BRANCH   6   7
ATOM      7  C   UNL     1       3.078  -1.878  14.655  1.00  0.00     0.032 C 
ATOM      8  C   UNL     1       3.392  -1.658  16.137  1.00  0.00     0.014 C 
BRANCH   7   9
ATOM      9  C   UNL     1       2.019  -0.904  14.212  1.00  0.00     0.044 C 
ATOM     10  O   UNL     1       2.264  -0.056  13.312  1.00  0.00    -0.550 OA
ATOM     11  O   UNL     1       0.770  -0.915  14.820  1.00  0.00    -0.550 OA
ENDBRANCH   7   9
ENDBRANCH   6   7
ENDBRANCH   5   6
ENDBRANCH   4   5
ENDBRANCH   3   4
ENDBRANCH   2   3
ENDBRANCH   1   2
BRANCH   1  12
ATOM     12  C   UNL     1       4.396   3.194  14.519  1.00  0.00     0.000 C 
BRANCH  12  13
ATOM     13  C   UNL     1       3.053   2.584  14.962  1.00  0.00    -0.000 C 
BRANCH  13  14
ATOM     14  C   UNL     1       3.112   2.026  16.400  1.00  0.00    -0.000 C 
BRANCH  14  15
ATOM     15  C   UNL     1       4.487   2.197  17.076  1.00  0.00    -0.000 C 
BRANCH  15  16
ATOM     16  C   UNL     1       5.140   0.887  17.546  1.00  0.00    -0.000 C 
BRANCH  16  17
ATOM     17  C   UNL     1       4.764   0.522  18.993  1.00  0.00    -0.000 C 
BRANCH  17  18
ATOM     18  C   UNL     1       5.664  -0.581  19.572  1.00  0.00    -0.003 C 
ATOM     19  C   UNL     1       6.168  -1.551  18.503  1.00  0.00     0.004 C 
ENDBRANCH  17  18
ENDBRANCH  16  17
ENDBRANCH  15  16
ENDBRANCH  14  15
ENDBRANCH  13  14
ENDBRANCH  12  13
ENDBRANCH   1  12
TORSDOF 14
ENDMDL
MODEL 7
REMARK VINA RESULT:    -4.200      1.507      4.480
REMARK INTER + INTRA:          -9.491
REMARK INTER:                  -7.293
REMARK INTRA:                  -2.198
REMARK UNBOUND:                -1.853
REMARK SMILES CCCCCCCCCCCCCC[C@@H](C)C(=O)[O-]
REMARK SMILES IDX 9 1 10 2 11 3 12 4 13 5 14 6 15 7 16 8 17 9 18 10 19 11 8 12
REMARK SMILES IDX 7 13 6 14 5 15 4 16 3 17 2 18 1 19
REMARK H PARENT
REMARK Flexibility Score: inf
ROOT
ATOM      1  C   UNL     1       5.103  -1.248  17.950  1.00  0.00     0.000 C 
ENDROOT
BRANCH   1   2
ATOM      2  C   UNL     1       5.433  -0.165  18.996  1.00  0.00     0.000 C 
BRANCH   2   3
ATOM      3  C   UNL     1       4.485   1.051  19.010  1.00  0.00     0.000 C 
BRANCH   3   4
ATOM      4  C   UNL     1       3.907   1.428  17.632  1.00  0.00     0.000 C 
BRANCH   4   5
ATOM      5  C   UNL     1       4.847   2.328  16.796  1.00  0.00     0.001 C 
BRANCH   5   6
ATOM      6  C   UNL     1       4.819   2.003  15.290  1.00  0.00     0.009 C 
BRANCH   6   7
ATOM      7  C   UNL     1       4.671   3.252  14.390  1.00  0.00     0.032 C 
ATOM      8  C   UNL     1       5.224   2.972  12.990  1.00  0.00     0.014 C 
BRANCH   7   9
ATOM      9  C   UNL     1       3.238   3.702  14.287  1.00  0.00     0.044 C 
ATOM     10  O   UNL     1       2.354   3.204  15.036  1.00  0.00    -0.550 OA
ATOM     11  O   UNL     1       2.876   4.650  13.339  1.00  0.00    -0.550 OA
ENDBRANCH   7   9
ENDBRANCH   6   7
ENDBRANCH   5   6
ENDBRANCH   4   5
ENDBRANCH   3   4
ENDBRANCH   2   3
ENDBRANCH   1   2
BRANCH   1  12
ATOM     12  C   UNL     1       6.217  -1.472  16.907  1.00  0.00     0.000 C 
BRANCH  12  13
ATOM     13  C   UNL     1       5.660  -1.848  15.521  1.00  0.00    -0.000 C 
BRANCH  13  14
ATOM     14  C   UNL     1       6.385  -1.105  14.379  1.00  0.00    -0.000 C 
BRANCH  14  15
ATOM     15  C   UNL     1       5.510  -0.888  13.128  1.00  0.00    -0.000 C 
BRANCH  15  16
ATOM     16  C   UNL     1       4.040  -1.310  13.291  1.00  0.00    -0.000 C 
BRANCH  16  17
ATOM     17  C   UNL     1       3.100  -0.112  13.514  1.00  0.00    -0.000 C 
BRANCH  17  18
ATOM     18  C   UNL     1       2.132  -0.336  14.687  1.00  0.00    -0.003 C 
ATOM     19  C   UNL     1       2.038  -1.806  15.098  1.00  0.00     0.004 C 
ENDBRANCH  17  18
ENDBRANCH  16  17
ENDBRANCH  15  16
ENDBRANCH  14  15
ENDBRANCH  13  14
ENDBRANCH  12  13
ENDBRANCH   1  12
TORSDOF 14
ENDMDL
MODEL 8
REMARK VINA RESULT:    -4.182      1.088      3.606
REMARK INTER + INTRA:          -9.457
REMARK INTER:                  -8.027
REMARK INTRA:                  -1.430
REMARK UNBOUND:                -1.853
REMARK SMILES CCCCCCCCCCCCCC[C@@H](C)C(=O)[O-]
REMARK SMILES IDX 9 1 10 2 11 3 12 4 13 5 14 6 15 7 16 8 17 9 18 10 19 11 8 12
REMARK SMILES IDX 7 13 6 14 5 15 4 16 3 17 2 18 1 19
REMARK H PARENT
REMARK Flexibility Score: inf
ROOT
ATOM      1  C   UNL     1       3.829   1.763  17.523  1.00  0.00     0.000 C 
ENDROOT
BRANCH   1   2
ATOM      2  C   UNL     1       4.788   2.470  16.544  1.00  0.00     0.000 C 
BRANCH   2   3
ATOM      3  C   UNL     1       4.124   3.075  15.290  1.00  0.00     0.000 C 
BRANCH   3   4
ATOM      4  C   UNL     1       4.792   2.680  13.959  1.00  0.00     0.000 C 
BRANCH   4   5
ATOM      5  C   UNL     1       4.100   1.491  13.252  1.00  0.00     0.001 C 
BRANCH   5   6
ATOM      6  C   UNL     1       3.886   0.275  14.175  1.00  0.00     0.009 C 
BRANCH   6   7
ATOM      7  C   UNL     1       2.587  -0.507  13.877  1.00  0.00     0.032 C 
ATOM      8  C   UNL     1       2.755  -1.985  14.239  1.00  0.00     0.014 C 
BRANCH   7   9
ATOM      9  C   UNL     1       1.406   0.064  14.616  1.00  0.00     0.044 C 
ATOM     10  O   UNL     1       1.466   1.216  15.126  1.00  0.00    -0.550 OA
ATOM     11  O   UNL     1       0.252  -0.692  14.770  1.00  0.00    -0.550 OA
ENDBRANCH   7   9
ENDBRANCH   6   7
ENDBRANCH   5   6
ENDBRANCH   4   5
ENDBRANCH   3   4
ENDBRANCH   2   3
ENDBRANCH   1   2
BRANCH   1  12
ATOM     12  C   UNL     1       4.374   1.649  18.962  1.00  0.00     0.000 C 
BRANCH  12  13
ATOM     13  C   UNL     1       4.587   0.187  19.397  1.00  0.00    -0.000 C 
BRANCH  13  14
ATOM     14  C   UNL     1       6.033  -0.292  19.149  1.00  0.00    -0.000 C 
BRANCH  14  15
ATOM     15  C   UNL     1       6.130  -1.504  18.201  1.00  0.00    -0.000 C 
BRANCH  15  16
ATOM     16  C   UNL     1       5.459  -1.304  16.832  1.00  0.00    -0.000 C 
BRANCH  16  17
ATOM     17  C   UNL     1       6.132  -2.125  15.717  1.00  0.00    -0.000 C 
BRANCH  17  18
ATOM     18  C   UNL     1       6.775  -1.235  14.642  1.00  0.00    -0.003 C 
ATOM     19  C   UNL     1       6.685  -1.845  13.242  1.00  0.00     0.004 C 
ENDBRANCH  17  18
ENDBRANCH  16  17
ENDBRANCH  15  16
ENDBRANCH  14  15
ENDBRANCH  13  14
ENDBRANCH  12  13
ENDBRANCH   1  12
TORSDOF 14
ENDMDL
