MODEL 1
REMARK VINA RESULT:    -4.266      0.000      0.000
REMARK INTER + INTRA:          -4.266
REMARK INTER:                  -4.266
REMARK INTRA:                   0.000
REMARK UNBOUND:                 0.000
REMARK SMILES c1ccc2ccccc2c1
REMARK SMILES IDX 2 1 1 2 10 3 9 4 8 5 7 6 6 7 5 8 4 9 3 10
REMARK H PARENT
REMARK Flexibility Score: inf
ROOT
ATOM      1  C   UNL     1      31.917   7.299  20.944  1.00  0.00     0.001 A 
ATOM      2  C   UNL     1      30.877   7.607  21.825  1.00  0.00     0.001 A 
ATOM      3  C   UNL     1      30.907   8.795  22.562  1.00  0.00     0.009 A 
ATOM      4  C   UNL     1      31.984   9.684  22.421  1.00  0.00    -0.018 A 
ATOM      5  C   UNL     1      32.027  10.880  23.155  1.00  0.00     0.009 A 
ATOM      6  C   UNL     1      33.104  11.756  23.004  1.00  0.00     0.001 A 
ATOM      7  C   UNL     1      34.145  11.449  22.123  1.00  0.00     0.001 A 
ATOM      8  C   UNL     1      34.115  10.261  21.386  1.00  0.00     0.009 A 
ATOM      9  C   UNL     1      33.038   9.372  21.527  1.00  0.00    -0.018 A 
ATOM     10  C   UNL     1      32.995   8.176  20.793  1.00  0.00     0.009 A 
ENDROOT
TORSDOF 0
ENDMDL
MODEL 2
REMARK VINA RESULT:    -4.258      0.187      4.017
REMARK INTER + INTRA:          -4.258
REMARK INTER:                  -4.258
REMARK INTRA:                   0.000
REMARK UNBOUND:                 0.000
REMARK SMILES c1ccc2ccccc2c1
REMARK SMILES IDX 2 1 1 2 10 3 9 4 8 5 7 6 6 7 5 8 4 9 3 10
REMARK H PARENT
REMARK Flexibility Score: inf
ROOT
ATOM      1  C   UNL     1      32.970  11.753  23.225  1.00  0.00     0.001 A 
ATOM      2  C   UNL     1      34.080  11.493  22.416  1.00  0.00     0.001 A 
ATOM      3  C   UNL     1      34.131  10.328  21.645  1.00  0.00     0.009 A 
ATOM      4  C   UNL     1      33.068   9.413  21.681  1.00  0.00    -0.018 A 
ATOM      5  C   UNL     1      33.107   8.238  20.912  1.00  0.00     0.009 A 
ATOM      6  C   UNL     1      32.040   7.337  20.957  1.00  0.00     0.001 A 
ATOM      7  C   UNL     1      30.930   7.597  21.766  1.00  0.00     0.001 A 
ATOM      8  C   UNL     1      30.879   8.762  22.536  1.00  0.00     0.009 A 
ATOM      9  C   UNL     1      31.943   9.677  22.500  1.00  0.00    -0.018 A 
ATOM     10  C   UNL     1      31.903  10.852  23.269  1.00  0.00     0.009 A 
ENDROOT
TORSDOF 0
ENDMDL
MODEL 3
REMARK VINA RESULT:    -4.254      0.152      2.085
REMARK INTER + INTRA:          -4.254
REMARK INTER:                  -4.254
REMARK INTRA:                   0.000
REMARK UNBOUND:                 0.000
REMARK SMILES c1ccc2ccccc2c1
REMARK SMILES IDX 2 1 1 2 10 3 9 4 8 5 7 6 6 7 5 8 4 9 3 10
REMARK H PARENT
REMARK Flexibility Score: inf
ROOT
ATOM      1  C   UNL     1      30.875   7.603  21.723  1.00  0.00     0.001 A 
ATOM      2  C   UNL     1      31.966   7.282  20.910  1.00  0.00     0.001 A 
ATOM      3  C   UNL     1      33.078   8.127  20.859  1.00  0.00     0.009 A 
ATOM      4  C   UNL     1      33.103   9.304  21.623  1.00  0.00    -0.018 A 
ATOM      5  C   UNL     1      34.213  10.163  21.580  1.00  0.00     0.009 A 
ATOM      6  C   UNL     1      34.226  11.331  22.348  1.00  0.00     0.001 A 
ATOM      7  C   UNL     1      33.135  11.651  23.161  1.00  0.00     0.001 A 
ATOM      8  C   UNL     1      32.023  10.806  23.213  1.00  0.00     0.009 A 
ATOM      9  C   UNL     1      31.998   9.629  22.448  1.00  0.00    -0.018 A 
ATOM     10  C   UNL     1      30.887   8.770  22.491  1.00  0.00     0.009 A 
ENDROOT
TORSDOF 0
ENDMDL
MODEL 4
REMARK VINA RESULT:    -4.222      1.225      1.989
REMARK INTER + INTRA:          -4.222
REMARK INTER:                  -4.222
REMARK INTRA:                   0.000
REMARK UNBOUND:                 0.000
REMARK SMILES c1ccc2ccccc2c1
REMARK SMILES IDX 2 1 1 2 10 3 9 4 8 5 7 6 6 7 5 8 4 9 3 10
REMARK H PARENT
REMARK Flexibility Score: inf
ROOT
ATOM      1  C   UNL     1      31.690   8.782  21.890  1.00  0.00     0.001 A 
ATOM      2  C   UNL     1      31.334   9.650  22.926  1.00  0.00     0.001 A 
ATOM      3  C   UNL     1      32.261  10.572  23.421  1.00  0.00     0.009 A 
ATOM      4  C   UNL     1      33.555  10.630  22.879  1.00  0.00    -0.018 A 
ATOM      5  C   UNL     1      34.496  11.550  23.367  1.00  0.00     0.009 A 
ATOM      6  C   UNL     1      35.779  11.598  22.817  1.00  0.00     0.001 A 
ATOM      7  C   UNL     1      36.135  10.730  21.781  1.00  0.00     0.001 A 
ATOM      8  C   UNL     1      35.208   9.808  21.286  1.00  0.00     0.009 A 
ATOM      9  C   UNL     1      33.915   9.750  21.828  1.00  0.00    -0.018 A 
ATOM     10  C   UNL     1      32.973   8.829  21.340  1.00  0.00     0.009 A 
ENDROOT
TORSDOF 0
ENDMDL
MODEL 5
REMARK VINA RESULT:    -4.221      0.224      3.436
REMARK INTER + INTRA:          -4.221
REMARK INTER:                  -4.221
REMARK INTRA:                   0.000
REMARK UNBOUND:                 0.000
REMARK SMILES c1ccc2ccccc2c1
REMARK SMILES IDX 2 1 1 2 10 3 9 4 8 5 7 6 6 7 5 8 4 9 3 10
REMARK H PARENT
REMARK Flexibility Score: inf
ROOT
ATOM      1  C   UNL     1      34.011  11.527  22.445  1.00  0.00     0.001 A 
ATOM      2  C   UNL     1      32.894  11.748  23.255  1.00  0.00     0.001 A 
ATOM      3  C   UNL     1      31.849  10.820  23.282  1.00  0.00     0.009 A 
ATOM      4  C   UNL     1      31.918   9.660  22.494  1.00  0.00    -0.018 A 
ATOM      5  C   UNL     1      30.875   8.719  22.511  1.00  0.00     0.009 A 
ATOM      6  C   UNL     1      30.958   7.568  21.723  1.00  0.00     0.001 A 
ATOM      7  C   UNL     1      32.075   7.346  20.914  1.00  0.00     0.001 A 
ATOM      8  C   UNL     1      33.120   8.275  20.887  1.00  0.00     0.009 A 
ATOM      9  C   UNL     1      33.051   9.435  21.674  1.00  0.00    -0.018 A 
ATOM     10  C   UNL     1      34.094  10.375  21.657  1.00  0.00     0.009 A 
ENDROOT
TORSDOF 0
ENDMDL
MODEL 6
REMARK VINA RESULT:    -4.219      1.240      2.703
REMARK INTER + INTRA:          -4.219
REMARK INTER:                  -4.219
REMARK INTRA:                   0.000
REMARK UNBOUND:                 0.000
REMARK SMILES c1ccc2ccccc2c1
REMARK SMILES IDX 2 1 1 2 10 3 9 4 8 5 7 6 6 7 5 8 4 9 3 10
REMARK H PARENT
REMARK Flexibility Score: inf
ROOT
ATOM      1  C   UNL     1      31.268   9.665  22.898  1.00  0.00     0.001 A 
ATOM      2  C   UNL     1      31.596   8.773  21.873  1.00  0.00     0.001 A 
ATOM      3  C   UNL     1      32.889   8.756  21.341  1.00  0.00     0.009 A 
ATOM      4  C   UNL     1      33.864   9.638  21.834  1.00  0.00    -0.018 A 
ATOM      5  C   UNL     1      35.166   9.632  21.308  1.00  0.00     0.009 A 
ATOM      6  C   UNL     1      36.127  10.514  21.809  1.00  0.00     0.001 A 
ATOM      7  C   UNL     1      35.799  11.406  22.834  1.00  0.00     0.001 A 
ATOM      8  C   UNL     1      34.507  11.423  23.366  1.00  0.00     0.009 A 
ATOM      9  C   UNL     1      33.531  10.541  22.873  1.00  0.00    -0.018 A 
ATOM     10  C   UNL     1      32.229  10.547  23.399  1.00  0.00     0.009 A 
ENDROOT
TORSDOF 0
ENDMDL
MODEL 7
REMARK VINA RESULT:    -4.198      1.163      3.582
REMARK INTER + INTRA:          -4.198
REMARK INTER:                  -4.198
REMARK INTRA:                   0.000
REMARK UNBOUND:                 0.000
REMARK SMILES c1ccc2ccccc2c1
REMARK SMILES IDX 2 1 1 2 10 3 9 4 8 5 7 6 6 7 5 8 4 9 3 10
REMARK H PARENT
REMARK Flexibility Score: inf
ROOT
ATOM      1  C   UNL     1      35.993  10.919  21.824  1.00  0.00     0.001 A 
ATOM      2  C   UNL     1      35.546  11.739  22.864  1.00  0.00     0.001 A 
ATOM      3  C   UNL     1      34.254  11.585  23.375  1.00  0.00     0.009 A 
ATOM      4  C   UNL     1      33.399  10.606  22.844  1.00  0.00    -0.018 A 
ATOM      5  C   UNL     1      32.098  10.441  23.348  1.00  0.00     0.009 A 
ATOM      6  C   UNL     1      31.259   9.461  22.811  1.00  0.00     0.001 A 
ATOM      7  C   UNL     1      31.707   8.641  21.772  1.00  0.00     0.001 A 
ATOM      8  C   UNL     1      32.999   8.795  21.261  1.00  0.00     0.009 A 
ATOM      9  C   UNL     1      33.853   9.775  21.791  1.00  0.00    -0.018 A 
ATOM     10  C   UNL     1      35.154   9.939  21.288  1.00  0.00     0.009 A 
ENDROOT
TORSDOF 0
ENDMDL
MODEL 8
REMARK VINA RESULT:    -4.159      1.179      3.931
REMARK INTER + INTRA:          -4.159
REMARK INTER:                  -4.159
REMARK INTRA:                   0.000
REMARK UNBOUND:                 0.000
REMARK SMILES c1ccc2ccccc2c1
REMARK SMILES IDX 2 1 1 2 10 3 9 4 8 5 7 6 6 7 5 8 4 9 3 10
REMARK H PARENT
REMARK Flexibility Score: inf
ROOT
ATOM      1  C   UNL     1      35.832  11.375  22.540  1.00  0.00     0.001 A 
ATOM      2  C   UNL     1      36.021  10.485  21.479  1.00  0.00     0.001 A 
ATOM      3  C   UNL     1      34.987   9.631  21.083  1.00  0.00     0.009 A 
ATOM      4  C   UNL     1      33.753   9.664  21.752  1.00  0.00    -0.018 A 
ATOM      5  C   UNL     1      32.706   8.812  21.366  1.00  0.00     0.009 A 
ATOM      6  C   UNL     1      31.483   8.856  22.039  1.00  0.00     0.001 A 
ATOM      7  C   UNL     1      31.294   9.746  23.100  1.00  0.00     0.001 A 
ATOM      8  C   UNL     1      32.328  10.599  23.496  1.00  0.00     0.009 A 
ATOM      9  C   UNL     1      33.562  10.567  22.827  1.00  0.00    -0.018 A 
ATOM     10  C   UNL     1      34.609  11.419  23.213  1.00  0.00     0.009 A 
ENDROOT
TORSDOF 0
ENDMDL
