MODEL 1
REMARK VINA RESULT:    -3.010      0.000      0.000
REMARK INTER + INTRA:          -7.159
REMARK INTER:                  -5.825
REMARK INTRA:                  -1.333
REMARK UNBOUND:                -1.333
REMARK SMILES CCCCCCCCCCCCCCCCCC(=O)[O-]
REMARK SMILES IDX 10 1 11 2 12 3 13 4 14 5 15 6 16 7 17 8 18 9 19 10 20 11
REMARK SMILES IDX 9 12 8 13 7 14 6 15 5 16 4 17 3 18 2 19 1 20
REMARK H PARENT
REMARK Flexibility Score: inf
ROOT
ATOM      1  C   UNL     1       8.954 -33.635  13.892  1.00  0.00     0.000 C 
ENDROOT
BRANCH   1   2
ATOM      2  C   UNL     1       7.790 -32.880  13.226  1.00  0.00     0.000 C 
BRANCH   2   3
ATOM      3  C   UNL     1       6.505 -33.721  13.158  1.00  0.00     0.000 C 
BRANCH   3   4
ATOM      4  C   UNL     1       6.751 -35.209  13.462  1.00  0.00     0.000 C 
BRANCH   4   5
ATOM      5  C   UNL     1       5.875 -35.728  14.613  1.00  0.00     0.000 C 
BRANCH   5   6
ATOM      6  C   UNL     1       6.708 -36.296  15.776  1.00  0.00     0.000 C 
BRANCH   6   7
ATOM      7  C   UNL     1       6.683 -35.389  17.017  1.00  0.00     0.006 C 
BRANCH   7   8
ATOM      8  C   UNL     1       7.954 -34.543  17.154  1.00  0.00     0.053 C 
BRANCH   8   9
ATOM      9  C   UNL     1       7.603 -33.103  17.363  1.00  0.00     0.041 C 
ATOM     10  O   UNL     1       8.190 -32.430  18.250  1.00  0.00    -0.550 OA
ATOM     11  O   UNL     1       6.592 -32.518  16.612  1.00  0.00    -0.550 OA
ENDBRANCH   8   9
ENDBRANCH   7   8
ENDBRANCH   6   7
ENDBRANCH   5   6
ENDBRANCH   4   5
ENDBRANCH   3   4
ENDBRANCH   2   3
ENDBRANCH   1   2
BRANCH   1  12
ATOM     12  C   UNL     1      10.095 -33.959  12.910  1.00  0.00     0.000 C 
BRANCH  12  13
ATOM     13  C   UNL     1      11.446 -33.284  13.226  1.00  0.00    -0.000 C 
BRANCH  13  14
ATOM     14  C   UNL     1      11.361 -31.793  13.602  1.00  0.00    -0.000 C 
BRANCH  14  15
ATOM     15  C   UNL     1      12.417 -31.375  14.635  1.00  0.00    -0.000 C 
BRANCH  15  16
ATOM     16  C   UNL     1      13.614 -30.698  13.952  1.00  0.00    -0.000 C 
BRANCH  16  17
ATOM     17  C   UNL     1      14.926 -30.880  14.734  1.00  0.00    -0.000 C 
BRANCH  17  18
ATOM     18  C   UNL     1      16.081 -31.370  13.843  1.00  0.00    -0.000 C 
BRANCH  18  19
ATOM     19  C   UNL     1      17.201 -32.044  14.652  1.00  0.00    -0.003 C 
ATOM     20  C   UNL     1      18.567 -31.939  13.976  1.00  0.00     0.004 C 
ENDBRANCH  18  19
ENDBRANCH  17  18
ENDBRANCH  16  17
ENDBRANCH  15  16
ENDBRANCH  14  15
ENDBRANCH  13  14
ENDBRANCH  12  13
ENDBRANCH   1  12
TORSDOF 16
ENDMDL
MODEL 2
REMARK VINA RESULT:    -2.969      1.326      2.236
REMARK INTER + INTRA:          -7.080
REMARK INTER:                  -5.608
REMARK INTRA:                  -1.472
REMARK UNBOUND:                -1.333
REMARK SMILES CCCCCCCCCCCCCCCCCC(=O)[O-]
REMARK SMILES IDX 10 1 11 2 12 3 13 4 14 5 15 6 16 7 17 8 18 9 19 10 20 11
REMARK SMILES IDX 9 12 8 13 7 14 6 15 5 16 4 17 3 18 2 19 1 20
REMARK H PARENT
REMARK Flexibility Score: inf
ROOT
ATOM      1  C   UNL     1       8.177 -33.305  13.627  1.00  0.00     0.000 C 
ENDROOT
BRANCH   1   2
ATOM      2  C   UNL     1       6.858 -33.626  14.352  1.00  0.00     0.000 C 
BRANCH   2   3
ATOM      3  C   UNL     1       6.744 -35.110  14.736  1.00  0.00     0.000 C 
BRANCH   3   4
ATOM      4  C   UNL     1       6.434 -35.316  16.229  1.00  0.00     0.000 C 
BRANCH   4   5
ATOM      5  C   UNL     1       7.673 -35.128  17.119  1.00  0.00     0.000 C 
BRANCH   5   6
ATOM      6  C   UNL     1       7.376 -34.284  18.371  1.00  0.00     0.000 C 
BRANCH   6   7
ATOM      7  C   UNL     1       7.518 -32.775  18.114  1.00  0.00     0.006 C 
BRANCH   7   8
ATOM      8  C   UNL     1       8.762 -32.434  17.283  1.00  0.00     0.053 C 
BRANCH   8   9
ATOM      9  C   UNL     1       9.635 -31.470  18.022  1.00  0.00     0.041 C 
ATOM     10  O   UNL     1       9.445 -31.254  19.248  1.00  0.00    -0.550 OA
ATOM     11  O   UNL     1      10.626 -30.770  17.346  1.00  0.00    -0.550 OA
ENDBRANCH   8   9
ENDBRANCH   7   8
ENDBRANCH   6   7
ENDBRANCH   5   6
ENDBRANCH   4   5
ENDBRANCH   3   4
ENDBRANCH   2   3
ENDBRANCH   1   2
BRANCH   1  12
ATOM     12  C   UNL     1       9.346 -34.191  14.093  1.00  0.00     0.000 C 
BRANCH  12  13
ATOM     13  C   UNL     1      10.457 -34.420  13.048  1.00  0.00    -0.000 C 
BRANCH  13  14
ATOM     14  C   UNL     1      11.519 -33.308  12.968  1.00  0.00    -0.000 C 
BRANCH  14  15
ATOM     15  C   UNL     1      11.310 -32.205  14.016  1.00  0.00    -0.000 C 
BRANCH  15  16
ATOM     16  C   UNL     1      12.314 -31.061  13.816  1.00  0.00    -0.000 C 
BRANCH  16  17
ATOM     17  C   UNL     1      13.508 -31.142  14.782  1.00  0.00    -0.000 C 
BRANCH  17  18
ATOM     18  C   UNL     1      14.862 -31.093  14.053  1.00  0.00    -0.000 C 
BRANCH  18  19
ATOM     19  C   UNL     1      16.032 -31.502  14.961  1.00  0.00    -0.003 C 
ATOM     20  C   UNL     1      17.293 -31.865  14.177  1.00  0.00     0.004 C 
ENDBRANCH  18  19
ENDBRANCH  17  18
ENDBRANCH  16  17
ENDBRANCH  15  16
ENDBRANCH  14  15
ENDBRANCH  13  14
ENDBRANCH  12  13
ENDBRANCH   1  12
TORSDOF 16
ENDMDL
MODEL 3
REMARK VINA RESULT:    -2.790      3.339      8.284
REMARK INTER + INTRA:          -6.733
REMARK INTER:                  -4.928
REMARK INTRA:                  -1.804
REMARK UNBOUND:                -1.333
REMARK SMILES CCCCCCCCCCCCCCCCCC(=O)[O-]
REMARK SMILES IDX 10 1 11 2 12 3 13 4 14 5 15 6 16 7 17 8 18 9 19 10 20 11
REMARK SMILES IDX 9 12 8 13 7 14 6 15 5 16 4 17 3 18 2 19 1 20
REMARK H PARENT
REMARK Flexibility Score: inf
ROOT
ATOM      1  C   UNL     1       9.595 -34.647  14.374  1.00  0.00     0.000 C 
ENDROOT
BRANCH   1   2
ATOM      2  C   UNL     1       9.505 -33.111  14.355  1.00  0.00     0.000 C 
BRANCH   2   3
ATOM      3  C   UNL     1      10.391 -32.483  13.267  1.00  0.00     0.000 C 
BRANCH   3   4
ATOM      4  C   UNL     1      11.890 -32.543  13.613  1.00  0.00     0.000 C 
BRANCH   4   5
ATOM      5  C   UNL     1      12.334 -31.380  14.514  1.00  0.00     0.000 C 
BRANCH   5   6
ATOM      6  C   UNL     1      13.564 -30.641  13.958  1.00  0.00     0.000 C 
BRANCH   6   7
ATOM      7  C   UNL     1      14.864 -31.033  14.679  1.00  0.00     0.006 C 
BRANCH   7   8
ATOM      8  C   UNL     1      15.984 -31.417  13.705  1.00  0.00     0.053 C 
BRANCH   8   9
ATOM      9  C   UNL     1      17.172 -31.933  14.455  1.00  0.00     0.041 C 
ATOM     10  O   UNL     1      17.018 -32.544  15.545  1.00  0.00    -0.550 OA
ATOM     11  O   UNL     1      18.454 -31.696  13.975  1.00  0.00    -0.550 OA
ENDBRANCH   8   9
ENDBRANCH   7   8
ENDBRANCH   6   7
ENDBRANCH   5   6
ENDBRANCH   4   5
ENDBRANCH   3   4
ENDBRANCH   2   3
ENDBRANCH   1   2
BRANCH   1  12
ATOM     12  C   UNL     1       8.723 -35.310  13.292  1.00  0.00     0.000 C 
BRANCH  12  13
ATOM     13  C   UNL     1       7.382 -34.604  13.003  1.00  0.00    -0.000 C 
BRANCH  13  14
ATOM     14  C   UNL     1       6.170 -35.162  13.772  1.00  0.00    -0.000 C 
BRANCH  14  15
ATOM     15  C   UNL     1       6.419 -36.565  14.343  1.00  0.00    -0.000 C 
BRANCH  15  16
ATOM     16  C   UNL     1       6.310 -36.561  15.875  1.00  0.00    -0.000 C 
BRANCH  16  17
ATOM     17  C   UNL     1       6.244 -35.141  16.462  1.00  0.00    -0.000 C 
BRANCH  17  18
ATOM     18  C   UNL     1       7.314 -34.899  17.541  1.00  0.00    -0.000 C 
BRANCH  18  19
ATOM     19  C   UNL     1       7.768 -33.432  17.599  1.00  0.00    -0.003 C 
ATOM     20  C   UNL     1       6.810 -32.485  16.878  1.00  0.00     0.004 C 
ENDBRANCH  18  19
ENDBRANCH  17  18
ENDBRANCH  16  17
ENDBRANCH  15  16
ENDBRANCH  14  15
ENDBRANCH  13  14
ENDBRANCH  12  13
ENDBRANCH   1  12
TORSDOF 16
ENDMDL
MODEL 4
REMARK VINA RESULT:    -2.635      8.684     14.088
REMARK INTER + INTRA:          -6.434
REMARK INTER:                  -5.593
REMARK INTRA:                  -0.841
REMARK UNBOUND:                -1.333
REMARK SMILES CCCCCCCCCCCCCCCCCC(=O)[O-]
REMARK SMILES IDX 10 1 11 2 12 3 13 4 14 5 15 6 16 7 17 8 18 9 19 10 20 11
REMARK SMILES IDX 9 12 8 13 7 14 6 15 5 16 4 17 3 18 2 19 1 20
REMARK H PARENT
REMARK Flexibility Score: inf
ROOT
ATOM      1  C   UNL     1      21.236 -27.365  14.059  1.00  0.00     0.000 C 
ENDROOT
BRANCH   1   2
ATOM      2  C   UNL     1      21.320 -25.938  13.490  1.00  0.00     0.000 C 
BRANCH   2   3
ATOM      3  C   UNL     1      19.990 -25.471  12.875  1.00  0.00     0.000 C 
BRANCH   3   4
ATOM      4  C   UNL     1      19.542 -24.097  13.403  1.00  0.00     0.000 C 
BRANCH   4   5
ATOM      5  C   UNL     1      20.727 -23.177  13.735  1.00  0.00     0.000 C 
BRANCH   5   6
ATOM      6  C   UNL     1      20.752 -22.761  15.216  1.00  0.00     0.000 C 
BRANCH   6   7
ATOM      7  C   UNL     1      20.027 -21.429  15.468  1.00  0.00     0.006 C 
BRANCH   7   8
ATOM      8  C   UNL     1      20.167 -20.451  14.294  1.00  0.00     0.053 C 
BRANCH   8   9
ATOM      9  C   UNL     1      20.108 -19.038  14.782  1.00  0.00     0.041 C 
ATOM     10  O   UNL     1      20.066 -18.795  16.017  1.00  0.00    -0.550 OA
ATOM     11  O   UNL     1      20.048 -17.990  13.873  1.00  0.00    -0.550 OA
ENDBRANCH   8   9
ENDBRANCH   7   8
ENDBRANCH   6   7
ENDBRANCH   5   6
ENDBRANCH   4   5
ENDBRANCH   3   4
ENDBRANCH   2   3
ENDBRANCH   1   2
BRANCH   1  12
ATOM     12  C   UNL     1      21.246 -28.447  12.963  1.00  0.00     0.000 C 
BRANCH  12  13
ATOM     13  C   UNL     1      19.986 -29.335  12.903  1.00  0.00    -0.000 C 
BRANCH  13  14
ATOM     14  C   UNL     1      20.097 -30.678  13.647  1.00  0.00    -0.000 C 
BRANCH  14  15
ATOM     15  C   UNL     1      19.223 -31.779  13.028  1.00  0.00    -0.000 C 
BRANCH  15  16
ATOM     16  C   UNL     1      17.736 -31.525  13.316  1.00  0.00    -0.000 C 
BRANCH  16  17
ATOM     17  C   UNL     1      17.261 -32.189  14.619  1.00  0.00    -0.000 C 
BRANCH  17  18
ATOM     18  C   UNL     1      16.030 -31.491  15.223  1.00  0.00    -0.000 C 
BRANCH  18  19
ATOM     19  C   UNL     1      15.214 -30.725  14.169  1.00  0.00    -0.003 C 
ATOM     20  C   UNL     1      13.711 -30.979  14.282  1.00  0.00     0.004 C 
ENDBRANCH  18  19
ENDBRANCH  17  18
ENDBRANCH  16  17
ENDBRANCH  15  16
ENDBRANCH  14  15
ENDBRANCH  13  14
ENDBRANCH  12  13
ENDBRANCH   1  12
TORSDOF 16
ENDMDL
MODEL 5
REMARK VINA RESULT:    -2.351      7.573     12.072
REMARK INTER + INTRA:          -5.884
REMARK INTER:                  -5.291
REMARK INTRA:                  -0.593
REMARK UNBOUND:                -1.333
REMARK SMILES CCCCCCCCCCCCCCCCCC(=O)[O-]
REMARK SMILES IDX 10 1 11 2 12 3 13 4 14 5 15 6 16 7 17 8 18 9 19 10 20 11
REMARK SMILES IDX 9 12 8 13 7 14 6 15 5 16 4 17 3 18 2 19 1 20
REMARK H PARENT
REMARK Flexibility Score: inf
ROOT
ATOM      1  C   UNL     1      21.640 -27.266  13.648  1.00  0.00     0.000 C 
ENDROOT
BRANCH   1   2
ATOM      2  C   UNL     1      21.227 -28.696  14.037  1.00  0.00     0.000 C 
BRANCH   2   3
ATOM      3  C   UNL     1      20.565 -29.454  12.875  1.00  0.00     0.000 C 
BRANCH   3   4
ATOM      4  C   UNL     1      19.143 -29.935  13.212  1.00  0.00     0.000 C 
BRANCH   4   5
ATOM      5  C   UNL     1      18.990 -31.459  13.083  1.00  0.00     0.000 C 
BRANCH   5   6
ATOM      6  C   UNL     1      18.525 -32.117  14.394  1.00  0.00     0.000 C 
BRANCH   6   7
ATOM      7  C   UNL     1      17.085 -31.733  14.768  1.00  0.00     0.006 C 
BRANCH   7   8
ATOM      8  C   UNL     1      16.203 -31.486  13.538  1.00  0.00     0.053 C 
BRANCH   8   9
ATOM      9  C   UNL     1      14.961 -30.746  13.927  1.00  0.00     0.041 C 
ATOM     10  O   UNL     1      14.165 -31.242  14.768  1.00  0.00    -0.550 OA
ATOM     11  O   UNL     1      14.656 -29.533  13.324  1.00  0.00    -0.550 OA
ENDBRANCH   8   9
ENDBRANCH   7   8
ENDBRANCH   6   7
ENDBRANCH   5   6
ENDBRANCH   4   5
ENDBRANCH   3   4
ENDBRANCH   2   3
ENDBRANCH   1   2
BRANCH   1  12
ATOM     12  C   UNL     1      20.453 -26.411  13.167  1.00  0.00     0.000 C 
BRANCH  12  13
ATOM     13  C   UNL     1      20.783 -24.932  12.875  1.00  0.00    -0.000 C 
BRANCH  13  14
ATOM     14  C   UNL     1      19.864 -23.908  13.568  1.00  0.00    -0.000 C 
BRANCH  14  15
ATOM     15  C   UNL     1      20.132 -23.787  15.075  1.00  0.00    -0.000 C 
BRANCH  15  16
ATOM     16  C   UNL     1      20.695 -22.402  15.422  1.00  0.00    -0.000 C 
BRANCH  16  17
ATOM     17  C   UNL     1      20.080 -21.279  14.570  1.00  0.00    -0.000 C 
BRANCH  17  18
ATOM     18  C   UNL     1      20.259 -19.890  15.207  1.00  0.00    -0.000 C 
BRANCH  18  19
ATOM     19  C   UNL     1      19.764 -18.758  14.293  1.00  0.00    -0.003 C 
ATOM     20  C   UNL     1      20.873 -18.168  13.424  1.00  0.00     0.004 C 
ENDBRANCH  18  19
ENDBRANCH  17  18
ENDBRANCH  16  17
ENDBRANCH  15  16
ENDBRANCH  14  15
ENDBRANCH  13  14
ENDBRANCH  12  13
ENDBRANCH   1  12
TORSDOF 16
ENDMDL
MODEL 6
REMARK VINA RESULT:    -2.300      2.300      3.329
REMARK INTER + INTRA:          -5.785
REMARK INTER:                  -4.706
REMARK INTRA:                  -1.079
REMARK UNBOUND:                -1.333
REMARK SMILES CCCCCCCCCCCCCCCCCC(=O)[O-]
REMARK SMILES IDX 10 1 11 2 12 3 13 4 14 5 15 6 16 7 17 8 18 9 19 10 20 11
REMARK SMILES IDX 9 12 8 13 7 14 6 15 5 16 4 17 3 18 2 19 1 20
REMARK H PARENT
REMARK Flexibility Score: inf
ROOT
ATOM      1  C   UNL     1       8.878 -32.264  16.386  1.00  0.00     0.000 C 
ENDROOT
BRANCH   1   2
ATOM      2  C   UNL     1       8.162 -33.010  17.526  1.00  0.00     0.000 C 
BRANCH   2   3
ATOM      3  C   UNL     1       6.825 -33.624  17.079  1.00  0.00     0.000 C 
BRANCH   3   4
ATOM      4  C   UNL     1       6.874 -35.159  16.996  1.00  0.00     0.000 C 
BRANCH   4   5
ATOM      5  C   UNL     1       5.892 -35.725  15.958  1.00  0.00     0.000 C 
BRANCH   5   6
ATOM      6  C   UNL     1       6.523 -36.831  15.094  1.00  0.00     0.000 C 
BRANCH   6   7
ATOM      7  C   UNL     1       6.472 -36.508  13.592  1.00  0.00     0.006 C 
BRANCH   7   8
ATOM      8  C   UNL     1       7.703 -35.727  13.116  1.00  0.00     0.053 C 
BRANCH   8   9
ATOM      9  C   UNL     1       8.927 -36.585  13.192  1.00  0.00     0.041 C 
ATOM     10  O   UNL     1      10.062 -36.059  13.338  1.00  0.00    -0.550 OA
ATOM     11  O   UNL     1       8.820 -37.963  13.052  1.00  0.00    -0.550 OA
ENDBRANCH   8   9
ENDBRANCH   7   8
ENDBRANCH   6   7
ENDBRANCH   5   6
ENDBRANCH   4   5
ENDBRANCH   3   4
ENDBRANCH   2   3
ENDBRANCH   1   2
BRANCH   1  12
ATOM     12  C   UNL     1       9.282 -33.192  15.226  1.00  0.00     0.000 C 
BRANCH  12  13
ATOM     13  C   UNL     1       9.611 -32.480  13.897  1.00  0.00    -0.000 C 
BRANCH  13  14
ATOM     14  C   UNL     1      11.101 -32.470  13.512  1.00  0.00    -0.000 C 
BRANCH  14  15
ATOM     15  C   UNL     1      11.918 -31.438  14.304  1.00  0.00    -0.000 C 
BRANCH  15  16
ATOM     16  C   UNL     1      13.351 -31.342  13.763  1.00  0.00    -0.000 C 
BRANCH  16  17
ATOM     17  C   UNL     1      14.373 -30.970  14.851  1.00  0.00    -0.000 C 
BRANCH  17  18
ATOM     18  C   UNL     1      15.794 -30.788  14.289  1.00  0.00    -0.000 C 
BRANCH  18  19
ATOM     19  C   UNL     1      16.799 -31.775  14.904  1.00  0.00    -0.003 C 
ATOM     20  C   UNL     1      17.932 -32.142  13.946  1.00  0.00     0.004 C 
ENDBRANCH  18  19
ENDBRANCH  17  18
ENDBRANCH  16  17
ENDBRANCH  15  16
ENDBRANCH  14  15
ENDBRANCH  13  14
ENDBRANCH  12  13
ENDBRANCH   1  12
TORSDOF 16
ENDMDL
MODEL 7
REMARK VINA RESULT:    -2.128      3.948      6.400
REMARK INTER + INTRA:          -5.451
REMARK INTER:                  -3.645
REMARK INTRA:                  -1.807
REMARK UNBOUND:                -1.333
REMARK SMILES CCCCCCCCCCCCCCCCCC(=O)[O-]
REMARK SMILES IDX 10 1 11 2 12 3 13 4 14 5 15 6 16 7 17 8 18 9 19 10 20 11
REMARK SMILES IDX 9 12 8 13 7 14 6 15 5 16 4 17 3 18 2 19 1 20
REMARK H PARENT
REMARK Flexibility Score: inf
ROOT
ATOM      1  C   UNL     1       7.299 -36.279  17.688  1.00  0.00     0.000 C 
ENDROOT
BRANCH   1   2
ATOM      2  C   UNL     1       7.365 -35.348  16.466  1.00  0.00     0.000 C 
BRANCH   2   3
ATOM      3  C   UNL     1       6.164 -34.391  16.390  1.00  0.00     0.000 C 
BRANCH   3   4
ATOM      4  C   UNL     1       6.582 -32.930  16.145  1.00  0.00     0.000 C 
BRANCH   4   5
ATOM      5  C   UNL     1       6.571 -32.091  17.433  1.00  0.00     0.000 C 
BRANCH   5   6
ATOM      6  C   UNL     1       7.233 -32.819  18.616  1.00  0.00     0.000 C 
BRANCH   6   7
ATOM      7  C   UNL     1       8.764 -32.688  18.608  1.00  0.00     0.006 C 
BRANCH   7   8
ATOM      8  C   UNL     1       9.230 -31.228  18.549  1.00  0.00     0.053 C 
BRANCH   8   9
ATOM      9  C   UNL     1      10.026 -30.984  17.305  1.00  0.00     0.041 C 
ATOM     10  O   UNL     1       9.870 -31.723  16.297  1.00  0.00    -0.550 OA
ATOM     11  O   UNL     1      10.977 -29.972  17.275  1.00  0.00    -0.550 OA
ENDBRANCH   8   9
ENDBRANCH   7   8
ENDBRANCH   6   7
ENDBRANCH   5   6
ENDBRANCH   4   5
ENDBRANCH   3   4
ENDBRANCH   2   3
ENDBRANCH   1   2
BRANCH   1  12
ATOM     12  C   UNL     1       6.762 -37.680  17.343  1.00  0.00     0.000 C 
BRANCH  12  13
ATOM     13  C   UNL     1       5.882 -37.755  16.078  1.00  0.00    -0.000 C 
BRANCH  13  14
ATOM     14  C   UNL     1       6.629 -38.119  14.782  1.00  0.00    -0.000 C 
BRANCH  14  15
ATOM     15  C   UNL     1       5.997 -37.491  13.531  1.00  0.00    -0.000 C 
BRANCH  15  16
ATOM     16  C   UNL     1       6.946 -36.468  12.892  1.00  0.00    -0.000 C 
BRANCH  16  17
ATOM     17  C   UNL     1       8.426 -36.758  13.196  1.00  0.00    -0.000 C 
BRANCH  17  18
ATOM     18  C   UNL     1       9.292 -35.487  13.182  1.00  0.00    -0.000 C 
BRANCH  18  19
ATOM     19  C   UNL     1       8.449 -34.203  13.128  1.00  0.00    -0.003 C 
ATOM     20  C   UNL     1       9.296 -32.944  12.942  1.00  0.00     0.004 C 
ENDBRANCH  18  19
ENDBRANCH  17  18
ENDBRANCH  16  17
ENDBRANCH  15  16
ENDBRANCH  14  15
ENDBRANCH  13  14
ENDBRANCH  12  13
ENDBRANCH   1  12
TORSDOF 16
ENDMDL
MODEL 8
REMARK VINA RESULT:    -1.964      3.292      7.709
REMARK INTER + INTRA:          -5.135
REMARK INTER:                  -3.400
REMARK INTRA:                  -1.735
REMARK UNBOUND:                -1.333
REMARK SMILES CCCCCCCCCCCCCCCCCC(=O)[O-]
REMARK SMILES IDX 10 1 11 2 12 3 13 4 14 5 15 6 16 7 17 8 18 9 19 10 20 11
REMARK SMILES IDX 9 12 8 13 7 14 6 15 5 16 4 17 3 18 2 19 1 20
REMARK H PARENT
REMARK Flexibility Score: inf
ROOT
ATOM      1  C   UNL     1       8.136 -33.021  16.200  1.00  0.00     0.000 C 
ENDROOT
BRANCH   1   2
ATOM      2  C   UNL     1       9.186 -32.132  16.888  1.00  0.00     0.000 C 
BRANCH   2   3
ATOM      3  C   UNL     1      10.249 -31.610  15.908  1.00  0.00     0.000 C 
BRANCH   3   4
ATOM      4  C   UNL     1      10.306 -32.423  14.603  1.00  0.00     0.000 C 
BRANCH   4   5
ATOM      5  C   UNL     1      11.520 -32.059  13.734  1.00  0.00     0.000 C 
BRANCH   5   6
ATOM      6  C   UNL     1      12.624 -31.346  14.535  1.00  0.00     0.000 C 
BRANCH   6   7
ATOM      7  C   UNL     1      13.955 -31.274  13.770  1.00  0.00     0.006 C 
BRANCH   7   8
ATOM      8  C   UNL     1      15.097 -30.713  14.626  1.00  0.00     0.053 C 
BRANCH   8   9
ATOM      9  C   UNL     1      16.306 -31.589  14.524  1.00  0.00     0.041 C 
ATOM     10  O   UNL     1      16.753 -32.175  15.545  1.00  0.00    -0.550 OA
ATOM     11  O   UNL     1      16.969 -31.720  13.311  1.00  0.00    -0.550 OA
ENDBRANCH   8   9
ENDBRANCH   7   8
ENDBRANCH   6   7
ENDBRANCH   5   6
ENDBRANCH   4   5
ENDBRANCH   3   4
ENDBRANCH   2   3
ENDBRANCH   1   2
BRANCH   1  12
ATOM     12  C   UNL     1       8.045 -34.427  16.820  1.00  0.00     0.000 C 
BRANCH  12  13
ATOM     13  C   UNL     1       6.614 -34.974  17.005  1.00  0.00    -0.000 C 
BRANCH  13  14
ATOM     14  C   UNL     1       5.956 -35.528  15.728  1.00  0.00    -0.000 C 
BRANCH  14  15
ATOM     15  C   UNL     1       6.549 -36.874  15.285  1.00  0.00    -0.000 C 
BRANCH  15  16
ATOM     16  C   UNL     1       6.807 -36.888  13.772  1.00  0.00    -0.000 C 
BRANCH  16  17
ATOM     17  C   UNL     1       6.988 -35.477  13.187  1.00  0.00    -0.000 C 
BRANCH  17  18
ATOM     18  C   UNL     1       8.467 -35.072  13.069  1.00  0.00    -0.000 C 
BRANCH  18  19
ATOM     19  C   UNL     1       9.410 -36.286  13.067  1.00  0.00    -0.003 C 
ATOM     20  C   UNL     1      10.876 -35.900  13.258  1.00  0.00     0.004 C 
ENDBRANCH  18  19
ENDBRANCH  17  18
ENDBRANCH  16  17
ENDBRANCH  15  16
ENDBRANCH  14  15
ENDBRANCH  13  14
ENDBRANCH  12  13
ENDBRANCH   1  12
TORSDOF 16
ENDMDL
MODEL 9
REMARK VINA RESULT:    -1.797      6.163     12.046
REMARK INTER + INTRA:          -4.811
REMARK INTER:                  -4.285
REMARK INTRA:                  -0.526
REMARK UNBOUND:                -1.333
REMARK SMILES CCCCCCCCCCCCCCCCCC(=O)[O-]
REMARK SMILES IDX 10 1 11 2 12 3 13 4 14 5 15 6 16 7 17 8 18 9 19 10 20 11
REMARK SMILES IDX 9 12 8 13 7 14 6 15 5 16 4 17 3 18 2 19 1 20
REMARK H PARENT
REMARK Flexibility Score: inf
ROOT
ATOM      1  C   UNL     1      18.249 -32.034  14.400  1.00  0.00     0.000 C 
ENDROOT
BRANCH   1   2
ATOM      2  C   UNL     1      18.976 -31.205  13.328  1.00  0.00     0.000 C 
BRANCH   2   3
ATOM      3  C   UNL     1      20.001 -30.231  13.932  1.00  0.00     0.000 C 
BRANCH   3   4
ATOM      4  C   UNL     1      20.643 -29.314  12.876  1.00  0.00     0.000 C 
BRANCH   4   5
ATOM      5  C   UNL     1      21.230 -28.032  13.487  1.00  0.00     0.000 C 
BRANCH   5   6
ATOM      6  C   UNL     1      20.620 -26.757  12.877  1.00  0.00     0.000 C 
BRANCH   6   7
ATOM      7  C   UNL     1      20.989 -25.490  13.667  1.00  0.00     0.006 C 
BRANCH   7   8
ATOM      8  C   UNL     1      20.488 -24.208  12.990  1.00  0.00     0.053 C 
BRANCH   8   9
ATOM      9  C   UNL     1      19.990 -23.238  14.014  1.00  0.00     0.041 C 
ATOM     10  O   UNL     1      19.041 -22.457  13.738  1.00  0.00    -0.550 OA
ATOM     11  O   UNL     1      20.606 -23.160  15.256  1.00  0.00    -0.550 OA
ENDBRANCH   8   9
ENDBRANCH   7   8
ENDBRANCH   6   7
ENDBRANCH   5   6
ENDBRANCH   4   5
ENDBRANCH   3   4
ENDBRANCH   2   3
ENDBRANCH   1   2
BRANCH   1  12
ATOM     12  C   UNL     1      16.731 -32.126  14.157  1.00  0.00     0.000 C 
BRANCH  12  13
ATOM     13  C   UNL     1      15.896 -30.979  14.762  1.00  0.00    -0.000 C 
BRANCH  13  14
ATOM     14  C   UNL     1      14.534 -30.735  14.088  1.00  0.00    -0.000 C 
BRANCH  14  15
ATOM     15  C   UNL     1      13.516 -31.848  14.375  1.00  0.00    -0.000 C 
BRANCH  15  16
ATOM     16  C   UNL     1      12.082 -31.300  14.345  1.00  0.00    -0.000 C 
BRANCH  16  17
ATOM     17  C   UNL     1      11.232 -31.921  13.223  1.00  0.00    -0.000 C 
BRANCH  17  18
ATOM     18  C   UNL     1      10.051 -32.745  13.764  1.00  0.00    -0.000 C 
BRANCH  18  19
ATOM     19  C   UNL     1      10.264 -34.257  13.596  1.00  0.00    -0.003 C 
ATOM     20  C   UNL     1       9.620 -35.075  14.715  1.00  0.00     0.004 C 
ENDBRANCH  18  19
ENDBRANCH  17  18
ENDBRANCH  16  17
ENDBRANCH  15  16
ENDBRANCH  14  15
ENDBRANCH  13  14
ENDBRANCH  12  13
ENDBRANCH   1  12
TORSDOF 16
ENDMDL
