MODEL 1
REMARK VINA RESULT:    -3.126      0.000      0.000
REMARK INTER + INTRA:          -4.910
REMARK INTER:                  -4.770
REMARK INTRA:                  -0.139
REMARK UNBOUND:                -0.139
REMARK SMILES CC1=CCC[C@@H](C)C(=O)C[C@H](C(C)C)C(=O)C1
REMARK SMILES IDX 8 1 9 2 6 3 7 4 5 5 4 6 3 7 2 8 1 9 10 11 11 12 15 13 16 14
REMARK SMILES IDX 17 15 12 17 13 18 14 19
REMARK H PARENT
REMARK Flexibility Score: 70.00
ROOT
ATOM      1  C   UNL     1      78.464  -6.754  25.700  1.00  0.00     0.136 C 
ATOM      2  O   UNL     1      77.413  -6.130  25.719  1.00  0.00    -0.299 OA
ENDROOT
BRANCH   1   3
ATOM      3  C   UNL     1      78.539  -8.080  24.932  1.00  0.00     0.053 C 
ATOM      4  C   UNL     1      78.345  -7.879  23.419  1.00  0.00     0.016 C 
BRANCH   3   5
ATOM      5  C   UNL     1      77.520  -9.131  25.460  1.00  0.00     0.015 C 
BRANCH   5   6
ATOM      6  C   UNL     1      77.845  -9.779  26.822  1.00  0.00     0.028 C 
BRANCH   6   7
ATOM      7  C   UNL     1      77.241  -9.188  28.083  1.00  0.00    -0.028 C 
ATOM      8  C   UNL     1      77.876  -8.518  29.079  1.00  0.00    -0.070 CG0
ATOM      9  C   UNL     1      77.016  -7.843  30.120  1.00  0.00     0.039 C 
ATOM     10  G   UNL     1      79.381  -8.522  29.302  1.00  0.00     0.000 G0
ENDBRANCH   6   7
ENDBRANCH   5   6
ENDBRANCH   3   5
ENDBRANCH   1   3
BRANCH   1  11
ATOM     11  C   UNL     1      79.673  -6.120  26.378  1.00  0.00     0.087 C 
BRANCH  11  12
ATOM     12  C   UNL     1      79.734  -6.299  27.919  1.00  0.00     0.066 C 
BRANCH  12  13
ATOM     13  C   UNL     1      80.140  -7.724  28.285  1.00  0.00     0.140 C 
ATOM     14  O   UNL     1      81.088  -8.246  27.710  1.00  0.00    -0.299 OA
BRANCH  13  15
ATOM     15  C   UNL     1      79.392  -8.523  29.339  1.00  0.00     0.106 CG0
ATOM     16  G   UNL     1      77.895  -8.507  29.074  1.00  0.00     0.000 G0
ENDBRANCH  13  15
ENDBRANCH  12  13
BRANCH  12  17
ATOM     17  C   UNL     1      80.616  -5.221  28.646  1.00  0.00    -0.006 C 
ATOM     18  C   UNL     1      81.422  -4.334  27.678  1.00  0.00     0.008 C 
ATOM     19  C   UNL     1      79.744  -4.301  29.524  1.00  0.00     0.008 C 
ENDBRANCH  12  17
ENDBRANCH  11  12
ENDBRANCH   1  11
TORSDOF 1
ENDMDL
MODEL 2
REMARK VINA RESULT:    -2.990      1.942      3.638
REMARK INTER + INTRA:          -4.702
REMARK INTER:                  -4.742
REMARK INTRA:                   0.040
REMARK UNBOUND:                -0.139
REMARK SMILES CC1=CCC[C@@H](C)C(=O)C[C@H](C(C)C)C(=O)C1
REMARK SMILES IDX 8 1 9 2 6 3 7 4 5 5 4 6 3 7 2 8 1 9 10 11 11 12 15 13 16 14
REMARK SMILES IDX 17 15 12 17 13 18 14 19
REMARK H PARENT
REMARK Flexibility Score: 70.00
ROOT
ATOM      1  C   UNL     1      80.248  -6.109  26.865  1.00  0.00     0.136 C 
ATOM      2  O   UNL     1      79.455  -6.038  25.937  1.00  0.00    -0.299 OA
ENDROOT
BRANCH   1   3
ATOM      3  C   UNL     1      80.032  -5.236  28.107  1.00  0.00     0.053 C 
ATOM      4  C   UNL     1      81.174  -4.224  28.304  1.00  0.00     0.016 C 
BRANCH   3   5
ATOM      5  C   UNL     1      79.847  -6.079  29.402  1.00  0.00     0.015 C 
BRANCH   5   6
ATOM      6  C   UNL     1      78.402  -6.496  29.750  1.00  0.00     0.028 C 
BRANCH   6   7
ATOM      7  C   UNL     1      77.538  -7.129  28.675  1.00  0.00    -0.028 C 
ATOM      8  C   UNL     1      77.607  -8.394  28.184  1.00  0.00    -0.070 CG0
ATOM      9  C   UNL     1      76.493  -8.845  27.269  1.00  0.00     0.039 C 
ATOM     10  G   UNL     1      78.790  -9.331  28.372  1.00  0.00     0.000 G0
ENDBRANCH   6   7
ENDBRANCH   5   6
ENDBRANCH   3   5
ENDBRANCH   1   3
BRANCH   1  11
ATOM     11  C   UNL     1      81.365  -7.140  26.760  1.00  0.00     0.087 C 
BRANCH  11  12
ATOM     12  C   UNL     1      81.175  -8.410  27.631  1.00  0.00     0.066 C 
BRANCH  12  13
ATOM     13  C   UNL     1      79.853  -9.101  27.304  1.00  0.00     0.140 C 
ATOM     14  O   UNL     1      79.636  -9.471  26.157  1.00  0.00    -0.299 OA
BRANCH  13  15
ATOM     15  C   UNL     1      78.789  -9.335  28.363  1.00  0.00     0.106 CG0
ATOM     16  G   UNL     1      77.611  -8.394  28.168  1.00  0.00     0.000 G0
ENDBRANCH  13  15
ENDBRANCH  12  13
BRANCH  12  17
ATOM     17  C   UNL     1      82.395  -9.399  27.582  1.00  0.00    -0.006 C 
ATOM     18  C   UNL     1      83.592  -8.855  26.780  1.00  0.00     0.008 C 
ATOM     19  C   UNL     1      82.885  -9.736  29.005  1.00  0.00     0.008 C 
ENDBRANCH  12  17
ENDBRANCH  11  12
ENDBRANCH   1  11
TORSDOF 1
ENDMDL
MODEL 3
REMARK VINA RESULT:    -2.949      2.211      3.114
REMARK INTER + INTRA:          -4.639
REMARK INTER:                  -4.578
REMARK INTRA:                  -0.061
REMARK UNBOUND:                -0.139
REMARK SMILES CC1=CCC[C@@H](C)C(=O)C[C@H](C(C)C)C(=O)C1
REMARK SMILES IDX 8 1 9 2 6 3 7 4 5 5 4 6 3 7 2 8 1 9 10 11 11 12 15 13 16 14
REMARK SMILES IDX 17 15 12 17 13 18 14 19
REMARK H PARENT
REMARK Flexibility Score: 70.00
ROOT
ATOM      1  C   UNL     1      78.256  -6.910  25.534  1.00  0.00     0.136 C 
ATOM      2  O   UNL     1      77.056  -6.778  25.729  1.00  0.00    -0.299 OA
ENDROOT
BRANCH   1   3
ATOM      3  C   UNL     1      78.743  -7.920  24.488  1.00  0.00     0.053 C 
ATOM      4  C   UNL     1      77.772  -8.030  23.300  1.00  0.00     0.016 C 
BRANCH   3   5
ATOM      5  C   UNL     1      78.995  -9.330  25.095  1.00  0.00     0.015 C 
BRANCH   5   6
ATOM      6  C   UNL     1      80.446  -9.854  25.040  1.00  0.00     0.028 C 
BRANCH   6   7
ATOM      7  C   UNL     1      81.226 -10.002  26.333  1.00  0.00    -0.028 C 
ATOM      8  C   UNL     1      81.930  -9.050  26.999  1.00  0.00    -0.070 CG0
ATOM      9  C   UNL     1      82.439  -9.399  28.377  1.00  0.00     0.039 C 
ATOM     10  G   UNL     1      82.364  -7.720  26.402  1.00  0.00     0.000 G0
ENDBRANCH   6   7
ENDBRANCH   5   6
ENDBRANCH   3   5
ENDBRANCH   1   3
BRANCH   1  11
ATOM     11  C   UNL     1      79.199  -5.982  26.293  1.00  0.00     0.087 C 
BRANCH  11  12
ATOM     12  C   UNL     1      80.107  -6.679  27.341  1.00  0.00     0.066 C 
BRANCH  12  13
ATOM     13  C   UNL     1      81.580  -6.543  26.960  1.00  0.00     0.140 C 
ATOM     14  O   UNL     1      82.142  -5.465  27.109  1.00  0.00    -0.299 OA
BRANCH  13  15
ATOM     15  C   UNL     1      82.370  -7.709  26.390  1.00  0.00     0.106 CG0
ATOM     16  G   UNL     1      81.919  -9.025  27.005  1.00  0.00     0.000 G0
ENDBRANCH  13  15
ENDBRANCH  12  13
BRANCH  12  17
ATOM     17  C   UNL     1      79.828  -6.228  28.819  1.00  0.00    -0.006 C 
ATOM     18  C   UNL     1      78.513  -5.442  28.981  1.00  0.00     0.008 C 
ATOM     19  C   UNL     1      79.777  -7.446  29.764  1.00  0.00     0.008 C 
ENDBRANCH  12  17
ENDBRANCH  11  12
ENDBRANCH   1  11
TORSDOF 1
ENDMDL
MODEL 4
REMARK VINA RESULT:    -2.929     10.793     12.539
REMARK INTER + INTRA:          -4.609
REMARK INTER:                  -5.436
REMARK INTRA:                   0.827
REMARK UNBOUND:                -0.139
REMARK SMILES CC1=CCC[C@@H](C)C(=O)C[C@H](C(C)C)C(=O)C1
REMARK SMILES IDX 8 1 9 2 6 3 7 4 5 5 4 6 3 7 2 8 1 9 10 11 11 12 15 13 16 14
REMARK SMILES IDX 17 15 12 17 13 18 14 19
REMARK H PARENT
REMARK Flexibility Score: 70.00
ROOT
ATOM      1  C   UNL     1      82.039   5.424  26.718  1.00  0.00     0.136 C 
ATOM      2  O   UNL     1      82.234   6.020  25.668  1.00  0.00    -0.299 OA
ENDROOT
BRANCH   1   3
ATOM      3  C   UNL     1      81.427   6.175  27.906  1.00  0.00     0.053 C 
ATOM      4  C   UNL     1      80.632   7.413  27.456  1.00  0.00     0.016 C 
BRANCH   3   5
ATOM      5  C   UNL     1      82.492   6.588  28.962  1.00  0.00     0.015 C 
BRANCH   5   6
ATOM      6  C   UNL     1      83.007   5.469  29.894  1.00  0.00     0.028 C 
BRANCH   6   7
ATOM      7  C   UNL     1      82.003   4.565  30.584  1.00  0.00    -0.028 C 
ATOM      8  C   UNL     1      82.097   3.229  30.810  1.00  0.00    -0.070 CG0
ATOM      9  C   UNL     1      81.059   2.602  31.709  1.00  0.00     0.039 C 
ATOM     10  G   UNL     1      83.079   2.301  30.111  1.00  0.00     0.000 G0
ENDBRANCH   6   7
ENDBRANCH   5   6
ENDBRANCH   3   5
ENDBRANCH   1   3
BRANCH   1  11
ATOM     11  C   UNL     1      82.342   3.931  26.747  1.00  0.00     0.087 C 
BRANCH  11  12
ATOM     12  C   UNL     1      83.415   3.495  27.780  1.00  0.00     0.066 C 
BRANCH  12  13
ATOM     13  C   UNL     1      82.921   2.315  28.613  1.00  0.00     0.140 C 
ATOM     14  O   UNL     1      82.375   1.372  28.055  1.00  0.00    -0.299 OA
BRANCH  13  15
ATOM     15  C   UNL     1      83.078   2.281  30.125  1.00  0.00     0.106 CG0
ATOM     16  G   UNL     1      82.102   3.236  30.795  1.00  0.00     0.000 G0
ENDBRANCH  13  15
ENDBRANCH  12  13
BRANCH  12  17
ATOM     17  C   UNL     1      84.829   3.231  27.149  1.00  0.00    -0.006 C 
ATOM     18  C   UNL     1      85.181   4.202  26.007  1.00  0.00     0.008 C 
ATOM     19  C   UNL     1      85.935   3.331  28.220  1.00  0.00     0.008 C 
ENDBRANCH  12  17
ENDBRANCH  11  12
ENDBRANCH   1  11
TORSDOF 1
ENDMDL
MODEL 5
REMARK VINA RESULT:    -2.884     11.433     13.385
REMARK INTER + INTRA:          -4.541
REMARK INTER:                  -5.129
REMARK INTRA:                   0.588
REMARK UNBOUND:                -0.139
REMARK SMILES CC1=CCC[C@@H](C)C(=O)C[C@H](C(C)C)C(=O)C1
REMARK SMILES IDX 8 1 9 2 6 3 7 4 5 5 4 6 3 7 2 8 1 9 10 11 11 12 15 13 16 14
REMARK SMILES IDX 17 15 12 17 13 18 14 19
REMARK H PARENT
REMARK Flexibility Score: 70.00
ROOT
ATOM      1  C   UNL     1      82.195   4.563  30.165  1.00  0.00     0.136 C 
ATOM      2  O   UNL     1      82.721   5.443  30.832  1.00  0.00    -0.299 OA
ENDROOT
BRANCH   1   3
ATOM      3  C   UNL     1      81.695   3.290  30.858  1.00  0.00     0.053 C 
ATOM      4  C   UNL     1      81.725   3.421  32.391  1.00  0.00     0.016 C 
BRANCH   3   5
ATOM      5  C   UNL     1      82.487   2.025  30.421  1.00  0.00     0.015 C 
BRANCH   5   6
ATOM      6  C   UNL     1      83.165   2.082  29.035  1.00  0.00     0.028 C 
BRANCH   6   7
ATOM      7  C   UNL     1      84.661   2.326  28.956  1.00  0.00    -0.028 C 
ATOM      8  C   UNL     1      85.309   3.354  28.350  1.00  0.00    -0.070 CG0
ATOM      9  C   UNL     1      86.793   3.482  28.599  1.00  0.00     0.039 C 
ATOM     10  G   UNL     1      84.681   4.292  27.331  1.00  0.00     0.000 G0
ENDBRANCH   6   7
ENDBRANCH   5   6
ENDBRANCH   3   5
ENDBRANCH   1   3
BRANCH   1  11
ATOM     11  C   UNL     1      81.990   4.834  28.679  1.00  0.00     0.087 C 
BRANCH  11  12
ATOM     12  C   UNL     1      82.821   6.011  28.102  1.00  0.00     0.066 C 
BRANCH  12  13
ATOM     13  C   UNL     1      84.285   5.612  27.934  1.00  0.00     0.140 C 
ATOM     14  O   UNL     1      85.164   6.382  28.301  1.00  0.00    -0.299 OA
BRANCH  13  15
ATOM     15  C   UNL     1      84.686   4.285  27.311  1.00  0.00     0.106 CG0
ATOM     16  G   UNL     1      85.311   3.365  28.349  1.00  0.00     0.000 G0
ENDBRANCH  13  15
ENDBRANCH  12  13
BRANCH  12  17
ATOM     17  C   UNL     1      82.215   6.629  26.790  1.00  0.00    -0.006 C 
ATOM     18  C   UNL     1      81.840   5.574  25.733  1.00  0.00     0.008 C 
ATOM     19  C   UNL     1      80.954   7.459  27.107  1.00  0.00     0.008 C 
ENDBRANCH  12  17
ENDBRANCH  11  12
ENDBRANCH   1  11
TORSDOF 1
ENDMDL
MODEL 6
REMARK VINA RESULT:    -2.824      1.924      3.727
REMARK INTER + INTRA:          -4.449
REMARK INTER:                  -4.761
REMARK INTRA:                   0.312
REMARK UNBOUND:                -0.139
REMARK SMILES CC1=CCC[C@@H](C)C(=O)C[C@H](C(C)C)C(=O)C1
REMARK SMILES IDX 8 1 9 2 6 3 7 4 5 5 4 6 3 7 2 8 1 9 10 11 11 12 15 13 16 14
REMARK SMILES IDX 17 15 12 17 13 18 14 19
REMARK H PARENT
REMARK Flexibility Score: 70.00
ROOT
ATOM      1  C   UNL     1      79.468  -8.136  29.745  1.00  0.00     0.136 C 
ATOM      2  O   UNL     1      78.291  -8.344  30.001  1.00  0.00    -0.299 OA
ENDROOT
BRANCH   1   3
ATOM      3  C   UNL     1      80.409  -9.323  29.511  1.00  0.00     0.053 C 
ATOM      4  C   UNL     1      81.402  -9.507  30.672  1.00  0.00     0.016 C 
BRANCH   3   5
ATOM      5  C   UNL     1      81.185  -9.211  28.167  1.00  0.00     0.015 C 
BRANCH   5   6
ATOM      6  C   UNL     1      80.452  -9.716  26.906  1.00  0.00     0.028 C 
BRANCH   6   7
ATOM      7  C   UNL     1      78.975  -9.410  26.739  1.00  0.00    -0.028 C 
ATOM      8  C   UNL     1      78.407  -8.308  26.185  1.00  0.00    -0.070 CG0
ATOM      9  C   UNL     1      76.917  -8.341  25.944  1.00  0.00     0.039 C 
ATOM     10  G   UNL     1      79.135  -6.997  25.925  1.00  0.00     0.000 G0
ENDBRANCH   6   7
ENDBRANCH   5   6
ENDBRANCH   3   5
ENDBRANCH   1   3
BRANCH   1  11
ATOM     11  C   UNL     1      79.909  -6.685  29.589  1.00  0.00     0.087 C 
BRANCH  11  12
ATOM     12  C   UNL     1      80.376  -6.287  28.163  1.00  0.00     0.066 C 
BRANCH  12  13
ATOM     13  C   UNL     1      79.187  -6.182  27.211  1.00  0.00     0.140 C 
ATOM     14  O   UNL     1      78.261  -5.429  27.486  1.00  0.00    -0.299 OA
BRANCH  13  15
ATOM     15  C   UNL     1      79.113  -6.995  25.930  1.00  0.00     0.106 CG0
ATOM     16  G   UNL     1      78.398  -8.317  26.165  1.00  0.00     0.000 G0
ENDBRANCH  13  15
ENDBRANCH  12  13
BRANCH  12  17
ATOM     17  C   UNL     1      81.284  -5.005  28.130  1.00  0.00    -0.006 C 
ATOM     18  C   UNL     1      81.489  -4.436  26.714  1.00  0.00     0.008 C 
ATOM     19  C   UNL     1      80.689  -3.889  29.013  1.00  0.00     0.008 C 
ENDBRANCH  12  17
ENDBRANCH  11  12
ENDBRANCH   1  11
TORSDOF 1
ENDMDL
MODEL 7
REMARK VINA RESULT:    -2.774      2.141      3.726
REMARK INTER + INTRA:          -4.372
REMARK INTER:                  -4.595
REMARK INTRA:                   0.222
REMARK UNBOUND:                -0.139
REMARK SMILES CC1=CCC[C@@H](C)C(=O)C[C@H](C(C)C)C(=O)C1
REMARK SMILES IDX 8 1 9 2 6 3 7 4 5 5 4 6 3 7 2 8 1 9 10 11 11 12 15 13 16 14
REMARK SMILES IDX 17 15 12 17 13 18 14 19
REMARK H PARENT
REMARK Flexibility Score: 70.00
ROOT
ATOM      1  C   UNL     1      77.761  -7.185  29.502  1.00  0.00     0.136 C 
ATOM      2  O   UNL     1      76.867  -6.878  30.278  1.00  0.00    -0.299 OA
ENDROOT
BRANCH   1   3
ATOM      3  C   UNL     1      78.153  -8.660  29.352  1.00  0.00     0.053 C 
ATOM      4  C   UNL     1      77.037  -9.603  29.834  1.00  0.00     0.016 C 
BRANCH   3   5
ATOM      5  C   UNL     1      79.483  -9.000  30.083  1.00  0.00     0.015 C 
BRANCH   5   6
ATOM      6  C   UNL     1      80.660  -9.456  29.194  1.00  0.00     0.028 C 
BRANCH   6   7
ATOM      7  C   UNL     1      80.394  -9.805  27.741  1.00  0.00    -0.028 C 
ATOM      8  C   UNL     1      80.781  -9.122  26.633  1.00  0.00    -0.070 CG0
ATOM      9  C   UNL     1      80.575  -9.793  25.296  1.00  0.00     0.039 C 
ATOM     10  G   UNL     1      81.269  -7.681  26.631  1.00  0.00     0.000 G0
ENDBRANCH   6   7
ENDBRANCH   5   6
ENDBRANCH   3   5
ENDBRANCH   1   3
BRANCH   1  11
ATOM     11  C   UNL     1      78.376  -6.073  28.660  1.00  0.00     0.087 C 
BRANCH  11  12
ATOM     12  C   UNL     1      79.894  -6.226  28.373  1.00  0.00     0.066 C 
BRANCH  12  13
ATOM     13  C   UNL     1      80.130  -6.721  26.948  1.00  0.00     0.140 C 
ATOM     14  O   UNL     1      79.384  -6.349  26.051  1.00  0.00    -0.299 OA
BRANCH  13  15
ATOM     15  C   UNL     1      81.263  -7.676  26.610  1.00  0.00     0.106 CG0
ATOM     16  G   UNL     1      80.785  -9.120  26.640  1.00  0.00     0.000 G0
ENDBRANCH  13  15
ENDBRANCH  12  13
BRANCH  12  17
ATOM     17  C   UNL     1      80.732  -4.940  28.705  1.00  0.00    -0.006 C 
ATOM     18  C   UNL     1      81.434  -4.332  27.477  1.00  0.00     0.008 C 
ATOM     19  C   UNL     1      79.840  -3.851  29.335  1.00  0.00     0.008 C 
ENDBRANCH  12  17
ENDBRANCH  11  12
ENDBRANCH   1  11
TORSDOF 1
ENDMDL
MODEL 8
REMARK VINA RESULT:    -2.766      2.115      3.600
REMARK INTER + INTRA:          -4.361
REMARK INTER:                  -4.287
REMARK INTRA:                  -0.074
REMARK UNBOUND:                -0.139
REMARK SMILES CC1=CCC[C@@H](C)C(=O)C[C@H](C(C)C)C(=O)C1
REMARK SMILES IDX 8 1 9 2 6 3 7 4 5 5 4 6 3 7 2 8 1 9 10 11 11 12 15 13 16 14
REMARK SMILES IDX 17 15 12 17 13 18 14 19
REMARK H PARENT
REMARK Flexibility Score: 70.00
ROOT
ATOM      1  C   UNL     1      82.111  -7.745  27.130  1.00  0.00     0.136 C 
ATOM      2  O   UNL     1      82.804  -7.029  26.421  1.00  0.00    -0.299 OA
ENDROOT
BRANCH   1   3
ATOM      3  C   UNL     1      82.421  -9.244  27.218  1.00  0.00     0.053 C 
ATOM      4  C   UNL     1      83.794  -9.583  26.614  1.00  0.00     0.016 C 
BRANCH   3   5
ATOM      5  C   UNL     1      81.321 -10.118  26.550  1.00  0.00     0.015 C 
BRANCH   5   6
ATOM      6  C   UNL     1      80.608  -9.509  25.324  1.00  0.00     0.028 C 
BRANCH   6   7
ATOM      7  C   UNL     1      79.097  -9.607  25.226  1.00  0.00    -0.028 C 
ATOM      8  C   UNL     1      78.167  -8.877  25.895  1.00  0.00    -0.070 CG0
ATOM      9  C   UNL     1      76.728  -9.019  25.459  1.00  0.00     0.039 C 
ATOM     10  G   UNL     1      78.450  -8.045  27.136  1.00  0.00     0.000 G0
ENDBRANCH   6   7
ENDBRANCH   5   6
ENDBRANCH   3   5
ENDBRANCH   1   3
BRANCH   1  11
ATOM     11  C   UNL     1      81.023  -7.072  27.960  1.00  0.00     0.087 C 
BRANCH  11  12
ATOM     12  C   UNL     1      80.160  -6.032  27.198  1.00  0.00     0.066 C 
BRANCH  12  13
ATOM     13  C   UNL     1      78.807  -6.625  26.814  1.00  0.00     0.140 C 
ATOM     14  O   UNL     1      77.991  -5.928  26.224  1.00  0.00    -0.299 OA
BRANCH  13  15
ATOM     15  C   UNL     1      78.436  -8.059  27.154  1.00  0.00     0.106 CG0
ATOM     16  G   UNL     1      78.157  -8.862  25.893  1.00  0.00     0.000 G0
ENDBRANCH  13  15
ENDBRANCH  12  13
BRANCH  12  17
ATOM     17  C   UNL     1      80.020  -4.657  27.946  1.00  0.00    -0.006 C 
ATOM     18  C   UNL     1      78.982  -4.682  29.084  1.00  0.00     0.008 C 
ATOM     19  C   UNL     1      81.373  -4.217  28.542  1.00  0.00     0.008 C 
ENDBRANCH  12  17
ENDBRANCH  11  12
ENDBRANCH   1  11
TORSDOF 1
ENDMDL
MODEL 9
REMARK VINA RESULT:    -2.449      1.706      3.895
REMARK INTER + INTRA:          -3.877
REMARK INTER:                  -3.917
REMARK INTRA:                   0.040
REMARK UNBOUND:                -0.139
REMARK SMILES CC1=CCC[C@@H](C)C(=O)C[C@H](C(C)C)C(=O)C1
REMARK SMILES IDX 8 1 9 2 6 3 7 4 5 5 4 6 3 7 2 8 1 9 10 11 11 12 15 13 16 14
REMARK SMILES IDX 17 15 12 17 13 18 14 19
REMARK H PARENT
REMARK Flexibility Score: 70.00
ROOT
ATOM      1  C   UNL     1      80.292  -6.365  27.126  1.00  0.00     0.136 C 
ATOM      2  O   UNL     1      80.029  -5.355  27.763  1.00  0.00    -0.299 OA
ENDROOT
BRANCH   1   3
ATOM      3  C   UNL     1      81.501  -7.217  27.529  1.00  0.00     0.053 C 
ATOM      4  C   UNL     1      82.198  -7.840  26.307  1.00  0.00     0.016 C 
BRANCH   3   5
ATOM      5  C   UNL     1      81.130  -8.332  28.549  1.00  0.00     0.015 C 
BRANCH   5   6
ATOM      6  C   UNL     1      80.323  -7.889  29.788  1.00  0.00     0.028 C 
BRANCH   6   7
ATOM      7  C   UNL     1      79.037  -8.619  30.130  1.00  0.00    -0.028 C 
ATOM      8  C   UNL     1      77.884  -8.660  29.415  1.00  0.00    -0.070 CG0
ATOM      9  C   UNL     1      76.822  -9.634  29.867  1.00  0.00     0.039 C 
ATOM     10  G   UNL     1      77.528  -7.700  28.290  1.00  0.00     0.000 G0
ENDBRANCH   6   7
ENDBRANCH   5   6
ENDBRANCH   3   5
ENDBRANCH   1   3
BRANCH   1  11
ATOM     11  C   UNL     1      79.333  -6.762  26.010  1.00  0.00     0.087 C 
BRANCH  11  12
ATOM     12  C   UNL     1      78.858  -8.240  26.042  1.00  0.00     0.066 C 
BRANCH  12  13
ATOM     13  C   UNL     1      77.629  -8.397  26.934  1.00  0.00     0.140 C 
ATOM     14  O   UNL     1      76.692  -9.086  26.550  1.00  0.00    -0.299 OA
BRANCH  13  15
ATOM     15  C   UNL     1      77.528  -7.710  28.286  1.00  0.00     0.106 CG0
ATOM     16  G   UNL     1      77.896  -8.666  29.410  1.00  0.00     0.000 G0
ENDBRANCH  13  15
ENDBRANCH  12  13
BRANCH  12  17
ATOM     17  C   UNL     1      78.647  -8.868  24.617  1.00  0.00    -0.006 C 
ATOM     18  C   UNL     1      78.758  -7.842  23.474  1.00  0.00     0.008 C 
ATOM     19  C   UNL     1      79.674  -9.989  24.355  1.00  0.00     0.008 C 
ENDBRANCH  12  17
ENDBRANCH  11  12
ENDBRANCH   1  11
TORSDOF 1
ENDMDL
