MODEL 1
REMARK VINA RESULT:    -4.528      0.000      0.000
REMARK INTER + INTRA:          -5.352
REMARK INTER:                  -5.057
REMARK INTRA:                  -0.295
REMARK UNBOUND:                -0.295
REMARK SMILES CC(=O)c1ccc(O)cc1O
REMARK SMILES IDX 4 1 10 2 9 3 7 4 6 5 5 6 2 7 1 8 3 9 11 10 8 12
REMARK H PARENT 11 11 8 13
REMARK Flexibility Score: inf
ROOT
ATOM      1  C   UNL     1     -17.615   0.157 -15.980  1.00  0.00     0.059 A 
ATOM      2  C   UNL     1     -16.942   0.579 -17.152  1.00  0.00     0.130 A 
ATOM      3  C   UNL     1     -16.622   1.935 -17.326  1.00  0.00     0.093 A 
ATOM      4  C   UNL     1     -16.977   2.879 -16.357  1.00  0.00     0.119 A 
ATOM      5  C   UNL     1     -17.657   2.470 -15.209  1.00  0.00     0.047 A 
ATOM      6  C   UNL     1     -17.975   1.124 -15.022  1.00  0.00     0.019 A 
ENDROOT
BRANCH   1   7
ATOM      7  C   UNL     1     -17.966  -1.266 -15.728  1.00  0.00     0.163 C 
ATOM      8  C   UNL     1     -17.464  -2.020 -14.533  1.00  0.00     0.093 C 
ATOM      9  O   UNL     1     -18.715  -1.870 -16.543  1.00  0.00    -0.294 OA
ENDBRANCH   1   7
BRANCH   2  10
ATOM     10  O   UNL     1     -16.609  -0.332 -18.153  1.00  0.00    -0.507 OA
ATOM     11  H   UNL     1     -16.871  -1.309 -18.095  1.00  0.00     0.293 HD
ENDBRANCH   2  10
BRANCH   4  12
ATOM     12  O   UNL     1     -16.663   4.226 -16.528  1.00  0.00    -0.508 OA
ATOM     13  H   UNL     1     -16.977   4.744 -17.340  1.00  0.00     0.293 HD
ENDBRANCH   4  12
TORSDOF 3
ENDMDL
MODEL 2
REMARK VINA RESULT:    -4.376      1.559      4.471
REMARK INTER + INTRA:          -5.183
REMARK INTER:                  -4.925
REMARK INTRA:                  -0.258
REMARK UNBOUND:                -0.295
REMARK SMILES CC(=O)c1ccc(O)cc1O
REMARK SMILES IDX 4 1 10 2 9 3 7 4 6 5 5 6 2 7 1 8 3 9 11 10 8 12
REMARK H PARENT 11 11 8 13
REMARK Flexibility Score: inf
ROOT
ATOM      1  C   UNL     1     -16.816   1.785 -16.746  1.00  0.00     0.059 A 
ATOM      2  C   UNL     1     -17.436   1.848 -15.475  1.00  0.00     0.130 A 
ATOM      3  C   UNL     1     -17.987   0.689 -14.906  1.00  0.00     0.093 A 
ATOM      4  C   UNL     1     -17.944  -0.529 -15.593  1.00  0.00     0.119 A 
ATOM      5  C   UNL     1     -17.351  -0.592 -16.854  1.00  0.00     0.047 A 
ATOM      6  C   UNL     1     -16.794   0.553 -17.428  1.00  0.00     0.019 A 
ENDROOT
BRANCH   1   7
ATOM      7  C   UNL     1     -16.199   2.972 -17.395  1.00  0.00     0.163 C 
ATOM      8  C   UNL     1     -14.718   3.108 -17.583  1.00  0.00     0.093 C 
ATOM      9  O   UNL     1     -16.940   3.906 -17.807  1.00  0.00    -0.294 OA
ENDBRANCH   1   7
BRANCH   2  10
ATOM     10  O   UNL     1     -17.529   3.055 -14.783  1.00  0.00    -0.507 OA
ATOM     11  H   UNL     1     -18.392   3.355 -14.345  1.00  0.00     0.293 HD
ENDBRANCH   2  10
BRANCH   4  12
ATOM     12  O   UNL     1     -18.492  -1.682 -15.032  1.00  0.00    -0.508 OA
ATOM     13  H   UNL     1     -18.867  -2.425 -15.611  1.00  0.00     0.293 HD
ENDBRANCH   4  12
TORSDOF 3
ENDMDL
MODEL 3
REMARK VINA RESULT:    -4.310      2.739      4.433
REMARK INTER + INTRA:          -5.109
REMARK INTER:                  -4.803
REMARK INTRA:                  -0.306
REMARK UNBOUND:                -0.295
REMARK SMILES CC(=O)c1ccc(O)cc1O
REMARK SMILES IDX 4 1 10 2 9 3 7 4 6 5 5 6 2 7 1 8 3 9 11 10 8 12
REMARK H PARENT 11 11 8 13
REMARK Flexibility Score: inf
ROOT
ATOM      1  C   UNL     1     -16.942  -1.318 -15.981  1.00  0.00     0.059 A 
ATOM      2  C   UNL     1     -16.205  -2.435 -15.518  1.00  0.00     0.130 A 
ATOM      3  C   UNL     1     -15.244  -3.033 -16.349  1.00  0.00     0.093 A 
ATOM      4  C   UNL     1     -15.018  -2.545 -17.640  1.00  0.00     0.119 A 
ATOM      5  C   UNL     1     -15.756  -1.457 -18.107  1.00  0.00     0.047 A 
ATOM      6  C   UNL     1     -16.710  -0.850 -17.288  1.00  0.00     0.019 A 
ENDROOT
BRANCH   1   7
ATOM      7  C   UNL     1     -17.960  -0.630 -15.144  1.00  0.00     0.163 C 
ATOM      8  C   UNL     1     -17.987   0.860 -14.972  1.00  0.00     0.093 C 
ATOM      9  O   UNL     1     -18.839  -1.314 -14.554  1.00  0.00    -0.294 OA
ENDBRANCH   1   7
BRANCH   2  10
ATOM     10  O   UNL     1     -16.434  -2.969 -14.250  1.00  0.00    -0.507 OA
ATOM     11  H   UNL     1     -16.222  -2.450 -13.406  1.00  0.00     0.293 HD
ENDBRANCH   2  10
BRANCH   4  12
ATOM     12  O   UNL     1     -14.067  -3.138 -18.468  1.00  0.00    -0.508 OA
ATOM     13  H   UNL     1     -14.330  -3.811 -19.180  1.00  0.00     0.293 HD
ENDBRANCH   4  12
TORSDOF 3
ENDMDL
MODEL 4
REMARK VINA RESULT:    -4.277      2.631      5.691
REMARK INTER + INTRA:          -5.072
REMARK INTER:                  -4.791
REMARK INTRA:                  -0.281
REMARK UNBOUND:                -0.295
REMARK SMILES CC(=O)c1ccc(O)cc1O
REMARK SMILES IDX 4 1 10 2 9 3 7 4 6 5 5 6 2 7 1 8 3 9 11 10 8 12
REMARK H PARENT 11 11 8 13
REMARK Flexibility Score: inf
ROOT
ATOM      1  C   UNL     1     -17.944  -2.198 -16.235  1.00  0.00     0.059 A 
ATOM      2  C   UNL     1     -17.418  -3.117 -15.295  1.00  0.00     0.130 A 
ATOM      3  C   UNL     1     -17.740  -4.480 -15.394  1.00  0.00     0.093 A 
ATOM      4  C   UNL     1     -18.590  -4.938 -16.406  1.00  0.00     0.119 A 
ATOM      5  C   UNL     1     -19.125  -4.033 -17.323  1.00  0.00     0.047 A 
ATOM      6  C   UNL     1     -18.808  -2.675 -17.239  1.00  0.00     0.019 A 
ENDROOT
BRANCH   1   7
ATOM      7  C   UNL     1     -17.627  -0.745 -16.195  1.00  0.00     0.163 C 
ATOM      8  C   UNL     1     -16.880  -0.053 -17.296  1.00  0.00     0.093 C 
ATOM      9  O   UNL     1     -17.998  -0.059 -15.204  1.00  0.00    -0.294 OA
ENDBRANCH   1   7
BRANCH   2  10
ATOM     10  O   UNL     1     -16.599  -2.685 -14.252  1.00  0.00    -0.507 OA
ATOM     11  H   UNL     1     -15.596  -2.827 -14.267  1.00  0.00     0.293 HD
ENDBRANCH   2  10
BRANCH   4  12
ATOM     12  O   UNL     1     -18.913  -6.290 -16.506  1.00  0.00    -0.508 OA
ATOM     13  H   UNL     1     -18.593  -6.854 -17.285  1.00  0.00     0.293 HD
ENDBRANCH   4  12
TORSDOF 3
ENDMDL
MODEL 5
REMARK VINA RESULT:    -4.274      2.672      4.041
REMARK INTER + INTRA:          -5.069
REMARK INTER:                  -4.764
REMARK INTRA:                  -0.305
REMARK UNBOUND:                -0.295
REMARK SMILES CC(=O)c1ccc(O)cc1O
REMARK SMILES IDX 4 1 10 2 9 3 7 4 6 5 5 6 2 7 1 8 3 9 11 10 8 12
REMARK H PARENT 11 11 8 13
REMARK Flexibility Score: inf
ROOT
ATOM      1  C   UNL     1     -17.607  -3.352 -16.257  1.00  0.00     0.059 A 
ATOM      2  C   UNL     1     -17.221  -2.558 -15.149  1.00  0.00     0.130 A 
ATOM      3  C   UNL     1     -17.234  -1.159 -15.253  1.00  0.00     0.093 A 
ATOM      4  C   UNL     1     -17.610  -0.538 -16.450  1.00  0.00     0.119 A 
ATOM      5  C   UNL     1     -17.973  -1.317 -17.549  1.00  0.00     0.047 A 
ATOM      6  C   UNL     1     -17.970  -2.711 -17.456  1.00  0.00     0.019 A 
ENDROOT
BRANCH   1   7
ATOM      7  C   UNL     1     -17.631  -4.839 -16.205  1.00  0.00     0.163 C 
ATOM      8  C   UNL     1     -16.947  -5.691 -17.231  1.00  0.00     0.093 C 
ATOM      9  O   UNL     1     -18.246  -5.414 -15.266  1.00  0.00    -0.294 OA
ENDBRANCH   1   7
BRANCH   2  10
ATOM     10  O   UNL     1     -16.804  -3.148 -13.956  1.00  0.00    -0.507 OA
ATOM     11  H   UNL     1     -15.960  -3.706 -13.903  1.00  0.00     0.293 HD
ENDBRANCH   2  10
BRANCH   4  12
ATOM     12  O   UNL     1     -17.623   0.851 -16.557  1.00  0.00    -0.508 OA
ATOM     13  H   UNL     1     -16.888   1.351 -17.046  1.00  0.00     0.293 HD
ENDBRANCH   4  12
TORSDOF 3
ENDMDL
MODEL 6
REMARK VINA RESULT:    -4.220      1.707      4.824
REMARK INTER + INTRA:          -5.008
REMARK INTER:                  -4.702
REMARK INTRA:                  -0.306
REMARK UNBOUND:                -0.295
REMARK SMILES CC(=O)c1ccc(O)cc1O
REMARK SMILES IDX 4 1 10 2 9 3 7 4 6 5 5 6 2 7 1 8 3 9 11 10 8 12
REMARK H PARENT 11 11 8 13
REMARK Flexibility Score: inf
ROOT
ATOM      1  C   UNL     1     -17.806  -1.124 -15.907  1.00  0.00     0.059 A 
ATOM      2  C   UNL     1     -18.490  -1.885 -16.886  1.00  0.00     0.130 A 
ATOM      3  C   UNL     1     -18.724  -3.253 -16.673  1.00  0.00     0.093 A 
ATOM      4  C   UNL     1     -18.272  -3.877 -15.505  1.00  0.00     0.119 A 
ATOM      5  C   UNL     1     -17.581  -3.135 -14.546  1.00  0.00     0.047 A 
ATOM      6  C   UNL     1     -17.348  -1.773 -14.744  1.00  0.00     0.019 A 
ENDROOT
BRANCH   1   7
ATOM      7  C   UNL     1     -17.542   0.331 -16.066  1.00  0.00     0.163 C 
ATOM      8  C   UNL     1     -17.875   1.330 -14.999  1.00  0.00     0.093 C 
ATOM      9  O   UNL     1     -17.018   0.750 -17.134  1.00  0.00    -0.294 OA
ENDBRANCH   1   7
BRANCH   2  10
ATOM     10  O   UNL     1     -18.918  -1.300 -18.077  1.00  0.00    -0.507 OA
ATOM     11  H   UNL     1     -19.344  -1.846 -18.817  1.00  0.00     0.293 HD
ENDBRANCH   2  10
BRANCH   4  12
ATOM     12  O   UNL     1     -18.501  -5.235 -15.290  1.00  0.00    -0.508 OA
ATOM     13  H   UNL     1     -17.774  -5.844 -14.933  1.00  0.00     0.293 HD
ENDBRANCH   4  12
TORSDOF 3
ENDMDL
MODEL 7
REMARK VINA RESULT:    -4.106      2.722      3.896
REMARK INTER + INTRA:          -4.882
REMARK INTER:                  -4.581
REMARK INTRA:                  -0.301
REMARK UNBOUND:                -0.295
REMARK SMILES CC(=O)c1ccc(O)cc1O
REMARK SMILES IDX 4 1 10 2 9 3 7 4 6 5 5 6 2 7 1 8 3 9 11 10 8 12
REMARK H PARENT 11 11 8 13
REMARK Flexibility Score: inf
ROOT
ATOM      1  C   UNL     1     -16.874  -2.845 -16.614  1.00  0.00     0.059 A 
ATOM      2  C   UNL     1     -17.146  -2.539 -15.259  1.00  0.00     0.130 A 
ATOM      3  C   UNL     1     -17.521  -1.235 -14.897  1.00  0.00     0.093 A 
ATOM      4  C   UNL     1     -17.614  -0.229 -15.864  1.00  0.00     0.119 A 
ATOM      5  C   UNL     1     -17.328  -0.522 -17.198  1.00  0.00     0.047 A 
ATOM      6  C   UNL     1     -16.960  -1.816 -17.571  1.00  0.00     0.019 A 
ENDROOT
BRANCH   1   7
ATOM      7  C   UNL     1     -16.488  -4.210 -17.063  1.00  0.00     0.163 C 
ATOM      8  C   UNL     1     -15.431  -4.447 -18.100  1.00  0.00     0.093 C 
ATOM      9  O   UNL     1     -17.065  -5.212 -16.560  1.00  0.00    -0.294 OA
ENDBRANCH   1   7
BRANCH   2  10
ATOM     10  O   UNL     1     -17.025  -3.511 -14.266  1.00  0.00    -0.507 OA
ATOM     11  H   UNL     1     -17.362  -4.457 -14.401  1.00  0.00     0.293 HD
ENDBRANCH   2  10
BRANCH   4  12
ATOM     12  O   UNL     1     -17.984   1.067 -15.509  1.00  0.00    -0.508 OA
ATOM     13  H   UNL     1     -17.947   1.383 -14.547  1.00  0.00     0.293 HD
ENDBRANCH   4  12
TORSDOF 3
ENDMDL
MODEL 8
REMARK VINA RESULT:    -4.104      2.900      3.720
REMARK INTER + INTRA:          -4.879
REMARK INTER:                  -4.573
REMARK INTRA:                  -0.306
REMARK UNBOUND:                -0.295
REMARK SMILES CC(=O)c1ccc(O)cc1O
REMARK SMILES IDX 4 1 10 2 9 3 7 4 6 5 5 6 2 7 1 8 3 9 11 10 8 12
REMARK H PARENT 11 11 8 13
REMARK Flexibility Score: inf
ROOT
ATOM      1  C   UNL     1     -17.518  -2.447 -16.318  1.00  0.00     0.059 A 
ATOM      2  C   UNL     1     -16.348  -3.141 -16.710  1.00  0.00     0.130 A 
ATOM      3  C   UNL     1     -15.391  -2.501 -17.513  1.00  0.00     0.093 A 
ATOM      4  C   UNL     1     -15.590  -1.185 -17.944  1.00  0.00     0.119 A 
ATOM      5  C   UNL     1     -16.750  -0.504 -17.575  1.00  0.00     0.047 A 
ATOM      6  C   UNL     1     -17.707  -1.128 -16.772  1.00  0.00     0.019 A 
ENDROOT
BRANCH   1   7
ATOM      7  C   UNL     1     -18.562  -3.063 -15.455  1.00  0.00     0.163 C 
ATOM      8  C   UNL     1     -19.125  -2.367 -14.252  1.00  0.00     0.093 C 
ATOM      9  O   UNL     1     -18.997  -4.212 -15.737  1.00  0.00    -0.294 OA
ENDBRANCH   1   7
BRANCH   2  10
ATOM     10  O   UNL     1     -16.140  -4.466 -16.329  1.00  0.00    -0.507 OA
ATOM     11  H   UNL     1     -16.403  -5.241 -16.926  1.00  0.00     0.293 HD
ENDBRANCH   2  10
BRANCH   4  12
ATOM     12  O   UNL     1     -14.642  -0.547 -18.742  1.00  0.00    -0.508 OA
ATOM     13  H   UNL     1     -14.634  -0.663 -19.749  1.00  0.00     0.293 HD
ENDBRANCH   4  12
TORSDOF 3
ENDMDL
MODEL 9
REMARK VINA RESULT:    -4.058      2.544      3.543
REMARK INTER + INTRA:          -4.828
REMARK INTER:                  -4.522
REMARK INTRA:                  -0.306
REMARK UNBOUND:                -0.295
REMARK SMILES CC(=O)c1ccc(O)cc1O
REMARK SMILES IDX 4 1 10 2 9 3 7 4 6 5 5 6 2 7 1 8 3 9 11 10 8 12
REMARK H PARENT 11 11 8 13
REMARK Flexibility Score: inf
ROOT
ATOM      1  C   UNL     1     -17.924  -3.234 -16.128  1.00  0.00     0.059 A 
ATOM      2  C   UNL     1     -17.512  -2.302 -17.112  1.00  0.00     0.130 A 
ATOM      3  C   UNL     1     -17.506  -0.930 -16.818  1.00  0.00     0.093 A 
ATOM      4  C   UNL     1     -17.919  -0.471 -15.562  1.00  0.00     0.119 A 
ATOM      5  C   UNL     1     -18.344  -1.384 -14.596  1.00  0.00     0.047 A 
ATOM      6  C   UNL     1     -18.349  -2.752 -14.876  1.00  0.00     0.019 A 
ENDROOT
BRANCH   1   7
ATOM      7  C   UNL     1     -17.936  -4.701 -16.372  1.00  0.00     0.163 C 
ATOM      8  C   UNL     1     -19.125  -5.559 -16.057  1.00  0.00     0.093 C 
ATOM      9  O   UNL     1     -16.915  -5.254 -16.863  1.00  0.00    -0.294 OA
ENDBRANCH   1   7
BRANCH   2  10
ATOM     10  O   UNL     1     -17.131  -2.726 -18.385  1.00  0.00    -0.507 OA
ATOM     11  H   UNL     1     -16.164  -2.922 -18.615  1.00  0.00     0.293 HD
ENDBRANCH   2  10
BRANCH   4  12
ATOM     12  O   UNL     1     -17.917   0.891 -15.267  1.00  0.00    -0.508 OA
ATOM     13  H   UNL     1     -18.074   1.589 -15.985  1.00  0.00     0.293 HD
ENDBRANCH   4  12
TORSDOF 3
ENDMDL
