MODEL 1
REMARK VINA RESULT:    -4.147      0.000      0.000
REMARK INTER + INTRA:          -9.377
REMARK INTER:                  -7.784
REMARK INTRA:                  -1.593
REMARK UNBOUND:                -1.593
REMARK SMILES O=C([O-])CCCCCCCCCCCCCCC(=O)[O-]
REMARK SMILES IDX 10 1 9 2 8 3 7 4 6 5 5 6 4 7 2 8 1 9 3 10 11 11 12 12 13 13
REMARK SMILES IDX 14 14 15 15 16 16 17 17 18 18 19 19 20 20
REMARK H PARENT
REMARK Flexibility Score: inf
ROOT
ATOM      1  C   UNL     1       6.988  -2.965  -3.271  1.00  0.00     0.000 C 
ENDROOT
BRANCH   1   2
ATOM      2  C   UNL     1       8.052  -3.632  -2.373  1.00  0.00     0.000 C 
BRANCH   2   3
ATOM      3  C   UNL     1       7.860  -3.293  -0.884  1.00  0.00     0.000 C 
BRANCH   3   4
ATOM      4  C   UNL     1       8.772  -2.146  -0.417  1.00  0.00     0.000 C 
BRANCH   4   5
ATOM      5  C   UNL     1       7.978  -0.897   0.005  1.00  0.00     0.000 C 
BRANCH   5   6
ATOM      6  C   UNL     1       6.452  -1.108  -0.088  1.00  0.00     0.006 C 
BRANCH   6   7
ATOM      7  C   UNL     1       5.635   0.167   0.172  1.00  0.00     0.053 C 
BRANCH   7   8
ATOM      8  C   UNL     1       5.603   0.541   1.622  1.00  0.00     0.041 C 
ATOM      9  O   UNL     1       5.758   1.741   1.971  1.00  0.00    -0.550 OA
ATOM     10  O   UNL     1       5.378  -0.434   2.587  1.00  0.00    -0.550 OA
ENDBRANCH   7   8
ENDBRANCH   6   7
ENDBRANCH   5   6
ENDBRANCH   4   5
ENDBRANCH   3   4
ENDBRANCH   2   3
ENDBRANCH   1   2
BRANCH   1  11
ATOM     11  C   UNL     1       7.381  -1.557  -3.757  1.00  0.00     0.000 C 
BRANCH  11  12
ATOM     12  C   UNL     1       6.215  -0.558  -3.871  1.00  0.00     0.000 C 
BRANCH  12  13
ATOM     13  C   UNL     1       4.820  -1.155  -3.613  1.00  0.00     0.000 C 
BRANCH  13  14
ATOM     14  C   UNL     1       3.952  -1.219  -4.879  1.00  0.00     0.000 C 
BRANCH  14  15
ATOM     15  C   UNL     1       2.496  -1.553  -4.530  1.00  0.00     0.000 C 
BRANCH  15  16
ATOM     16  C   UNL     1       2.159  -3.046  -4.704  1.00  0.00     0.006 C 
BRANCH  16  17
ATOM     17  C   UNL     1       1.452  -3.673  -3.489  1.00  0.00     0.053 C 
BRANCH  17  18
ATOM     18  C   UNL     1       1.352  -5.166  -3.585  1.00  0.00     0.041 C 
ATOM     19  O   UNL     1       0.876  -5.834  -2.629  1.00  0.00    -0.550 OA
ATOM     20  O   UNL     1       1.816  -5.823  -4.718  1.00  0.00    -0.550 OA
ENDBRANCH  17  18
ENDBRANCH  16  17
ENDBRANCH  15  16
ENDBRANCH  14  15
ENDBRANCH  13  14
ENDBRANCH  12  13
ENDBRANCH  11  12
ENDBRANCH   1  11
TORSDOF 15
ENDMDL
MODEL 2
REMARK VINA RESULT:    -4.119      1.722      3.519
REMARK INTER + INTRA:          -9.324
REMARK INTER:                  -8.260
REMARK INTRA:                  -1.064
REMARK UNBOUND:                -1.593
REMARK SMILES O=C([O-])CCCCCCCCCCCCCCC(=O)[O-]
REMARK SMILES IDX 10 1 9 2 8 3 7 4 6 5 5 6 4 7 2 8 1 9 3 10 11 11 12 12 13 13
REMARK SMILES IDX 14 14 15 15 16 16 17 17 18 18 19 19 20 20
REMARK H PARENT
REMARK Flexibility Score: inf
ROOT
ATOM      1  C   UNL     1       3.858  -1.874  -5.501  1.00  0.00     0.000 C 
ENDROOT
BRANCH   1   2
ATOM      2  C   UNL     1       5.124  -1.225  -4.901  1.00  0.00     0.000 C 
BRANCH   2   3
ATOM      3  C   UNL     1       5.819  -2.135  -3.872  1.00  0.00     0.000 C 
BRANCH   3   4
ATOM      4  C   UNL     1       6.027  -1.442  -2.515  1.00  0.00     0.000 C 
BRANCH   4   5
ATOM      5  C   UNL     1       7.063  -2.166  -1.637  1.00  0.00     0.000 C 
BRANCH   5   6
ATOM      6  C   UNL     1       7.152  -1.570  -0.217  1.00  0.00     0.006 C 
BRANCH   6   7
ATOM      7  C   UNL     1       6.035  -0.563   0.101  1.00  0.00     0.053 C 
BRANCH   7   8
ATOM      8  C   UNL     1       6.176   0.035   1.467  1.00  0.00     0.041 C 
ATOM      9  O   UNL     1       7.132   0.814   1.722  1.00  0.00    -0.550 OA
ATOM     10  O   UNL     1       5.237  -0.248   2.451  1.00  0.00    -0.550 OA
ENDBRANCH   7   8
ENDBRANCH   6   7
ENDBRANCH   5   6
ENDBRANCH   4   5
ENDBRANCH   3   4
ENDBRANCH   2   3
ENDBRANCH   1   2
BRANCH   1  11
ATOM     11  C   UNL     1       2.569  -1.558  -4.718  1.00  0.00     0.000 C 
BRANCH  11  12
ATOM     12  C   UNL     1       2.052  -2.702  -3.825  1.00  0.00     0.000 C 
BRANCH  12  13
ATOM     13  C   UNL     1       2.270  -4.117  -4.391  1.00  0.00     0.000 C 
BRANCH  13  14
ATOM     14  C   UNL     1       1.009  -4.991  -4.319  1.00  0.00     0.000 C 
BRANCH  14  15
ATOM     15  C   UNL     1       0.222  -4.714  -3.031  1.00  0.00     0.000 C 
BRANCH  15  16
ATOM     16  C   UNL     1      -0.009  -5.977  -2.179  1.00  0.00     0.006 C 
BRANCH  16  17
ATOM     17  C   UNL     1       1.180  -6.346  -1.274  1.00  0.00     0.053 C 
BRANCH  17  18
ATOM     18  C   UNL     1       1.783  -7.673  -1.624  1.00  0.00     0.041 C 
ATOM     19  O   UNL     1       1.612  -8.166  -2.770  1.00  0.00    -0.550 OA
ATOM     20  O   UNL     1       2.506  -8.381  -0.672  1.00  0.00    -0.550 OA
ENDBRANCH  17  18
ENDBRANCH  16  17
ENDBRANCH  15  16
ENDBRANCH  14  15
ENDBRANCH  13  14
ENDBRANCH  12  13
ENDBRANCH  11  12
ENDBRANCH   1  11
TORSDOF 15
ENDMDL
MODEL 3
REMARK VINA RESULT:    -4.098      1.094      7.355
REMARK INTER + INTRA:          -9.285
REMARK INTER:                  -8.173
REMARK INTRA:                  -1.111
REMARK UNBOUND:                -1.593
REMARK SMILES O=C([O-])CCCCCCCCCCCCCCC(=O)[O-]
REMARK SMILES IDX 10 1 9 2 8 3 7 4 6 5 5 6 4 7 2 8 1 9 3 10 11 11 12 12 13 13
REMARK SMILES IDX 14 14 15 15 16 16 17 17 18 18 19 19 20 20
REMARK H PARENT
REMARK Flexibility Score: inf
ROOT
ATOM      1  C   UNL     1       5.406  -1.347  -4.062  1.00  0.00     0.000 C 
ENDROOT
BRANCH   1   2
ATOM      2  C   UNL     1       3.935  -1.440  -3.604  1.00  0.00     0.000 C 
BRANCH   2   3
ATOM      3  C   UNL     1       2.946  -1.309  -4.776  1.00  0.00     0.000 C 
BRANCH   3   4
ATOM      4  C   UNL     1       2.196  -2.620  -5.066  1.00  0.00     0.000 C 
BRANCH   4   5
ATOM      5  C   UNL     1       1.747  -3.338  -3.781  1.00  0.00     0.000 C 
BRANCH   5   6
ATOM      6  C   UNL     1       1.298  -4.790  -4.044  1.00  0.00     0.006 C 
BRANCH   6   7
ATOM      7  C   UNL     1       0.000  -5.177  -3.314  1.00  0.00     0.053 C 
BRANCH   7   8
ATOM      8  C   UNL     1       0.245  -6.101  -2.162  1.00  0.00     0.041 C 
ATOM      9  O   UNL     1       1.087  -5.800  -1.275  1.00  0.00    -0.550 OA
ATOM     10  O   UNL     1      -0.474  -7.285  -2.055  1.00  0.00    -0.550 OA
ENDBRANCH   7   8
ENDBRANCH   6   7
ENDBRANCH   5   6
ENDBRANCH   4   5
ENDBRANCH   3   4
ENDBRANCH   2   3
ENDBRANCH   1   2
BRANCH   1  11
ATOM     11  C   UNL     1       6.180  -2.673  -3.935  1.00  0.00     0.000 C 
BRANCH  11  12
ATOM     12  C   UNL     1       7.556  -2.561  -3.252  1.00  0.00     0.000 C 
BRANCH  12  13
ATOM     13  C   UNL     1       7.861  -3.664  -2.222  1.00  0.00     0.000 C 
BRANCH  13  14
ATOM     14  C   UNL     1       7.692  -3.190  -0.770  1.00  0.00     0.000 C 
BRANCH  14  15
ATOM     15  C   UNL     1       7.605  -1.660  -0.699  1.00  0.00     0.000 C 
BRANCH  15  16
ATOM     16  C   UNL     1       6.338  -1.159   0.018  1.00  0.00     0.006 C 
BRANCH  16  17
ATOM     17  C   UNL     1       6.340   0.352   0.310  1.00  0.00     0.053 C 
BRANCH  17  18
ATOM     18  C   UNL     1       5.720   0.687   1.633  1.00  0.00     0.041 C 
ATOM     19  O   UNL     1       5.567   1.889   1.977  1.00  0.00    -0.550 OA
ATOM     20  O   UNL     1       5.344  -0.329   2.502  1.00  0.00    -0.550 OA
ENDBRANCH  17  18
ENDBRANCH  16  17
ENDBRANCH  15  16
ENDBRANCH  14  15
ENDBRANCH  13  14
ENDBRANCH  12  13
ENDBRANCH  11  12
ENDBRANCH   1  11
TORSDOF 15
ENDMDL
MODEL 4
REMARK VINA RESULT:    -4.061      0.837      6.826
REMARK INTER + INTRA:          -9.216
REMARK INTER:                  -7.667
REMARK INTRA:                  -1.548
REMARK UNBOUND:                -1.593
REMARK SMILES O=C([O-])CCCCCCCCCCCCCCC(=O)[O-]
REMARK SMILES IDX 10 1 9 2 8 3 7 4 6 5 5 6 4 7 2 8 1 9 3 10 11 11 12 12 13 13
REMARK SMILES IDX 14 14 15 15 16 16 17 17 18 18 19 19 20 20
REMARK H PARENT
REMARK Flexibility Score: inf
ROOT
ATOM      1  C   UNL     1       6.959  -4.015  -4.280  1.00  0.00     0.000 C 
ENDROOT
BRANCH   1   2
ATOM      2  C   UNL     1       6.046  -2.876  -4.784  1.00  0.00     0.000 C 
BRANCH   2   3
ATOM      3  C   UNL     1       5.798  -1.804  -3.708  1.00  0.00     0.000 C 
BRANCH   3   4
ATOM      4  C   UNL     1       4.324  -1.371  -3.633  1.00  0.00     0.000 C 
BRANCH   4   5
ATOM      5  C   UNL     1       3.643  -1.363  -5.014  1.00  0.00     0.000 C 
BRANCH   5   6
ATOM      6  C   UNL     1       2.502  -2.397  -5.115  1.00  0.00     0.006 C 
BRANCH   6   7
ATOM      7  C   UNL     1       2.006  -2.905  -3.751  1.00  0.00     0.053 C 
BRANCH   7   8
ATOM      8  C   UNL     1       1.219  -4.173  -3.864  1.00  0.00     0.041 C 
ATOM      9  O   UNL     1       1.108  -4.753  -4.977  1.00  0.00    -0.550 OA
ATOM     10  O   UNL     1       0.629  -4.729  -2.736  1.00  0.00    -0.550 OA
ENDBRANCH   7   8
ENDBRANCH   6   7
ENDBRANCH   5   6
ENDBRANCH   4   5
ENDBRANCH   3   4
ENDBRANCH   2   3
ENDBRANCH   1   2
BRANCH   1  11
ATOM     11  C   UNL     1       8.071  -3.542  -3.325  1.00  0.00     0.000 C 
BRANCH  11  12
ATOM     12  C   UNL     1       8.128  -4.278  -1.974  1.00  0.00     0.000 C 
BRANCH  12  13
ATOM     13  C   UNL     1       7.882  -3.390  -0.740  1.00  0.00     0.000 C 
BRANCH  13  14
ATOM     14  C   UNL     1       8.785  -2.147  -0.707  1.00  0.00     0.000 C 
BRANCH  14  15
ATOM     15  C   UNL     1       7.977  -0.891  -0.356  1.00  0.00     0.000 C 
BRANCH  15  16
ATOM     16  C   UNL     1       6.494  -1.187  -0.065  1.00  0.00     0.006 C 
BRANCH  16  17
ATOM     17  C   UNL     1       5.640   0.071   0.174  1.00  0.00     0.053 C 
BRANCH  17  18
ATOM     18  C   UNL     1       5.563   0.451   1.622  1.00  0.00     0.041 C 
ATOM     19  O   UNL     1       5.393  -0.433   2.503  1.00  0.00    -0.550 OA
ATOM     20  O   UNL     1       5.644   1.787   1.996  1.00  0.00    -0.550 OA
ENDBRANCH  17  18
ENDBRANCH  16  17
ENDBRANCH  15  16
ENDBRANCH  14  15
ENDBRANCH  13  14
ENDBRANCH  12  13
ENDBRANCH  11  12
ENDBRANCH   1  11
TORSDOF 15
ENDMDL
MODEL 5
REMARK VINA RESULT:    -4.031      1.362      2.251
REMARK INTER + INTRA:          -9.159
REMARK INTER:                  -7.434
REMARK INTRA:                  -1.725
REMARK UNBOUND:                -1.593
REMARK SMILES O=C([O-])CCCCCCCCCCCCCCC(=O)[O-]
REMARK SMILES IDX 10 1 9 2 8 3 7 4 6 5 5 6 4 7 2 8 1 9 3 10 11 11 12 12 13 13
REMARK SMILES IDX 14 14 15 15 16 16 17 17 18 18 19 19 20 20
REMARK H PARENT
REMARK Flexibility Score: inf
ROOT
ATOM      1  C   UNL     1       8.407  -2.394  -2.256  1.00  0.00     0.000 C 
ENDROOT
BRANCH   1   2
ATOM      2  C   UNL     1       7.497  -2.812  -1.081  1.00  0.00     0.000 C 
BRANCH   2   3
ATOM      3  C   UNL     1       6.895  -1.601  -0.346  1.00  0.00     0.000 C 
BRANCH   3   4
ATOM      4  C   UNL     1       5.823  -0.878  -1.177  1.00  0.00     0.000 C 
BRANCH   4   5
ATOM      5  C   UNL     1       6.226   0.565  -1.529  1.00  0.00     0.000 C 
BRANCH   5   6
ATOM      6  C   UNL     1       6.661   1.375  -0.290  1.00  0.00     0.006 C 
BRANCH   6   7
ATOM      7  C   UNL     1       5.510   1.685   0.681  1.00  0.00     0.053 C 
BRANCH   7   8
ATOM      8  C   UNL     1       5.752   1.130   2.051  1.00  0.00     0.041 C 
ATOM      9  O   UNL     1       6.379   1.808   2.907  1.00  0.00    -0.550 OA
ATOM     10  O   UNL     1       5.264  -0.126   2.389  1.00  0.00    -0.550 OA
ENDBRANCH   7   8
ENDBRANCH   6   7
ENDBRANCH   5   6
ENDBRANCH   4   5
ENDBRANCH   3   4
ENDBRANCH   2   3
ENDBRANCH   1   2
BRANCH   1  11
ATOM     11  C   UNL     1       8.060  -3.088  -3.587  1.00  0.00     0.000 C 
BRANCH  11  12
ATOM     12  C   UNL     1       6.557  -3.145  -3.920  1.00  0.00     0.000 C 
BRANCH  12  13
ATOM     13  C   UNL     1       6.204  -2.829  -5.385  1.00  0.00     0.000 C 
BRANCH  13  14
ATOM     14  C   UNL     1       5.954  -1.333  -5.631  1.00  0.00     0.000 C 
BRANCH  14  15
ATOM     15  C   UNL     1       4.849  -0.802  -4.708  1.00  0.00     0.000 C 
BRANCH  15  16
ATOM     16  C   UNL     1       3.456  -1.368  -5.044  1.00  0.00     0.006 C 
BRANCH  16  17
ATOM     17  C   UNL     1       2.704  -1.941  -3.830  1.00  0.00     0.053 C 
BRANCH  17  18
ATOM     18  C   UNL     1       1.957  -3.199  -4.153  1.00  0.00     0.041 C 
ATOM     19  O   UNL     1       2.072  -3.733  -5.288  1.00  0.00    -0.550 OA
ATOM     20  O   UNL     1       1.105  -3.764  -3.212  1.00  0.00    -0.550 OA
ENDBRANCH  17  18
ENDBRANCH  16  17
ENDBRANCH  15  16
ENDBRANCH  14  15
ENDBRANCH  13  14
ENDBRANCH  12  13
ENDBRANCH  11  12
ENDBRANCH   1  11
TORSDOF 15
ENDMDL
MODEL 6
REMARK VINA RESULT:    -4.013      1.127      7.575
REMARK INTER + INTRA:          -9.126
REMARK INTER:                  -7.981
REMARK INTRA:                  -1.145
REMARK UNBOUND:                -1.593
REMARK SMILES O=C([O-])CCCCCCCCCCCCCCC(=O)[O-]
REMARK SMILES IDX 10 1 9 2 8 3 7 4 6 5 5 6 4 7 2 8 1 9 3 10 11 11 12 12 13 13
REMARK SMILES IDX 14 14 15 15 16 16 17 17 18 18 19 19 20 20
REMARK H PARENT
REMARK Flexibility Score: inf
ROOT
ATOM      1  C   UNL     1       4.062  -1.056  -4.848  1.00  0.00     0.000 C 
ENDROOT
BRANCH   1   2
ATOM      2  C   UNL     1       2.632  -1.590  -5.081  1.00  0.00     0.000 C 
BRANCH   2   3
ATOM      3  C   UNL     1       2.625  -2.994  -5.712  1.00  0.00     0.000 C 
BRANCH   3   4
ATOM      4  C   UNL     1       1.862  -4.021  -4.859  1.00  0.00     0.000 C 
BRANCH   4   5
ATOM      5  C   UNL     1       1.455  -3.460  -3.485  1.00  0.00     0.000 C 
BRANCH   5   6
ATOM      6  C   UNL     1       0.696  -4.493  -2.627  1.00  0.00     0.006 C 
BRANCH   6   7
ATOM      7  C   UNL     1       0.208  -5.716  -3.421  1.00  0.00     0.053 C 
BRANCH   7   8
ATOM      8  C   UNL     1       0.646  -7.009  -2.807  1.00  0.00     0.041 C 
ATOM      9  O   UNL     1       1.588  -7.027  -1.971  1.00  0.00    -0.550 OA
ATOM     10  O   UNL     1      -0.001  -8.193  -3.140  1.00  0.00    -0.550 OA
ENDBRANCH   7   8
ENDBRANCH   6   7
ENDBRANCH   5   6
ENDBRANCH   4   5
ENDBRANCH   3   4
ENDBRANCH   2   3
ENDBRANCH   1   2
BRANCH   1  11
ATOM     11  C   UNL     1       4.662  -1.462  -3.488  1.00  0.00     0.000 C 
BRANCH  11  12
ATOM     12  C   UNL     1       6.189  -1.297  -3.374  1.00  0.00     0.000 C 
BRANCH  12  13
ATOM     13  C   UNL     1       6.949  -2.569  -2.953  1.00  0.00     0.000 C 
BRANCH  13  14
ATOM     14  C   UNL     1       7.878  -2.341  -1.752  1.00  0.00     0.000 C 
BRANCH  14  15
ATOM     15  C   UNL     1       7.070  -2.161  -0.459  1.00  0.00     0.000 C 
BRANCH  15  16
ATOM     16  C   UNL     1       7.224  -0.760   0.161  1.00  0.00     0.006 C 
BRANCH  16  17
ATOM     17  C   UNL     1       5.918   0.054   0.197  1.00  0.00     0.053 C 
BRANCH  17  18
ATOM     18  C   UNL     1       5.540   0.479   1.584  1.00  0.00     0.041 C 
ATOM     19  O   UNL     1       5.374  -0.382   2.489  1.00  0.00    -0.550 OA
ATOM     20  O   UNL     1       5.335   1.823   1.869  1.00  0.00    -0.550 OA
ENDBRANCH  17  18
ENDBRANCH  16  17
ENDBRANCH  15  16
ENDBRANCH  14  15
ENDBRANCH  13  14
ENDBRANCH  12  13
ENDBRANCH  11  12
ENDBRANCH   1  11
TORSDOF 15
ENDMDL
MODEL 7
REMARK VINA RESULT:    -3.990      2.105      7.727
REMARK INTER + INTRA:          -9.081
REMARK INTER:                  -8.226
REMARK INTRA:                  -0.855
REMARK UNBOUND:                -1.593
REMARK SMILES O=C([O-])CCCCCCCCCCCCCCC(=O)[O-]
REMARK SMILES IDX 10 1 9 2 8 3 7 4 6 5 5 6 4 7 2 8 1 9 3 10 11 11 12 12 13 13
REMARK SMILES IDX 14 14 15 15 16 16 17 17 18 18 19 19 20 20
REMARK H PARENT
REMARK Flexibility Score: inf
ROOT
ATOM      1  C   UNL     1       2.269  -2.284  -4.138  1.00  0.00     0.000 C 
ENDROOT
BRANCH   1   2
ATOM      2  C   UNL     1       2.073  -3.542  -5.013  1.00  0.00     0.000 C 
BRANCH   2   3
ATOM      3  C   UNL     1       1.463  -4.715  -4.225  1.00  0.00     0.000 C 
BRANCH   3   4
ATOM      4  C   UNL     1       0.869  -4.277  -2.877  1.00  0.00     0.000 C 
BRANCH   4   5
ATOM      5  C   UNL     1       0.474  -5.472  -1.991  1.00  0.00     0.000 C 
BRANCH   5   6
ATOM      6  C   UNL     1       1.316  -6.730  -2.289  1.00  0.00     0.006 C 
BRANCH   6   7
ATOM      7  C   UNL     1       1.792  -7.468  -1.027  1.00  0.00     0.053 C 
BRANCH   7   8
ATOM      8  C   UNL     1       1.483  -8.933  -1.070  1.00  0.00     0.041 C 
ATOM      9  O   UNL     1       1.701  -9.596  -2.118  1.00  0.00    -0.550 OA
ATOM     10  O   UNL     1       0.976  -9.570   0.056  1.00  0.00    -0.550 OA
ENDBRANCH   7   8
ENDBRANCH   6   7
ENDBRANCH   5   6
ENDBRANCH   4   5
ENDBRANCH   3   4
ENDBRANCH   2   3
ENDBRANCH   1   2
BRANCH   1  11
ATOM     11  C   UNL     1       2.910  -1.101  -4.888  1.00  0.00     0.000 C 
BRANCH  11  12
ATOM     12  C   UNL     1       4.442  -1.168  -5.022  1.00  0.00     0.000 C 
BRANCH  12  13
ATOM     13  C   UNL     1       5.146  -2.069  -3.990  1.00  0.00     0.000 C 
BRANCH  13  14
ATOM     14  C   UNL     1       6.151  -1.306  -3.115  1.00  0.00     0.000 C 
BRANCH  14  15
ATOM     15  C   UNL     1       5.446  -0.629  -1.932  1.00  0.00     0.000 C 
BRANCH  15  16
ATOM     16  C   UNL     1       6.425  -0.079  -0.878  1.00  0.00     0.006 C 
BRANCH  16  17
ATOM     17  C   UNL     1       6.306  -0.757   0.499  1.00  0.00     0.053 C 
BRANCH  17  18
ATOM     18  C   UNL     1       5.731   0.152   1.543  1.00  0.00     0.041 C 
ATOM     19  O   UNL     1       5.371  -0.309   2.658  1.00  0.00    -0.550 OA
ATOM     20  O   UNL     1       5.558   1.504   1.271  1.00  0.00    -0.550 OA
ENDBRANCH  17  18
ENDBRANCH  16  17
ENDBRANCH  15  16
ENDBRANCH  14  15
ENDBRANCH  13  14
ENDBRANCH  12  13
ENDBRANCH  11  12
ENDBRANCH   1  11
TORSDOF 15
ENDMDL
MODEL 8
REMARK VINA RESULT:    -3.943      1.370      7.109
REMARK INTER + INTRA:          -8.993
REMARK INTER:                  -7.446
REMARK INTRA:                  -1.548
REMARK UNBOUND:                -1.593
REMARK SMILES O=C([O-])CCCCCCCCCCCCCCC(=O)[O-]
REMARK SMILES IDX 10 1 9 2 8 3 7 4 6 5 5 6 4 7 2 8 1 9 3 10 11 11 12 12 13 13
REMARK SMILES IDX 14 14 15 15 16 16 17 17 18 18 19 19 20 20
REMARK H PARENT
REMARK Flexibility Score: inf
ROOT
ATOM      1  C   UNL     1       7.081  -2.804  -3.100  1.00  0.00     0.000 C 
ENDROOT
BRANCH   1   2
ATOM      2  C   UNL     1       7.230  -1.499  -3.911  1.00  0.00     0.000 C 
BRANCH   2   3
ATOM      3  C   UNL     1       5.918  -1.084  -4.601  1.00  0.00     0.000 C 
BRANCH   3   4
ATOM      4  C   UNL     1       4.673  -1.478  -3.789  1.00  0.00     0.000 C 
BRANCH   4   5
ATOM      5  C   UNL     1       3.389  -1.468  -4.639  1.00  0.00     0.000 C 
BRANCH   5   6
ATOM      6  C   UNL     1       2.249  -2.281  -3.993  1.00  0.00     0.006 C 
BRANCH   6   7
ATOM      7  C   UNL     1       2.152  -3.727  -4.508  1.00  0.00     0.053 C 
BRANCH   7   8
ATOM      8  C   UNL     1       1.038  -4.491  -3.863  1.00  0.00     0.041 C 
ATOM      9  O   UNL     1       0.757  -4.298  -2.650  1.00  0.00    -0.550 OA
ATOM     10  O   UNL     1       0.295  -5.399  -4.607  1.00  0.00    -0.550 OA
ENDBRANCH   7   8
ENDBRANCH   6   7
ENDBRANCH   5   6
ENDBRANCH   4   5
ENDBRANCH   3   4
ENDBRANCH   2   3
ENDBRANCH   1   2
BRANCH   1  11
ATOM     11  C   UNL     1       7.863  -2.802  -1.773  1.00  0.00     0.000 C 
BRANCH  11  12
ATOM     12  C   UNL     1       7.801  -1.483  -0.981  1.00  0.00     0.000 C 
BRANCH  12  13
ATOM     13  C   UNL     1       6.561  -1.323  -0.083  1.00  0.00     0.000 C 
BRANCH  13  14
ATOM     14  C   UNL     1       5.562  -0.287  -0.621  1.00  0.00     0.000 C 
BRANCH  14  15
ATOM     15  C   UNL     1       6.293   0.886  -1.288  1.00  0.00     0.000 C 
BRANCH  15  16
ATOM     16  C   UNL     1       6.713   1.982  -0.292  1.00  0.00     0.006 C 
BRANCH  16  17
ATOM     17  C   UNL     1       5.564   2.915   0.132  1.00  0.00     0.053 C 
BRANCH  17  18
ATOM     18  C   UNL     1       5.088   2.649   1.528  1.00  0.00     0.041 C 
ATOM     19  O   UNL     1       5.674   1.798   2.248  1.00  0.00    -0.550 OA
ATOM     20  O   UNL     1       3.973   3.315   2.022  1.00  0.00    -0.550 OA
ENDBRANCH  17  18
ENDBRANCH  16  17
ENDBRANCH  15  16
ENDBRANCH  14  15
ENDBRANCH  13  14
ENDBRANCH  12  13
ENDBRANCH  11  12
ENDBRANCH   1  11
TORSDOF 15
ENDMDL
MODEL 9
REMARK VINA RESULT:    -3.903      2.926      6.508
REMARK INTER + INTRA:          -8.918
REMARK INTER:                  -7.407
REMARK INTRA:                  -1.511
REMARK UNBOUND:                -1.593
REMARK SMILES O=C([O-])CCCCCCCCCCCCCCC(=O)[O-]
REMARK SMILES IDX 10 1 9 2 8 3 7 4 6 5 5 6 4 7 2 8 1 9 3 10 11 11 12 12 13 13
REMARK SMILES IDX 14 14 15 15 16 16 17 17 18 18 19 19 20 20
REMARK H PARENT
REMARK Flexibility Score: inf
ROOT
ATOM      1  C   UNL     1       6.194  -0.710  -3.855  1.00  0.00     0.000 C 
ENDROOT
BRANCH   1   2
ATOM      2  C   UNL     1       4.980  -1.657  -3.960  1.00  0.00     0.000 C 
BRANCH   2   3
ATOM      3  C   UNL     1       4.133  -1.388  -5.216  1.00  0.00     0.000 C 
BRANCH   3   4
ATOM      4  C   UNL     1       2.623  -1.488  -4.944  1.00  0.00     0.000 C 
BRANCH   4   5
ATOM      5  C   UNL     1       2.304  -2.335  -3.699  1.00  0.00     0.000 C 
BRANCH   5   6
ATOM      6  C   UNL     1       1.740  -3.725  -4.061  1.00  0.00     0.006 C 
BRANCH   6   7
ATOM      7  C   UNL     1       0.799  -4.307  -2.993  1.00  0.00     0.053 C 
BRANCH   7   8
ATOM      8  C   UNL     1       1.092  -5.745  -2.696  1.00  0.00     0.041 C 
ATOM      9  O   UNL     1       1.301  -6.557  -3.636  1.00  0.00    -0.550 OA
ATOM     10  O   UNL     1       1.157  -6.185  -1.379  1.00  0.00    -0.550 OA
ENDBRANCH   7   8
ENDBRANCH   6   7
ENDBRANCH   5   6
ENDBRANCH   4   5
ENDBRANCH   3   4
ENDBRANCH   2   3
ENDBRANCH   1   2
BRANCH   1  11
ATOM     11  C   UNL     1       6.290   0.028  -2.505  1.00  0.00     0.000 C 
BRANCH  11  12
ATOM     12  C   UNL     1       5.433  -0.569  -1.374  1.00  0.00     0.000 C 
BRANCH  12  13
ATOM     13  C   UNL     1       6.211  -0.938  -0.096  1.00  0.00     0.000 C 
BRANCH  13  14
ATOM     14  C   UNL     1       7.610  -1.501  -0.388  1.00  0.00     0.000 C 
BRANCH  14  15
ATOM     15  C   UNL     1       7.542  -2.999  -0.712  1.00  0.00     0.000 C 
BRANCH  15  16
ATOM     16  C   UNL     1       8.016  -3.331  -2.139  1.00  0.00     0.006 C 
BRANCH  16  17
ATOM     17  C   UNL     1       8.256  -4.832  -2.385  1.00  0.00     0.053 C 
BRANCH  17  18
ATOM     18  C   UNL     1       7.814  -5.273  -3.748  1.00  0.00     0.041 C 
ATOM     19  O   UNL     1       7.983  -6.465  -4.116  1.00  0.00    -0.550 OA
ATOM     20  O   UNL     1       7.246  -4.357  -4.625  1.00  0.00    -0.550 OA
ENDBRANCH  17  18
ENDBRANCH  16  17
ENDBRANCH  15  16
ENDBRANCH  14  15
ENDBRANCH  13  14
ENDBRANCH  12  13
ENDBRANCH  11  12
ENDBRANCH   1  11
TORSDOF 15
ENDMDL
