MODEL 1
REMARK VINA RESULT:    -6.756      0.000      0.000
REMARK INTER + INTRA:          -7.392
REMARK INTER:                  -7.349
REMARK INTRA:                  -0.044
REMARK UNBOUND:                -0.044
REMARK SMILES COc1cc2ccc(=O)oc2cc1O
REMARK SMILES IDX 3 1 13 2 12 3 11 4 5 5 4 6 6 7 7 8 8 9 9 10 10 11 2 12 1 13
REMARK SMILES IDX 14 14
REMARK H PARENT 14 15
REMARK Flexibility Score: inf
ROOT
ATOM      1  C   UNL     1     -30.086  57.536  -0.142  1.00  0.00     0.161 A 
ATOM      2  C   UNL     1     -31.238  57.090   0.534  1.00  0.00     0.161 A 
ATOM      3  C   UNL     1     -31.297  57.135   1.931  1.00  0.00     0.098 A 
ATOM      4  C   UNL     1     -30.215  57.623   2.669  1.00  0.00     0.142 A 
ATOM      5  C   UNL     1     -29.058  58.072   2.002  1.00  0.00     0.022 A 
ATOM      6  C   UNL     1     -28.995  58.028   0.602  1.00  0.00     0.062 A 
ATOM      7  C   UNL     1     -27.991  58.554   2.768  1.00  0.00     0.019 A 
ATOM      8  C   UNL     1     -28.102  58.577   4.158  1.00  0.00     0.094 A 
ATOM      9  C   UNL     1     -29.281  58.114   4.751  1.00  0.00     0.336 A 
ATOM     10  O   UNL     1     -29.401  58.127   6.004  1.00  0.00    -0.246 OA
ATOM     11  O   UNL     1     -30.281  57.661   3.999  1.00  0.00    -0.423 OA
ENDROOT
BRANCH   1  12
ATOM     12  O   UNL     1     -30.061  57.478  -1.545  1.00  0.00    -0.493 OA
ATOM     13  C   UNL     1     -28.893  57.651  -2.341  1.00  0.00     0.278 C 
ENDBRANCH   1  12
BRANCH   2  14
ATOM     14  O   UNL     1     -32.339  56.597  -0.167  1.00  0.00    -0.504 OA
ATOM     15  H   UNL     1     -33.195  56.320   0.298  1.00  0.00     0.293 HD
ENDBRANCH   2  14
TORSDOF 2
ENDMDL
MODEL 2
REMARK VINA RESULT:    -6.681      1.908      4.529
REMARK INTER + INTRA:          -7.310
REMARK INTER:                  -7.267
REMARK INTRA:                  -0.044
REMARK UNBOUND:                -0.044
REMARK SMILES COc1cc2ccc(=O)oc2cc1O
REMARK SMILES IDX 3 1 13 2 12 3 11 4 5 5 4 6 6 7 7 8 8 9 9 10 10 11 2 12 1 13
REMARK SMILES IDX 14 14
REMARK H PARENT 14 15
REMARK Flexibility Score: inf
ROOT
ATOM      1  C   UNL     1     -30.818  57.102   2.034  1.00  0.00     0.161 A 
ATOM      2  C   UNL     1     -31.341  57.368   0.754  1.00  0.00     0.161 A 
ATOM      3  C   UNL     1     -30.491  57.432  -0.356  1.00  0.00     0.098 A 
ATOM      4  C   UNL     1     -29.116  57.230  -0.206  1.00  0.00     0.142 A 
ATOM      5  C   UNL     1     -28.583  56.963   1.072  1.00  0.00     0.022 A 
ATOM      6  C   UNL     1     -29.432  56.899   2.186  1.00  0.00     0.062 A 
ATOM      7  C   UNL     1     -27.203  56.766   1.190  1.00  0.00     0.019 A 
ATOM      8  C   UNL     1     -26.401  56.840   0.052  1.00  0.00     0.094 A 
ATOM      9  C   UNL     1     -27.000  57.110  -1.183  1.00  0.00     0.336 A 
ATOM     10  O   UNL     1     -26.293  57.180  -2.222  1.00  0.00    -0.246 OA
ATOM     11  O   UNL     1     -28.315  57.292  -1.267  1.00  0.00    -0.423 OA
ENDROOT
BRANCH   1  12
ATOM     12  O   UNL     1     -31.700  57.045   3.125  1.00  0.00    -0.493 OA
ATOM     13  C   UNL     1     -31.296  57.002   4.490  1.00  0.00     0.278 C 
ENDBRANCH   1  12
BRANCH   2  14
ATOM     14  O   UNL     1     -32.707  57.574   0.563  1.00  0.00    -0.504 OA
ATOM     15  H   UNL     1     -33.162  58.445   0.811  1.00  0.00     0.293 HD
ENDBRANCH   2  14
TORSDOF 2
ENDMDL
MODEL 3
REMARK VINA RESULT:    -6.504      2.604      4.429
REMARK INTER + INTRA:          -7.118
REMARK INTER:                  -7.070
REMARK INTRA:                  -0.048
REMARK UNBOUND:                -0.044
REMARK SMILES COc1cc2ccc(=O)oc2cc1O
REMARK SMILES IDX 3 1 13 2 12 3 11 4 5 5 4 6 6 7 7 8 8 9 9 10 10 11 2 12 1 13
REMARK SMILES IDX 14 14
REMARK H PARENT 14 15
REMARK Flexibility Score: inf
ROOT
ATOM      1  C   UNL     1     -26.850  57.007   0.435  1.00  0.00     0.161 A 
ATOM      2  C   UNL     1     -27.291  57.176  -0.892  1.00  0.00     0.161 A 
ATOM      3  C   UNL     1     -28.656  57.315  -1.169  1.00  0.00     0.098 A 
ATOM      4  C   UNL     1     -29.594  57.288  -0.133  1.00  0.00     0.142 A 
ATOM      5  C   UNL     1     -29.163  57.120   1.198  1.00  0.00     0.022 A 
ATOM      6  C   UNL     1     -27.796  56.980   1.479  1.00  0.00     0.062 A 
ATOM      7  C   UNL     1     -30.125  57.097   2.213  1.00  0.00     0.019 A 
ATOM      8  C   UNL     1     -31.472  57.240   1.882  1.00  0.00     0.094 A 
ATOM      9  C   UNL     1     -31.826  57.403   0.539  1.00  0.00     0.336 A 
ATOM     10  O   UNL     1     -33.036  57.534   0.219  1.00  0.00    -0.246 OA
ATOM     11  O   UNL     1     -30.890  57.422  -0.407  1.00  0.00    -0.423 OA
ENDROOT
BRANCH   1  12
ATOM     12  O   UNL     1     -25.473  56.871   0.677  1.00  0.00    -0.493 OA
ATOM     13  C   UNL     1     -24.779  57.481   1.760  1.00  0.00     0.278 C 
ENDBRANCH   1  12
BRANCH   2  14
ATOM     14  O   UNL     1     -26.386  57.209  -1.953  1.00  0.00    -0.504 OA
ATOM     15  H   UNL     1     -26.007  56.364  -2.365  1.00  0.00     0.293 HD
ENDBRANCH   2  14
TORSDOF 2
ENDMDL
MODEL 4
REMARK VINA RESULT:    -6.480     11.962     13.987
REMARK INTER + INTRA:          -7.091
REMARK INTER:                  -7.115
REMARK INTRA:                   0.023
REMARK UNBOUND:                -0.044
REMARK SMILES COc1cc2ccc(=O)oc2cc1O
REMARK SMILES IDX 3 1 13 2 12 3 11 4 5 5 4 6 6 7 7 8 8 9 9 10 10 11 2 12 1 13
REMARK SMILES IDX 14 14
REMARK H PARENT 14 15
REMARK Flexibility Score: inf
ROOT
ATOM      1  C   UNL     1     -19.608  57.842  -4.758  1.00  0.00     0.161 A 
ATOM      2  C   UNL     1     -19.083  57.908  -6.063  1.00  0.00     0.161 A 
ATOM      3  C   UNL     1     -17.918  58.641  -6.318  1.00  0.00     0.098 A 
ATOM      4  C   UNL     1     -17.264  59.313  -5.282  1.00  0.00     0.142 A 
ATOM      5  C   UNL     1     -17.782  59.252  -3.972  1.00  0.00     0.022 A 
ATOM      6  C   UNL     1     -18.949  58.519  -3.713  1.00  0.00     0.062 A 
ATOM      7  C   UNL     1     -17.105  59.935  -2.956  1.00  0.00     0.019 A 
ATOM      8  C   UNL     1     -15.949  60.650  -3.264  1.00  0.00     0.094 A 
ATOM      9  C   UNL     1     -15.494  60.666  -4.587  1.00  0.00     0.336 A 
ATOM     10  O   UNL     1     -14.452  61.305  -4.886  1.00  0.00    -0.246 OA
ATOM     11  O   UNL     1     -16.157  60.007  -5.534  1.00  0.00    -0.423 OA
ENDROOT
BRANCH   1  12
ATOM     12  O   UNL     1     -20.778  57.098  -4.538  1.00  0.00    -0.493 OA
ATOM     13  C   UNL     1     -22.091  57.538  -4.871  1.00  0.00     0.278 C 
ENDBRANCH   1  12
BRANCH   2  14
ATOM     14  O   UNL     1     -19.706  57.251  -7.124  1.00  0.00    -0.504 OA
ATOM     15  H   UNL     1     -20.373  56.503  -6.978  1.00  0.00     0.293 HD
ENDBRANCH   2  14
TORSDOF 2
ENDMDL
MODEL 5
REMARK VINA RESULT:    -6.475      1.240      5.426
REMARK INTER + INTRA:          -7.087
REMARK INTER:                  -7.035
REMARK INTRA:                  -0.052
REMARK UNBOUND:                -0.044
REMARK SMILES COc1cc2ccc(=O)oc2cc1O
REMARK SMILES IDX 3 1 13 2 12 3 11 4 5 5 4 6 6 7 7 8 8 9 9 10 10 11 2 12 1 13
REMARK SMILES IDX 14 14
REMARK H PARENT 14 15
REMARK Flexibility Score: inf
ROOT
ATOM      1  C   UNL     1     -29.174  58.095   4.302  1.00  0.00     0.161 A 
ATOM      2  C   UNL     1     -28.072  58.614   3.594  1.00  0.00     0.161 A 
ATOM      3  C   UNL     1     -28.044  58.562   2.196  1.00  0.00     0.098 A 
ATOM      4  C   UNL     1     -29.108  57.997   1.489  1.00  0.00     0.142 A 
ATOM      5  C   UNL     1     -30.216  57.476   2.187  1.00  0.00     0.022 A 
ATOM      6  C   UNL     1     -30.247  57.526   3.589  1.00  0.00     0.062 A 
ATOM      7  C   UNL     1     -31.266  56.916   1.452  1.00  0.00     0.019 A 
ATOM      8  C   UNL     1     -31.188  56.890   0.060  1.00  0.00     0.094 A 
ATOM      9  C   UNL     1     -30.057  57.426  -0.566  1.00  0.00     0.336 A 
ATOM     10  O   UNL     1     -29.968  57.413  -1.821  1.00  0.00    -0.246 OA
ATOM     11  O   UNL     1     -29.073  57.953   0.158  1.00  0.00    -0.423 OA
ENDROOT
BRANCH   1  12
ATOM     12  O   UNL     1     -29.168  58.164   5.705  1.00  0.00    -0.493 OA
ATOM     13  C   UNL     1     -30.250  58.647   6.494  1.00  0.00     0.278 C 
ENDBRANCH   1  12
BRANCH   2  14
ATOM     14  O   UNL     1     -26.990  59.186   4.265  1.00  0.00    -0.504 OA
ATOM     15  H   UNL     1     -26.052  58.811   4.194  1.00  0.00     0.293 HD
ENDBRANCH   2  14
TORSDOF 2
ENDMDL
MODEL 6
REMARK VINA RESULT:    -6.445      2.368      3.730
REMARK INTER + INTRA:          -7.054
REMARK INTER:                  -7.000
REMARK INTRA:                  -0.054
REMARK UNBOUND:                -0.044
REMARK SMILES COc1cc2ccc(=O)oc2cc1O
REMARK SMILES IDX 3 1 13 2 12 3 11 4 5 5 4 6 6 7 7 8 8 9 9 10 10 11 2 12 1 13
REMARK SMILES IDX 14 14
REMARK H PARENT 14 15
REMARK Flexibility Score: inf
ROOT
ATOM      1  C   UNL     1     -27.233  57.143  -0.900  1.00  0.00     0.161 A 
ATOM      2  C   UNL     1     -26.759  56.756   0.369  1.00  0.00     0.161 A 
ATOM      3  C   UNL     1     -27.638  56.674   1.455  1.00  0.00     0.098 A 
ATOM      4  C   UNL     1     -28.993  56.975   1.292  1.00  0.00     0.142 A 
ATOM      5  C   UNL     1     -29.477  57.363   0.026  1.00  0.00     0.022 A 
ATOM      6  C   UNL     1     -28.599  57.446  -1.064  1.00  0.00     0.062 A 
ATOM      7  C   UNL     1     -30.838  57.658  -0.106  1.00  0.00     0.019 A 
ATOM      8  C   UNL     1     -31.671  57.561   1.008  1.00  0.00     0.094 A 
ATOM      9  C   UNL     1     -31.120  57.169   2.233  1.00  0.00     0.336 A 
ATOM     10  O   UNL     1     -31.855  57.075   3.251  1.00  0.00    -0.246 OA
ATOM     11  O   UNL     1     -29.822  56.894   2.330  1.00  0.00    -0.423 OA
ENDROOT
BRANCH   1  12
ATOM     12  O   UNL     1     -26.323  57.214  -1.967  1.00  0.00    -0.493 OA
ATOM     13  C   UNL     1     -26.498  56.565  -3.222  1.00  0.00     0.278 C 
ENDBRANCH   1  12
BRANCH   2  14
ATOM     14  O   UNL     1     -25.414  56.447   0.572  1.00  0.00    -0.504 OA
ATOM     15  H   UNL     1     -24.746  57.135   0.897  1.00  0.00     0.293 HD
ENDBRANCH   2  14
TORSDOF 2
ENDMDL
MODEL 7
REMARK VINA RESULT:    -6.362     11.363     13.850
REMARK INTER + INTRA:          -6.964
REMARK INTER:                  -6.919
REMARK INTRA:                  -0.045
REMARK UNBOUND:                -0.044
REMARK SMILES COc1cc2ccc(=O)oc2cc1O
REMARK SMILES IDX 3 1 13 2 12 3 11 4 5 5 4 6 6 7 7 8 8 9 9 10 10 11 2 12 1 13
REMARK SMILES IDX 14 14
REMARK H PARENT 14 15
REMARK Flexibility Score: inf
ROOT
ATOM      1  C   UNL     1     -16.905  59.269  -4.980  1.00  0.00     0.161 A 
ATOM      2  C   UNL     1     -16.984  58.687  -6.260  1.00  0.00     0.161 A 
ATOM      3  C   UNL     1     -18.171  58.083  -6.688  1.00  0.00     0.098 A 
ATOM      4  C   UNL     1     -19.290  58.051  -5.852  1.00  0.00     0.142 A 
ATOM      5  C   UNL     1     -19.221  58.631  -4.568  1.00  0.00     0.022 A 
ATOM      6  C   UNL     1     -18.033  59.237  -4.136  1.00  0.00     0.062 A 
ATOM      7  C   UNL     1     -20.357  58.583  -3.754  1.00  0.00     0.019 A 
ATOM      8  C   UNL     1     -21.515  57.969  -4.229  1.00  0.00     0.094 A 
ATOM      9  C   UNL     1     -21.510  57.414  -5.514  1.00  0.00     0.336 A 
ATOM     10  O   UNL     1     -22.545  56.856  -5.962  1.00  0.00    -0.246 OA
ATOM     11  O   UNL     1     -20.415  57.475  -6.268  1.00  0.00    -0.423 OA
ENDROOT
BRANCH   1  12
ATOM     12  O   UNL     1     -15.698  59.867  -4.583  1.00  0.00    -0.493 OA
ATOM     13  C   UNL     1     -15.593  60.919  -3.630  1.00  0.00     0.278 C 
ENDBRANCH   1  12
BRANCH   2  14
ATOM     14  O   UNL     1     -15.889  58.699  -7.125  1.00  0.00    -0.504 OA
ATOM     15  H   UNL     1     -15.016  58.239  -6.896  1.00  0.00     0.293 HD
ENDBRANCH   2  14
TORSDOF 2
ENDMDL
MODEL 8
REMARK VINA RESULT:    -6.358      1.309      4.701
REMARK INTER + INTRA:          -6.959
REMARK INTER:                  -6.912
REMARK INTRA:                  -0.047
REMARK UNBOUND:                -0.044
REMARK SMILES COc1cc2ccc(=O)oc2cc1O
REMARK SMILES IDX 3 1 13 2 12 3 11 4 5 5 4 6 6 7 7 8 8 9 9 10 10 11 2 12 1 13
REMARK SMILES IDX 14 14
REMARK H PARENT 14 15
REMARK Flexibility Score: inf
ROOT
ATOM      1  C   UNL     1     -28.215  58.371   3.476  1.00  0.00     0.161 A 
ATOM      2  C   UNL     1     -29.351  57.974   4.209  1.00  0.00     0.161 A 
ATOM      3  C   UNL     1     -30.488  57.502   3.544  1.00  0.00     0.098 A 
ATOM      4  C   UNL     1     -30.509  57.418   2.150  1.00  0.00     0.142 A 
ATOM      5  C   UNL     1     -29.377  57.813   1.407  1.00  0.00     0.022 A 
ATOM      6  C   UNL     1     -28.236  58.287   2.070  1.00  0.00     0.062 A 
ATOM      7  C   UNL     1     -29.428  57.719   0.013  1.00  0.00     0.019 A 
ATOM      8  C   UNL     1     -30.586  57.242  -0.599  1.00  0.00     0.094 A 
ATOM      9  C   UNL     1     -31.671  56.868   0.202  1.00  0.00     0.336 A 
ATOM     10  O   UNL     1     -32.725  56.434  -0.331  1.00  0.00    -0.246 OA
ATOM     11  O   UNL     1     -31.595  56.967   1.526  1.00  0.00    -0.423 OA
ENDROOT
BRANCH   1  12
ATOM     12  O   UNL     1     -27.091  58.840   4.175  1.00  0.00    -0.493 OA
ATOM     13  C   UNL     1     -25.741  58.610   3.782  1.00  0.00     0.278 C 
ENDBRANCH   1  12
BRANCH   2  14
ATOM     14  O   UNL     1     -29.368  58.041   5.602  1.00  0.00    -0.504 OA
ATOM     15  H   UNL     1     -28.584  57.739   6.167  1.00  0.00     0.293 HD
ENDBRANCH   2  14
TORSDOF 2
ENDMDL
MODEL 9
REMARK VINA RESULT:    -6.311      1.355      4.981
REMARK INTER + INTRA:          -6.908
REMARK INTER:                  -6.898
REMARK INTRA:                  -0.010
REMARK UNBOUND:                -0.044
REMARK SMILES COc1cc2ccc(=O)oc2cc1O
REMARK SMILES IDX 3 1 13 2 12 3 11 4 5 5 4 6 6 7 7 8 8 9 9 10 10 11 2 12 1 13
REMARK SMILES IDX 14 14
REMARK H PARENT 14 15
REMARK Flexibility Score: inf
ROOT
ATOM      1  C   UNL     1     -29.794  57.762   4.521  1.00  0.00     0.161 A 
ATOM      2  C   UNL     1     -30.651  56.673   4.268  1.00  0.00     0.161 A 
ATOM      3  C   UNL     1     -30.972  56.318   2.953  1.00  0.00     0.098 A 
ATOM      4  C   UNL     1     -30.445  57.039   1.878  1.00  0.00     0.142 A 
ATOM      5  C   UNL     1     -29.587  58.131   2.120  1.00  0.00     0.022 A 
ATOM      6  C   UNL     1     -29.263  58.489   3.437  1.00  0.00     0.062 A 
ATOM      7  C   UNL     1     -29.075  58.833   1.024  1.00  0.00     0.019 A 
ATOM      8  C   UNL     1     -29.427  58.438  -0.266  1.00  0.00     0.094 A 
ATOM      9  C   UNL     1     -30.284  57.344  -0.431  1.00  0.00     0.336 A 
ATOM     10  O   UNL     1     -30.613  56.971  -1.587  1.00  0.00    -0.246 OA
ATOM     11  O   UNL     1     -30.755  56.694   0.630  1.00  0.00    -0.423 OA
ENDROOT
BRANCH   1  12
ATOM     12  O   UNL     1     -29.494  58.090   5.853  1.00  0.00    -0.493 OA
ATOM     13  C   UNL     1     -30.333  58.863   6.704  1.00  0.00     0.278 C 
ENDBRANCH   1  12
BRANCH   2  14
ATOM     14  O   UNL     1     -31.196  55.928   5.315  1.00  0.00    -0.504 OA
ATOM     15  H   UNL     1     -32.030  55.365   5.199  1.00  0.00     0.293 HD
ENDBRANCH   2  14
TORSDOF 2
ENDMDL
