MODEL 1
REMARK VINA RESULT:    -4.602      0.000      0.000
REMARK INTER + INTRA:          -7.498
REMARK INTER:                  -6.217
REMARK INTRA:                  -1.281
REMARK UNBOUND:                -1.281
REMARK SMILES CC(=O)CCC=C(C)CCC=C(C)C
REMARK SMILES IDX 7 1 6 2 8 3 9 4 10 5 11 6 13 7 12 8 14 9 5 10 4 11 2 12 3 13
REMARK SMILES IDX 1 14
REMARK H PARENT
REMARK Flexibility Score: inf
ROOT
ATOM      1  C   UNL     1     -12.579  14.616 -30.148  1.00  0.00    -0.077 C 
ATOM      2  C   UNL     1     -13.819  15.021 -30.505  1.00  0.00    -0.028 C 
ATOM      3  C   UNL     1     -11.526  14.271 -31.174  1.00  0.00     0.039 C 
ENDROOT
BRANCH   1   4
ATOM      4  C   UNL     1     -12.231  14.529 -28.678  1.00  0.00     0.034 C 
BRANCH   4   5
ATOM      5  C   UNL     1     -12.357  13.086 -28.176  1.00  0.00     0.032 C 
BRANCH   5   6
ATOM      6  C   UNL     1     -13.724  12.840 -27.589  1.00  0.00    -0.028 C 
ATOM      7  C   UNL     1     -14.486  11.458 -29.533  1.00  0.00     0.039 C 
ATOM      8  C   UNL     1     -14.683  12.090 -28.175  1.00  0.00    -0.080 C 
ATOM      9  C   UNL     1     -15.990  11.900 -27.449  1.00  0.00     0.039 C 
ENDBRANCH   5   6
ENDBRANCH   4   5
ENDBRANCH   1   4
BRANCH   2  10
ATOM     10  C   UNL     1     -14.317  15.101 -31.929  1.00  0.00     0.035 C 
BRANCH  10  11
ATOM     11  C   UNL     1     -15.184  13.892 -32.304  1.00  0.00     0.079 C 
BRANCH  11  12
ATOM     12  C   UNL     1     -16.645  14.143 -32.023  1.00  0.00     0.130 C 
ATOM     13  O   UNL     1     -17.313  14.780 -32.823  1.00  0.00    -0.300 OA
ATOM     14  C   UNL     1     -17.295  13.637 -30.769  1.00  0.00     0.087 C 
ENDBRANCH  11  12
ENDBRANCH  10  11
ENDBRANCH   2  10
TORSDOF 6
ENDMDL
MODEL 2
REMARK VINA RESULT:    -4.409      0.950      3.408
REMARK INTER + INTRA:          -7.237
REMARK INTER:                  -6.055
REMARK INTRA:                  -1.182
REMARK UNBOUND:                -1.281
REMARK SMILES CC(=O)CCC=C(C)CCC=C(C)C
REMARK SMILES IDX 7 1 6 2 8 3 9 4 10 5 11 6 13 7 12 8 14 9 5 10 4 11 2 12 3 13
REMARK SMILES IDX 1 14
REMARK H PARENT
REMARK Flexibility Score: inf
ROOT
ATOM      1  C   UNL     1     -14.285  12.304 -28.866  1.00  0.00    -0.077 C 
ATOM      2  C   UNL     1     -15.335  13.144 -29.004  1.00  0.00    -0.028 C 
ATOM      3  C   UNL     1     -14.113  11.090 -29.750  1.00  0.00     0.039 C 
ENDROOT
BRANCH   1   4
ATOM      4  C   UNL     1     -13.240  12.601 -27.813  1.00  0.00     0.034 C 
BRANCH   4   5
ATOM      5  C   UNL     1     -12.590  13.966 -28.065  1.00  0.00     0.032 C 
BRANCH   5   6
ATOM      6  C   UNL     1     -11.751  13.936 -29.318  1.00  0.00    -0.028 C 
ATOM      7  C   UNL     1     -13.298  15.447 -30.581  1.00  0.00     0.039 C 
ATOM      8  C   UNL     1     -12.043  14.616 -30.449  1.00  0.00    -0.080 C 
ATOM      9  C   UNL     1     -11.089  14.521 -31.611  1.00  0.00     0.039 C 
ENDBRANCH   5   6
ENDBRANCH   4   5
ENDBRANCH   1   4
BRANCH   2  10
ATOM     10  C   UNL     1     -16.475  12.940 -29.973  1.00  0.00     0.035 C 
BRANCH  10  11
ATOM     11  C   UNL     1     -16.923  14.256 -30.622  1.00  0.00     0.079 C 
BRANCH  11  12
ATOM     12  C   UNL     1     -16.704  14.247 -32.115  1.00  0.00     0.130 C 
ATOM     13  O   UNL     1     -17.530  14.767 -32.849  1.00  0.00    -0.300 OA
ATOM     14  C   UNL     1     -15.495  13.597 -32.720  1.00  0.00     0.087 C 
ENDBRANCH  11  12
ENDBRANCH  10  11
ENDBRANCH   2  10
TORSDOF 6
ENDMDL
MODEL 3
REMARK VINA RESULT:    -4.341     11.215     13.524
REMARK INTER + INTRA:          -7.146
REMARK INTER:                  -6.418
REMARK INTRA:                  -0.728
REMARK UNBOUND:                -1.281
REMARK SMILES CC(=O)CCC=C(C)CCC=C(C)C
REMARK SMILES IDX 7 1 6 2 8 3 9 4 10 5 11 6 13 7 12 8 14 9 5 10 4 11 2 12 3 13
REMARK SMILES IDX 1 14
REMARK H PARENT
REMARK Flexibility Score: inf
ROOT
ATOM      1  C   UNL     1     -24.210  19.627 -32.535  1.00  0.00    -0.077 C 
ATOM      2  C   UNL     1     -25.088  18.688 -32.117  1.00  0.00    -0.028 C 
ATOM      3  C   UNL     1     -23.182  20.229 -31.606  1.00  0.00     0.039 C 
ENDROOT
BRANCH   1   4
ATOM      4  C   UNL     1     -24.244  20.070 -33.982  1.00  0.00     0.034 C 
BRANCH   4   5
ATOM      5  C   UNL     1     -25.667  19.979 -34.543  1.00  0.00     0.032 C 
BRANCH   5   6
ATOM      6  C   UNL     1     -26.518  21.114 -34.031  1.00  0.00    -0.028 C 
ATOM      7  C   UNL     1     -28.378  19.602 -33.305  1.00  0.00     0.039 C 
ATOM      8  C   UNL     1     -27.727  20.959 -33.448  1.00  0.00    -0.080 C 
ATOM      9  C   UNL     1     -28.446  22.185 -32.947  1.00  0.00     0.039 C 
ENDBRANCH   5   6
ENDBRANCH   4   5
ENDBRANCH   1   4
BRANCH   2  10
ATOM     10  C   UNL     1     -25.202  18.195 -30.694  1.00  0.00     0.035 C 
BRANCH  10  11
ATOM     11  C   UNL     1     -26.291  17.125 -30.540  1.00  0.00     0.079 C 
BRANCH  11  12
ATOM     12  C   UNL     1     -25.710  15.733 -30.520  1.00  0.00     0.130 C 
ATOM     13  O   UNL     1     -24.587  15.542 -30.962  1.00  0.00    -0.300 OA
ATOM     14  C   UNL     1     -26.489  14.571 -29.979  1.00  0.00     0.087 C 
ENDBRANCH  11  12
ENDBRANCH  10  11
ENDBRANCH   2  10
TORSDOF 6
ENDMDL
MODEL 4
REMARK VINA RESULT:    -4.315      2.063      4.110
REMARK INTER + INTRA:          -7.110
REMARK INTER:                  -6.305
REMARK INTRA:                  -0.805
REMARK UNBOUND:                -1.281
REMARK SMILES CC(=O)CCC=C(C)CCC=C(C)C
REMARK SMILES IDX 7 1 6 2 8 3 9 4 10 5 11 6 13 7 12 8 14 9 5 10 4 11 2 12 3 13
REMARK SMILES IDX 1 14
REMARK H PARENT
REMARK Flexibility Score: inf
ROOT
ATOM      1  C   UNL     1     -15.276  13.383 -31.632  1.00  0.00    -0.077 C 
ATOM      2  C   UNL     1     -16.514  13.926 -31.607  1.00  0.00    -0.028 C 
ATOM      3  C   UNL     1     -14.971  12.061 -30.967  1.00  0.00     0.039 C 
ENDROOT
BRANCH   1   4
ATOM      4  C   UNL     1     -14.171  14.108 -32.369  1.00  0.00     0.034 C 
BRANCH   4   5
ATOM      5  C   UNL     1     -13.743  15.365 -31.603  1.00  0.00     0.032 C 
BRANCH   5   6
ATOM      6  C   UNL     1     -13.438  15.036 -30.163  1.00  0.00    -0.028 C 
ATOM      7  C   UNL     1     -11.025  14.546 -30.619  1.00  0.00     0.039 C 
ATOM      8  C   UNL     1     -12.216  14.691 -29.701  1.00  0.00    -0.080 C 
ATOM      9  C   UNL     1     -12.054  14.429 -28.226  1.00  0.00     0.039 C 
ENDBRANCH   5   6
ENDBRANCH   4   5
ENDBRANCH   1   4
BRANCH   2  10
ATOM     10  C   UNL     1     -17.692  13.340 -30.865  1.00  0.00     0.035 C 
BRANCH  10  11
ATOM     11  C   UNL     1     -17.712  13.763 -29.390  1.00  0.00     0.079 C 
BRANCH  11  12
ATOM     12  C   UNL     1     -17.601  12.576 -28.466  1.00  0.00     0.130 C 
ATOM     13  O   UNL     1     -17.114  12.719 -27.355  1.00  0.00    -0.300 OA
ATOM     14  C   UNL     1     -18.064  11.213 -28.890  1.00  0.00     0.087 C 
ENDBRANCH  11  12
ENDBRANCH  10  11
ENDBRANCH   2  10
TORSDOF 6
ENDMDL
MODEL 5
REMARK VINA RESULT:    -4.300      2.477      4.250
REMARK INTER + INTRA:          -7.090
REMARK INTER:                  -5.803
REMARK INTRA:                  -1.286
REMARK UNBOUND:                -1.281
REMARK SMILES CC(=O)CCC=C(C)CCC=C(C)C
REMARK SMILES IDX 7 1 6 2 8 3 9 4 10 5 11 6 13 7 12 8 14 9 5 10 4 11 2 12 3 13
REMARK SMILES IDX 1 14
REMARK H PARENT
REMARK Flexibility Score: inf
ROOT
ATOM      1  C   UNL     1     -13.429  14.950 -31.034  1.00  0.00    -0.077 C 
ATOM      2  C   UNL     1     -12.939  14.911 -29.774  1.00  0.00    -0.028 C 
ATOM      3  C   UNL     1     -12.717  14.284 -32.188  1.00  0.00     0.039 C 
ENDROOT
BRANCH   1   4
ATOM      4  C   UNL     1     -14.741  15.661 -31.290  1.00  0.00     0.034 C 
BRANCH   4   5
ATOM      5  C   UNL     1     -15.861  14.650 -31.559  1.00  0.00     0.032 C 
BRANCH   5   6
ATOM      6  C   UNL     1     -16.591  14.308 -30.284  1.00  0.00    -0.028 C 
ATOM      7  C   UNL     1     -15.545  12.040 -30.106  1.00  0.00     0.039 C 
ATOM      8  C   UNL     1     -16.441  13.149 -29.606  1.00  0.00    -0.080 C 
ATOM      9  C   UNL     1     -17.208  12.964 -28.322  1.00  0.00     0.039 C 
ENDBRANCH   5   6
ENDBRANCH   4   5
ENDBRANCH   1   4
BRANCH   2  10
ATOM     10  C   UNL     1     -11.620  14.286 -29.387  1.00  0.00     0.035 C 
BRANCH  10  11
ATOM     11  C   UNL     1     -11.809  13.012 -28.553  1.00  0.00     0.079 C 
BRANCH  11  12
ATOM     12  C   UNL     1     -12.523  13.294 -27.254  1.00  0.00     0.130 C 
ATOM     13  O   UNL     1     -12.071  14.131 -26.487  1.00  0.00    -0.300 OA
ATOM     14  C   UNL     1     -13.773  12.556 -26.876  1.00  0.00     0.087 C 
ENDBRANCH  11  12
ENDBRANCH  10  11
ENDBRANCH   2  10
TORSDOF 6
ENDMDL
MODEL 6
REMARK VINA RESULT:    -4.238      1.429      2.788
REMARK INTER + INTRA:          -7.006
REMARK INTER:                  -5.777
REMARK INTRA:                  -1.229
REMARK UNBOUND:                -1.281
REMARK SMILES CC(=O)CCC=C(C)CCC=C(C)C
REMARK SMILES IDX 7 1 6 2 8 3 9 4 10 5 11 6 13 7 12 8 14 9 5 10 4 11 2 12 3 13
REMARK SMILES IDX 1 14
REMARK H PARENT
REMARK Flexibility Score: inf
ROOT
ATOM      1  C   UNL     1     -13.924  14.992 -31.610  1.00  0.00    -0.077 C 
ATOM      2  C   UNL     1     -14.853  14.102 -32.029  1.00  0.00    -0.028 C 
ATOM      3  C   UNL     1     -14.307  16.269 -30.899  1.00  0.00     0.039 C 
ENDROOT
BRANCH   1   4
ATOM      4  C   UNL     1     -12.460  14.687 -31.840  1.00  0.00     0.034 C 
BRANCH   4   5
ATOM      5  C   UNL     1     -12.016  13.492 -30.990  1.00  0.00     0.032 C 
BRANCH   5   6
ATOM      6  C   UNL     1     -11.807  13.904 -29.554  1.00  0.00    -0.028 C 
ATOM      7  C   UNL     1     -13.801  12.632 -28.732  1.00  0.00     0.039 C 
ATOM      8  C   UNL     1     -12.586  13.506 -28.525  1.00  0.00    -0.080 C 
ATOM      9  C   UNL     1     -12.231  13.967 -27.135  1.00  0.00     0.039 C 
ENDBRANCH   5   6
ENDBRANCH   4   5
ENDBRANCH   1   4
BRANCH   2  10
ATOM     10  C   UNL     1     -16.346  14.304 -31.914  1.00  0.00     0.035 C 
BRANCH  10  11
ATOM     11  C   UNL     1     -17.019  13.179 -31.116  1.00  0.00     0.079 C 
BRANCH  11  12
ATOM     12  C   UNL     1     -17.253  13.576 -29.679  1.00  0.00     0.130 C 
ATOM     13  O   UNL     1     -17.057  14.731 -29.333  1.00  0.00    -0.300 OA
ATOM     14  C   UNL     1     -17.710  12.575 -28.659  1.00  0.00     0.087 C 
ENDBRANCH  11  12
ENDBRANCH  10  11
ENDBRANCH   2  10
TORSDOF 6
ENDMDL
MODEL 7
REMARK VINA RESULT:    -4.174      2.492      5.592
REMARK INTER + INTRA:          -6.919
REMARK INTER:                  -5.785
REMARK INTRA:                  -1.134
REMARK UNBOUND:                -1.281
REMARK SMILES CC(=O)CCC=C(C)CCC=C(C)C
REMARK SMILES IDX 7 1 6 2 8 3 9 4 10 5 11 6 13 7 12 8 14 9 5 10 4 11 2 12 3 13
REMARK SMILES IDX 1 14
REMARK H PARENT
REMARK Flexibility Score: inf
ROOT
ATOM      1  C   UNL     1     -16.283  13.017 -29.730  1.00  0.00    -0.077 C 
ATOM      2  C   UNL     1     -15.212  12.459 -29.120  1.00  0.00    -0.028 C 
ATOM      3  C   UNL     1     -17.251  13.905 -28.985  1.00  0.00     0.039 C 
ENDROOT
BRANCH   1   4
ATOM      4  C   UNL     1     -16.502  12.763 -31.205  1.00  0.00     0.034 C 
BRANCH   4   5
ATOM      5  C   UNL     1     -16.159  14.010 -32.027  1.00  0.00     0.032 C 
BRANCH   5   6
ATOM      6  C   UNL     1     -14.687  14.048 -32.352  1.00  0.00    -0.028 C 
ATOM      7  C   UNL     1     -14.249  16.023 -30.875  1.00  0.00     0.039 C 
ATOM      8  C   UNL     1     -13.811  14.931 -31.823  1.00  0.00    -0.080 C 
ATOM      9  C   UNL     1     -12.359  14.822 -32.211  1.00  0.00     0.039 C 
ENDBRANCH   5   6
ENDBRANCH   4   5
ENDBRANCH   1   4
BRANCH   2  10
ATOM     10  C   UNL     1     -14.903  12.583 -27.647  1.00  0.00     0.035 C 
BRANCH  10  11
ATOM     11  C   UNL     1     -13.438  12.252 -27.336  1.00  0.00     0.079 C 
BRANCH  11  12
ATOM     12  C   UNL     1     -12.610  13.499 -27.147  1.00  0.00     0.130 C 
ATOM     13  O   UNL     1     -12.375  13.902 -26.018  1.00  0.00    -0.300 OA
ATOM     14  C   UNL     1     -12.079  14.267 -28.322  1.00  0.00     0.087 C 
ENDBRANCH  11  12
ENDBRANCH  10  11
ENDBRANCH   2  10
TORSDOF 6
ENDMDL
MODEL 8
REMARK VINA RESULT:    -4.145      2.238      4.053
REMARK INTER + INTRA:          -6.880
REMARK INTER:                  -5.596
REMARK INTRA:                  -1.284
REMARK UNBOUND:                -1.281
REMARK SMILES CC(=O)CCC=C(C)CCC=C(C)C
REMARK SMILES IDX 7 1 6 2 8 3 9 4 10 5 11 6 13 7 12 8 14 9 5 10 4 11 2 12 3 13
REMARK SMILES IDX 1 14
REMARK H PARENT
REMARK Flexibility Score: inf
ROOT
ATOM      1  C   UNL     1     -17.726  13.379 -30.140  1.00  0.00    -0.077 C 
ATOM      2  C   UNL     1     -17.574  13.306 -31.482  1.00  0.00    -0.028 C 
ATOM      3  C   UNL     1     -17.055  14.453 -29.317  1.00  0.00     0.039 C 
ENDROOT
BRANCH   1   4
ATOM      4  C   UNL     1     -18.614  12.368 -29.447  1.00  0.00     0.034 C 
BRANCH   4   5
ATOM      5  C   UNL     1     -17.951  10.986 -29.432  1.00  0.00     0.032 C 
BRANCH   5   6
ATOM      6  C   UNL     1     -16.969  10.876 -28.292  1.00  0.00    -0.028 C 
ATOM      7  C   UNL     1     -14.971  11.127 -29.780  1.00  0.00     0.039 C 
ATOM      8  C   UNL     1     -15.628  10.963 -28.430  1.00  0.00    -0.080 C 
ATOM      9  C   UNL     1     -14.772  10.875 -27.192  1.00  0.00     0.039 C 
ENDBRANCH   5   6
ENDBRANCH   4   5
ENDBRANCH   1   4
BRANCH   2  10
ATOM     10  C   UNL     1     -16.678  14.213 -32.292  1.00  0.00     0.035 C 
BRANCH  10  11
ATOM     11  C   UNL     1     -15.396  13.500 -32.745  1.00  0.00     0.079 C 
BRANCH  11  12
ATOM     12  C   UNL     1     -14.168  14.101 -32.108  1.00  0.00     0.130 C 
ATOM     13  O   UNL     1     -13.140  13.445 -32.043  1.00  0.00    -0.300 OA
ATOM     14  C   UNL     1     -14.185  15.489 -31.538  1.00  0.00     0.087 C 
ENDBRANCH  11  12
ENDBRANCH  10  11
ENDBRANCH   2  10
TORSDOF 6
ENDMDL
MODEL 9
REMARK VINA RESULT:    -4.123      1.554      3.499
REMARK INTER + INTRA:          -6.850
REMARK INTER:                  -5.809
REMARK INTRA:                  -1.041
REMARK UNBOUND:                -1.281
REMARK SMILES CC(=O)CCC=C(C)CCC=C(C)C
REMARK SMILES IDX 7 1 6 2 8 3 9 4 10 5 11 6 13 7 12 8 14 9 5 10 4 11 2 12 3 13
REMARK SMILES IDX 1 14
REMARK H PARENT
REMARK Flexibility Score: inf
ROOT
ATOM      1  C   UNL     1     -16.414  11.900 -28.375  1.00  0.00    -0.077 C 
ATOM      2  C   UNL     1     -17.029  13.094 -28.531  1.00  0.00    -0.028 C 
ATOM      3  C   UNL     1     -16.142  10.984 -29.545  1.00  0.00     0.039 C 
ENDROOT
BRANCH   1   4
ATOM      4  C   UNL     1     -15.964  11.481 -26.992  1.00  0.00     0.034 C 
BRANCH   4   5
ATOM      5  C   UNL     1     -14.448  11.256 -26.960  1.00  0.00     0.032 C 
BRANCH   5   6
ATOM      6  C   UNL     1     -13.710  12.563 -27.110  1.00  0.00    -0.028 C 
ATOM      7  C   UNL     1     -12.526  11.840 -29.195  1.00  0.00     0.039 C 
ATOM      8  C   UNL     1     -12.863  12.850 -28.122  1.00  0.00    -0.080 C 
ATOM      9  C   UNL     1     -12.227  14.215 -28.162  1.00  0.00     0.039 C 
ENDBRANCH   5   6
ENDBRANCH   4   5
ENDBRANCH   1   4
BRANCH   2  10
ATOM     10  C   UNL     1     -17.577  13.611 -29.840  1.00  0.00     0.035 C 
BRANCH  10  11
ATOM     11  C   UNL     1     -16.584  14.539 -30.553  1.00  0.00     0.079 C 
BRANCH  11  12
ATOM     12  C   UNL     1     -16.548  14.283 -32.040  1.00  0.00     0.130 C 
ATOM     13  O   UNL     1     -17.463  14.683 -32.743  1.00  0.00    -0.300 OA
ATOM     14  C   UNL     1     -15.415  13.531 -32.674  1.00  0.00     0.087 C 
ENDBRANCH  11  12
ENDBRANCH  10  11
ENDBRANCH   2  10
TORSDOF 6
ENDMDL
