MODEL 1
REMARK VINA RESULT:     0.992      0.000      0.000
REMARK INTER + INTRA:           0.812
REMARK INTER:                   1.804
REMARK INTRA:                  -0.993
REMARK UNBOUND:                -0.993
REMARK SMILES CCCCCCCCCCCCCC[C@H](C)C(=O)[O-]
REMARK SMILES IDX 9 1 10 2 11 3 12 4 13 5 14 6 15 7 16 8 17 9 18 10 19 11 8 12
REMARK SMILES IDX 7 13 6 14 5 15 4 16 3 17 2 18 1 19
REMARK H PARENT
REMARK Flexibility Score: inf
ROOT
ATOM      1  C   UNL     1      -4.444  34.908  21.101  1.00  0.00     0.000 C 
ENDROOT
BRANCH   1   2
ATOM      2  C   UNL     1      -5.800  34.796  20.389  1.00  0.00     0.000 C 
BRANCH   2   3
ATOM      3  C   UNL     1      -5.675  34.872  18.857  1.00  0.00     0.000 C 
BRANCH   3   4
ATOM      4  C   UNL     1      -4.229  34.930  18.329  1.00  0.00     0.000 C 
BRANCH   4   5
ATOM      5  C   UNL     1      -4.066  35.785  17.054  1.00  0.00     0.001 C 
BRANCH   5   6
ATOM      6  C   UNL     1      -3.615  34.948  15.843  1.00  0.00     0.009 C 
BRANCH   6   7
ATOM      7  C   UNL     1      -3.076  35.815  14.685  1.00  0.00     0.032 C 
ATOM      8  C   UNL     1      -1.652  36.322  14.950  1.00  0.00     0.014 C 
BRANCH   7   9
ATOM      9  C   UNL     1      -3.996  36.981  14.448  1.00  0.00     0.044 C 
ATOM     10  O   UNL     1      -5.108  36.815  13.877  1.00  0.00    -0.550 OA
ATOM     11  O   UNL     1      -3.620  38.255  14.856  1.00  0.00    -0.550 OA
ENDBRANCH   7   9
ENDBRANCH   6   7
ENDBRANCH   5   6
ENDBRANCH   4   5
ENDBRANCH   3   4
ENDBRANCH   2   3
ENDBRANCH   1   2
BRANCH   1  12
ATOM     12  C   UNL     1      -4.546  34.412  22.552  1.00  0.00     0.000 C 
BRANCH  12  13
ATOM     13  C   UNL     1      -5.960  34.567  23.135  1.00  0.00    -0.000 C 
BRANCH  13  14
ATOM     14  C   UNL     1      -5.952  35.130  24.567  1.00  0.00    -0.000 C 
BRANCH  14  15
ATOM     15  C   UNL     1      -5.993  36.666  24.597  1.00  0.00    -0.000 C 
BRANCH  15  16
ATOM     16  C   UNL     1      -5.981  37.285  23.188  1.00  0.00    -0.000 C 
BRANCH  16  17
ATOM     17  C   UNL     1      -5.318  38.672  23.158  1.00  0.00    -0.000 C 
BRANCH  17  18
ATOM     18  C   UNL     1      -5.695  39.481  21.908  1.00  0.00    -0.003 C 
ATOM     19  C   UNL     1      -5.415  38.687  20.635  1.00  0.00     0.004 C 
ENDBRANCH  17  18
ENDBRANCH  16  17
ENDBRANCH  15  16
ENDBRANCH  14  15
ENDBRANCH  13  14
ENDBRANCH  12  13
ENDBRANCH   1  12
TORSDOF 14
ENDMDL
MODEL 2
REMARK VINA RESULT:     0.999      3.324      7.572
REMARK INTER + INTRA:           0.824
REMARK INTER:                   1.176
REMARK INTRA:                  -0.352
REMARK UNBOUND:                -0.993
REMARK SMILES CCCCCCCCCCCCCC[C@H](C)C(=O)[O-]
REMARK SMILES IDX 9 1 10 2 11 3 12 4 13 5 14 6 15 7 16 8 17 9 18 10 19 11 8 12
REMARK SMILES IDX 7 13 6 14 5 15 4 16 3 17 2 18 1 19
REMARK H PARENT
REMARK Flexibility Score: inf
ROOT
ATOM      1  C   UNL     1      -4.886  37.669  19.516  1.00  0.00     0.000 C 
ENDROOT
BRANCH   1   2
ATOM      2  C   UNL     1      -5.941  38.347  20.403  1.00  0.00     0.000 C 
BRANCH   2   3
ATOM      3  C   UNL     1      -5.338  39.408  21.340  1.00  0.00     0.000 C 
BRANCH   3   4
ATOM      4  C   UNL     1      -4.714  38.848  22.632  1.00  0.00     0.000 C 
BRANCH   4   5
ATOM      5  C   UNL     1      -5.711  38.072  23.519  1.00  0.00     0.001 C 
BRANCH   5   6
ATOM      6  C   UNL     1      -5.984  36.654  22.987  1.00  0.00     0.009 C 
BRANCH   6   7
ATOM      7  C   UNL     1      -6.116  35.607  24.114  1.00  0.00     0.032 C 
ATOM      8  C   UNL     1      -5.350  36.015  25.380  1.00  0.00     0.014 C 
BRANCH   7   9
ATOM      9  C   UNL     1      -5.625  34.270  23.630  1.00  0.00     0.044 C 
ATOM     10  O   UNL     1      -6.114  33.203  24.090  1.00  0.00    -0.550 OA
ATOM     11  O   UNL     1      -4.622  34.205  22.671  1.00  0.00    -0.550 OA
ENDBRANCH   7   9
ENDBRANCH   6   7
ENDBRANCH   5   6
ENDBRANCH   4   5
ENDBRANCH   3   4
ENDBRANCH   2   3
ENDBRANCH   1   2
BRANCH   1  12
ATOM     12  C   UNL     1      -4.720  36.191  19.899  1.00  0.00     0.000 C 
BRANCH  12  13
ATOM     13  C   UNL     1      -5.594  35.254  19.051  1.00  0.00    -0.000 C 
BRANCH  13  14
ATOM     14  C   UNL     1      -4.848  34.693  17.827  1.00  0.00    -0.000 C 
BRANCH  14  15
ATOM     15  C   UNL     1      -3.776  35.659  17.296  1.00  0.00    -0.000 C 
BRANCH  15  16
ATOM     16  C   UNL     1      -3.034  35.100  16.069  1.00  0.00    -0.000 C 
BRANCH  16  17
ATOM     17  C   UNL     1      -3.415  35.823  14.768  1.00  0.00    -0.000 C 
BRANCH  17  18
ATOM     18  C   UNL     1      -3.501  37.347  14.941  1.00  0.00    -0.003 C 
ATOM     19  C   UNL     1      -4.463  37.961  13.928  1.00  0.00     0.004 C 
ENDBRANCH  17  18
ENDBRANCH  16  17
ENDBRANCH  15  16
ENDBRANCH  14  15
ENDBRANCH  13  14
ENDBRANCH  12  13
ENDBRANCH   1  12
TORSDOF 14
ENDMDL
MODEL 3
REMARK VINA RESULT:     1.379      2.463      7.292
REMARK INTER + INTRA:           1.515
REMARK INTER:                   0.827
REMARK INTRA:                   0.689
REMARK UNBOUND:                -0.993
REMARK SMILES CCCCCCCCCCCCCC[C@H](C)C(=O)[O-]
REMARK SMILES IDX 9 1 10 2 11 3 12 4 13 5 14 6 15 7 16 8 17 9 18 10 19 11 8 12
REMARK SMILES IDX 7 13 6 14 5 15 4 16 3 17 2 18 1 19
REMARK H PARENT
REMARK Flexibility Score: inf
ROOT
ATOM      1  C   UNL     1      -4.634  35.387  20.202  1.00  0.00     0.000 C 
ENDROOT
BRANCH   1   2
ATOM      2  C   UNL     1      -5.806  35.752  21.124  1.00  0.00     0.000 C 
BRANCH   2   3
ATOM      3  C   UNL     1      -6.125  34.648  22.147  1.00  0.00     0.000 C 
BRANCH   3   4
ATOM      4  C   UNL     1      -5.363  34.763  23.481  1.00  0.00     0.000 C 
BRANCH   4   5
ATOM      5  C   UNL     1      -5.634  36.080  24.240  1.00  0.00     0.001 C 
BRANCH   5   6
ATOM      6  C   UNL     1      -6.124  37.201  23.306  1.00  0.00     0.009 C 
BRANCH   6   7
ATOM      7  C   UNL     1      -5.141  38.389  23.231  1.00  0.00     0.032 C 
ATOM      8  C   UNL     1      -5.194  39.270  24.487  1.00  0.00     0.014 C 
BRANCH   7   9
ATOM      9  C   UNL     1      -5.436  39.221  22.013  1.00  0.00     0.044 C 
ATOM     10  O   UNL     1      -5.480  40.479  22.090  1.00  0.00    -0.550 OA
ATOM     11  O   UNL     1      -5.665  38.603  20.790  1.00  0.00    -0.550 OA
ENDBRANCH   7   9
ENDBRANCH   6   7
ENDBRANCH   5   6
ENDBRANCH   4   5
ENDBRANCH   3   4
ENDBRANCH   2   3
ENDBRANCH   1   2
BRANCH   1  12
ATOM     12  C   UNL     1      -5.075  35.390  18.730  1.00  0.00     0.000 C 
BRANCH  12  13
ATOM     13  C   UNL     1      -4.823  34.044  18.031  1.00  0.00    -0.000 C 
BRANCH  13  14
ATOM     14  C   UNL     1      -3.852  34.166  16.844  1.00  0.00    -0.000 C 
BRANCH  14  15
ATOM     15  C   UNL     1      -3.595  35.626  16.439  1.00  0.00    -0.000 C 
BRANCH  15  16
ATOM     16  C   UNL     1      -2.381  35.775  15.505  1.00  0.00    -0.000 C 
BRANCH  16  17
ATOM     17  C   UNL     1      -2.782  36.158  14.071  1.00  0.00    -0.000 C 
BRANCH  17  18
ATOM     18  C   UNL     1      -4.201  36.739  13.988  1.00  0.00    -0.003 C 
ATOM     19  C   UNL     1      -4.191  38.247  14.226  1.00  0.00     0.004 C 
ENDBRANCH  17  18
ENDBRANCH  16  17
ENDBRANCH  15  16
ENDBRANCH  14  15
ENDBRANCH  13  14
ENDBRANCH  12  13
ENDBRANCH   1  12
TORSDOF 14
ENDMDL
MODEL 4
REMARK VINA RESULT:     1.391      4.041      7.992
REMARK INTER + INTRA:           1.536
REMARK INTER:                   2.547
REMARK INTRA:                  -1.011
REMARK UNBOUND:                -0.993
REMARK SMILES CCCCCCCCCCCCCC[C@H](C)C(=O)[O-]
REMARK SMILES IDX 9 1 10 2 11 3 12 4 13 5 14 6 15 7 16 8 17 9 18 10 19 11 8 12
REMARK SMILES IDX 7 13 6 14 5 15 4 16 3 17 2 18 1 19
REMARK H PARENT
REMARK Flexibility Score: inf
ROOT
ATOM      1  C   UNL     1      -5.370  36.005  20.259  1.00  0.00     0.000 C 
ENDROOT
BRANCH   1   2
ATOM      2  C   UNL     1      -5.028  37.211  19.371  1.00  0.00     0.000 C 
BRANCH   2   3
ATOM      3  C   UNL     1      -5.603  38.531  19.912  1.00  0.00     0.000 C 
BRANCH   3   4
ATOM      4  C   UNL     1      -5.037  38.971  21.276  1.00  0.00     0.000 C 
BRANCH   4   5
ATOM      5  C   UNL     1      -6.015  38.762  22.451  1.00  0.00     0.001 C 
BRANCH   5   6
ATOM      6  C   UNL     1      -5.283  38.581  23.794  1.00  0.00     0.009 C 
BRANCH   6   7
ATOM      7  C   UNL     1      -5.000  37.100  24.125  1.00  0.00     0.032 C 
ATOM      8  C   UNL     1      -6.123  36.170  23.646  1.00  0.00     0.014 C 
BRANCH   7   9
ATOM      9  C   UNL     1      -4.799  36.936  25.606  1.00  0.00     0.044 C 
ATOM     10  O   UNL     1      -5.441  36.060  26.247  1.00  0.00    -0.550 OA
ATOM     11  O   UNL     1      -3.903  37.757  26.280  1.00  0.00    -0.550 OA
ENDBRANCH   7   9
ENDBRANCH   6   7
ENDBRANCH   5   6
ENDBRANCH   4   5
ENDBRANCH   3   4
ENDBRANCH   2   3
ENDBRANCH   1   2
BRANCH   1  12
ATOM     12  C   UNL     1      -4.762  34.715  19.687  1.00  0.00     0.000 C 
BRANCH  12  13
ATOM     13  C   UNL     1      -5.203  34.440  18.241  1.00  0.00    -0.000 C 
BRANCH  13  14
ATOM     14  C   UNL     1      -4.014  34.324  17.271  1.00  0.00    -0.000 C 
BRANCH  14  15
ATOM     15  C   UNL     1      -3.731  35.637  16.524  1.00  0.00    -0.000 C 
BRANCH  15  16
ATOM     16  C   UNL     1      -2.577  35.505  15.514  1.00  0.00    -0.000 C 
BRANCH  16  17
ATOM     17  C   UNL     1      -2.880  36.200  14.176  1.00  0.00    -0.000 C 
BRANCH  17  18
ATOM     18  C   UNL     1      -4.312  36.751  14.107  1.00  0.00    -0.003 C 
ATOM     19  C   UNL     1      -4.312  38.278  14.104  1.00  0.00     0.004 C 
ENDBRANCH  17  18
ENDBRANCH  16  17
ENDBRANCH  15  16
ENDBRANCH  14  15
ENDBRANCH  13  14
ENDBRANCH  12  13
ENDBRANCH   1  12
TORSDOF 14
ENDMDL
MODEL 5
REMARK VINA RESULT:     1.404      2.315      6.956
REMARK INTER + INTRA:           1.561
REMARK INTER:                   2.361
REMARK INTRA:                  -0.801
REMARK UNBOUND:                -0.993
REMARK SMILES CCCCCCCCCCCCCC[C@H](C)C(=O)[O-]
REMARK SMILES IDX 9 1 10 2 11 3 12 4 13 5 14 6 15 7 16 8 17 9 18 10 19 11 8 12
REMARK SMILES IDX 7 13 6 14 5 15 4 16 3 17 2 18 1 19
REMARK H PARENT
REMARK Flexibility Score: inf
ROOT
ATOM      1  C   UNL     1      -4.317  34.971  21.660  1.00  0.00     0.000 C 
ENDROOT
BRANCH   1   2
ATOM      2  C   UNL     1      -4.714  34.075  22.843  1.00  0.00     0.000 C 
BRANCH   2   3
ATOM      3  C   UNL     1      -6.003  34.547  23.540  1.00  0.00     0.000 C 
BRANCH   3   4
ATOM      4  C   UNL     1      -5.785  35.267  24.884  1.00  0.00     0.000 C 
BRANCH   4   5
ATOM      5  C   UNL     1      -6.068  36.783  24.831  1.00  0.00     0.001 C 
BRANCH   5   6
ATOM      6  C   UNL     1      -6.125  37.316  23.388  1.00  0.00     0.009 C 
BRANCH   6   7
ATOM      7  C   UNL     1      -5.094  38.434  23.122  1.00  0.00     0.032 C 
ATOM      8  C   UNL     1      -5.007  39.434  24.283  1.00  0.00     0.014 C 
BRANCH   7   9
ATOM      9  C   UNL     1      -5.441  39.158  21.850  1.00  0.00     0.044 C 
ATOM     10  O   UNL     1      -5.772  40.374  21.875  1.00  0.00    -0.550 OA
ATOM     11  O   UNL     1      -5.401  38.484  20.636  1.00  0.00    -0.550 OA
ENDBRANCH   7   9
ENDBRANCH   6   7
ENDBRANCH   5   6
ENDBRANCH   4   5
ENDBRANCH   3   4
ENDBRANCH   2   3
ENDBRANCH   1   2
BRANCH   1  12
ATOM     12  C   UNL     1      -5.544  35.322  20.805  1.00  0.00     0.000 C 
BRANCH  12  13
ATOM     13  C   UNL     1      -5.931  34.199  19.830  1.00  0.00    -0.000 C 
BRANCH  13  14
ATOM     14  C   UNL     1      -5.820  34.630  18.357  1.00  0.00    -0.000 C 
BRANCH  14  15
ATOM     15  C   UNL     1      -4.426  35.174  18.004  1.00  0.00    -0.000 C 
BRANCH  15  16
ATOM     16  C   UNL     1      -4.256  35.430  16.496  1.00  0.00    -0.000 C 
BRANCH  16  17
ATOM     17  C   UNL     1      -2.783  35.428  16.059  1.00  0.00    -0.000 C 
BRANCH  17  18
ATOM     18  C   UNL     1      -2.592  35.920  14.616  1.00  0.00    -0.003 C 
ATOM     19  C   UNL     1      -3.638  36.969  14.251  1.00  0.00     0.004 C 
ENDBRANCH  17  18
ENDBRANCH  16  17
ENDBRANCH  15  16
ENDBRANCH  14  15
ENDBRANCH  13  14
ENDBRANCH  12  13
ENDBRANCH   1  12
TORSDOF 14
ENDMDL
MODEL 6
REMARK VINA RESULT:     1.553      2.857      6.944
REMARK INTER + INTRA:           1.831
REMARK INTER:                   1.734
REMARK INTRA:                   0.097
REMARK UNBOUND:                -0.993
REMARK SMILES CCCCCCCCCCCCCC[C@H](C)C(=O)[O-]
REMARK SMILES IDX 9 1 10 2 11 3 12 4 13 5 14 6 15 7 16 8 17 9 18 10 19 11 8 12
REMARK SMILES IDX 7 13 6 14 5 15 4 16 3 17 2 18 1 19
REMARK H PARENT
REMARK Flexibility Score: inf
ROOT
ATOM      1  C   UNL     1      -5.068  34.857  21.801  1.00  0.00     0.000 C 
ENDROOT
BRANCH   1   2
ATOM      2  C   UNL     1      -5.509  33.696  22.705  1.00  0.00     0.000 C 
BRANCH   2   3
ATOM      3  C   UNL     1      -6.125  34.176  24.031  1.00  0.00     0.000 C 
BRANCH   3   4
ATOM      4  C   UNL     1      -5.510  35.469  24.599  1.00  0.00     0.000 C 
BRANCH   4   5
ATOM      5  C   UNL     1      -6.111  36.758  24.002  1.00  0.00     0.001 C 
BRANCH   5   6
ATOM      6  C   UNL     1      -5.145  37.455  23.026  1.00  0.00     0.009 C 
BRANCH   6   7
ATOM      7  C   UNL     1      -5.852  38.481  22.114  1.00  0.00     0.032 C 
ATOM      8  C   UNL     1      -5.488  38.294  20.635  1.00  0.00     0.014 C 
BRANCH   7   9
ATOM      9  C   UNL     1      -5.508  39.878  22.552  1.00  0.00     0.044 C 
ATOM     10  O   UNL     1      -5.715  40.858  21.787  1.00  0.00    -0.550 OA
ATOM     11  O   UNL     1      -4.952  40.094  23.806  1.00  0.00    -0.550 OA
ENDBRANCH   7   9
ENDBRANCH   6   7
ENDBRANCH   5   6
ENDBRANCH   4   5
ENDBRANCH   3   4
ENDBRANCH   2   3
ENDBRANCH   1   2
BRANCH   1  12
ATOM     12  C   UNL     1      -6.041  35.033  20.625  1.00  0.00     0.000 C 
BRANCH  12  13
ATOM     13  C   UNL     1      -5.593  34.275  19.364  1.00  0.00    -0.000 C 
BRANCH  13  14
ATOM     14  C   UNL     1      -4.320  34.870  18.737  1.00  0.00    -0.000 C 
BRANCH  14  15
ATOM     15  C   UNL     1      -4.258  34.658  17.216  1.00  0.00    -0.000 C 
BRANCH  15  16
ATOM     16  C   UNL     1      -3.762  35.907  16.465  1.00  0.00    -0.000 C 
BRANCH  16  17
ATOM     17  C   UNL     1      -3.142  35.568  15.100  1.00  0.00    -0.000 C 
BRANCH  17  18
ATOM     18  C   UNL     1      -3.507  36.589  14.013  1.00  0.00    -0.003 C 
ATOM     19  C   UNL     1      -4.148  37.833  14.622  1.00  0.00     0.004 C 
ENDBRANCH  17  18
ENDBRANCH  16  17
ENDBRANCH  15  16
ENDBRANCH  14  15
ENDBRANCH  13  14
ENDBRANCH  12  13
ENDBRANCH   1  12
TORSDOF 14
ENDMDL
MODEL 7
REMARK VINA RESULT:     1.642      0.759      2.700
REMARK INTER + INTRA:           1.993
REMARK INTER:                   1.787
REMARK INTRA:                   0.206
REMARK UNBOUND:                -0.993
REMARK SMILES CCCCCCCCCCCCCC[C@H](C)C(=O)[O-]
REMARK SMILES IDX 9 1 10 2 11 3 12 4 13 5 14 6 15 7 16 8 17 9 18 10 19 11 8 12
REMARK SMILES IDX 7 13 6 14 5 15 4 16 3 17 2 18 1 19
REMARK H PARENT
REMARK Flexibility Score: inf
ROOT
ATOM      1  C   UNL     1      -5.231  36.869  20.824  1.00  0.00     0.000 C 
ENDROOT
BRANCH   1   2
ATOM      2  C   UNL     1      -5.585  36.267  19.456  1.00  0.00     0.000 C 
BRANCH   2   3
ATOM      3  C   UNL     1      -5.365  34.745  19.402  1.00  0.00     0.000 C 
BRANCH   3   4
ATOM      4  C   UNL     1      -4.742  34.229  18.090  1.00  0.00     0.000 C 
BRANCH   4   5
ATOM      5  C   UNL     1      -4.821  35.237  16.925  1.00  0.00     0.001 C 
BRANCH   5   6
ATOM      6  C   UNL     1      -3.435  35.773  16.522  1.00  0.00     0.009 C 
BRANCH   6   7
ATOM      7  C   UNL     1      -3.213  35.769  14.995  1.00  0.00     0.032 C 
ATOM      8  C   UNL     1      -1.732  35.925  14.621  1.00  0.00     0.014 C 
BRANCH   7   9
ATOM      9  C   UNL     1      -4.019  36.867  14.357  1.00  0.00     0.044 C 
ATOM     10  O   UNL     1      -5.161  36.629  13.878  1.00  0.00    -0.550 OA
ATOM     11  O   UNL     1      -3.504  38.155  14.289  1.00  0.00    -0.550 OA
ENDBRANCH   7   9
ENDBRANCH   6   7
ENDBRANCH   5   6
ENDBRANCH   4   5
ENDBRANCH   3   4
ENDBRANCH   2   3
ENDBRANCH   1   2
BRANCH   1  12
ATOM     12  C   UNL     1      -5.730  38.319  20.927  1.00  0.00     0.000 C 
BRANCH  12  13
ATOM     13  C   UNL     1      -5.050  39.103  22.061  1.00  0.00    -0.000 C 
BRANCH  13  14
ATOM     14  C   UNL     1      -5.577  38.709  23.452  1.00  0.00    -0.000 C 
BRANCH  14  15
ATOM     15  C   UNL     1      -6.123  37.273  23.491  1.00  0.00    -0.000 C 
BRANCH  15  16
ATOM     16  C   UNL     1      -6.038  36.647  24.895  1.00  0.00    -0.000 C 
BRANCH  16  17
ATOM     17  C   UNL     1      -6.125  35.113  24.864  1.00  0.00    -0.000 C 
BRANCH  17  18
ATOM     18  C   UNL     1      -5.999  34.541  23.444  1.00  0.00    -0.003 C 
ATOM     19  C   UNL     1      -4.556  34.608  22.951  1.00  0.00     0.004 C 
ENDBRANCH  17  18
ENDBRANCH  16  17
ENDBRANCH  15  16
ENDBRANCH  14  15
ENDBRANCH  13  14
ENDBRANCH  12  13
ENDBRANCH   1  12
TORSDOF 14
ENDMDL
MODEL 8
REMARK VINA RESULT:     2.245      1.462      2.051
REMARK INTER + INTRA:           3.089
REMARK INTER:                   3.793
REMARK INTRA:                  -0.704
REMARK UNBOUND:                -0.993
REMARK SMILES CCCCCCCCCCCCCC[C@H](C)C(=O)[O-]
REMARK SMILES IDX 9 1 10 2 11 3 12 4 13 5 14 6 15 7 16 8 17 9 18 10 19 11 8 12
REMARK SMILES IDX 7 13 6 14 5 15 4 16 3 17 2 18 1 19
REMARK H PARENT
REMARK Flexibility Score: inf
ROOT
ATOM      1  C   UNL     1      -5.152  35.212  22.422  1.00  0.00     0.000 C 
ENDROOT
BRANCH   1   2
ATOM      2  C   UNL     1      -5.859  34.585  21.211  1.00  0.00     0.000 C 
BRANCH   2   3
ATOM      3  C   UNL     1      -5.810  35.484  19.962  1.00  0.00     0.000 C 
BRANCH   3   4
ATOM      4  C   UNL     1      -5.365  34.771  18.671  1.00  0.00     0.000 C 
BRANCH   4   5
ATOM      5  C   UNL     1      -4.151  35.431  17.983  1.00  0.00     0.001 C 
BRANCH   5   6
ATOM      6  C   UNL     1      -4.038  35.041  16.498  1.00  0.00     0.009 C 
BRANCH   6   7
ATOM      7  C   UNL     1      -3.365  36.135  15.642  1.00  0.00     0.032 C 
ATOM      8  C   UNL     1      -4.187  36.487  14.394  1.00  0.00     0.014 C 
BRANCH   7   9
ATOM      9  C   UNL     1      -1.987  35.691  15.236  1.00  0.00     0.044 C 
ATOM     10  O   UNL     1      -1.554  35.926  14.075  1.00  0.00    -0.550 OA
ATOM     11  O   UNL     1      -1.181  35.013  16.142  1.00  0.00    -0.550 OA
ENDBRANCH   7   9
ENDBRANCH   6   7
ENDBRANCH   5   6
ENDBRANCH   4   5
ENDBRANCH   3   4
ENDBRANCH   2   3
ENDBRANCH   1   2
BRANCH   1  12
ATOM     12  C   UNL     1      -6.125  35.372  23.600  1.00  0.00     0.000 C 
BRANCH  12  13
ATOM     13  C   UNL     1      -5.411  35.701  24.921  1.00  0.00    -0.000 C 
BRANCH  13  14
ATOM     14  C   UNL     1      -5.366  37.211  25.210  1.00  0.00    -0.000 C 
BRANCH  14  15
ATOM     15  C   UNL     1      -4.702  38.010  24.077  1.00  0.00    -0.000 C 
BRANCH  15  16
ATOM     16  C   UNL     1      -5.427  39.336  23.786  1.00  0.00    -0.000 C 
BRANCH  16  17
ATOM     17  C   UNL     1      -5.406  39.706  22.295  1.00  0.00    -0.000 C 
BRANCH  17  18
ATOM     18  C   UNL     1      -5.796  38.530  21.387  1.00  0.00    -0.003 C 
ATOM     19  C   UNL     1      -5.201  38.693  19.991  1.00  0.00     0.004 C 
ENDBRANCH  17  18
ENDBRANCH  16  17
ENDBRANCH  15  16
ENDBRANCH  14  15
ENDBRANCH  13  14
ENDBRANCH  12  13
ENDBRANCH   1  12
TORSDOF 14
ENDMDL
MODEL 9
REMARK VINA RESULT:     2.570      4.209      8.303
REMARK INTER + INTRA:           3.681
REMARK INTER:                   4.204
REMARK INTRA:                  -0.523
REMARK UNBOUND:                -0.993
REMARK SMILES CCCCCCCCCCCCCC[C@H](C)C(=O)[O-]
REMARK SMILES IDX 9 1 10 2 11 3 12 4 13 5 14 6 15 7 16 8 17 9 18 10 19 11 8 12
REMARK SMILES IDX 7 13 6 14 5 15 4 16 3 17 2 18 1 19
REMARK H PARENT
REMARK Flexibility Score: inf
ROOT
ATOM      1  C   UNL     1      -4.922  36.044  21.827  1.00  0.00     0.000 C 
ENDROOT
BRANCH   1   2
ATOM      2  C   UNL     1      -6.070  35.075  22.146  1.00  0.00     0.000 C 
BRANCH   2   3
ATOM      3  C   UNL     1      -5.718  34.087  23.272  1.00  0.00     0.000 C 
BRANCH   3   4
ATOM      4  C   UNL     1      -6.125  34.546  24.685  1.00  0.00     0.000 C 
BRANCH   4   5
ATOM      5  C   UNL     1      -6.104  36.078  24.871  1.00  0.00     0.001 C 
BRANCH   5   6
ATOM      6  C   UNL     1      -5.526  36.493  26.236  1.00  0.00     0.009 C 
BRANCH   6   7
ATOM      7  C   UNL     1      -4.625  37.743  26.149  1.00  0.00     0.032 C 
ATOM      8  C   UNL     1      -4.596  38.344  24.737  1.00  0.00     0.014 C 
BRANCH   7   9
ATOM      9  C   UNL     1      -3.227  37.398  26.585  1.00  0.00     0.044 C 
ATOM     10  O   UNL     1      -2.309  38.261  26.537  1.00  0.00    -0.550 OA
ATOM     11  O   UNL     1      -2.939  36.118  27.041  1.00  0.00    -0.550 OA
ENDBRANCH   7   9
ENDBRANCH   6   7
ENDBRANCH   5   6
ENDBRANCH   4   5
ENDBRANCH   3   4
ENDBRANCH   2   3
ENDBRANCH   1   2
BRANCH   1  12
ATOM     12  C   UNL     1      -5.355  37.076  20.773  1.00  0.00     0.000 C 
BRANCH  12  13
ATOM     13  C   UNL     1      -5.458  36.477  19.361  1.00  0.00    -0.000 C 
BRANCH  13  14
ATOM     14  C   UNL     1      -4.814  35.083  19.261  1.00  0.00    -0.000 C 
BRANCH  14  15
ATOM     15  C   UNL     1      -4.571  34.649  17.806  1.00  0.00    -0.000 C 
BRANCH  15  16
ATOM     16  C   UNL     1      -3.852  35.731  16.980  1.00  0.00    -0.000 C 
BRANCH  16  17
ATOM     17  C   UNL     1      -2.872  35.137  15.955  1.00  0.00    -0.000 C 
BRANCH  17  18
ATOM     18  C   UNL     1      -2.739  36.002  14.693  1.00  0.00    -0.003 C 
ATOM     19  C   UNL     1      -3.992  36.843  14.469  1.00  0.00     0.004 C 
ENDBRANCH  17  18
ENDBRANCH  16  17
ENDBRANCH  15  16
ENDBRANCH  14  15
ENDBRANCH  13  14
ENDBRANCH  12  13
ENDBRANCH   1  12
TORSDOF 14
ENDMDL
