MODEL 1
REMARK VINA RESULT:    -4.909      0.000      0.000
REMARK INTER + INTRA:          -9.686
REMARK INTER:                  -8.639
REMARK INTRA:                  -1.047
REMARK UNBOUND:                -1.047
REMARK SMILES CCCCCCCCCCCCCCC(=O)[O-]
REMARK SMILES IDX 9 1 10 2 11 3 12 4 13 5 14 6 15 7 16 8 17 9 8 10 7 11 6 12
REMARK SMILES IDX 5 13 4 14 3 15 2 16 1 17
REMARK H PARENT
REMARK Flexibility Score: inf
ROOT
ATOM      1  C   UNL     1      -5.402   6.557   7.107  1.00  0.00     0.000 C 
ENDROOT
BRANCH   1   2
ATOM      2  C   UNL     1      -6.187   6.318   8.407  1.00  0.00     0.000 C 
BRANCH   2   3
ATOM      3  C   UNL     1      -7.561   7.008   8.403  1.00  0.00     0.000 C 
BRANCH   3   4
ATOM      4  C   UNL     1      -8.709   6.037   8.082  1.00  0.00     0.000 C 
BRANCH   4   5
ATOM      5  C   UNL     1      -8.887   4.952   9.158  1.00  0.00     0.006 C 
BRANCH   5   6
ATOM      6  C   UNL     1      -8.821   3.537   8.570  1.00  0.00     0.053 C 
BRANCH   6   7
ATOM      7  C   UNL     1      -7.818   2.684   9.285  1.00  0.00     0.041 C 
ATOM      8  O   UNL     1      -6.847   3.216   9.884  1.00  0.00    -0.550 OA
ATOM      9  O   UNL     1      -7.934   1.300   9.256  1.00  0.00    -0.550 OA
ENDBRANCH   6   7
ENDBRANCH   5   6
ENDBRANCH   4   5
ENDBRANCH   3   4
ENDBRANCH   2   3
ENDBRANCH   1   2
BRANCH   1  10
ATOM     10  C   UNL     1      -4.666   7.905   7.097  1.00  0.00     0.000 C 
BRANCH  10  11
ATOM     11  C   UNL     1      -3.969   8.140   5.751  1.00  0.00    -0.000 C 
BRANCH  11  12
ATOM     12  C   UNL     1      -4.103   6.909   4.843  1.00  0.00    -0.000 C 
BRANCH  12  13
ATOM     13  C   UNL     1      -2.817   6.605   4.057  1.00  0.00    -0.000 C 
BRANCH  13  14
ATOM     14  C   UNL     1      -2.110   5.293   4.451  1.00  0.00    -0.000 C 
BRANCH  14  15
ATOM     15  C   UNL     1      -2.781   4.554   5.629  1.00  0.00    -0.000 C 
BRANCH  15  16
ATOM     16  C   UNL     1      -2.174   3.163   5.867  1.00  0.00    -0.003 C 
ATOM     17  C   UNL     1      -1.766   2.982   7.326  1.00  0.00     0.004 C 
ENDBRANCH  15  16
ENDBRANCH  14  15
ENDBRANCH  13  14
ENDBRANCH  12  13
ENDBRANCH  11  12
ENDBRANCH  10  11
ENDBRANCH   1  10
TORSDOF 13
ENDMDL
MODEL 2
REMARK VINA RESULT:    -4.348     15.449     17.892
REMARK INTER + INTRA:          -8.700
REMARK INTER:                  -7.623
REMARK INTRA:                  -1.077
REMARK UNBOUND:                -1.047
REMARK SMILES CCCCCCCCCCCCCCC(=O)[O-]
REMARK SMILES IDX 9 1 10 2 11 3 12 4 13 5 14 6 15 7 16 8 17 9 8 10 7 11 6 12
REMARK SMILES IDX 5 13 4 14 3 15 2 16 1 17
REMARK H PARENT
REMARK Flexibility Score: inf
ROOT
ATOM      1  C   UNL     1       7.870   4.816  -0.838  1.00  0.00     0.000 C 
ENDROOT
BRANCH   1   2
ATOM      2  C   UNL     1       8.354   4.704  -2.293  1.00  0.00     0.000 C 
BRANCH   2   3
ATOM      3  C   UNL     1       7.263   5.082  -3.309  1.00  0.00     0.000 C 
BRANCH   3   4
ATOM      4  C   UNL     1       7.702   6.213  -4.253  1.00  0.00     0.000 C 
BRANCH   4   5
ATOM      5  C   UNL     1       8.631   5.722  -5.377  1.00  0.00     0.006 C 
BRANCH   5   6
ATOM      6  C   UNL     1       8.431   6.510  -6.678  1.00  0.00     0.053 C 
BRANCH   6   7
ATOM      7  C   UNL     1       7.635   5.733  -7.681  1.00  0.00     0.041 C 
ATOM      8  O   UNL     1       6.738   6.303  -8.357  1.00  0.00    -0.550 OA
ATOM      9  O   UNL     1       7.856   4.371  -7.843  1.00  0.00    -0.550 OA
ENDBRANCH   6   7
ENDBRANCH   5   6
ENDBRANCH   4   5
ENDBRANCH   3   4
ENDBRANCH   2   3
ENDBRANCH   1   2
BRANCH   1  10
ATOM     10  C   UNL     1       8.686   5.825  -0.016  1.00  0.00     0.000 C 
BRANCH  10  11
ATOM     11  C   UNL     1       9.185   6.975  -0.900  1.00  0.00    -0.000 C 
BRANCH  11  12
ATOM     12  C   UNL     1       8.398   8.264  -0.619  1.00  0.00    -0.000 C 
BRANCH  12  13
ATOM     13  C   UNL     1       7.179   8.430  -1.541  1.00  0.00    -0.000 C 
BRANCH  13  14
ATOM     14  C   UNL     1       6.976   9.853  -2.097  1.00  0.00    -0.000 C 
BRANCH  14  15
ATOM     15  C   UNL     1       5.812  10.621  -1.433  1.00  0.00    -0.000 C 
BRANCH  15  16
ATOM     16  C   UNL     1       4.453   9.945  -1.676  1.00  0.00    -0.003 C 
ATOM     17  C   UNL     1       3.621  10.730  -2.685  1.00  0.00     0.004 C 
ENDBRANCH  15  16
ENDBRANCH  14  15
ENDBRANCH  13  14
ENDBRANCH  12  13
ENDBRANCH  11  12
ENDBRANCH  10  11
ENDBRANCH   1  10
TORSDOF 13
ENDMDL
MODEL 3
REMARK VINA RESULT:    -4.288     15.605     18.738
REMARK INTER + INTRA:          -8.594
REMARK INTER:                  -7.457
REMARK INTRA:                  -1.137
REMARK UNBOUND:                -1.047
REMARK SMILES CCCCCCCCCCCCCCC(=O)[O-]
REMARK SMILES IDX 9 1 10 2 11 3 12 4 13 5 14 6 15 7 16 8 17 9 8 10 7 11 6 12
REMARK SMILES IDX 5 13 4 14 3 15 2 16 1 17
REMARK H PARENT
REMARK Flexibility Score: inf
ROOT
ATOM      1  C   UNL     1       8.231   5.100  -2.970  1.00  0.00     0.000 C 
ENDROOT
BRANCH   1   2
ATOM      2  C   UNL     1       7.355   5.503  -4.168  1.00  0.00     0.000 C 
BRANCH   2   3
ATOM      3  C   UNL     1       8.179   6.058  -5.342  1.00  0.00     0.000 C 
BRANCH   3   4
ATOM      4  C   UNL     1       7.411   6.018  -6.673  1.00  0.00     0.000 C 
BRANCH   4   5
ATOM      5  C   UNL     1       8.089   5.122  -7.724  1.00  0.00     0.006 C 
BRANCH   5   6
ATOM      6  C   UNL     1       9.268   4.333  -7.139  1.00  0.00     0.053 C 
BRANCH   6   7
ATOM      7  C   UNL     1       9.630   3.159  -7.996  1.00  0.00     0.041 C 
ATOM      8  O   UNL     1       9.331   3.150  -9.219  1.00  0.00    -0.550 OA
ATOM      9  O   UNL     1      10.264   2.057  -7.435  1.00  0.00    -0.550 OA
ENDBRANCH   6   7
ENDBRANCH   5   6
ENDBRANCH   4   5
ENDBRANCH   3   4
ENDBRANCH   2   3
ENDBRANCH   1   2
BRANCH   1  10
ATOM     10  C   UNL     1       7.425   4.934  -1.674  1.00  0.00     0.000 C 
BRANCH  10  11
ATOM     11  C   UNL     1       8.256   5.349  -0.454  1.00  0.00    -0.000 C 
BRANCH  11  12
ATOM     12  C   UNL     1       9.194   6.515  -0.801  1.00  0.00    -0.000 C 
BRANCH  12  13
ATOM     13  C   UNL     1       8.612   7.884  -0.413  1.00  0.00    -0.000 C 
BRANCH  13  14
ATOM     14  C   UNL     1       8.130   8.744  -1.598  1.00  0.00    -0.000 C 
BRANCH  14  15
ATOM     15  C   UNL     1       6.624   8.597  -1.902  1.00  0.00    -0.000 C 
BRANCH  15  16
ATOM     16  C   UNL     1       5.846   9.896  -1.642  1.00  0.00    -0.003 C 
ATOM     17  C   UNL     1       4.341   9.667  -1.744  1.00  0.00     0.004 C 
ENDBRANCH  15  16
ENDBRANCH  14  15
ENDBRANCH  13  14
ENDBRANCH  12  13
ENDBRANCH  11  12
ENDBRANCH  10  11
ENDBRANCH   1  10
TORSDOF 13
ENDMDL
MODEL 4
REMARK VINA RESULT:    -4.276     15.821     17.987
REMARK INTER + INTRA:          -8.573
REMARK INTER:                  -6.856
REMARK INTRA:                  -1.717
REMARK UNBOUND:                -1.047
REMARK SMILES CCCCCCCCCCCCCCC(=O)[O-]
REMARK SMILES IDX 9 1 10 2 11 3 12 4 13 5 14 6 15 7 16 8 17 9 8 10 7 11 6 12
REMARK SMILES IDX 5 13 4 14 3 15 2 16 1 17
REMARK H PARENT
REMARK Flexibility Score: inf
ROOT
ATOM      1  C   UNL     1       8.242   4.764  -2.463  1.00  0.00     0.000 C 
ENDROOT
BRANCH   1   2
ATOM      2  C   UNL     1       7.796   4.546  -1.008  1.00  0.00     0.000 C 
BRANCH   2   3
ATOM      3  C   UNL     1       8.612   5.382  -0.008  1.00  0.00     0.000 C 
BRANCH   3   4
ATOM      4  C   UNL     1       9.331   6.565  -0.678  1.00  0.00     0.000 C 
BRANCH   4   5
ATOM      5  C   UNL     1       8.577   7.894  -0.504  1.00  0.00     0.006 C 
BRANCH   5   6
ATOM      6  C   UNL     1       8.242   8.550  -1.850  1.00  0.00     0.053 C 
BRANCH   6   7
ATOM      7  C   UNL     1       6.772   8.796  -1.998  1.00  0.00     0.041 C 
ATOM      8  O   UNL     1       6.339   9.968  -2.156  1.00  0.00    -0.550 OA
ATOM      9  O   UNL     1       5.877   7.736  -1.921  1.00  0.00    -0.550 OA
ENDBRANCH   6   7
ENDBRANCH   5   6
ENDBRANCH   4   5
ENDBRANCH   3   4
ENDBRANCH   2   3
ENDBRANCH   1   2
BRANCH   1  10
ATOM     10  C   UNL     1       7.067   5.069  -3.405  1.00  0.00     0.000 C 
BRANCH  10  11
ATOM     11  C   UNL     1       7.545   5.827  -4.649  1.00  0.00    -0.000 C 
BRANCH  11  12
ATOM     12  C   UNL     1       9.073   5.983  -4.643  1.00  0.00    -0.000 C 
BRANCH  12  13
ATOM     13  C   UNL     1       9.712   5.645  -6.000  1.00  0.00    -0.000 C 
BRANCH  13  14
ATOM     14  C   UNL     1       9.173   4.366  -6.671  1.00  0.00    -0.000 C 
BRANCH  14  15
ATOM     15  C   UNL     1       8.702   4.578  -8.126  1.00  0.00    -0.000 C 
BRANCH  15  16
ATOM     16  C   UNL     1       8.532   6.064  -8.475  1.00  0.00    -0.003 C 
ATOM     17  C   UNL     1       7.076   6.498  -8.342  1.00  0.00     0.004 C 
ENDBRANCH  15  16
ENDBRANCH  14  15
ENDBRANCH  13  14
ENDBRANCH  12  13
ENDBRANCH  11  12
ENDBRANCH  10  11
ENDBRANCH   1  10
TORSDOF 13
ENDMDL
MODEL 5
REMARK VINA RESULT:    -4.250     17.253     18.951
REMARK INTER + INTRA:          -8.527
REMARK INTER:                  -6.309
REMARK INTRA:                  -2.218
REMARK UNBOUND:                -1.047
REMARK SMILES CCCCCCCCCCCCCCC(=O)[O-]
REMARK SMILES IDX 9 1 10 2 11 3 12 4 13 5 14 6 15 7 16 8 17 9 8 10 7 11 6 12
REMARK SMILES IDX 5 13 4 14 3 15 2 16 1 17
REMARK H PARENT
REMARK Flexibility Score: inf
ROOT
ATOM      1  C   UNL     1      -0.015  -7.365  -7.091  1.00  0.00     0.000 C 
ENDROOT
BRANCH   1   2
ATOM      2  C   UNL     1      -0.685  -7.243  -8.470  1.00  0.00     0.000 C 
BRANCH   2   3
ATOM      3  C   UNL     1      -1.980  -6.416  -8.426  1.00  0.00     0.000 C 
BRANCH   3   4
ATOM      4  C   UNL     1      -2.018  -5.321  -9.505  1.00  0.00     0.000 C 
BRANCH   4   5
ATOM      5  C   UNL     1      -2.585  -3.990  -8.982  1.00  0.00     0.006 C 
BRANCH   5   6
ATOM      6  C   UNL     1      -3.052  -4.092  -7.524  1.00  0.00     0.053 C 
BRANCH   6   7
ATOM      7  C   UNL     1      -4.540  -3.969  -7.408  1.00  0.00     0.041 C 
ATOM      8  O   UNL     1      -5.241  -3.767  -8.433  1.00  0.00    -0.550 OA
ATOM      9  O   UNL     1      -5.149  -4.039  -6.160  1.00  0.00    -0.550 OA
ENDBRANCH   6   7
ENDBRANCH   5   6
ENDBRANCH   4   5
ENDBRANCH   3   4
ENDBRANCH   2   3
ENDBRANCH   1   2
BRANCH   1  10
ATOM     10  C   UNL     1      -0.070  -6.057  -6.287  1.00  0.00     0.000 C 
BRANCH  10  11
ATOM     11  C   UNL     1       1.170  -5.195  -6.556  1.00  0.00    -0.000 C 
BRANCH  11  12
ATOM     12  C   UNL     1       0.806  -3.958  -7.391  1.00  0.00    -0.000 C 
BRANCH  12  13
ATOM     13  C   UNL     1       1.333  -4.037  -8.833  1.00  0.00    -0.000 C 
BRANCH  13  14
ATOM     14  C   UNL     1       1.068  -2.784  -9.691  1.00  0.00    -0.000 C 
BRANCH  14  15
ATOM     15  C   UNL     1       0.385  -1.635  -8.919  1.00  0.00    -0.000 C 
BRANCH  15  16
ATOM     16  C   UNL     1      -0.699  -0.934  -9.752  1.00  0.00    -0.003 C 
ATOM     17  C   UNL     1      -1.793  -0.356  -8.860  1.00  0.00     0.004 C 
ENDBRANCH  15  16
ENDBRANCH  14  15
ENDBRANCH  13  14
ENDBRANCH  12  13
ENDBRANCH  11  12
ENDBRANCH  10  11
ENDBRANCH   1  10
TORSDOF 13
ENDMDL
MODEL 6
REMARK VINA RESULT:    -4.242     15.855     17.939
REMARK INTER + INTRA:          -8.513
REMARK INTER:                  -6.906
REMARK INTRA:                  -1.607
REMARK UNBOUND:                -1.047
REMARK SMILES CCCCCCCCCCCCCCC(=O)[O-]
REMARK SMILES IDX 9 1 10 2 11 3 12 4 13 5 14 6 15 7 16 8 17 9 8 10 7 11 6 12
REMARK SMILES IDX 5 13 4 14 3 15 2 16 1 17
REMARK H PARENT
REMARK Flexibility Score: inf
ROOT
ATOM      1  C   UNL     1      -2.056  -3.842  -7.210  1.00  0.00     0.000 C 
ENDROOT
BRANCH   1   2
ATOM      2  C   UNL     1      -2.542  -4.676  -8.407  1.00  0.00     0.000 C 
BRANCH   2   3
ATOM      3  C   UNL     1      -3.967  -4.301  -8.848  1.00  0.00     0.000 C 
BRANCH   3   4
ATOM      4  C   UNL     1      -4.995  -5.394  -8.515  1.00  0.00     0.000 C 
BRANCH   4   5
ATOM      5  C   UNL     1      -5.640  -5.203  -7.131  1.00  0.00     0.006 C 
BRANCH   5   6
ATOM      6  C   UNL     1      -5.828  -3.721  -6.780  1.00  0.00     0.053 C 
BRANCH   6   7
ATOM      7  C   UNL     1      -6.724  -3.540  -5.594  1.00  0.00     0.041 C 
ATOM      8  O   UNL     1      -7.377  -4.515  -5.139  1.00  0.00    -0.550 OA
ATOM      9  O   UNL     1      -6.867  -2.286  -5.014  1.00  0.00    -0.550 OA
ENDBRANCH   6   7
ENDBRANCH   5   6
ENDBRANCH   4   5
ENDBRANCH   3   4
ENDBRANCH   2   3
ENDBRANCH   1   2
BRANCH   1  10
ATOM     10  C   UNL     1      -1.212  -2.630  -7.634  1.00  0.00     0.000 C 
BRANCH  10  11
ATOM     11  C   UNL     1      -0.644  -2.825  -9.045  1.00  0.00    -0.000 C 
BRANCH  11  12
ATOM     12  C   UNL     1       0.892  -2.848  -9.020  1.00  0.00    -0.000 C 
BRANCH  12  13
ATOM     13  C   UNL     1       1.480  -4.092  -9.705  1.00  0.00    -0.000 C 
BRANCH  13  14
ATOM     14  C   UNL     1       1.628  -5.326  -8.794  1.00  0.00    -0.000 C 
BRANCH  14  15
ATOM     15  C   UNL     1       2.178  -5.000  -7.388  1.00  0.00    -0.000 C 
BRANCH  15  16
ATOM     16  C   UNL     1       1.149  -5.275  -6.281  1.00  0.00    -0.003 C 
ATOM     17  C   UNL     1       0.300  -6.499  -6.609  1.00  0.00     0.004 C 
ENDBRANCH  15  16
ENDBRANCH  14  15
ENDBRANCH  13  14
ENDBRANCH  12  13
ENDBRANCH  11  12
ENDBRANCH  10  11
ENDBRANCH   1  10
TORSDOF 13
ENDMDL
MODEL 7
REMARK VINA RESULT:    -4.242     18.117     19.872
REMARK INTER + INTRA:          -8.513
REMARK INTER:                  -6.368
REMARK INTRA:                  -2.145
REMARK UNBOUND:                -1.047
REMARK SMILES CCCCCCCCCCCCCCC(=O)[O-]
REMARK SMILES IDX 9 1 10 2 11 3 12 4 13 5 14 6 15 7 16 8 17 9 8 10 7 11 6 12
REMARK SMILES IDX 5 13 4 14 3 15 2 16 1 17
REMARK H PARENT
REMARK Flexibility Score: inf
ROOT
ATOM      1  C   UNL     1      -0.307  -5.796  -6.353  1.00  0.00     0.000 C 
ENDROOT
BRANCH   1   2
ATOM      2  C   UNL     1       0.697  -4.646  -6.543  1.00  0.00     0.000 C 
BRANCH   2   3
ATOM      3  C   UNL     1       1.891  -5.045  -7.425  1.00  0.00     0.000 C 
BRANCH   3   4
ATOM      4  C   UNL     1       1.830  -4.411  -8.824  1.00  0.00     0.000 C 
BRANCH   4   5
ATOM      5  C   UNL     1       0.564  -3.563  -9.037  1.00  0.00     0.006 C 
BRANCH   5   6
ATOM      6  C   UNL     1       0.894  -2.125  -9.458  1.00  0.00     0.053 C 
BRANCH   6   7
ATOM      7  C   UNL     1      -0.214  -1.178  -9.119  1.00  0.00     0.041 C 
ATOM      8  O   UNL     1      -0.600  -1.054  -7.926  1.00  0.00    -0.550 OA
ATOM      9  O   UNL     1      -0.849  -0.458 -10.124  1.00  0.00    -0.550 OA
ENDBRANCH   6   7
ENDBRANCH   5   6
ENDBRANCH   4   5
ENDBRANCH   3   4
ENDBRANCH   2   3
ENDBRANCH   1   2
BRANCH   1  10
ATOM     10  C   UNL     1       0.232  -7.144  -6.856  1.00  0.00     0.000 C 
BRANCH  10  11
ATOM     11  C   UNL     1      -0.746  -7.792  -7.843  1.00  0.00    -0.000 C 
BRANCH  11  12
ATOM     12  C   UNL     1      -0.661  -7.119  -9.221  1.00  0.00    -0.000 C 
BRANCH  12  13
ATOM     13  C   UNL     1      -1.913  -6.293  -9.559  1.00  0.00    -0.000 C 
BRANCH  13  14
ATOM     14  C   UNL     1      -3.141  -6.583  -8.674  1.00  0.00    -0.000 C 
BRANCH  14  15
ATOM     15  C   UNL     1      -3.967  -5.327  -8.324  1.00  0.00    -0.000 C 
BRANCH  15  16
ATOM     16  C   UNL     1      -3.080  -4.103  -8.049  1.00  0.00    -0.003 C 
ATOM     17  C   UNL     1      -3.430  -2.948  -8.983  1.00  0.00     0.004 C 
ENDBRANCH  15  16
ENDBRANCH  14  15
ENDBRANCH  13  14
ENDBRANCH  12  13
ENDBRANCH  11  12
ENDBRANCH  10  11
ENDBRANCH   1  10
TORSDOF 13
ENDMDL
MODEL 8
REMARK VINA RESULT:    -4.225     16.514     18.246
REMARK INTER + INTRA:          -8.483
REMARK INTER:                  -7.341
REMARK INTRA:                  -1.142
REMARK UNBOUND:                -1.047
REMARK SMILES CCCCCCCCCCCCCCC(=O)[O-]
REMARK SMILES IDX 9 1 10 2 11 3 12 4 13 5 14 6 15 7 16 8 17 9 8 10 7 11 6 12
REMARK SMILES IDX 5 13 4 14 3 15 2 16 1 17
REMARK H PARENT
REMARK Flexibility Score: inf
ROOT
ATOM      1  C   UNL     1       7.587   6.323  -1.501  1.00  0.00     0.000 C 
ENDROOT
BRANCH   1   2
ATOM      2  C   UNL     1       6.985   6.624  -2.884  1.00  0.00     0.000 C 
BRANCH   2   3
ATOM      3  C   UNL     1       6.936   5.382  -3.789  1.00  0.00     0.000 C 
BRANCH   3   4
ATOM      4  C   UNL     1       8.019   5.404  -4.880  1.00  0.00     0.000 C 
BRANCH   4   5
ATOM      5  C   UNL     1       7.795   6.517  -5.918  1.00  0.00     0.006 C 
BRANCH   5   6
ATOM      6  C   UNL     1       7.512   5.957  -7.317  1.00  0.00     0.053 C 
BRANCH   6   7
ATOM      7  C   UNL     1       8.640   5.107  -7.815  1.00  0.00     0.041 C 
ATOM      8  O   UNL     1       8.437   3.906  -8.134  1.00  0.00    -0.550 OA
ATOM      9  O   UNL     1       9.926   5.629  -7.889  1.00  0.00    -0.550 OA
ENDBRANCH   6   7
ENDBRANCH   5   6
ENDBRANCH   4   5
ENDBRANCH   3   4
ENDBRANCH   2   3
ENDBRANCH   1   2
BRANCH   1  10
ATOM     10  C   UNL     1       7.630   4.820  -1.187  1.00  0.00     0.000 C 
BRANCH  10  11
ATOM     11  C   UNL     1       9.073   4.345  -0.974  1.00  0.00    -0.000 C 
BRANCH  11  12
ATOM     12  C   UNL     1       9.956   5.491  -0.457  1.00  0.00    -0.000 C 
BRANCH  12  13
ATOM     13  C   UNL     1      10.414   5.281   0.996  1.00  0.00    -0.000 C 
BRANCH  13  14
ATOM     14  C   UNL     1       9.620   6.079   2.048  1.00  0.00    -0.000 C 
BRANCH  14  15
ATOM     15  C   UNL     1       9.157   7.468   1.558  1.00  0.00    -0.000 C 
BRANCH  15  16
ATOM     16  C   UNL     1       9.316   8.551   2.636  1.00  0.00    -0.003 C 
ATOM     17  C   UNL     1       9.272   7.945   4.035  1.00  0.00     0.004 C 
ENDBRANCH  15  16
ENDBRANCH  14  15
ENDBRANCH  13  14
ENDBRANCH  12  13
ENDBRANCH  11  12
ENDBRANCH  10  11
ENDBRANCH   1  10
TORSDOF 13
ENDMDL
MODEL 9
REMARK VINA RESULT:    -4.194     16.261     18.073
REMARK INTER + INTRA:          -8.428
REMARK INTER:                  -6.865
REMARK INTRA:                  -1.563
REMARK UNBOUND:                -1.047
REMARK SMILES CCCCCCCCCCCCCCC(=O)[O-]
REMARK SMILES IDX 9 1 10 2 11 3 12 4 13 5 14 6 15 7 16 8 17 9 8 10 7 11 6 12
REMARK SMILES IDX 5 13 4 14 3 15 2 16 1 17
REMARK H PARENT
REMARK Flexibility Score: inf
ROOT
ATOM      1  C   UNL     1      -0.682  -4.150  -6.711  1.00  0.00     0.000 C 
ENDROOT
BRANCH   1   2
ATOM      2  C   UNL     1      -1.842  -4.932  -7.349  1.00  0.00     0.000 C 
BRANCH   2   3
ATOM      3  C   UNL     1      -2.414  -4.229  -8.592  1.00  0.00     0.000 C 
BRANCH   3   4
ATOM      4  C   UNL     1      -3.937  -4.036  -8.512  1.00  0.00     0.000 C 
BRANCH   4   5
ATOM      5  C   UNL     1      -4.470  -4.101  -7.070  1.00  0.00     0.006 C 
BRANCH   5   6
ATOM      6  C   UNL     1      -5.938  -4.544  -7.014  1.00  0.00     0.053 C 
BRANCH   6   7
ATOM      7  C   UNL     1      -6.591  -4.143  -5.728  1.00  0.00     0.041 C 
ATOM      8  O   UNL     1      -6.517  -2.953  -5.323  1.00  0.00    -0.550 OA
ATOM      9  O   UNL     1      -7.248  -5.093  -4.955  1.00  0.00    -0.550 OA
ENDBRANCH   6   7
ENDBRANCH   5   6
ENDBRANCH   4   5
ENDBRANCH   3   4
ENDBRANCH   2   3
ENDBRANCH   1   2
BRANCH   1  10
ATOM     10  C   UNL     1       0.364  -5.067  -6.059  1.00  0.00     0.000 C 
BRANCH  10  11
ATOM     11  C   UNL     1       1.687  -5.028  -6.834  1.00  0.00    -0.000 C 
BRANCH  11  12
ATOM     12  C   UNL     1       1.505  -5.578  -8.256  1.00  0.00    -0.000 C 
BRANCH  12  13
ATOM     13  C   UNL     1       2.053  -4.631  -9.336  1.00  0.00    -0.000 C 
BRANCH  13  14
ATOM     14  C   UNL     1       1.018  -3.655  -9.929  1.00  0.00    -0.000 C 
BRANCH  14  15
ATOM     15  C   UNL     1       1.067  -2.242  -9.308  1.00  0.00    -0.000 C 
BRANCH  15  16
ATOM     16  C   UNL     1      -0.216  -1.440  -9.580  1.00  0.00    -0.003 C 
ATOM     17  C   UNL     1      -0.806  -0.890  -8.285  1.00  0.00     0.004 C 
ENDBRANCH  15  16
ENDBRANCH  14  15
ENDBRANCH  13  14
ENDBRANCH  12  13
ENDBRANCH  11  12
ENDBRANCH  10  11
ENDBRANCH   1  10
TORSDOF 13
ENDMDL
