MODEL 1
REMARK VINA RESULT:    -3.194      0.000      0.000
REMARK INTER + INTRA:          -3.829
REMARK INTER:                  -3.755
REMARK INTRA:                  -0.074
REMARK UNBOUND:                -0.074
REMARK SMILES O=C([O-])CCC(=O)[O-]
REMARK SMILES IDX 4 1 2 2 1 3 3 4 5 5 6 6 7 7 8 8
REMARK H PARENT
REMARK Flexibility Score: inf
ROOT
ATOM      1  C   UNL     1      -7.049  20.539 -10.266  1.00  0.00     0.059 C 
ENDROOT
BRANCH   1   2
ATOM      2  C   UNL     1      -5.930  20.539 -11.259  1.00  0.00     0.042 C 
ATOM      3  O   UNL     1      -5.728  19.532 -11.987  1.00  0.00    -0.550 OA
ATOM      4  O   UNL     1      -5.141  21.672 -11.416  1.00  0.00    -0.550 OA
ENDBRANCH   1   2
BRANCH   1   5
ATOM      5  C   UNL     1      -6.519  20.235  -8.863  1.00  0.00     0.059 C 
BRANCH   5   6
ATOM      6  C   UNL     1      -7.312  19.135  -8.231  1.00  0.00     0.042 C 
ATOM      7  O   UNL     1      -7.384  18.006  -8.786  1.00  0.00    -0.550 OA
ATOM      8  O   UNL     1      -8.012  19.369  -7.054  1.00  0.00    -0.550 OA
ENDBRANCH   5   6
ENDBRANCH   1   5
TORSDOF 3
ENDMDL
MODEL 2
REMARK VINA RESULT:    -3.185      0.098      3.959
REMARK INTER + INTRA:          -3.818
REMARK INTER:                  -3.732
REMARK INTRA:                  -0.086
REMARK UNBOUND:                -0.074
REMARK SMILES O=C([O-])CCC(=O)[O-]
REMARK SMILES IDX 4 1 2 2 1 3 3 4 5 5 6 6 7 7 8 8
REMARK H PARENT
REMARK Flexibility Score: inf
ROOT
ATOM      1  C   UNL     1      -6.510  20.320  -8.892  1.00  0.00     0.059 C 
ENDROOT
BRANCH   1   2
ATOM      2  C   UNL     1      -7.282  19.212  -8.249  1.00  0.00     0.042 C 
ATOM      3  O   UNL     1      -7.309  18.069  -8.775  1.00  0.00    -0.550 OA
ATOM      4  O   UNL     1      -7.933  19.429  -7.039  1.00  0.00    -0.550 OA
ENDBRANCH   1   2
BRANCH   1   5
ATOM      5  C   UNL     1      -7.029  20.582 -10.308  1.00  0.00     0.059 C 
BRANCH   5   6
ATOM      6  C   UNL     1      -5.912  20.494 -11.299  1.00  0.00     0.042 C 
ATOM      7  O   UNL     1      -5.737  19.440 -11.964  1.00  0.00    -0.550 OA
ATOM      8  O   UNL     1      -5.035  21.560 -11.454  1.00  0.00    -0.550 OA
ENDBRANCH   5   6
ENDBRANCH   1   5
TORSDOF 3
ENDMDL
MODEL 3
REMARK VINA RESULT:    -3.184      0.106      1.147
REMARK INTER + INTRA:          -3.817
REMARK INTER:                  -3.756
REMARK INTRA:                  -0.061
REMARK UNBOUND:                -0.074
REMARK SMILES O=C([O-])CCC(=O)[O-]
REMARK SMILES IDX 4 1 2 2 1 3 3 4 5 5 6 6 7 7 8 8
REMARK H PARENT
REMARK Flexibility Score: inf
ROOT
ATOM      1  C   UNL     1      -7.064  20.479 -10.331  1.00  0.00     0.059 C 
ENDROOT
BRANCH   1   2
ATOM      2  C   UNL     1      -5.916  20.488 -11.290  1.00  0.00     0.042 C 
ATOM      3  O   UNL     1      -5.722  19.508 -12.056  1.00  0.00    -0.550 OA
ATOM      4  O   UNL     1      -5.088  21.601 -11.374  1.00  0.00    -0.550 OA
ENDBRANCH   1   2
BRANCH   1   5
ATOM      5  C   UNL     1      -6.561  20.308  -8.896  1.00  0.00     0.059 C 
BRANCH   5   6
ATOM      6  C   UNL     1      -7.343  19.245  -8.191  1.00  0.00     0.042 C 
ATOM      7  O   UNL     1      -7.871  19.482  -7.073  1.00  0.00    -0.550 OA
ATOM      8  O   UNL     1      -7.448  17.976  -8.747  1.00  0.00    -0.550 OA
ENDBRANCH   5   6
ENDBRANCH   1   5
TORSDOF 3
ENDMDL
MODEL 4
REMARK VINA RESULT:    -3.153      0.136      4.166
REMARK INTER + INTRA:          -3.781
REMARK INTER:                  -3.705
REMARK INTRA:                  -0.075
REMARK UNBOUND:                -0.074
REMARK SMILES O=C([O-])CCC(=O)[O-]
REMARK SMILES IDX 4 1 2 2 1 3 3 4 5 5 6 6 7 7 8 8
REMARK H PARENT
REMARK Flexibility Score: inf
ROOT
ATOM      1  C   UNL     1      -6.437  20.330  -8.801  1.00  0.00     0.059 C 
ENDROOT
BRANCH   1   2
ATOM      2  C   UNL     1      -7.298  19.261  -8.206  1.00  0.00     0.042 C 
ATOM      3  O   UNL     1      -7.957  19.489  -7.157  1.00  0.00    -0.550 OA
ATOM      4  O   UNL     1      -7.413  18.028  -8.836  1.00  0.00    -0.550 OA
ENDBRANCH   1   2
BRANCH   1   5
ATOM      5  C   UNL     1      -6.970  20.742 -10.175  1.00  0.00     0.059 C 
BRANCH   5   6
ATOM      6  C   UNL     1      -5.882  20.671 -11.200  1.00  0.00     0.042 C 
ATOM      7  O   UNL     1      -5.134  21.664 -11.400  1.00  0.00    -0.550 OA
ATOM      8  O   UNL     1      -5.725  19.525 -11.969  1.00  0.00    -0.550 OA
ENDBRANCH   5   6
ENDBRANCH   1   5
TORSDOF 3
ENDMDL
MODEL 5
REMARK VINA RESULT:    -3.103      1.398      3.775
REMARK INTER + INTRA:          -3.721
REMARK INTER:                  -3.567
REMARK INTRA:                  -0.154
REMARK UNBOUND:                -0.074
REMARK SMILES O=C([O-])CCC(=O)[O-]
REMARK SMILES IDX 4 1 2 2 1 3 3 4 5 5 6 6 7 7 8 8
REMARK H PARENT
REMARK Flexibility Score: inf
ROOT
ATOM      1  C   UNL     1      -5.962  19.563  -8.982  1.00  0.00     0.059 C 
ENDROOT
BRANCH   1   2
ATOM      2  C   UNL     1      -7.129  18.886  -8.338  1.00  0.00     0.042 C 
ATOM      3  O   UNL     1      -7.587  17.816  -8.819  1.00  0.00    -0.550 OA
ATOM      4  O   UNL     1      -7.682  19.410  -7.175  1.00  0.00    -0.550 OA
ENDBRANCH   1   2
BRANCH   1   5
ATOM      5  C   UNL     1      -6.210  19.748 -10.481  1.00  0.00     0.059 C 
BRANCH   5   6
ATOM      6  C   UNL     1      -7.139  20.895 -10.719  1.00  0.00     0.042 C 
ATOM      7  O   UNL     1      -6.838  22.049 -10.314  1.00  0.00    -0.550 OA
ATOM      8  O   UNL     1      -8.360  20.683 -11.347  1.00  0.00    -0.550 OA
ENDBRANCH   5   6
ENDBRANCH   1   5
TORSDOF 3
ENDMDL
MODEL 6
REMARK VINA RESULT:    -2.727     11.778     12.975
REMARK INTER + INTRA:          -3.280
REMARK INTER:                  -3.246
REMARK INTRA:                  -0.034
REMARK UNBOUND:                -0.074
REMARK SMILES O=C([O-])CCC(=O)[O-]
REMARK SMILES IDX 4 1 2 2 1 3 3 4 5 5 6 6 7 7 8 8
REMARK H PARENT
REMARK Flexibility Score: inf
ROOT
ATOM      1  C   UNL     1      -5.596  32.304  -6.525  1.00  0.00     0.059 C 
ENDROOT
BRANCH   1   2
ATOM      2  C   UNL     1      -4.716  33.139  -5.650  1.00  0.00     0.042 C 
ATOM      3  O   UNL     1      -4.481  32.786  -4.465  1.00  0.00    -0.550 OA
ATOM      4  O   UNL     1      -4.114  34.284  -6.159  1.00  0.00    -0.550 OA
ENDBRANCH   1   2
BRANCH   1   5
ATOM      5  C   UNL     1      -4.836  31.079  -7.036  1.00  0.00     0.059 C 
BRANCH   5   6
ATOM      6  C   UNL     1      -5.087  30.879  -8.497  1.00  0.00     0.042 C 
ATOM      7  O   UNL     1      -4.137  30.960  -9.320  1.00  0.00    -0.550 OA
ATOM      8  O   UNL     1      -6.378  30.652  -8.956  1.00  0.00    -0.550 OA
ENDBRANCH   5   6
ENDBRANCH   1   5
TORSDOF 3
ENDMDL
MODEL 7
REMARK VINA RESULT:    -2.675     12.700     13.642
REMARK INTER + INTRA:          -3.219
REMARK INTER:                  -3.108
REMARK INTRA:                  -0.111
REMARK UNBOUND:                -0.074
REMARK SMILES O=C([O-])CCC(=O)[O-]
REMARK SMILES IDX 4 1 2 2 1 3 3 4 5 5 6 6 7 7 8 8
REMARK H PARENT
REMARK Flexibility Score: inf
ROOT
ATOM      1  C   UNL     1     -19.644  15.161 -12.798  1.00  0.00     0.059 C 
ENDROOT
BRANCH   1   2
ATOM      2  C   UNL     1     -20.648  16.107 -12.220  1.00  0.00     0.042 C 
ATOM      3  O   UNL     1     -20.706  17.297 -12.627  1.00  0.00    -0.550 OA
ATOM      4  O   UNL     1     -21.556  15.661 -11.266  1.00  0.00    -0.550 OA
ENDBRANCH   1   2
BRANCH   1   5
ATOM      5  C   UNL     1     -18.483  14.952 -11.824  1.00  0.00     0.059 C 
BRANCH   5   6
ATOM      6  C   UNL     1     -17.391  15.939 -12.093  1.00  0.00     0.042 C 
ATOM      7  O   UNL     1     -16.766  15.910 -13.186  1.00  0.00    -0.550 OA
ATOM      8  O   UNL     1     -17.030  16.861 -11.118  1.00  0.00    -0.550 OA
ENDBRANCH   5   6
ENDBRANCH   1   5
TORSDOF 3
ENDMDL
MODEL 8
REMARK VINA RESULT:    -2.674     11.336     12.069
REMARK INTER + INTRA:          -3.217
REMARK INTER:                  -3.119
REMARK INTRA:                  -0.098
REMARK UNBOUND:                -0.074
REMARK SMILES O=C([O-])CCC(=O)[O-]
REMARK SMILES IDX 4 1 2 2 1 3 3 4 5 5 6 6 7 7 8 8
REMARK H PARENT
REMARK Flexibility Score: inf
ROOT
ATOM      1  C   UNL     1     -14.612  26.853 -11.450  1.00  0.00     0.059 C 
ENDROOT
BRANCH   1   2
ATOM      2  C   UNL     1     -13.560  27.198 -10.444  1.00  0.00     0.042 C 
ATOM      3  O   UNL     1     -13.639  28.267  -9.784  1.00  0.00    -0.550 OA
ATOM      4  O   UNL     1     -12.515  26.315 -10.200  1.00  0.00    -0.550 OA
ENDBRANCH   1   2
BRANCH   1   5
ATOM      5  C   UNL     1     -15.912  27.600 -11.142  1.00  0.00     0.059 C 
BRANCH   5   6
ATOM      6  C   UNL     1     -16.365  28.375 -12.338  1.00  0.00     0.042 C 
ATOM      7  O   UNL     1     -17.377  28.002 -12.989  1.00  0.00    -0.550 OA
ATOM      8  O   UNL     1     -15.643  29.482 -12.764  1.00  0.00    -0.550 OA
ENDBRANCH   5   6
ENDBRANCH   1   5
TORSDOF 3
ENDMDL
MODEL 9
REMARK VINA RESULT:    -2.582     13.802     14.785
REMARK INTER + INTRA:          -3.109
REMARK INTER:                  -3.028
REMARK INTRA:                  -0.081
REMARK UNBOUND:                -0.074
REMARK SMILES O=C([O-])CCC(=O)[O-]
REMARK SMILES IDX 4 1 2 2 1 3 3 4 5 5 6 6 7 7 8 8
REMARK H PARENT
REMARK Flexibility Score: inf
ROOT
ATOM      1  C   UNL     1     -16.642  25.810  -0.452  1.00  0.00     0.059 C 
ENDROOT
BRANCH   1   2
ATOM      2  C   UNL     1     -17.061  24.664  -1.318  1.00  0.00     0.042 C 
ATOM      3  O   UNL     1     -16.700  24.616  -2.524  1.00  0.00    -0.550 OA
ATOM      4  O   UNL     1     -17.808  23.623  -0.781  1.00  0.00    -0.550 OA
ENDBRANCH   1   2
BRANCH   1   5
ATOM      5  C   UNL     1     -15.440  26.532  -1.063  1.00  0.00     0.059 C 
BRANCH   5   6
ATOM      6  C   UNL     1     -15.858  27.848  -1.640  1.00  0.00     0.042 C 
ATOM      7  O   UNL     1     -16.989  28.329  -1.365  1.00  0.00    -0.550 OA
ATOM      8  O   UNL     1     -15.019  28.520  -2.519  1.00  0.00    -0.550 OA
ENDBRANCH   5   6
ENDBRANCH   1   5
TORSDOF 3
ENDMDL
