MODEL 1
REMARK VINA RESULT:    -4.624      0.000      0.000
REMARK INTER + INTRA:          -4.918
REMARK INTER:                  -4.895
REMARK INTRA:                  -0.023
REMARK UNBOUND:                -0.023
REMARK SMILES O=C([O-])c1cccnc1
REMARK SMILES IDX 4 1 5 2 9 3 6 4 8 5 7 6 2 7 1 8 3 9
REMARK H PARENT
REMARK Flexibility Score: inf
ROOT
ATOM      1  C   UNL     1       2.055  21.329 -19.666  1.00  0.00     0.016 A 
ATOM      2  C   UNL     1       1.625  19.991 -19.683  1.00  0.00     0.013 A 
ATOM      3  C   UNL     1       3.145  21.690 -20.475  1.00  0.00     0.120 A 
ATOM      4  C   UNL     1       2.275  19.056 -20.490  1.00  0.00     0.021 A 
ATOM      5  N   UNL     1       3.761  20.760 -21.253  1.00  0.00    -0.264 NA
ATOM      6  C   UNL     1       3.353  19.464 -21.277  1.00  0.00     0.111 A 
ENDROOT
BRANCH   1   7
ATOM      7  C   UNL     1       1.379  22.335 -18.818  1.00  0.00     0.073 C 
ATOM      8  O   UNL     1       0.215  22.127 -18.383  1.00  0.00    -0.545 OA
ATOM      9  O   UNL     1       2.021  23.524 -18.490  1.00  0.00    -0.545 OA
ENDBRANCH   1   7
TORSDOF 1
ENDMDL
MODEL 2
REMARK VINA RESULT:    -4.606      2.688      3.765
REMARK INTER + INTRA:          -4.899
REMARK INTER:                  -4.879
REMARK INTRA:                  -0.019
REMARK UNBOUND:                -0.023
REMARK SMILES O=C([O-])c1cccnc1
REMARK SMILES IDX 4 1 5 2 9 3 6 4 8 5 7 6 2 7 1 8 3 9
REMARK H PARENT
REMARK Flexibility Score: inf
ROOT
ATOM      1  C   UNL     1       2.376  21.347 -19.579  1.00  0.00     0.016 A 
ATOM      2  C   UNL     1       1.016  21.309 -19.228  1.00  0.00     0.013 A 
ATOM      3  C   UNL     1       3.214  22.256 -18.910  1.00  0.00     0.120 A 
ATOM      4  C   UNL     1       0.524  22.159 -18.236  1.00  0.00     0.021 A 
ATOM      5  N   UNL     1       2.709  23.074 -17.947  1.00  0.00    -0.264 NA
ATOM      6  C   UNL     1       1.395  23.045 -17.600  1.00  0.00     0.111 A 
ENDROOT
BRANCH   1   7
ATOM      7  C   UNL     1       2.917  20.454 -20.627  1.00  0.00     0.073 C 
ATOM      8  O   UNL     1       3.693  20.902 -21.511  1.00  0.00    -0.545 OA
ATOM      9  O   UNL     1       2.573  19.107 -20.648  1.00  0.00    -0.545 OA
ENDBRANCH   1   7
TORSDOF 1
ENDMDL
MODEL 3
REMARK VINA RESULT:    -4.299     13.326     14.823
REMARK INTER + INTRA:          -4.574
REMARK INTER:                  -4.554
REMARK INTRA:                  -0.020
REMARK UNBOUND:                -0.023
REMARK SMILES O=C([O-])c1cccnc1
REMARK SMILES IDX 4 1 5 2 9 3 6 4 8 5 7 6 2 7 1 8 3 9
REMARK H PARENT
REMARK Flexibility Score: inf
ROOT
ATOM      1  C   UNL     1      -5.975  32.386 -17.467  1.00  0.00     0.016 A 
ATOM      2  C   UNL     1      -6.777  33.096 -18.376  1.00  0.00     0.013 A 
ATOM      3  C   UNL     1      -6.441  32.221 -16.152  1.00  0.00     0.120 A 
ATOM      4  C   UNL     1      -8.005  33.618 -17.968  1.00  0.00     0.021 A 
ATOM      5  N   UNL     1      -7.642  32.740 -15.779  1.00  0.00    -0.264 NA
ATOM      6  C   UNL     1      -8.426  33.428 -16.651  1.00  0.00     0.111 A 
ENDROOT
BRANCH   1   7
ATOM      7  C   UNL     1      -4.670  31.825 -17.880  1.00  0.00     0.073 C 
ATOM      8  O   UNL     1      -4.551  31.223 -18.980  1.00  0.00    -0.545 OA
ATOM      9  O   UNL     1      -3.556  31.954 -17.057  1.00  0.00    -0.545 OA
ENDBRANCH   1   7
TORSDOF 1
ENDMDL
MODEL 4
REMARK VINA RESULT:    -4.292     13.530     14.518
REMARK INTER + INTRA:          -4.566
REMARK INTER:                  -4.548
REMARK INTRA:                  -0.018
REMARK UNBOUND:                -0.023
REMARK SMILES O=C([O-])c1cccnc1
REMARK SMILES IDX 4 1 5 2 9 3 6 4 8 5 7 6 2 7 1 8 3 9
REMARK H PARENT
REMARK Flexibility Score: inf
ROOT
ATOM      1  C   UNL     1      -6.197  32.941 -17.843  1.00  0.00     0.016 A 
ATOM      2  C   UNL     1      -5.808  31.850 -18.640  1.00  0.00     0.013 A 
ATOM      3  C   UNL     1      -5.197  33.682 -17.192  1.00  0.00     0.120 A 
ATOM      4  C   UNL     1      -4.457  31.523 -18.770  1.00  0.00     0.021 A 
ATOM      5  N   UNL     1      -3.887  33.343 -17.335  1.00  0.00    -0.264 NA
ATOM      6  C   UNL     1      -3.500  32.290 -18.103  1.00  0.00     0.111 A 
ENDROOT
BRANCH   1   7
ATOM      7  C   UNL     1      -7.623  33.303 -17.693  1.00  0.00     0.073 C 
ATOM      8  O   UNL     1      -8.318  33.599 -18.700  1.00  0.00    -0.545 OA
ATOM      9  O   UNL     1      -8.215  33.321 -16.434  1.00  0.00    -0.545 OA
ENDBRANCH   1   7
TORSDOF 1
ENDMDL
MODEL 5
REMARK VINA RESULT:    -4.154     10.323     11.184
REMARK INTER + INTRA:          -4.420
REMARK INTER:                  -4.404
REMARK INTRA:                  -0.016
REMARK UNBOUND:                -0.023
REMARK SMILES O=C([O-])c1cccnc1
REMARK SMILES IDX 4 1 5 2 9 3 6 4 8 5 7 6 2 7 1 8 3 9
REMARK H PARENT
REMARK Flexibility Score: inf
ROOT
ATOM      1  C   UNL     1       8.073  24.320 -11.395  1.00  0.00     0.016 A 
ATOM      2  C   UNL     1       9.197  25.149 -11.551  1.00  0.00     0.013 A 
ATOM      3  C   UNL     1       6.885  24.673 -12.057  1.00  0.00     0.120 A 
ATOM      4  C   UNL     1       9.119  26.292 -12.348  1.00  0.00     0.021 A 
ATOM      5  N   UNL     1       6.836  25.792 -12.829  1.00  0.00    -0.264 NA
ATOM      6  C   UNL     1       7.917  26.601 -12.986  1.00  0.00     0.111 A 
ENDROOT
BRANCH   1   7
ATOM      7  C   UNL     1       8.135  23.104 -10.555  1.00  0.00     0.073 C 
ATOM      8  O   UNL     1       8.519  22.008 -11.042  1.00  0.00    -0.545 OA
ATOM      9  O   UNL     1       7.769  23.156  -9.214  1.00  0.00    -0.545 OA
ENDBRANCH   1   7
TORSDOF 1
ENDMDL
MODEL 6
REMARK VINA RESULT:    -4.124      9.991     10.889
REMARK INTER + INTRA:          -4.388
REMARK INTER:                  -4.368
REMARK INTRA:                  -0.020
REMARK UNBOUND:                -0.023
REMARK SMILES O=C([O-])c1cccnc1
REMARK SMILES IDX 4 1 5 2 9 3 6 4 8 5 7 6 2 7 1 8 3 9
REMARK H PARENT
REMARK Flexibility Score: inf
ROOT
ATOM      1  C   UNL     1       7.873  26.857 -12.770  1.00  0.00     0.016 A 
ATOM      2  C   UNL     1       9.159  26.477 -12.348  1.00  0.00     0.013 A 
ATOM      3  C   UNL     1       6.868  25.877 -12.818  1.00  0.00     0.120 A 
ATOM      4  C   UNL     1       9.415  25.153 -11.988  1.00  0.00     0.021 A 
ATOM      5  N   UNL     1       7.144  24.593 -12.461  1.00  0.00    -0.264 NA
ATOM      6  C   UNL     1       8.383  24.214 -12.052  1.00  0.00     0.111 A 
ENDROOT
BRANCH   1   7
ATOM      7  C   UNL     1       7.582  28.255 -13.155  1.00  0.00     0.073 C 
ATOM      8  O   UNL     1       6.861  28.506 -14.157  1.00  0.00    -0.545 OA
ATOM      9  O   UNL     1       8.102  29.312 -12.415  1.00  0.00    -0.545 OA
ENDBRANCH   1   7
TORSDOF 1
ENDMDL
MODEL 7
REMARK VINA RESULT:    -3.992     10.365     11.350
REMARK INTER + INTRA:          -4.249
REMARK INTER:                  -4.225
REMARK INTRA:                  -0.024
REMARK UNBOUND:                -0.023
REMARK SMILES O=C([O-])c1cccnc1
REMARK SMILES IDX 4 1 5 2 9 3 6 4 8 5 7 6 2 7 1 8 3 9
REMARK H PARENT
REMARK Flexibility Score: inf
ROOT
ATOM      1  C   UNL     1       8.119  26.224 -12.487  1.00  0.00     0.016 A 
ATOM      2  C   UNL     1       7.355  27.369 -12.767  1.00  0.00     0.013 A 
ATOM      3  C   UNL     1       9.510  26.366 -12.347  1.00  0.00     0.120 A 
ATOM      4  C   UNL     1       7.977  28.611 -12.901  1.00  0.00     0.021 A 
ATOM      5  N   UNL     1      10.092  27.588 -12.482  1.00  0.00    -0.264 NA
ATOM      6  C   UNL     1       9.362  28.703 -12.754  1.00  0.00     0.111 A 
ENDROOT
BRANCH   1   7
ATOM      7  C   UNL     1       7.478  24.898 -12.341  1.00  0.00     0.073 C 
ATOM      8  O   UNL     1       6.290  24.717 -12.716  1.00  0.00    -0.545 OA
ATOM      9  O   UNL     1       8.181  23.835 -11.785  1.00  0.00    -0.545 OA
ENDBRANCH   1   7
TORSDOF 1
ENDMDL
MODEL 8
REMARK VINA RESULT:    -3.936     12.075     12.990
REMARK INTER + INTRA:          -4.190
REMARK INTER:                  -4.167
REMARK INTRA:                  -0.023
REMARK UNBOUND:                -0.023
REMARK SMILES O=C([O-])c1cccnc1
REMARK SMILES IDX 4 1 5 2 9 3 6 4 8 5 7 6 2 7 1 8 3 9
REMARK H PARENT
REMARK Flexibility Score: inf
ROOT
ATOM      1  C   UNL     1       1.876  20.974  -7.553  1.00  0.00     0.016 A 
ATOM      2  C   UNL     1       0.621  21.324  -7.028  1.00  0.00     0.013 A 
ATOM      3  C   UNL     1       2.796  20.327  -6.710  1.00  0.00     0.120 A 
ATOM      4  C   UNL     1       0.309  21.030  -5.700  1.00  0.00     0.021 A 
ATOM      5  N   UNL     1       2.468  20.051  -5.419  1.00  0.00    -0.264 NA
ATOM      6  C   UNL     1       1.256  20.386  -4.901  1.00  0.00     0.111 A 
ENDROOT
BRANCH   1   7
ATOM      7  C   UNL     1       2.225  21.277  -8.958  1.00  0.00     0.073 C 
ATOM      8  O   UNL     1       1.322  21.465  -9.815  1.00  0.00    -0.545 OA
ATOM      9  O   UNL     1       3.557  21.356  -9.351  1.00  0.00    -0.545 OA
ENDBRANCH   1   7
TORSDOF 1
ENDMDL
MODEL 9
REMARK VINA RESULT:    -3.932     10.093     10.914
REMARK INTER + INTRA:          -4.185
REMARK INTER:                  -4.166
REMARK INTRA:                  -0.019
REMARK UNBOUND:                -0.023
REMARK SMILES O=C([O-])c1cccnc1
REMARK SMILES IDX 4 1 5 2 9 3 6 4 8 5 7 6 2 7 1 8 3 9
REMARK H PARENT
REMARK Flexibility Score: inf
ROOT
ATOM      1  C   UNL     1       7.985  26.996 -12.803  1.00  0.00     0.016 A 
ATOM      2  C   UNL     1       6.966  26.029 -12.807  1.00  0.00     0.013 A 
ATOM      3  C   UNL     1       9.291  26.591 -12.478  1.00  0.00     0.120 A 
ATOM      4  C   UNL     1       7.260  24.700 -12.495  1.00  0.00     0.021 A 
ATOM      5  N   UNL     1       9.551  25.289 -12.178  1.00  0.00    -0.264 NA
ATOM      6  C   UNL     1       8.572  24.345 -12.179  1.00  0.00     0.111 A 
ENDROOT
BRANCH   1   7
ATOM      7  C   UNL     1       7.695  28.409 -13.131  1.00  0.00     0.073 C 
ATOM      8  O   UNL     1       8.153  29.340 -12.418  1.00  0.00    -0.545 OA
ATOM      9  O   UNL     1       6.909  28.727 -14.234  1.00  0.00    -0.545 OA
ENDBRANCH   1   7
TORSDOF 1
ENDMDL
