MODEL 1
REMARK VINA RESULT:     2.643      0.000      0.000
REMARK INTER + INTRA:           2.801
REMARK INTER:                   3.184
REMARK INTRA:                  -0.384
REMARK UNBOUND:                -0.384
REMARK SMILES O=c1c(O)c(-c2ccc(O)cc2O)oc2cc(O)cc(O)c12
REMARK SMILES IDX 5 1 3 2 2 3 1 4 22 5 20 6 19 7 17 8 16 9 15 10 14 11 6 12
REMARK SMILES IDX 8 13 7 14 9 15 11 16 12 17 10 18 13 20 4 22 21 24 18 26
REMARK H PARENT 10 19 13 21 4 23 21 25 18 27
REMARK Flexibility Score: inf
ROOT
ATOM      1  C   UNL     1     156.893 162.380 155.936  1.00  0.00     0.184 A 
ATOM      2  C   UNL     1     156.362 163.239 156.912  1.00  0.00     0.208 A 
ATOM      3  C   UNL     1     155.208 162.847 157.609  1.00  0.00     0.238 A 
ATOM      4  O   UNL     1     154.705 163.646 158.441  1.00  0.00    -0.285 OA
ATOM      5  C   UNL     1     154.612 161.593 157.335  1.00  0.00     0.111 A 
ATOM      6  C   UNL     1     153.464 161.076 158.009  1.00  0.00     0.134 A 
ATOM      7  C   UNL     1     152.885 159.880 157.567  1.00  0.00     0.093 A 
ATOM      8  C   UNL     1     153.451 159.149 156.520  1.00  0.00     0.123 A 
ATOM      9  C   UNL     1     154.604 159.615 155.896  1.00  0.00     0.094 A 
ATOM     10  C   UNL     1     155.184 160.823 156.289  1.00  0.00     0.146 A 
ATOM     11  O   UNL     1     156.277 161.237 155.659  1.00  0.00    -0.451 OA
ENDROOT
BRANCH   1  12
ATOM     12  C   UNL     1     158.121 162.721 155.180  1.00  0.00     0.063 A 
ATOM     13  C   UNL     1     159.193 163.695 153.224  1.00  0.00     0.047 A 
ATOM     14  C   UNL     1     158.035 163.348 153.925  1.00  0.00     0.020 A 
ATOM     15  C   UNL     1     160.454 163.429 153.773  1.00  0.00     0.119 A 
ATOM     16  C   UNL     1     160.550 162.817 155.025  1.00  0.00     0.093 A 
ATOM     17  C   UNL     1     159.392 162.464 155.735  1.00  0.00     0.130 A 
BRANCH  15  18
ATOM     18  O   UNL     1     161.614 163.770 153.083  1.00  0.00    -0.508 OA
ATOM     19  H   UNL     1     162.477 163.254 153.209  1.00  0.00     0.293 HD
ENDBRANCH  15  18
BRANCH  17  20
ATOM     20  O   UNL     1     159.504 161.848 156.982  1.00  0.00    -0.507 OA
ATOM     21  H   UNL     1     158.689 161.635 157.545  1.00  0.00     0.293 HD
ENDBRANCH  17  20
ENDBRANCH   1  12
BRANCH   2  22
ATOM     22  O   UNL     1     156.960 164.479 157.155  1.00  0.00    -0.502 OA
ATOM     23  H   UNL     1     156.459 165.250 157.579  1.00  0.00     0.293 HD
ENDBRANCH   2  22
BRANCH   6  24
ATOM     24  O   UNL     1     152.876 161.680 159.124  1.00  0.00    -0.507 OA
ATOM     25  H   UNL     1     151.901 161.602 159.374  1.00  0.00     0.293 HD
ENDBRANCH   6  24
BRANCH   8  26
ATOM     26  O   UNL     1     152.876 157.952 156.099  1.00  0.00    -0.508 OA
ATOM     27  H   UNL     1     153.362 157.068 156.193  1.00  0.00     0.293 HD
ENDBRANCH   8  26
TORSDOF 6
ENDMDL
MODEL 2
REMARK VINA RESULT:     4.492     11.357     12.590
REMARK INTER + INTRA:           5.028
REMARK INTER:                   5.354
REMARK INTRA:                  -0.326
REMARK UNBOUND:                -0.384
REMARK SMILES O=c1c(O)c(-c2ccc(O)cc2O)oc2cc(O)cc(O)c12
REMARK SMILES IDX 5 1 3 2 2 3 1 4 22 5 20 6 19 7 17 8 16 9 15 10 14 11 6 12
REMARK SMILES IDX 8 13 7 14 9 15 11 16 12 17 10 18 13 20 4 22 21 24 18 26
REMARK H PARENT 10 19 13 21 4 23 21 25 18 27
REMARK Flexibility Score: inf
ROOT
ATOM      1  C   UNL     1     167.189 164.526 152.301  1.00  0.00     0.184 A 
ATOM      2  C   UNL     1     167.162 163.448 153.201  1.00  0.00     0.208 A 
ATOM      3  C   UNL     1     167.214 163.709 154.579  1.00  0.00     0.238 A 
ATOM      4  O   UNL     1     167.248 162.736 155.377  1.00  0.00    -0.285 OA
ATOM      5  C   UNL     1     167.270 165.045 155.041  1.00  0.00     0.111 A 
ATOM      6  C   UNL     1     167.285 165.429 156.416  1.00  0.00     0.134 A 
ATOM      7  C   UNL     1     167.471 166.774 156.756  1.00  0.00     0.093 A 
ATOM      8  C   UNL     1     167.576 167.758 155.770  1.00  0.00     0.123 A 
ATOM      9  C   UNL     1     167.503 167.402 154.427  1.00  0.00     0.094 A 
ATOM     10  C   UNL     1     167.355 166.063 154.055  1.00  0.00     0.146 A 
ATOM     11  O   UNL     1     167.302 165.766 152.763  1.00  0.00    -0.451 OA
ENDROOT
BRANCH   1  12
ATOM     12  C   UNL     1     167.113 164.323 150.835  1.00  0.00     0.063 A 
ATOM     13  C   UNL     1     165.904 164.546 148.734  1.00  0.00     0.047 A 
ATOM     14  C   UNL     1     165.965 164.711 150.120  1.00  0.00     0.020 A 
ATOM     15  C   UNL     1     166.992 164.001 148.042  1.00  0.00     0.119 A 
ATOM     16  C   UNL     1     168.141 163.625 148.741  1.00  0.00     0.093 A 
ATOM     17  C   UNL     1     168.211 163.785 150.134  1.00  0.00     0.130 A 
BRANCH  15  18
ATOM     18  O   UNL     1     166.940 163.832 146.661  1.00  0.00    -0.508 OA
ATOM     19  H   UNL     1     167.769 163.918 146.084  1.00  0.00     0.293 HD
ENDBRANCH  15  18
BRANCH  17  20
ATOM     20  O   UNL     1     169.363 163.398 150.819  1.00  0.00    -0.507 OA
ATOM     21  H   UNL     1     169.323 163.037 151.764  1.00  0.00     0.293 HD
ENDBRANCH  17  20
ENDBRANCH   1  12
BRANCH   2  22
ATOM     22  O   UNL     1     167.121 162.136 152.720  1.00  0.00    -0.502 OA
ATOM     23  H   UNL     1     167.951 161.642 152.414  1.00  0.00     0.293 HD
ENDBRANCH   2  22
BRANCH   6  24
ATOM     24  O   UNL     1     167.096 164.537 157.477  1.00  0.00    -0.507 OA
ATOM     25  H   UNL     1     167.604 163.674 157.600  1.00  0.00     0.293 HD
ENDBRANCH   6  24
BRANCH   8  26
ATOM     26  O   UNL     1     167.745 169.097 156.119  1.00  0.00    -0.508 OA
ATOM     27  H   UNL     1     168.146 169.766 155.473  1.00  0.00     0.293 HD
ENDBRANCH   8  26
TORSDOF 6
ENDMDL
MODEL 3
REMARK VINA RESULT:     4.541     10.781     11.681
REMARK INTER + INTRA:           5.087
REMARK INTER:                   5.508
REMARK INTRA:                  -0.422
REMARK UNBOUND:                -0.384
REMARK SMILES O=c1c(O)c(-c2ccc(O)cc2O)oc2cc(O)cc(O)c12
REMARK SMILES IDX 5 1 3 2 2 3 1 4 22 5 20 6 19 7 17 8 16 9 15 10 14 11 6 12
REMARK SMILES IDX 8 13 7 14 9 15 11 16 12 17 10 18 13 20 4 22 21 24 18 26
REMARK H PARENT 10 19 13 21 4 23 21 25 18 27
REMARK Flexibility Score: inf
ROOT
ATOM      1  C   UNL     1     167.334 163.733 153.380  1.00  0.00     0.184 A 
ATOM      2  C   UNL     1     167.455 164.920 154.122  1.00  0.00     0.208 A 
ATOM      3  C   UNL     1     167.420 164.854 155.523  1.00  0.00     0.238 A 
ATOM      4  O   UNL     1     167.472 165.927 156.180  1.00  0.00    -0.285 OA
ATOM      5  C   UNL     1     167.285 163.600 156.166  1.00  0.00     0.111 A 
ATOM      6  C   UNL     1     167.278 163.410 157.581  1.00  0.00     0.134 A 
ATOM      7  C   UNL     1     167.010 162.141 158.106  1.00  0.00     0.093 A 
ATOM      8  C   UNL     1     166.814 161.041 157.267  1.00  0.00     0.123 A 
ATOM      9  C   UNL     1     166.878 161.205 155.886  1.00  0.00     0.094 A 
ATOM     10  C   UNL     1     167.107 162.466 155.332  1.00  0.00     0.146 A 
ATOM     11  O   UNL     1     167.148 162.579 154.010  1.00  0.00    -0.451 OA
ENDROOT
BRANCH   1  12
ATOM     12  C   UNL     1     167.387 163.728 151.899  1.00  0.00     0.063 A 
ATOM     13  C   UNL     1     166.321 164.133 149.748  1.00  0.00     0.047 A 
ATOM     14  C   UNL     1     166.264 164.111 151.144  1.00  0.00     0.020 A 
ATOM     15  C   UNL     1     167.505 163.784 149.088  1.00  0.00     0.119 A 
ATOM     16  C   UNL     1     168.630 163.414 149.829  1.00  0.00     0.093 A 
ATOM     17  C   UNL     1     168.581 163.387 151.231  1.00  0.00     0.130 A 
BRANCH  15  18
ATOM     18  O   UNL     1     167.573 163.802 147.697  1.00  0.00    -0.508 OA
ATOM     19  H   UNL     1     166.770 163.572 147.123  1.00  0.00     0.293 HD
ENDBRANCH  15  18
BRANCH  17  20
ATOM     20  O   UNL     1     169.711 163.010 151.958  1.00  0.00    -0.507 OA
ATOM     21  H   UNL     1     170.565 162.719 151.499  1.00  0.00     0.293 HD
ENDBRANCH  17  20
ENDBRANCH   1  12
BRANCH   2  22
ATOM     22  O   UNL     1     167.574 166.148 153.464  1.00  0.00    -0.502 OA
ATOM     23  H   UNL     1     166.948 166.428 152.719  1.00  0.00     0.293 HD
ENDBRANCH   2  22
BRANCH   6  24
ATOM     24  O   UNL     1     167.553 164.423 158.506  1.00  0.00    -0.507 OA
ATOM     25  H   UNL     1     166.858 165.019 158.928  1.00  0.00     0.293 HD
ENDBRANCH   6  24
BRANCH   8  26
ATOM     26  O   UNL     1     166.564 159.778 157.800  1.00  0.00    -0.508 OA
ATOM     27  H   UNL     1     166.390 159.644 158.789  1.00  0.00     0.293 HD
ENDBRANCH   8  26
TORSDOF 6
ENDMDL
MODEL 4
REMARK VINA RESULT:     4.900     11.179     13.253
REMARK INTER + INTRA:           5.519
REMARK INTER:                   5.841
REMARK INTRA:                  -0.322
REMARK UNBOUND:                -0.384
REMARK SMILES O=c1c(O)c(-c2ccc(O)cc2O)oc2cc(O)cc(O)c12
REMARK SMILES IDX 5 1 3 2 2 3 1 4 22 5 20 6 19 7 17 8 16 9 15 10 14 11 6 12
REMARK SMILES IDX 8 13 7 14 9 15 11 16 12 17 10 18 13 20 4 22 21 24 18 26
REMARK H PARENT 10 19 13 21 4 23 21 25 18 27
REMARK Flexibility Score: inf
ROOT
ATOM      1  C   UNL     1     167.406 163.866 152.129  1.00  0.00     0.184 A 
ATOM      2  C   UNL     1     168.411 163.195 151.414  1.00  0.00     0.208 A 
ATOM      3  C   UNL     1     168.445 163.311 150.015  1.00  0.00     0.238 A 
ATOM      4  O   UNL     1     169.314 162.662 149.377  1.00  0.00    -0.285 OA
ATOM      5  C   UNL     1     167.486 164.113 149.352  1.00  0.00     0.111 A 
ATOM      6  C   UNL     1     167.450 164.335 147.942  1.00  0.00     0.134 A 
ATOM      7  C   UNL     1     166.379 165.042 147.382  1.00  0.00     0.093 A 
ATOM      8  C   UNL     1     165.380 165.593 148.187  1.00  0.00     0.123 A 
ATOM      9  C   UNL     1     165.438 165.432 149.569  1.00  0.00     0.094 A 
ATOM     10  C   UNL     1     166.473 164.700 150.154  1.00  0.00     0.146 A 
ATOM     11  O   UNL     1     166.484 164.561 151.474  1.00  0.00    -0.451 OA
ENDROOT
BRANCH   1  12
ATOM     12  C   UNL     1     167.326 163.806 153.608  1.00  0.00     0.063 A 
ATOM     13  C   UNL     1     167.146 162.510 155.660  1.00  0.00     0.047 A 
ATOM     14  C   UNL     1     167.193 162.570 154.265  1.00  0.00     0.020 A 
ATOM     15  C   UNL     1     167.241 163.683 156.418  1.00  0.00     0.119 A 
ATOM     16  C   UNL     1     167.386 164.914 155.775  1.00  0.00     0.093 A 
ATOM     17  C   UNL     1     167.432 164.984 154.374  1.00  0.00     0.130 A 
BRANCH  15  18
ATOM     18  O   UNL     1     167.195 163.634 157.809  1.00  0.00    -0.508 OA
ATOM     19  H   UNL     1     166.329 163.775 158.316  1.00  0.00     0.293 HD
ENDBRANCH  15  18
BRANCH  17  20
ATOM     20  O   UNL     1     167.571 166.222 153.746  1.00  0.00    -0.507 OA
ATOM     21  H   UNL     1     166.865 166.580 153.114  1.00  0.00     0.293 HD
ENDBRANCH  17  20
ENDBRANCH   1  12
BRANCH   2  22
ATOM     22  O   UNL     1     169.339 162.398 152.090  1.00  0.00    -0.502 OA
ATOM     23  H   UNL     1     169.950 161.748 151.610  1.00  0.00     0.293 HD
ENDBRANCH   2  22
BRANCH   6  24
ATOM     24  O   UNL     1     168.446 163.907 147.059  1.00  0.00    -0.507 OA
ATOM     25  H   UNL     1     168.978 163.056 147.160  1.00  0.00     0.293 HD
ENDBRANCH   6  24
BRANCH   8  26
ATOM     26  O   UNL     1     164.327 166.310 147.621  1.00  0.00    -0.508 OA
ATOM     27  H   UNL     1     164.032 167.203 147.997  1.00  0.00     0.293 HD
ENDBRANCH   8  26
TORSDOF 6
ENDMDL
