MODEL 1
REMARK VINA RESULT:    -3.981      0.000      0.000
REMARK INTER + INTRA:          -6.064
REMARK INTER:                  -6.075
REMARK INTRA:                   0.012
REMARK UNBOUND:                 0.012
REMARK SMILES CC1=CCC[C@@H](C)C(=O)C[C@H](C(C)C)C(=O)C1
REMARK SMILES IDX 8 1 9 2 6 3 7 4 5 5 4 6 3 7 2 8 1 9 10 11 11 12 15 13 16 14
REMARK SMILES IDX 17 15 12 17 13 18 14 19
REMARK H PARENT
REMARK Flexibility Score: 70.00
ROOT
ATOM      1  C   UNL     1       9.004 -11.133 -45.653  1.00  0.00     0.136 C 
ATOM      2  O   UNL     1       8.169 -10.298 -45.336  1.00  0.00    -0.299 OA
ENDROOT
BRANCH   1   3
ATOM      3  C   UNL     1       8.567 -12.427 -46.311  1.00  0.00     0.053 C 
ATOM      4  C   UNL     1       7.454 -13.069 -45.480  1.00  0.00     0.016 C 
BRANCH   3   5
ATOM      5  C   UNL     1       9.747 -13.413 -46.480  1.00  0.00     0.015 C 
BRANCH   5   6
ATOM      6  C   UNL     1       9.891 -14.394 -45.306  1.00  0.00     0.028 C 
BRANCH   6   7
ATOM      7  C   UNL     1      11.342 -14.659 -44.986  1.00  0.00    -0.028 C 
ATOM      8  C   UNL     1      12.052 -14.076 -43.995  1.00  0.00    -0.070 CG0
ATOM      9  C   UNL     1      13.499 -14.469 -43.837  1.00  0.00     0.039 C 
ATOM     10  G   UNL     1      11.479 -13.023 -43.064  1.00  0.00     0.000 G0
ENDBRANCH   6   7
ENDBRANCH   5   6
ENDBRANCH   3   5
ENDBRANCH   1   3
BRANCH   1  11
ATOM     11  C   UNL     1      10.461 -10.835 -45.418  1.00  0.00     0.087 C 
BRANCH  11  12
ATOM     12  C   UNL     1      10.775 -10.633 -43.914  1.00  0.00     0.066 C 
BRANCH  12  13
ATOM     13  C   UNL     1      11.837 -11.635 -43.487  1.00  0.00     0.140 C 
ATOM     14  O   UNL     1      13.007 -11.280 -43.425  1.00  0.00    -0.299 OA
BRANCH  13  15
ATOM     15  C   UNL     1      11.473 -13.030 -43.049  1.00  0.00     0.106 CG0
ATOM     16  G   UNL     1      12.042 -14.067 -44.000  1.00  0.00     0.000 G0
ENDBRANCH  13  15
ENDBRANCH  12  13
BRANCH  12  17
ATOM     17  C   UNL     1      11.241  -9.176 -43.593  1.00  0.00    -0.006 C 
ATOM     18  C   UNL     1      11.908  -8.497 -44.806  1.00  0.00     0.008 C 
ATOM     19  C   UNL     1      10.063  -8.295 -43.129  1.00  0.00     0.008 C 
ENDBRANCH  12  17
ENDBRANCH  11  12
ENDBRANCH   1  11
TORSDOF 1
ENDMDL
MODEL 2
REMARK VINA RESULT:    -3.619      1.426      3.870
REMARK INTER + INTRA:          -5.511
REMARK INTER:                  -5.549
REMARK INTRA:                   0.038
REMARK UNBOUND:                 0.012
REMARK SMILES CC1=CCC[C@@H](C)C(=O)C[C@H](C(C)C)C(=O)C1
REMARK SMILES IDX 8 1 9 2 6 3 7 4 5 5 4 6 3 7 2 8 1 9 10 11 11 12 15 13 16 14
REMARK SMILES IDX 17 15 12 17 13 18 14 19
REMARK H PARENT
REMARK Flexibility Score: 70.00
ROOT
ATOM      1  C   UNL     1      13.459 -11.869 -43.905  1.00  0.00     0.136 C 
ATOM      2  O   UNL     1      14.242 -10.932 -43.964  1.00  0.00    -0.299 OA
ENDROOT
BRANCH   1   3
ATOM      3  C   UNL     1      13.940 -13.276 -44.193  1.00  0.00     0.053 C 
ATOM      4  C   UNL     1      15.444 -13.250 -44.481  1.00  0.00     0.016 C 
BRANCH   3   5
ATOM      5  C   UNL     1      13.179 -13.913 -45.380  1.00  0.00     0.015 C 
BRANCH   5   6
ATOM      6  C   UNL     1      12.054 -14.863 -44.941  1.00  0.00     0.028 C 
BRANCH   6   7
ATOM      7  C   UNL     1      10.849 -14.741 -45.841  1.00  0.00    -0.028 C 
ATOM      8  C   UNL     1       9.809 -13.896 -45.659  1.00  0.00    -0.070 CG0
ATOM      9  C   UNL     1       8.690 -13.925 -46.669  1.00  0.00     0.039 C 
ATOM     10  G   UNL     1       9.695 -12.954 -44.475  1.00  0.00     0.000 G0
ENDBRANCH   6   7
ENDBRANCH   5   6
ENDBRANCH   3   5
ENDBRANCH   1   3
BRANCH   1  11
ATOM     11  C   UNL     1      12.032 -11.603 -43.504  1.00  0.00     0.087 C 
BRANCH  11  12
ATOM     12  C   UNL     1      11.255 -10.835 -44.605  1.00  0.00     0.066 C 
BRANCH  12  13
ATOM     13  C   UNL     1       9.918 -11.521 -44.842  1.00  0.00     0.140 C 
ATOM     14  O   UNL     1       9.032 -10.919 -45.434  1.00  0.00    -0.299 OA
BRANCH  13  15
ATOM     15  C   UNL     1       9.690 -12.957 -44.449  1.00  0.00     0.106 CG0
ATOM     16  G   UNL     1       9.818 -13.879 -45.648  1.00  0.00     0.000 G0
ENDBRANCH  13  15
ENDBRANCH  12  13
BRANCH  12  17
ATOM     17  C   UNL     1      11.038  -9.330 -44.240  1.00  0.00    -0.006 C 
ATOM     18  C   UNL     1      10.797  -9.125 -42.731  1.00  0.00     0.008 C 
ATOM     19  C   UNL     1      12.244  -8.467 -44.663  1.00  0.00     0.008 C 
ENDBRANCH  12  17
ENDBRANCH  11  12
ENDBRANCH   1  11
TORSDOF 1
ENDMDL
MODEL 3
REMARK VINA RESULT:    -3.544     11.245     13.129
REMARK INTER + INTRA:          -5.397
REMARK INTER:                  -5.206
REMARK INTRA:                  -0.190
REMARK UNBOUND:                 0.012
REMARK SMILES CC1=CCC[C@@H](C)C(=O)C[C@H](C(C)C)C(=O)C1
REMARK SMILES IDX 8 1 9 2 6 3 7 4 5 5 4 6 3 7 2 8 1 9 10 11 11 12 15 13 16 14
REMARK SMILES IDX 17 15 12 17 13 18 14 19
REMARK H PARENT
REMARK Flexibility Score: 70.00
ROOT
ATOM      1  C   UNL     1      10.241 -20.788 -36.752  1.00  0.00     0.136 C 
ATOM      2  O   UNL     1      10.806 -19.869 -36.177  1.00  0.00    -0.299 OA
ENDROOT
BRANCH   1   3
ATOM      3  C   UNL     1       9.016 -21.429 -36.132  1.00  0.00     0.053 C 
ATOM      4  C   UNL     1       8.023 -20.337 -35.724  1.00  0.00     0.016 C 
BRANCH   3   5
ATOM      5  C   UNL     1       9.380 -22.304 -34.910  1.00  0.00     0.015 C 
BRANCH   5   6
ATOM      6  C   UNL     1       9.518 -23.796 -35.250  1.00  0.00     0.028 C 
BRANCH   6   7
ATOM      7  C   UNL     1       8.896 -24.114 -36.588  1.00  0.00    -0.028 C 
ATOM      8  C   UNL     1       9.564 -24.495 -37.699  1.00  0.00    -0.070 CG0
ATOM      9  C   UNL     1       8.762 -24.763 -38.948  1.00  0.00     0.039 C 
ATOM     10  G   UNL     1      11.074 -24.628 -37.762  1.00  0.00     0.000 G0
ENDBRANCH   6   7
ENDBRANCH   5   6
ENDBRANCH   3   5
ENDBRANCH   1   3
BRANCH   1  11
ATOM     11  C   UNL     1      10.757 -21.237 -38.094  1.00  0.00     0.087 C 
BRANCH  11  12
ATOM     12  C   UNL     1      12.004 -22.149 -37.958  1.00  0.00     0.066 C 
BRANCH  12  13
ATOM     13  C   UNL     1      11.700 -23.504 -38.577  1.00  0.00     0.140 C 
ATOM     14  O   UNL     1      12.031 -23.724 -39.735  1.00  0.00    -0.299 OA
BRANCH  13  15
ATOM     15  C   UNL     1      11.084 -24.618 -37.770  1.00  0.00     0.106 CG0
ATOM     16  G   UNL     1       9.574 -24.480 -37.713  1.00  0.00     0.000 G0
ENDBRANCH  13  15
ENDBRANCH  12  13
BRANCH  12  17
ATOM     17  C   UNL     1      13.275 -21.521 -38.619  1.00  0.00    -0.006 C 
ATOM     18  C   UNL     1      12.948 -20.237 -39.408  1.00  0.00     0.008 C 
ATOM     19  C   UNL     1      14.351 -21.185 -37.566  1.00  0.00     0.008 C 
ENDBRANCH  12  17
ENDBRANCH  11  12
ENDBRANCH   1  11
TORSDOF 1
ENDMDL
MODEL 4
REMARK VINA RESULT:    -3.459      9.858     11.795
REMARK INTER + INTRA:          -5.267
REMARK INTER:                  -5.225
REMARK INTRA:                  -0.042
REMARK UNBOUND:                 0.012
REMARK SMILES CC1=CCC[C@@H](C)C(=O)C[C@H](C(C)C)C(=O)C1
REMARK SMILES IDX 8 1 9 2 6 3 7 4 5 5 4 6 3 7 2 8 1 9 10 11 11 12 15 13 16 14
REMARK SMILES IDX 17 15 12 17 13 18 14 19
REMARK H PARENT
REMARK Flexibility Score: 70.00
ROOT
ATOM      1  C   UNL     1      10.502 -21.873 -36.460  1.00  0.00     0.136 C 
ATOM      2  O   UNL     1      11.070 -22.678 -37.184  1.00  0.00    -0.299 OA
ENDROOT
BRANCH   1   3
ATOM      3  C   UNL     1       9.598 -22.364 -35.347  1.00  0.00     0.053 C 
ATOM      4  C   UNL     1       8.996 -23.716 -35.740  1.00  0.00     0.016 C 
BRANCH   3   5
ATOM      5  C   UNL     1       8.474 -21.349 -35.030  1.00  0.00     0.015 C 
BRANCH   5   6
ATOM      6  C   UNL     1       7.454 -21.197 -36.169  1.00  0.00     0.028 C 
BRANCH   6   7
ATOM      7  C   UNL     1       7.046 -19.756 -36.352  1.00  0.00    -0.028 C 
ATOM      8  C   UNL     1       7.355 -18.974 -37.411  1.00  0.00    -0.070 CG0
ATOM      9  C   UNL     1       6.858 -17.551 -37.408  1.00  0.00     0.039 C 
ATOM     10  G   UNL     1       8.205 -19.446 -38.577  1.00  0.00     0.000 G0
ENDBRANCH   6   7
ENDBRANCH   5   6
ENDBRANCH   3   5
ENDBRANCH   1   3
BRANCH   1  11
ATOM     11  C   UNL     1      10.750 -20.402 -36.668  1.00  0.00     0.087 C 
BRANCH  11  12
ATOM     12  C   UNL     1      10.742 -20.021 -38.171  1.00  0.00     0.066 C 
BRANCH  12  13
ATOM     13  C   UNL     1       9.643 -19.000 -38.421  1.00  0.00     0.140 C 
ATOM     14  O   UNL     1       9.941 -17.822 -38.571  1.00  0.00    -0.299 OA
BRANCH  13  15
ATOM     15  C   UNL     1       8.204 -19.416 -38.582  1.00  0.00     0.106 CG0
ATOM     16  G   UNL     1       7.369 -18.962 -37.398  1.00  0.00     0.000 G0
ENDBRANCH  13  15
ENDBRANCH  12  13
BRANCH  12  17
ATOM     17  C   UNL     1      12.122 -19.465 -38.651  1.00  0.00    -0.006 C 
ATOM     18  C   UNL     1      13.251 -19.756 -37.641  1.00  0.00     0.008 C 
ATOM     19  C   UNL     1      12.526 -20.056 -40.017  1.00  0.00     0.008 C 
ENDBRANCH  12  17
ENDBRANCH  11  12
ENDBRANCH   1  11
TORSDOF 1
ENDMDL
MODEL 5
REMARK VINA RESULT:    -3.302     10.401     12.492
REMARK INTER + INTRA:          -5.028
REMARK INTER:                  -4.746
REMARK INTRA:                  -0.282
REMARK UNBOUND:                 0.012
REMARK SMILES CC1=CCC[C@@H](C)C(=O)C[C@H](C(C)C)C(=O)C1
REMARK SMILES IDX 8 1 9 2 6 3 7 4 5 5 4 6 3 7 2 8 1 9 10 11 11 12 15 13 16 14
REMARK SMILES IDX 17 15 12 17 13 18 14 19
REMARK H PARENT
REMARK Flexibility Score: 70.00
ROOT
ATOM      1  C   UNL     1      11.169 -21.486 -37.740  1.00  0.00     0.136 C 
ATOM      2  O   UNL     1      11.972 -22.389 -37.557  1.00  0.00    -0.299 OA
ENDROOT
BRANCH   1   3
ATOM      3  C   UNL     1      11.653 -20.056 -37.864  1.00  0.00     0.053 C 
ATOM      4  C   UNL     1      11.634 -19.392 -36.484  1.00  0.00     0.016 C 
BRANCH   3   5
ATOM      5  C   UNL     1      10.795 -19.242 -38.861  1.00  0.00     0.015 C 
BRANCH   5   6
ATOM      6  C   UNL     1       9.833 -18.260 -38.174  1.00  0.00     0.028 C 
BRANCH   6   7
ATOM      7  C   UNL     1       8.419 -18.437 -38.672  1.00  0.00    -0.028 C 
ATOM      8  C   UNL     1       7.410 -19.028 -37.993  1.00  0.00    -0.070 CG0
ATOM      9  C   UNL     1       6.063 -19.115 -38.665  1.00  0.00     0.039 C 
ATOM     10  G   UNL     1       7.576 -19.639 -36.614  1.00  0.00     0.000 G0
ENDBRANCH   6   7
ENDBRANCH   5   6
ENDBRANCH   3   5
ENDBRANCH   1   3
BRANCH   1  11
ATOM     11  C   UNL     1       9.708 -21.827 -37.882  1.00  0.00     0.087 C 
BRANCH  11  12
ATOM     12  C   UNL     1       8.985 -21.854 -36.510  1.00  0.00     0.066 C 
BRANCH  12  13
ATOM     13  C   UNL     1       7.654 -21.128 -36.634  1.00  0.00     0.140 C 
ATOM     14  O   UNL     1       6.619 -21.777 -36.691  1.00  0.00    -0.299 OA
BRANCH  13  15
ATOM     15  C   UNL     1       7.572 -19.623 -36.594  1.00  0.00     0.106 CG0
ATOM     16  G   UNL     1       7.426 -19.047 -37.990  1.00  0.00     0.000 G0
ENDBRANCH  13  15
ENDBRANCH  12  13
BRANCH  12  17
ATOM     17  C   UNL     1       8.764 -23.309 -35.982  1.00  0.00    -0.006 C 
ATOM     18  C   UNL     1       8.891 -24.361 -37.103  1.00  0.00     0.008 C 
ATOM     19  C   UNL     1       9.769 -23.663 -34.866  1.00  0.00     0.008 C 
ENDBRANCH  12  17
ENDBRANCH  11  12
ENDBRANCH   1  11
TORSDOF 1
ENDMDL
MODEL 6
REMARK VINA RESULT:    -3.248     11.472     13.243
REMARK INTER + INTRA:          -4.946
REMARK INTER:                  -4.837
REMARK INTRA:                  -0.108
REMARK UNBOUND:                 0.012
REMARK SMILES CC1=CCC[C@@H](C)C(=O)C[C@H](C(C)C)C(=O)C1
REMARK SMILES IDX 8 1 9 2 6 3 7 4 5 5 4 6 3 7 2 8 1 9 10 11 11 12 15 13 16 14
REMARK SMILES IDX 17 15 12 17 13 18 14 19
REMARK H PARENT
REMARK Flexibility Score: 70.00
ROOT
ATOM      1  C   UNL     1      11.232 -21.001 -37.258  1.00  0.00     0.136 C 
ATOM      2  O   UNL     1      10.611 -20.071 -37.752  1.00  0.00    -0.299 OA
ENDROOT
BRANCH   1   3
ATOM      3  C   UNL     1      12.707 -21.171 -37.560  1.00  0.00     0.053 C 
ATOM      4  C   UNL     1      13.464 -19.915 -37.121  1.00  0.00     0.016 C 
BRANCH   3   5
ATOM      5  C   UNL     1      12.958 -21.450 -39.061  1.00  0.00     0.015 C 
BRANCH   5   6
ATOM      6  C   UNL     1      13.213 -22.933 -39.370  1.00  0.00     0.028 C 
BRANCH   6   7
ATOM      7  C   UNL     1      11.998 -23.582 -39.988  1.00  0.00    -0.028 C 
ATOM      8  C   UNL     1      11.055 -24.287 -39.325  1.00  0.00    -0.070 CG0
ATOM      9  C   UNL     1       9.914 -24.866 -40.123  1.00  0.00     0.039 C 
ATOM     10  G   UNL     1      11.108 -24.555 -37.832  1.00  0.00     0.000 G0
ENDBRANCH   6   7
ENDBRANCH   5   6
ENDBRANCH   3   5
ENDBRANCH   1   3
BRANCH   1  11
ATOM     11  C   UNL     1      10.519 -21.938 -36.318  1.00  0.00     0.087 C 
BRANCH  11  12
ATOM     12  C   UNL     1       9.367 -22.698 -37.024  1.00  0.00     0.066 C 
BRANCH  12  13
ATOM     13  C   UNL     1       9.762 -24.157 -37.194  1.00  0.00     0.140 C 
ATOM     14  O   UNL     1       8.967 -25.034 -36.886  1.00  0.00    -0.299 OA
BRANCH  13  15
ATOM     15  C   UNL     1      11.076 -24.549 -37.820  1.00  0.00     0.106 CG0
ATOM     16  G   UNL     1      11.063 -24.297 -39.316  1.00  0.00     0.000 G0
ENDBRANCH  13  15
ENDBRANCH  12  13
BRANCH  12  17
ATOM     17  C   UNL     1       8.016 -22.587 -36.244  1.00  0.00    -0.006 C 
ATOM     18  C   UNL     1       8.127 -21.663 -35.014  1.00  0.00     0.008 C 
ATOM     19  C   UNL     1       6.883 -22.060 -37.149  1.00  0.00     0.008 C 
ENDBRANCH  12  17
ENDBRANCH  11  12
ENDBRANCH   1  11
TORSDOF 1
ENDMDL
MODEL 7
REMARK VINA RESULT:    -3.246      9.731     11.982
REMARK INTER + INTRA:          -4.942
REMARK INTER:                  -4.642
REMARK INTRA:                  -0.300
REMARK UNBOUND:                 0.012
REMARK SMILES CC1=CCC[C@@H](C)C(=O)C[C@H](C(C)C)C(=O)C1
REMARK SMILES IDX 8 1 9 2 6 3 7 4 5 5 4 6 3 7 2 8 1 9 10 11 11 12 15 13 16 14
REMARK SMILES IDX 17 15 12 17 13 18 14 19
REMARK H PARENT
REMARK Flexibility Score: 70.00
ROOT
ATOM      1  C   UNL     1      11.378 -22.885 -38.240  1.00  0.00     0.136 C 
ATOM      2  O   UNL     1      11.418 -24.037 -37.833  1.00  0.00    -0.299 OA
ENDROOT
BRANCH   1   3
ATOM      3  C   UNL     1      12.646 -22.206 -38.715  1.00  0.00     0.053 C 
ATOM      4  C   UNL     1      13.486 -23.203 -39.518  1.00  0.00     0.016 C 
BRANCH   3   5
ATOM      5  C   UNL     1      13.472 -21.639 -37.535  1.00  0.00     0.015 C 
BRANCH   5   6
ATOM      6  C   UNL     1      13.401 -20.108 -37.424  1.00  0.00     0.028 C 
BRANCH   6   7
ATOM      7  C   UNL     1      12.806 -19.494 -38.667  1.00  0.00    -0.028 C 
ATOM      8  C   UNL     1      11.605 -18.878 -38.747  1.00  0.00    -0.070 CG0
ATOM      9  C   UNL     1      11.180 -18.331 -40.086  1.00  0.00     0.039 C 
ATOM     10  G   UNL     1      10.654 -18.746 -37.572  1.00  0.00     0.000 G0
ENDBRANCH   6   7
ENDBRANCH   5   6
ENDBRANCH   3   5
ENDBRANCH   1   3
BRANCH   1  11
ATOM     11  C   UNL     1      10.049 -22.177 -38.299  1.00  0.00     0.087 C 
BRANCH  11  12
ATOM     12  C   UNL     1       9.848 -21.223 -37.093  1.00  0.00     0.066 C 
BRANCH  12  13
ATOM     13  C   UNL     1       9.573 -19.819 -37.609  1.00  0.00     0.140 C 
ATOM     14  O   UNL     1       8.448 -19.531 -37.995  1.00  0.00    -0.299 OA
BRANCH  13  15
ATOM     15  C   UNL     1      10.629 -18.745 -37.570  1.00  0.00     0.106 CG0
ATOM     16  G   UNL     1      11.588 -18.879 -38.738  1.00  0.00     0.000 G0
ENDBRANCH  13  15
ENDBRANCH  12  13
BRANCH  12  17
ATOM     17  C   UNL     1       8.694 -21.693 -36.149  1.00  0.00    -0.006 C 
ATOM     18  C   UNL     1       7.788 -22.747 -36.816  1.00  0.00     0.008 C 
ATOM     19  C   UNL     1       9.245 -22.285 -34.835  1.00  0.00     0.008 C 
ENDBRANCH  12  17
ENDBRANCH  11  12
ENDBRANCH   1  11
TORSDOF 1
ENDMDL
MODEL 8
REMARK VINA RESULT:    -3.164     10.743     13.021
REMARK INTER + INTRA:          -4.817
REMARK INTER:                  -4.543
REMARK INTRA:                  -0.274
REMARK UNBOUND:                 0.012
REMARK SMILES CC1=CCC[C@@H](C)C(=O)C[C@H](C(C)C)C(=O)C1
REMARK SMILES IDX 8 1 9 2 6 3 7 4 5 5 4 6 3 7 2 8 1 9 10 11 11 12 15 13 16 14
REMARK SMILES IDX 17 15 12 17 13 18 14 19
REMARK H PARENT
REMARK Flexibility Score: 70.00
ROOT
ATOM      1  C   UNL     1      11.448 -24.664 -38.922  1.00  0.00     0.136 C 
ATOM      2  O   UNL     1      11.420 -25.692 -38.261  1.00  0.00    -0.299 OA
ENDROOT
BRANCH   1   3
ATOM      3  C   UNL     1      12.461 -24.511 -40.039  1.00  0.00     0.053 C 
ATOM      4  C   UNL     1      12.197 -25.569 -41.113  1.00  0.00     0.016 C 
BRANCH   3   5
ATOM      5  C   UNL     1      13.913 -24.628 -39.519  1.00  0.00     0.015 C 
BRANCH   5   6
ATOM      6  C   UNL     1      14.321 -23.474 -38.590  1.00  0.00     0.028 C 
BRANCH   6   7
ATOM      7  C   UNL     1      14.235 -22.143 -39.296  1.00  0.00    -0.028 C 
ATOM      8  C   UNL     1      13.561 -21.057 -38.857  1.00  0.00    -0.070 CG0
ATOM      9  C   UNL     1      13.589 -19.815 -39.711  1.00  0.00     0.039 C 
ATOM     10  G   UNL     1      12.750 -21.039 -37.574  1.00  0.00     0.000 G0
ENDBRANCH   6   7
ENDBRANCH   5   6
ENDBRANCH   3   5
ENDBRANCH   1   3
BRANCH   1  11
ATOM     11  C   UNL     1      10.439 -23.584 -38.635  1.00  0.00     0.087 C 
BRANCH  11  12
ATOM     12  C   UNL     1      10.798 -22.782 -37.357  1.00  0.00     0.066 C 
BRANCH  12  13
ATOM     13  C   UNL     1      11.322 -21.412 -37.758  1.00  0.00     0.140 C 
ATOM     14  O   UNL     1      10.542 -20.576 -38.197  1.00  0.00    -0.299 OA
BRANCH  13  15
ATOM     15  C   UNL     1      12.762 -21.025 -37.542  1.00  0.00     0.106 CG0
ATOM     16  G   UNL     1      13.540 -21.068 -38.844  1.00  0.00     0.000 G0
ENDBRANCH  13  15
ENDBRANCH  12  13
BRANCH  12  17
ATOM     17  C   UNL     1       9.583 -22.637 -36.384  1.00  0.00    -0.006 C 
ATOM     18  C   UNL     1       8.244 -22.973 -37.071  1.00  0.00     0.008 C 
ATOM     19  C   UNL     1       9.738 -23.546 -35.147  1.00  0.00     0.008 C 
ENDBRANCH  12  17
ENDBRANCH  11  12
ENDBRANCH   1  11
TORSDOF 1
ENDMDL
MODEL 9
REMARK VINA RESULT:    -2.986     10.571     12.113
REMARK INTER + INTRA:          -4.545
REMARK INTER:                  -4.446
REMARK INTRA:                  -0.099
REMARK UNBOUND:                 0.012
REMARK SMILES CC1=CCC[C@@H](C)C(=O)C[C@H](C(C)C)C(=O)C1
REMARK SMILES IDX 8 1 9 2 6 3 7 4 5 5 4 6 3 7 2 8 1 9 10 11 11 12 15 13 16 14
REMARK SMILES IDX 17 15 12 17 13 18 14 19
REMARK H PARENT
REMARK Flexibility Score: 70.00
ROOT
ATOM      1  C   UNL     1       9.012 -19.724 -38.529  1.00  0.00     0.136 C 
ATOM      2  O   UNL     1       9.382 -18.631 -38.128  1.00  0.00    -0.299 OA
ENDROOT
BRANCH   1   3
ATOM      3  C   UNL     1       7.533 -20.053 -38.574  1.00  0.00     0.053 C 
ATOM      4  C   UNL     1       6.792 -18.953 -39.339  1.00  0.00     0.016 C 
BRANCH   3   5
ATOM      5  C   UNL     1       6.936 -20.214 -37.156  1.00  0.00     0.015 C 
BRANCH   5   6
ATOM      6  C   UNL     1       6.703 -21.679 -36.757  1.00  0.00     0.028 C 
BRANCH   6   7
ATOM      7  C   UNL     1       7.699 -22.130 -35.716  1.00  0.00    -0.028 C 
ATOM      8  C   UNL     1       8.838 -22.816 -35.956  1.00  0.00    -0.070 CG0
ATOM      9  C   UNL     1       9.704 -23.183 -34.778  1.00  0.00     0.039 C 
ATOM     10  G   UNL     1       9.266 -23.266 -37.341  1.00  0.00     0.000 G0
ENDBRANCH   6   7
ENDBRANCH   5   6
ENDBRANCH   3   5
ENDBRANCH   1   3
BRANCH   1  11
ATOM     11  C   UNL     1      10.042 -20.712 -39.012  1.00  0.00     0.087 C 
BRANCH  11  12
ATOM     12  C   UNL     1      10.911 -21.257 -37.849  1.00  0.00     0.066 C 
BRANCH  12  13
ATOM     13  C   UNL     1      10.649 -22.746 -37.687  1.00  0.00     0.140 C 
ATOM     14  O   UNL     1      11.584 -23.532 -37.764  1.00  0.00    -0.299 OA
BRANCH  13  15
ATOM     15  C   UNL     1       9.280 -23.272 -37.341  1.00  0.00     0.106 CG0
ATOM     16  G   UNL     1       8.841 -22.793 -35.970  1.00  0.00     0.000 G0
ENDBRANCH  13  15
ENDBRANCH  12  13
BRANCH  12  17
ATOM     17  C   UNL     1      12.436 -20.993 -38.071  1.00  0.00    -0.006 C 
ATOM     18  C   UNL     1      12.830 -21.071 -39.560  1.00  0.00     0.008 C 
ATOM     19  C   UNL     1      12.854 -19.611 -37.528  1.00  0.00     0.008 C 
ENDBRANCH  12  17
ENDBRANCH  11  12
ENDBRANCH   1  11
TORSDOF 1
ENDMDL
