MODEL 1
REMARK VINA RESULT:    -4.004      0.000      0.000
REMARK INTER + INTRA:          -4.805
REMARK INTER:                  -4.707
REMARK INTRA:                  -0.098
REMARK UNBOUND:                -0.098
REMARK SMILES CCCCC(=O)[O-]
REMARK SMILES IDX 4 1 5 2 6 3 7 4 3 5 2 6 1 7
REMARK H PARENT
REMARK Flexibility Score: inf
ROOT
ATOM      1  C   UNL     1       7.285   0.719  -1.590  1.00  0.00     0.053 C 
ENDROOT
BRANCH   1   2
ATOM      2  C   UNL     1       6.881   0.628  -3.027  1.00  0.00     0.041 C 
ATOM      3  O   UNL     1       6.152   1.519  -3.538  1.00  0.00    -0.550 OA
ATOM      4  O   UNL     1       7.348  -0.414  -3.817  1.00  0.00    -0.550 OA
ENDBRANCH   1   2
BRANCH   1   5
ATOM      5  C   UNL     1       6.060   0.562  -0.679  1.00  0.00     0.006 C 
BRANCH   5   6
ATOM      6  C   UNL     1       5.927   1.709   0.333  1.00  0.00    -0.003 C 
ATOM      7  C   UNL     1       6.700   2.959  -0.086  1.00  0.00     0.004 C 
ENDBRANCH   5   6
ENDBRANCH   1   5
TORSDOF 3
ENDMDL
MODEL 2
REMARK VINA RESULT:    -3.791      0.606      1.726
REMARK INTER + INTRA:          -4.554
REMARK INTER:                  -4.462
REMARK INTRA:                  -0.092
REMARK UNBOUND:                -0.098
REMARK SMILES CCCCC(=O)[O-]
REMARK SMILES IDX 4 1 5 2 6 3 7 4 3 5 2 6 1 7
REMARK H PARENT
REMARK Flexibility Score: inf
ROOT
ATOM      1  C   UNL     1       7.438   0.674  -1.711  1.00  0.00     0.053 C 
ENDROOT
BRANCH   1   2
ATOM      2  C   UNL     1       6.912   0.622  -3.111  1.00  0.00     0.041 C 
ATOM      3  O   UNL     1       7.216  -0.339  -3.866  1.00  0.00    -0.550 OA
ATOM      4  O   UNL     1       6.046   1.607  -3.566  1.00  0.00    -0.550 OA
ENDBRANCH   1   2
BRANCH   1   5
ATOM      5  C   UNL     1       7.656   2.129  -1.276  1.00  0.00     0.006 C 
BRANCH   5   6
ATOM      6  C   UNL     1       6.659   2.578  -0.197  1.00  0.00    -0.003 C 
ATOM      7  C   UNL     1       5.802   1.427   0.331  1.00  0.00     0.004 C 
ENDBRANCH   5   6
ENDBRANCH   1   5
TORSDOF 3
ENDMDL
MODEL 3
REMARK VINA RESULT:    -3.590     18.752     19.539
REMARK INTER + INTRA:          -4.317
REMARK INTER:                  -4.230
REMARK INTRA:                  -0.087
REMARK UNBOUND:                -0.098
REMARK SMILES CCCCC(=O)[O-]
REMARK SMILES IDX 4 1 5 2 6 3 7 4 3 5 2 6 1 7
REMARK H PARENT
REMARK Flexibility Score: inf
ROOT
ATOM      1  C   UNL     1     -10.157  -4.555   6.196  1.00  0.00     0.053 C 
ENDROOT
BRANCH   1   2
ATOM      2  C   UNL     1      -9.051  -5.370   6.789  1.00  0.00     0.041 C 
ATOM      3  O   UNL     1      -9.308  -6.453   7.378  1.00  0.00    -0.550 OA
ATOM      4  O   UNL     1      -7.732  -4.959   6.649  1.00  0.00    -0.550 OA
ENDBRANCH   1   2
BRANCH   1   5
ATOM      5  C   UNL     1     -11.124  -5.454   5.416  1.00  0.00     0.006 C 
BRANCH   5   6
ATOM      6  C   UNL     1     -10.818  -5.484   3.911  1.00  0.00    -0.003 C 
ATOM      7  C   UNL     1     -10.381  -6.866   3.425  1.00  0.00     0.004 C 
ENDBRANCH   5   6
ENDBRANCH   1   5
TORSDOF 3
ENDMDL
MODEL 4
REMARK VINA RESULT:    -3.556      2.058      2.876
REMARK INTER + INTRA:          -4.277
REMARK INTER:                  -4.262
REMARK INTRA:                  -0.015
REMARK UNBOUND:                -0.098
REMARK SMILES CCCCC(=O)[O-]
REMARK SMILES IDX 4 1 5 2 6 3 7 4 3 5 2 6 1 7
REMARK H PARENT
REMARK Flexibility Score: inf
ROOT
ATOM      1  C   UNL     1       7.499   2.687  -0.714  1.00  0.00     0.053 C 
ENDROOT
BRANCH   1   2
ATOM      2  C   UNL     1       6.506   1.740  -1.310  1.00  0.00     0.041 C 
ATOM      3  O   UNL     1       6.226   1.803  -2.536  1.00  0.00    -0.550 OA
ATOM      4  O   UNL     1       5.925   0.754  -0.522  1.00  0.00    -0.550 OA
ENDBRANCH   1   2
BRANCH   1   5
ATOM      5  C   UNL     1       6.826   3.575   0.340  1.00  0.00     0.006 C 
BRANCH   5   6
ATOM      6  C   UNL     1       7.768   4.655   0.891  1.00  0.00    -0.003 C 
ATOM      7  C   UNL     1       7.310   6.072   0.544  1.00  0.00     0.004 C 
ENDBRANCH   5   6
ENDBRANCH   1   5
TORSDOF 3
ENDMDL
MODEL 5
REMARK VINA RESULT:    -3.427     18.449     19.091
REMARK INTER + INTRA:          -4.126
REMARK INTER:                  -4.020
REMARK INTRA:                  -0.107
REMARK UNBOUND:                -0.098
REMARK SMILES CCCCC(=O)[O-]
REMARK SMILES IDX 4 1 5 2 6 3 7 4 3 5 2 6 1 7
REMARK H PARENT
REMARK Flexibility Score: inf
ROOT
ATOM      1  C   UNL     1      -9.353  -6.707   3.823  1.00  0.00     0.053 C 
ENDROOT
BRANCH   1   2
ATOM      2  C   UNL     1      -8.534  -6.783   5.073  1.00  0.00     0.041 C 
ATOM      3  O   UNL     1      -7.507  -6.064   5.203  1.00  0.00    -0.550 OA
ATOM      4  O   UNL     1      -8.930  -7.611   6.115  1.00  0.00    -0.550 OA
ENDBRANCH   1   2
BRANCH   1   5
ATOM      5  C   UNL     1     -10.757  -6.174   4.136  1.00  0.00     0.006 C 
BRANCH   5   6
ATOM      6  C   UNL     1     -10.752  -4.684   4.509  1.00  0.00    -0.003 C 
ATOM      7  C   UNL     1     -11.094  -4.442   5.980  1.00  0.00     0.004 C 
ENDBRANCH   5   6
ENDBRANCH   1   5
TORSDOF 3
ENDMDL
MODEL 6
REMARK VINA RESULT:    -3.357      2.769      3.878
REMARK INTER + INTRA:          -4.044
REMARK INTER:                  -4.021
REMARK INTRA:                  -0.022
REMARK UNBOUND:                -0.098
REMARK SMILES CCCCC(=O)[O-]
REMARK SMILES IDX 4 1 5 2 6 3 7 4 3 5 2 6 1 7
REMARK H PARENT
REMARK Flexibility Score: inf
ROOT
ATOM      1  C   UNL     1       6.859   2.290  -1.118  1.00  0.00     0.053 C 
ENDROOT
BRANCH   1   2
ATOM      2  C   UNL     1       6.409   2.549   0.285  1.00  0.00     0.041 C 
ATOM      3  O   UNL     1       6.725   3.622   0.865  1.00  0.00    -0.550 OA
ATOM      4  O   UNL     1       5.599   1.628   0.937  1.00  0.00    -0.550 OA
ENDBRANCH   1   2
BRANCH   1   5
ATOM      5  C   UNL     1       6.367   0.917  -1.593  1.00  0.00     0.006 C 
BRANCH   5   6
ATOM      6  C   UNL     1       6.447   0.757  -3.118  1.00  0.00    -0.003 C 
ATOM      7  C   UNL     1       7.883   0.611  -3.622  1.00  0.00     0.004 C 
ENDBRANCH   5   6
ENDBRANCH   1   5
TORSDOF 3
ENDMDL
MODEL 7
REMARK VINA RESULT:    -3.335      2.924      3.889
REMARK INTER + INTRA:          -4.018
REMARK INTER:                  -3.912
REMARK INTRA:                  -0.106
REMARK UNBOUND:                -0.098
REMARK SMILES CCCCC(=O)[O-]
REMARK SMILES IDX 4 1 5 2 6 3 7 4 3 5 2 6 1 7
REMARK H PARENT
REMARK Flexibility Score: inf
ROOT
ATOM      1  C   UNL     1       6.449   3.182  -0.266  1.00  0.00     0.053 C 
ENDROOT
BRANCH   1   2
ATOM      2  C   UNL     1       7.730   3.668   0.335  1.00  0.00     0.041 C 
ATOM      3  O   UNL     1       7.709   4.451   1.322  1.00  0.00    -0.550 OA
ATOM      4  O   UNL     1       8.947   3.221  -0.162  1.00  0.00    -0.550 OA
ENDBRANCH   1   2
BRANCH   1   5
ATOM      5  C   UNL     1       6.054   1.830   0.341  1.00  0.00     0.006 C 
BRANCH   5   6
ATOM      6  C   UNL     1       6.325   0.654  -0.610  1.00  0.00    -0.003 C 
ATOM      7  C   UNL     1       6.434   1.089  -2.071  1.00  0.00     0.004 C 
ENDBRANCH   5   6
ENDBRANCH   1   5
TORSDOF 3
ENDMDL
MODEL 8
REMARK VINA RESULT:    -3.239     12.234     12.872
REMARK INTER + INTRA:          -3.905
REMARK INTER:                  -3.805
REMARK INTRA:                  -0.100
REMARK UNBOUND:                -0.098
REMARK SMILES CCCCC(=O)[O-]
REMARK SMILES IDX 4 1 5 2 6 3 7 4 3 5 2 6 1 7
REMARK H PARENT
REMARK Flexibility Score: inf
ROOT
ATOM      1  C   UNL     1      -1.791  -6.209  -5.459  1.00  0.00     0.053 C 
ENDROOT
BRANCH   1   2
ATOM      2  C   UNL     1      -2.971  -7.117  -5.315  1.00  0.00     0.041 C 
ATOM      3  O   UNL     1      -2.809  -8.365  -5.270  1.00  0.00    -0.550 OA
ATOM      4  O   UNL     1      -4.247  -6.584  -5.181  1.00  0.00    -0.550 OA
ENDBRANCH   1   2
BRANCH   1   5
ATOM      5  C   UNL     1      -1.160  -6.368  -6.848  1.00  0.00     0.006 C 
BRANCH   5   6
ATOM      6  C   UNL     1       0.318  -6.783  -6.781  1.00  0.00    -0.003 C 
ATOM      7  C   UNL     1       0.501  -8.259  -6.429  1.00  0.00     0.004 C 
ENDBRANCH   5   6
ENDBRANCH   1   5
TORSDOF 3
ENDMDL
MODEL 9
REMARK VINA RESULT:    -3.201     12.632     13.322
REMARK INTER + INTRA:          -3.861
REMARK INTER:                  -3.797
REMARK INTRA:                  -0.064
REMARK UNBOUND:                -0.098
REMARK SMILES CCCCC(=O)[O-]
REMARK SMILES IDX 4 1 5 2 6 3 7 4 3 5 2 6 1 7
REMARK H PARENT
REMARK Flexibility Score: inf
ROOT
ATOM      1  C   UNL     1      -3.348  -6.880  -5.263  1.00  0.00     0.053 C 
ENDROOT
BRANCH   1   2
ATOM      2  C   UNL     1      -4.527  -6.216  -5.901  1.00  0.00     0.041 C 
ATOM      3  O   UNL     1      -5.641  -6.200  -5.312  1.00  0.00    -0.550 OA
ATOM      4  O   UNL     1      -4.387  -5.574  -7.124  1.00  0.00    -0.550 OA
ENDBRANCH   1   2
BRANCH   1   5
ATOM      5  C   UNL     1      -2.134  -5.941  -5.278  1.00  0.00     0.006 C 
BRANCH   5   6
ATOM      6  C   UNL     1      -1.028  -6.423  -6.229  1.00  0.00    -0.003 C 
ATOM      7  C   UNL     1      -0.677  -7.897  -6.027  1.00  0.00     0.004 C 
ENDBRANCH   5   6
ENDBRANCH   1   5
TORSDOF 3
ENDMDL
