MODEL 1
REMARK VINA RESULT:    -2.922      0.000      0.000
REMARK INTER + INTRA:          -3.272
REMARK INTER:                  -3.264
REMARK INTRA:                  -0.008
REMARK UNBOUND:                -0.008
REMARK SMILES CCCC(=O)[O-]
REMARK SMILES IDX 3 1 4 2 5 3 6 4 2 5 1 6
REMARK H PARENT
REMARK Flexibility Score: inf
ROOT
ATOM      1  C   UNL     1      -4.130  -0.532  -6.725  1.00  0.00     0.052 C 
ENDROOT
BRANCH   1   2
ATOM      2  C   UNL     1      -3.430  -1.634  -7.459  1.00  0.00     0.041 C 
ATOM      3  O   UNL     1      -3.916  -2.794  -7.474  1.00  0.00    -0.550 OA
ATOM      4  O   UNL     1      -2.222  -1.386  -8.099  1.00  0.00    -0.550 OA
ENDBRANCH   1   2
BRANCH   1   5
ATOM      5  C   UNL     1      -4.843  -1.049  -5.469  1.00  0.00     0.003 C 
ATOM      6  C   UNL     1      -5.107   0.061  -4.452  1.00  0.00     0.004 C 
ENDBRANCH   1   5
TORSDOF 2
ENDMDL
MODEL 2
REMARK VINA RESULT:    -2.761      2.979      3.982
REMARK INTER + INTRA:          -3.092
REMARK INTER:                  -3.074
REMARK INTRA:                  -0.018
REMARK UNBOUND:                -0.008
REMARK SMILES CCCC(=O)[O-]
REMARK SMILES IDX 3 1 4 2 5 3 6 4 2 5 1 6
REMARK H PARENT
REMARK Flexibility Score: inf
ROOT
ATOM      1  C   UNL     1      -4.859  -1.182  -5.572  1.00  0.00     0.052 C 
ENDROOT
BRANCH   1   2
ATOM      2  C   UNL     1      -5.396  -0.424  -4.397  1.00  0.00     0.041 C 
ATOM      3  O   UNL     1      -4.757   0.553  -3.928  1.00  0.00    -0.550 OA
ATOM      4  O   UNL     1      -6.586  -0.819  -3.800  1.00  0.00    -0.550 OA
ENDBRANCH   1   2
BRANCH   1   5
ATOM      5  C   UNL     1      -4.273  -0.244  -6.635  1.00  0.00     0.003 C 
ATOM      6  C   UNL     1      -3.090  -0.869  -7.374  1.00  0.00     0.004 C 
ENDBRANCH   1   5
TORSDOF 2
ENDMDL
MODEL 3
REMARK VINA RESULT:    -2.696     14.043     14.571
REMARK INTER + INTRA:          -3.020
REMARK INTER:                  -3.009
REMARK INTRA:                  -0.010
REMARK UNBOUND:                -0.008
REMARK SMILES CCCC(=O)[O-]
REMARK SMILES IDX 3 1 4 2 5 3 6 4 2 5 1 6
REMARK H PARENT
REMARK Flexibility Score: inf
ROOT
ATOM      1  C   UNL     1      -3.846   0.151   7.009  1.00  0.00     0.052 C 
ENDROOT
BRANCH   1   2
ATOM      2  C   UNL     1      -3.225   1.422   7.498  1.00  0.00     0.041 C 
ATOM      3  O   UNL     1      -3.673   2.534   7.117  1.00  0.00    -0.550 OA
ATOM      4  O   UNL     1      -2.128   1.377   8.350  1.00  0.00    -0.550 OA
ENDBRANCH   1   2
BRANCH   1   5
ATOM      5  C   UNL     1      -3.727  -0.977   8.042  1.00  0.00     0.003 C 
ATOM      6  C   UNL     1      -3.927  -2.359   7.422  1.00  0.00     0.004 C 
ENDBRANCH   1   5
TORSDOF 2
ENDMDL
MODEL 4
REMARK VINA RESULT:    -2.691     13.402     14.216
REMARK INTER + INTRA:          -3.014
REMARK INTER:                  -2.978
REMARK INTRA:                  -0.036
REMARK UNBOUND:                -0.008
REMARK SMILES CCCC(=O)[O-]
REMARK SMILES IDX 3 1 4 2 5 3 6 4 2 5 1 6
REMARK H PARENT
REMARK Flexibility Score: inf
ROOT
ATOM      1  C   UNL     1      -3.363   0.114   7.477  1.00  0.00     0.052 C 
ENDROOT
BRANCH   1   2
ATOM      2  C   UNL     1      -4.562   0.512   6.674  1.00  0.00     0.041 C 
ATOM      3  O   UNL     1      -5.399  -0.356   6.312  1.00  0.00    -0.550 OA
ATOM      4  O   UNL     1      -4.738   1.837   6.294  1.00  0.00    -0.550 OA
ENDBRANCH   1   2
BRANCH   1   5
ATOM      5  C   UNL     1      -2.428   1.303   7.732  1.00  0.00     0.003 C 
ATOM      6  C   UNL     1      -2.403   1.719   9.202  1.00  0.00     0.004 C 
ENDBRANCH   1   5
TORSDOF 2
ENDMDL
MODEL 5
REMARK VINA RESULT:    -2.613     13.967     14.822
REMARK INTER + INTRA:          -2.926
REMARK INTER:                  -2.890
REMARK INTRA:                  -0.036
REMARK UNBOUND:                -0.008
REMARK SMILES CCCC(=O)[O-]
REMARK SMILES IDX 3 1 4 2 5 3 6 4 2 5 1 6
REMARK H PARENT
REMARK Flexibility Score: inf
ROOT
ATOM      1  C   UNL     1      -2.446   1.150   7.719  1.00  0.00     0.052 C 
ENDROOT
BRANCH   1   2
ATOM      2  C   UNL     1      -3.560   0.188   7.444  1.00  0.00     0.041 C 
ATOM      3  O   UNL     1      -3.593  -0.926   8.028  1.00  0.00    -0.550 OA
ATOM      4  O   UNL     1      -4.543   0.509   6.516  1.00  0.00    -0.550 OA
ENDBRANCH   1   2
BRANCH   1   5
ATOM      5  C   UNL     1      -2.678   1.935   9.017  1.00  0.00     0.003 C 
ATOM      6  C   UNL     1      -3.276   3.318   8.761  1.00  0.00     0.004 C 
ENDBRANCH   1   5
TORSDOF 2
ENDMDL
MODEL 6
REMARK VINA RESULT:    -2.585     13.813     14.618
REMARK INTER + INTRA:          -2.895
REMARK INTER:                  -2.885
REMARK INTRA:                  -0.010
REMARK UNBOUND:                -0.008
REMARK SMILES CCCC(=O)[O-]
REMARK SMILES IDX 3 1 4 2 5 3 6 4 2 5 1 6
REMARK H PARENT
REMARK Flexibility Score: inf
ROOT
ATOM      1  C   UNL     1      -4.098  -0.644   8.149  1.00  0.00     0.052 C 
ENDROOT
BRANCH   1   2
ATOM      2  C   UNL     1      -3.832  -2.109   7.993  1.00  0.00     0.041 C 
ATOM      3  O   UNL     1      -3.362  -2.773   8.954  1.00  0.00    -0.550 OA
ATOM      4  O   UNL     1      -4.070  -2.735   6.776  1.00  0.00    -0.550 OA
ENDBRANCH   1   2
BRANCH   1   5
ATOM      5  C   UNL     1      -3.253   0.194   7.181  1.00  0.00     0.003 C 
ATOM      6  C   UNL     1      -2.459   1.286   7.897  1.00  0.00     0.004 C 
ENDBRANCH   1   5
TORSDOF 2
ENDMDL
MODEL 7
REMARK VINA RESULT:    -2.568     15.172     15.625
REMARK INTER + INTRA:          -2.877
REMARK INTER:                  -2.871
REMARK INTRA:                  -0.005
REMARK UNBOUND:                -0.008
REMARK SMILES CCCC(=O)[O-]
REMARK SMILES IDX 3 1 4 2 5 3 6 4 2 5 1 6
REMARK H PARENT
REMARK Flexibility Score: inf
ROOT
ATOM      1  C   UNL     1      11.382  -3.456  -4.021  1.00  0.00     0.052 C 
ENDROOT
BRANCH   1   2
ATOM      2  C   UNL     1      11.154  -2.218  -3.209  1.00  0.00     0.041 C 
ATOM      3  O   UNL     1      10.288  -2.210  -2.296  1.00  0.00    -0.550 OA
ATOM      4  O   UNL     1      11.874  -1.062  -3.486  1.00  0.00    -0.550 OA
ENDBRANCH   1   2
BRANCH   1   5
ATOM      5  C   UNL     1      11.057  -3.233  -5.503  1.00  0.00     0.003 C 
ATOM      6  C   UNL     1      10.599  -4.515  -6.197  1.00  0.00     0.004 C 
ENDBRANCH   1   5
TORSDOF 2
ENDMDL
MODEL 8
REMARK VINA RESULT:    -2.562     12.846     13.859
REMARK INTER + INTRA:          -2.870
REMARK INTER:                  -2.836
REMARK INTRA:                  -0.034
REMARK UNBOUND:                -0.008
REMARK SMILES CCCC(=O)[O-]
REMARK SMILES IDX 3 1 4 2 5 3 6 4 2 5 1 6
REMARK H PARENT
REMARK Flexibility Score: inf
ROOT
ATOM      1  C   UNL     1      -3.979  -2.469   7.120  1.00  0.00     0.052 C 
ENDROOT
BRANCH   1   2
ATOM      2  C   UNL     1      -4.012  -0.987   7.330  1.00  0.00     0.041 C 
ATOM      3  O   UNL     1      -3.326  -0.461   8.245  1.00  0.00    -0.550 OA
ATOM      4  O   UNL     1      -4.828  -0.190   6.537  1.00  0.00    -0.550 OA
ENDBRANCH   1   2
BRANCH   1   5
ATOM      5  C   UNL     1      -5.344  -3.012   6.678  1.00  0.00     0.003 C 
ATOM      6  C   UNL     1      -5.271  -3.751   5.342  1.00  0.00     0.004 C 
ENDBRANCH   1   5
TORSDOF 2
ENDMDL
MODEL 9
REMARK VINA RESULT:    -2.552     13.517     14.109
REMARK INTER + INTRA:          -2.859
REMARK INTER:                  -2.832
REMARK INTRA:                  -0.026
REMARK UNBOUND:                -0.008
REMARK SMILES CCCC(=O)[O-]
REMARK SMILES IDX 3 1 4 2 5 3 6 4 2 5 1 6
REMARK H PARENT
REMARK Flexibility Score: inf
ROOT
ATOM      1  C   UNL     1      -4.910  -0.918   7.237  1.00  0.00     0.052 C 
ENDROOT
BRANCH   1   2
ATOM      2  C   UNL     1      -4.198   0.338   6.840  1.00  0.00     0.041 C 
ATOM      3  O   UNL     1      -2.995   0.514   7.163  1.00  0.00    -0.550 OA
ATOM      4  O   UNL     1      -4.874   1.330   6.140  1.00  0.00    -0.550 OA
ENDBRANCH   1   2
BRANCH   1   5
ATOM      5  C   UNL     1      -3.961  -2.122   7.278  1.00  0.00     0.003 C 
ATOM      6  C   UNL     1      -3.627  -2.551   8.707  1.00  0.00     0.004 C 
ENDBRANCH   1   5
TORSDOF 2
ENDMDL
