MODEL 1
REMARK VINA RESULT:    -5.184      0.000      0.000
REMARK INTER + INTRA:          -5.855
REMARK INTER:                  -5.790
REMARK INTRA:                  -0.065
REMARK UNBOUND:                -0.065
REMARK SMILES COc1cc2ccc(=O)oc2c(O)c1O
REMARK SMILES IDX 3 1 14 2 12 3 11 4 5 5 4 6 6 7 7 8 8 9 9 10 10 11 2 12 1 13
REMARK SMILES IDX 15 14 13 16
REMARK H PARENT 15 15 13 17
REMARK Flexibility Score: inf
ROOT
ATOM      1  C   UNL     1      -7.934  23.597 -10.399  1.00  0.00     0.165 A 
ATOM      2  C   UNL     1      -8.649  22.440 -10.047  1.00  0.00     0.204 A 
ATOM      3  C   UNL     1      -7.971  21.330  -9.483  1.00  0.00     0.205 A 
ATOM      4  C   UNL     1      -6.586  21.397  -9.279  1.00  0.00     0.184 A 
ATOM      5  C   UNL     1      -5.872  22.559  -9.633  1.00  0.00     0.025 A 
ATOM      6  C   UNL     1      -6.544  23.652 -10.189  1.00  0.00     0.062 A 
ATOM      7  C   UNL     1      -4.490  22.589  -9.414  1.00  0.00     0.020 A 
ATOM      8  C   UNL     1      -3.861  21.477  -8.857  1.00  0.00     0.094 A 
ATOM      9  C   UNL     1      -4.631  20.358  -8.530  1.00  0.00     0.336 A 
ATOM     10  O   UNL     1      -4.084  19.342  -8.026  1.00  0.00    -0.246 OA
ATOM     11  O   UNL     1      -5.944  20.356  -8.749  1.00  0.00    -0.419 OA
ENDROOT
BRANCH   1  12
ATOM     12  O   UNL     1      -8.644  24.674 -10.955  1.00  0.00    -0.493 OA
ATOM     13  C   UNL     1      -8.637  26.000 -10.438  1.00  0.00     0.278 C 
ENDBRANCH   1  12
BRANCH   2  14
ATOM     14  O   UNL     1     -10.028  22.434 -10.276  1.00  0.00    -0.502 OA
ATOM     15  H   UNL     1     -10.478  22.906 -11.046  1.00  0.00     0.293 HD
ENDBRANCH   2  14
BRANCH   3  16
ATOM     16  O   UNL     1      -8.631  20.154  -9.115  1.00  0.00    -0.502 OA
ATOM     17  H   UNL     1      -8.967  19.464  -9.771  1.00  0.00     0.293 HD
ENDBRANCH   3  16
TORSDOF 3
ENDMDL
MODEL 2
REMARK VINA RESULT:    -4.919      2.901      5.400
REMARK INTER + INTRA:          -5.558
REMARK INTER:                  -5.503
REMARK INTRA:                  -0.056
REMARK UNBOUND:                -0.065
REMARK SMILES COc1cc2ccc(=O)oc2c(O)c1O
REMARK SMILES IDX 3 1 14 2 12 3 11 4 5 5 4 6 6 7 7 8 8 9 9 10 10 11 2 12 1 13
REMARK SMILES IDX 15 14 13 16
REMARK H PARENT 15 15 13 17
REMARK Flexibility Score: inf
ROOT
ATOM      1  C   UNL     1      -9.654  22.451  -7.699  1.00  0.00     0.165 A 
ATOM      2  C   UNL     1      -9.032  21.902  -8.833  1.00  0.00     0.204 A 
ATOM      3  C   UNL     1      -8.663  22.739  -9.916  1.00  0.00     0.205 A 
ATOM      4  C   UNL     1      -8.922  24.114  -9.846  1.00  0.00     0.184 A 
ATOM      5  C   UNL     1      -9.546  24.662  -8.708  1.00  0.00     0.025 A 
ATOM      6  C   UNL     1      -9.909  23.834  -7.641  1.00  0.00     0.062 A 
ATOM      7  C   UNL     1      -9.788  26.040  -8.674  1.00  0.00     0.020 A 
ATOM      8  C   UNL     1      -9.409  26.828  -9.759  1.00  0.00     0.094 A 
ATOM      9  C   UNL     1      -8.795  26.218 -10.857  1.00  0.00     0.336 A 
ATOM     10  O   UNL     1      -8.445  26.911 -11.847  1.00  0.00    -0.246 OA
ATOM     11  O   UNL     1      -8.577  24.905 -10.862  1.00  0.00    -0.419 OA
ENDROOT
BRANCH   1  12
ATOM     12  O   UNL     1     -10.003  21.587  -6.649  1.00  0.00    -0.493 OA
ATOM     13  C   UNL     1     -10.020  21.952  -5.273  1.00  0.00     0.278 C 
ENDBRANCH   1  12
BRANCH   2  14
ATOM     14  O   UNL     1      -8.801  20.524  -8.843  1.00  0.00    -0.502 OA
ATOM     15  H   UNL     1      -8.055  20.069  -8.338  1.00  0.00     0.293 HD
ENDBRANCH   2  14
BRANCH   3  16
ATOM     16  O   UNL     1      -8.043  22.247 -11.068  1.00  0.00    -0.502 OA
ATOM     17  H   UNL     1      -7.229  21.651 -11.064  1.00  0.00     0.293 HD
ENDBRANCH   3  16
TORSDOF 3
ENDMDL
MODEL 3
REMARK VINA RESULT:    -4.853      0.869      4.751
REMARK INTER + INTRA:          -5.485
REMARK INTER:                  -5.432
REMARK INTRA:                  -0.053
REMARK UNBOUND:                -0.065
REMARK SMILES COc1cc2ccc(=O)oc2c(O)c1O
REMARK SMILES IDX 3 1 14 2 12 3 11 4 5 5 4 6 6 7 7 8 8 9 9 10 10 11 2 12 1 13
REMARK SMILES IDX 15 14 13 16
REMARK H PARENT 15 15 13 17
REMARK Flexibility Score: inf
ROOT
ATOM      1  C   UNL     1      -6.619  21.448  -9.400  1.00  0.00     0.165 A 
ATOM      2  C   UNL     1      -8.014  21.350  -9.532  1.00  0.00     0.204 A 
ATOM      3  C   UNL     1      -8.772  22.484  -9.918  1.00  0.00     0.205 A 
ATOM      4  C   UNL     1      -8.121  23.699 -10.167  1.00  0.00     0.184 A 
ATOM      5  C   UNL     1      -6.721  23.794 -10.034  1.00  0.00     0.025 A 
ATOM      6  C   UNL     1      -5.976  22.674  -9.653  1.00  0.00     0.062 A 
ATOM      7  C   UNL     1      -6.106  25.024 -10.291  1.00  0.00     0.020 A 
ATOM      8  C   UNL     1      -6.887  26.115 -10.669  1.00  0.00     0.094 A 
ATOM      9  C   UNL     1      -8.270  25.949 -10.781  1.00  0.00     0.336 A 
ATOM     10  O   UNL     1      -8.995  26.921 -11.121  1.00  0.00    -0.246 OA
ATOM     11  O   UNL     1      -8.829  24.768 -10.530  1.00  0.00    -0.419 OA
ENDROOT
BRANCH   1  12
ATOM     12  O   UNL     1      -5.906  20.301  -9.015  1.00  0.00    -0.493 OA
ATOM     13  C   UNL     1      -4.581  20.310  -8.493  1.00  0.00     0.278 C 
ENDBRANCH   1  12
BRANCH   2  14
ATOM     14  O   UNL     1      -8.606  20.112  -9.269  1.00  0.00    -0.502 OA
ATOM     15  H   UNL     1      -8.094  19.278  -9.023  1.00  0.00     0.293 HD
ENDBRANCH   2  14
BRANCH   3  16
ATOM     16  O   UNL     1     -10.162  22.445 -10.064  1.00  0.00    -0.502 OA
ATOM     17  H   UNL     1     -10.688  21.607 -10.263  1.00  0.00     0.293 HD
ENDBRANCH   3  16
TORSDOF 3
ENDMDL
MODEL 4
REMARK VINA RESULT:    -4.766      1.536      2.241
REMARK INTER + INTRA:          -5.388
REMARK INTER:                  -5.325
REMARK INTRA:                  -0.063
REMARK UNBOUND:                -0.065
REMARK SMILES COc1cc2ccc(=O)oc2c(O)c1O
REMARK SMILES IDX 3 1 14 2 12 3 11 4 5 5 4 6 6 7 7 8 8 9 9 10 10 11 2 12 1 13
REMARK SMILES IDX 15 14 13 16
REMARK H PARENT 15 15 13 17
REMARK Flexibility Score: inf
ROOT
ATOM      1  C   UNL     1      -6.883  25.165 -10.152  1.00  0.00     0.165 A 
ATOM      2  C   UNL     1      -8.049  24.578 -10.671  1.00  0.00     0.204 A 
ATOM      3  C   UNL     1      -8.198  23.168 -10.662  1.00  0.00     0.205 A 
ATOM      4  C   UNL     1      -7.178  22.368 -10.130  1.00  0.00     0.184 A 
ATOM      5  C   UNL     1      -6.010  22.961  -9.610  1.00  0.00     0.025 A 
ATOM      6  C   UNL     1      -5.866  24.352  -9.621  1.00  0.00     0.062 A 
ATOM      7  C   UNL     1      -5.012  22.130  -9.088  1.00  0.00     0.020 A 
ATOM      8  C   UNL     1      -5.198  20.749  -9.096  1.00  0.00     0.094 A 
ATOM      9  C   UNL     1      -6.381  20.229  -9.629  1.00  0.00     0.336 A 
ATOM     10  O   UNL     1      -6.569  18.984  -9.647  1.00  0.00    -0.246 OA
ATOM     11  O   UNL     1      -7.313  21.042 -10.119  1.00  0.00    -0.419 OA
ENDROOT
BRANCH   1  12
ATOM     12  O   UNL     1      -6.776  26.566 -10.181  1.00  0.00    -0.493 OA
ATOM     13  C   UNL     1      -6.051  27.301 -11.161  1.00  0.00     0.278 C 
ENDBRANCH   1  12
BRANCH   2  14
ATOM     14  O   UNL     1      -9.031  25.428 -11.187  1.00  0.00    -0.502 OA
ATOM     15  H   UNL     1     -10.018  25.219 -11.193  1.00  0.00     0.293 HD
ENDBRANCH   2  14
BRANCH   3  16
ATOM     16  O   UNL     1      -9.335  22.529 -11.166  1.00  0.00    -0.502 OA
ATOM     17  H   UNL     1     -10.274  22.888 -11.076  1.00  0.00     0.293 HD
ENDBRANCH   3  16
TORSDOF 3
ENDMDL
MODEL 5
REMARK VINA RESULT:    -4.682      1.616      4.995
REMARK INTER + INTRA:          -5.294
REMARK INTER:                  -5.226
REMARK INTRA:                  -0.069
REMARK UNBOUND:                -0.065
REMARK SMILES COc1cc2ccc(=O)oc2c(O)c1O
REMARK SMILES IDX 3 1 14 2 12 3 11 4 5 5 4 6 6 7 7 8 8 9 9 10 10 11 2 12 1 13
REMARK SMILES IDX 15 14 13 16
REMARK H PARENT 15 15 13 17
REMARK Flexibility Score: inf
ROOT
ATOM      1  C   UNL     1      -4.026  20.933  -7.613  1.00  0.00     0.165 A 
ATOM      2  C   UNL     1      -4.685  19.837  -8.196  1.00  0.00     0.204 A 
ATOM      3  C   UNL     1      -5.768  20.051  -9.086  1.00  0.00     0.205 A 
ATOM      4  C   UNL     1      -6.172  21.359  -9.381  1.00  0.00     0.184 A 
ATOM      5  C   UNL     1      -5.509  22.456  -8.795  1.00  0.00     0.025 A 
ATOM      6  C   UNL     1      -4.442  22.242  -7.917  1.00  0.00     0.062 A 
ATOM      7  C   UNL     1      -5.942  23.749  -9.113  1.00  0.00     0.020 A 
ATOM      8  C   UNL     1      -7.009  23.916  -9.994  1.00  0.00     0.094 A 
ATOM      9  C   UNL     1      -7.621  22.784 -10.537  1.00  0.00     0.336 A 
ATOM     10  O   UNL     1      -8.587  22.911 -11.335  1.00  0.00    -0.246 OA
ATOM     11  O   UNL     1      -7.189  21.566 -10.218  1.00  0.00    -0.419 OA
ENDROOT
BRANCH   1  12
ATOM     12  O   UNL     1      -2.959  20.677  -6.737  1.00  0.00    -0.493 OA
ATOM     13  C   UNL     1      -2.972  20.964  -5.342  1.00  0.00     0.278 C 
ENDBRANCH   1  12
BRANCH   2  14
ATOM     14  O   UNL     1      -4.236  18.557  -7.863  1.00  0.00    -0.502 OA
ATOM     15  H   UNL     1      -3.580  18.023  -8.414  1.00  0.00     0.293 HD
ENDBRANCH   2  14
BRANCH   3  16
ATOM     16  O   UNL     1      -6.460  18.999  -9.694  1.00  0.00    -0.502 OA
ATOM     17  H   UNL     1      -6.024  18.283 -10.256  1.00  0.00     0.293 HD
ENDBRANCH   3  16
TORSDOF 3
ENDMDL
MODEL 6
REMARK VINA RESULT:    -4.669      2.968      4.424
REMARK INTER + INTRA:          -5.280
REMARK INTER:                  -5.213
REMARK INTRA:                  -0.067
REMARK UNBOUND:                -0.065
REMARK SMILES COc1cc2ccc(=O)oc2c(O)c1O
REMARK SMILES IDX 3 1 14 2 12 3 11 4 5 5 4 6 6 7 7 8 8 9 9 10 10 11 2 12 1 13
REMARK SMILES IDX 15 14 13 16
REMARK H PARENT 15 15 13 17
REMARK Flexibility Score: inf
ROOT
ATOM      1  C   UNL     1      -7.559  21.772  -9.605  1.00  0.00     0.165 A 
ATOM      2  C   UNL     1      -8.864  22.194  -9.910  1.00  0.00     0.204 A 
ATOM      3  C   UNL     1      -9.803  22.404  -8.869  1.00  0.00     0.205 A 
ATOM      4  C   UNL     1      -9.420  22.191  -7.538  1.00  0.00     0.184 A 
ATOM      5  C   UNL     1      -8.110  21.768  -7.236  1.00  0.00     0.025 A 
ATOM      6  C   UNL     1      -7.186  21.562  -8.265  1.00  0.00     0.062 A 
ATOM      7  C   UNL     1      -7.764  21.565  -5.895  1.00  0.00     0.020 A 
ATOM      8  C   UNL     1      -8.716  21.784  -4.902  1.00  0.00     0.094 A 
ATOM      9  C   UNL     1      -9.997  22.202  -5.273  1.00  0.00     0.336 A 
ATOM     10  O   UNL     1     -10.872  22.405  -4.392  1.00  0.00    -0.246 OA
ATOM     11  O   UNL     1     -10.299  22.387  -6.556  1.00  0.00    -0.419 OA
ENDROOT
BRANCH   1  12
ATOM     12  O   UNL     1      -6.660  21.576 -10.666  1.00  0.00    -0.493 OA
ATOM     13  C   UNL     1      -5.648  22.500 -11.051  1.00  0.00     0.278 C 
ENDBRANCH   1  12
BRANCH   2  14
ATOM     14  O   UNL     1      -9.187  22.390 -11.255  1.00  0.00    -0.502 OA
ATOM     15  H   UNL     1      -8.526  22.315 -12.015  1.00  0.00     0.293 HD
ENDBRANCH   2  14
BRANCH   3  16
ATOM     16  O   UNL     1     -11.115  22.822  -9.113  1.00  0.00    -0.502 OA
ATOM     17  H   UNL     1     -11.592  22.708  -9.995  1.00  0.00     0.293 HD
ENDBRANCH   3  16
TORSDOF 3
ENDMDL
MODEL 7
REMARK VINA RESULT:    -4.664      1.688      2.361
REMARK INTER + INTRA:          -5.274
REMARK INTER:                  -5.211
REMARK INTRA:                  -0.063
REMARK UNBOUND:                -0.065
REMARK SMILES COc1cc2ccc(=O)oc2c(O)c1O
REMARK SMILES IDX 3 1 14 2 12 3 11 4 5 5 4 6 6 7 7 8 8 9 9 10 10 11 2 12 1 13
REMARK SMILES IDX 15 14 13 16
REMARK H PARENT 15 15 13 17
REMARK Flexibility Score: inf
ROOT
ATOM      1  C   UNL     1      -8.804  25.395  -9.830  1.00  0.00     0.165 A 
ATOM      2  C   UNL     1      -9.748  24.553  -9.219  1.00  0.00     0.204 A 
ATOM      3  C   UNL     1      -9.463  23.176  -9.041  1.00  0.00     0.205 A 
ATOM      4  C   UNL     1      -8.234  22.663  -9.478  1.00  0.00     0.184 A 
ATOM      5  C   UNL     1      -7.289  23.510 -10.091  1.00  0.00     0.025 A 
ATOM      6  C   UNL     1      -7.574  24.867 -10.264  1.00  0.00     0.062 A 
ATOM      7  C   UNL     1      -6.073  22.961 -10.515  1.00  0.00     0.020 A 
ATOM      8  C   UNL     1      -5.831  21.602 -10.321  1.00  0.00     0.094 A 
ATOM      9  C   UNL     1      -6.813  20.821  -9.707  1.00  0.00     0.336 A 
ATOM     10  O   UNL     1      -6.615  19.592  -9.522  1.00  0.00    -0.246 OA
ATOM     11  O   UNL     1      -7.961  21.369  -9.314  1.00  0.00    -0.419 OA
ENDROOT
BRANCH   1  12
ATOM     12  O   UNL     1      -9.127  26.752  -9.986  1.00  0.00    -0.493 OA
ATOM     13  C   UNL     1      -9.037  27.469 -11.214  1.00  0.00     0.278 C 
ENDBRANCH   1  12
BRANCH   2  14
ATOM     14  O   UNL     1     -10.955  25.124  -8.804  1.00  0.00    -0.502 OA
ATOM     15  H   UNL     1     -11.722  25.342  -9.423  1.00  0.00     0.293 HD
ENDBRANCH   2  14
BRANCH   3  16
ATOM     16  O   UNL     1     -10.364  22.293  -8.441  1.00  0.00    -0.502 OA
ATOM     17  H   UNL     1     -10.400  21.302  -8.630  1.00  0.00     0.293 HD
ENDBRANCH   3  16
TORSDOF 3
ENDMDL
MODEL 8
REMARK VINA RESULT:    -4.663      1.892      4.693
REMARK INTER + INTRA:          -5.273
REMARK INTER:                  -5.210
REMARK INTRA:                  -0.063
REMARK UNBOUND:                -0.065
REMARK SMILES COc1cc2ccc(=O)oc2c(O)c1O
REMARK SMILES IDX 3 1 14 2 12 3 11 4 5 5 4 6 6 7 7 8 8 9 9 10 10 11 2 12 1 13
REMARK SMILES IDX 15 14 13 16
REMARK H PARENT 15 15 13 17
REMARK Flexibility Score: inf
ROOT
ATOM      1  C   UNL     1      -4.833  21.733  -8.756  1.00  0.00     0.165 A 
ATOM      2  C   UNL     1      -5.477  21.248  -7.605  1.00  0.00     0.204 A 
ATOM      3  C   UNL     1      -6.893  21.221  -7.541  1.00  0.00     0.205 A 
ATOM      4  C   UNL     1      -7.643  21.679  -8.633  1.00  0.00     0.184 A 
ATOM      5  C   UNL     1      -6.993  22.165  -9.786  1.00  0.00     0.025 A 
ATOM      6  C   UNL     1      -5.597  22.190  -9.845  1.00  0.00     0.062 A 
ATOM      7  C   UNL     1      -7.776  22.614 -10.856  1.00  0.00     0.020 A 
ATOM      8  C   UNL     1      -9.165  22.570 -10.754  1.00  0.00     0.094 A 
ATOM      9  C   UNL     1      -9.742  22.077  -9.581  1.00  0.00     0.336 A 
ATOM     10  O   UNL     1     -10.994  22.028  -9.467  1.00  0.00    -0.246 OA
ATOM     11  O   UNL     1      -8.974  21.656  -8.578  1.00  0.00    -0.419 OA
ENDROOT
BRANCH   1  12
ATOM     12  O   UNL     1      -3.429  21.743  -8.777  1.00  0.00    -0.493 OA
ATOM     13  C   UNL     1      -2.633  22.878  -9.100  1.00  0.00     0.278 C 
ENDBRANCH   1  12
BRANCH   2  14
ATOM     14  O   UNL     1      -4.675  20.806  -6.549  1.00  0.00    -0.502 OA
ATOM     15  H   UNL     1      -3.677  20.668  -6.613  1.00  0.00     0.293 HD
ENDBRANCH   2  14
BRANCH   3  16
ATOM     16  O   UNL     1      -7.586  20.751  -6.423  1.00  0.00    -0.502 OA
ATOM     17  H   UNL     1      -8.581  20.856  -6.286  1.00  0.00     0.293 HD
ENDBRANCH   3  16
TORSDOF 3
ENDMDL
MODEL 9
REMARK VINA RESULT:    -4.604      3.111      4.322
REMARK INTER + INTRA:          -5.207
REMARK INTER:                  -5.155
REMARK INTRA:                  -0.052
REMARK UNBOUND:                -0.065
REMARK SMILES COc1cc2ccc(=O)oc2c(O)c1O
REMARK SMILES IDX 3 1 14 2 12 3 11 4 5 5 4 6 6 7 7 8 8 9 9 10 10 11 2 12 1 13
REMARK SMILES IDX 15 14 13 16
REMARK H PARENT 15 15 13 17
REMARK Flexibility Score: inf
ROOT
ATOM      1  C   UNL     1      -8.883  24.260  -9.807  1.00  0.00     0.165 A 
ATOM      2  C   UNL     1      -8.816  22.857  -9.854  1.00  0.00     0.204 A 
ATOM      3  C   UNL     1      -9.082  22.094  -8.689  1.00  0.00     0.205 A 
ATOM      4  C   UNL     1      -9.413  22.748  -7.495  1.00  0.00     0.184 A 
ATOM      5  C   UNL     1      -9.479  24.155  -7.451  1.00  0.00     0.025 A 
ATOM      6  C   UNL     1      -9.216  24.905  -8.601  1.00  0.00     0.062 A 
ATOM      7  C   UNL     1      -9.812  24.773  -6.240  1.00  0.00     0.020 A 
ATOM      8  C   UNL     1     -10.067  23.987  -5.118  1.00  0.00     0.094 A 
ATOM      9  C   UNL     1      -9.983  22.596  -5.233  1.00  0.00     0.336 A 
ATOM     10  O   UNL     1     -10.209  21.867  -4.232  1.00  0.00    -0.246 OA
ATOM     11  O   UNL     1      -9.664  22.035  -6.397  1.00  0.00    -0.419 OA
ENDROOT
BRANCH   1  12
ATOM     12  O   UNL     1      -8.612  24.977 -10.983  1.00  0.00    -0.493 OA
ATOM     13  C   UNL     1      -8.634  26.397 -11.087  1.00  0.00     0.278 C 
ENDBRANCH   1  12
BRANCH   2  14
ATOM     14  O   UNL     1      -8.482  22.263 -11.074  1.00  0.00    -0.502 OA
ATOM     15  H   UNL     1      -7.911  22.702 -11.782  1.00  0.00     0.293 HD
ENDBRANCH   2  14
BRANCH   3  16
ATOM     16  O   UNL     1      -9.030  20.697  -8.677  1.00  0.00    -0.502 OA
ATOM     17  H   UNL     1      -8.238  20.157  -8.992  1.00  0.00     0.293 HD
ENDBRANCH   3  16
TORSDOF 3
ENDMDL
