MODEL 1
REMARK VINA RESULT:    -5.301      0.000      0.000
REMARK INTER + INTRA:          -5.301
REMARK INTER:                  -5.301
REMARK INTRA:                   0.000
REMARK UNBOUND:                 0.000
REMARK SMILES C[C@H]1CCC=C2CC[C@H]3[C@H](C3(C)C)[C@]21C
REMARK SMILES IDX 1 1 2 2 3 3 4 4 5 5 6 6 14 7 10 8 9 9 11 10 12 11 13 12 8 13
REMARK SMILES IDX 7 14 15 15
REMARK H PARENT
REMARK Flexibility Score: inf
ROOT
ATOM      1  C   UNL     1       0.724   4.551  13.608  1.00  0.00     0.008 C 
ATOM      2  C   UNL     1       0.132   3.535  12.606  1.00  0.00    -0.004 C 
ATOM      3  C   UNL     1      -0.222   2.211  13.338  1.00  0.00     0.008 C 
ATOM      4  C   UNL     1      -1.647   2.158  13.937  1.00  0.00     0.027 C 
ATOM      5  C   UNL     1      -2.444   3.432  13.799  1.00  0.00    -0.027 C 
ATOM      6  C   UNL     1      -2.197   4.363  12.850  1.00  0.00    -0.068 C 
ATOM      7  C   UNL     1      -1.099   4.099  11.810  1.00  0.00    -0.005 C 
ATOM      8  C   UNL     1      -0.622   5.341  10.991  1.00  0.00     0.009 C 
ATOM      9  C   UNL     1      -1.033   6.745  11.434  1.00  0.00    -0.000 C 
ATOM     10  C   UNL     1      -1.544   6.200  10.087  1.00  0.00    -0.028 C 
ATOM     11  C   UNL     1      -3.062   5.986   9.932  1.00  0.00     0.012 C 
ATOM     12  C   UNL     1      -0.857   6.847   8.875  1.00  0.00     0.012 C 
ATOM     13  C   UNL     1      -1.966   6.887  12.647  1.00  0.00     0.009 C 
ATOM     14  C   UNL     1      -2.871   5.707  13.004  1.00  0.00     0.031 C 
ATOM     15  C   UNL     1      -1.547   3.021  10.780  1.00  0.00     0.017 C 
ENDROOT
TORSDOF 0
ENDMDL
MODEL 2
REMARK VINA RESULT:    -5.285      1.114      4.514
REMARK INTER + INTRA:          -5.285
REMARK INTER:                  -5.285
REMARK INTRA:                   0.000
REMARK UNBOUND:                 0.000
REMARK SMILES C[C@H]1CCC=C2CC[C@H]3[C@H](C3(C)C)[C@]21C
REMARK SMILES IDX 1 1 2 2 3 3 4 4 5 5 6 6 14 7 10 8 9 9 11 10 12 11 13 12 8 13
REMARK SMILES IDX 7 14 15 15
REMARK H PARENT
REMARK Flexibility Score: inf
ROOT
ATOM      1  C   UNL     1      -3.806   5.676  12.620  1.00  0.00     0.008 C 
ATOM      2  C   UNL     1      -3.105   4.767  11.587  1.00  0.00    -0.004 C 
ATOM      3  C   UNL     1      -2.874   5.545  10.263  1.00  0.00     0.008 C 
ATOM      4  C   UNL     1      -1.540   6.326  10.190  1.00  0.00     0.027 C 
ATOM      5  C   UNL     1      -0.710   6.288  11.450  1.00  0.00    -0.027 C 
ATOM      6  C   UNL     1      -0.814   5.310  12.378  1.00  0.00    -0.068 C 
ATOM      7  C   UNL     1      -1.770   4.137  12.124  1.00  0.00    -0.005 C 
ATOM      8  C   UNL     1      -2.115   3.255  13.368  1.00  0.00     0.009 C 
ATOM      9  C   UNL     1      -1.741   3.741  14.769  1.00  0.00    -0.000 C 
ATOM     10  C   UNL     1      -1.067   2.476  14.206  1.00  0.00    -0.028 C 
ATOM     11  C   UNL     1       0.454   2.522  13.965  1.00  0.00     0.012 C 
ATOM     12  C   UNL     1      -1.578   1.181  14.855  1.00  0.00     0.012 C 
ATOM     13  C   UNL     1      -0.972   5.066  14.904  1.00  0.00     0.009 C 
ATOM     14  C   UNL     1      -0.143   5.545  13.712  1.00  0.00     0.031 C 
ATOM     15  C   UNL     1      -1.211   3.179  11.032  1.00  0.00     0.017 C 
ENDROOT
TORSDOF 0
ENDMDL
MODEL 3
REMARK VINA RESULT:    -5.078      1.685      3.207
REMARK INTER + INTRA:          -5.078
REMARK INTER:                  -5.078
REMARK INTRA:                   0.000
REMARK UNBOUND:                 0.000
REMARK SMILES C[C@H]1CCC=C2CC[C@H]3[C@H](C3(C)C)[C@]21C
REMARK SMILES IDX 1 1 2 2 3 3 4 4 5 5 6 6 14 7 10 8 9 9 11 10 12 11 13 12 8 13
REMARK SMILES IDX 7 14 15 15
REMARK H PARENT
REMARK Flexibility Score: inf
ROOT
ATOM      1  C   UNL     1      -3.357   2.493  14.576  1.00  0.00     0.008 C 
ATOM      2  C   UNL     1      -1.834   2.427  14.829  1.00  0.00    -0.004 C 
ATOM      3  C   UNL     1      -1.362   0.947  14.850  1.00  0.00     0.008 C 
ATOM      4  C   UNL     1      -0.962   0.371  13.471  1.00  0.00     0.027 C 
ATOM      5  C   UNL     1      -1.177   1.303  12.304  1.00  0.00    -0.027 C 
ATOM      6  C   UNL     1      -1.233   2.649  12.429  1.00  0.00    -0.068 C 
ATOM      7  C   UNL     1      -1.001   3.282  13.808  1.00  0.00    -0.005 C 
ATOM      8  C   UNL     1      -1.436   4.776  13.956  1.00  0.00     0.009 C 
ATOM      9  C   UNL     1      -2.297   5.425  12.871  1.00  0.00    -0.000 C 
ATOM     10  C   UNL     1      -0.864   5.942  13.107  1.00  0.00    -0.028 C 
ATOM     11  C   UNL     1       0.154   5.773  11.964  1.00  0.00     0.012 C 
ATOM     12  C   UNL     1      -0.824   7.306  13.811  1.00  0.00     0.012 C 
ATOM     13  C   UNL     1      -2.656   4.598  11.627  1.00  0.00     0.009 C 
ATOM     14  C   UNL     1      -1.737   3.436  11.243  1.00  0.00     0.031 C 
ATOM     15  C   UNL     1       0.498   3.205  14.219  1.00  0.00     0.017 C 
ENDROOT
TORSDOF 0
ENDMDL
MODEL 4
REMARK VINA RESULT:    -5.067      1.185      2.810
REMARK INTER + INTRA:          -5.067
REMARK INTER:                  -5.067
REMARK INTRA:                   0.000
REMARK UNBOUND:                 0.000
REMARK SMILES C[C@H]1CCC=C2CC[C@H]3[C@H](C3(C)C)[C@]21C
REMARK SMILES IDX 1 1 2 2 3 3 4 4 5 5 6 6 14 7 10 8 9 9 11 10 12 11 13 12 8 13
REMARK SMILES IDX 7 14 15 15
REMARK H PARENT
REMARK Flexibility Score: inf
ROOT
ATOM      1  C   UNL     1      -2.953   3.289  14.124  1.00  0.00     0.008 C 
ATOM      2  C   UNL     1      -1.754   4.250  14.293  1.00  0.00    -0.004 C 
ATOM      3  C   UNL     1      -0.688   3.611  15.225  1.00  0.00     0.008 C 
ATOM      4  C   UNL     1       0.365   2.735  14.505  1.00  0.00     0.027 C 
ATOM      5  C   UNL     1       0.143   2.560  13.023  1.00  0.00    -0.027 C 
ATOM      6  C   UNL     1      -0.568   3.432  12.271  1.00  0.00    -0.068 C 
ATOM      7  C   UNL     1      -1.127   4.702  12.926  1.00  0.00    -0.005 C 
ATOM      8  C   UNL     1      -2.226   5.462  12.115  1.00  0.00     0.009 C 
ATOM      9  C   UNL     1      -2.874   4.790  10.903  1.00  0.00    -0.000 C 
ATOM     10  C   UNL     1      -2.014   6.051  10.695  1.00  0.00    -0.028 C 
ATOM     11  C   UNL     1      -0.720   5.906   9.873  1.00  0.00     0.012 C 
ATOM     12  C   UNL     1      -2.846   7.301  10.374  1.00  0.00     0.012 C 
ATOM     13  C   UNL     1      -2.373   3.399  10.481  1.00  0.00     0.009 C 
ATOM     14  C   UNL     1      -0.953   2.992  10.878  1.00  0.00     0.031 C 
ATOM     15  C   UNL     1       0.004   5.727  13.226  1.00  0.00     0.017 C 
ENDROOT
TORSDOF 0
ENDMDL
MODEL 5
REMARK VINA RESULT:    -4.976      1.315      2.023
REMARK INTER + INTRA:          -4.976
REMARK INTER:                  -4.976
REMARK INTRA:                   0.000
REMARK UNBOUND:                 0.000
REMARK SMILES C[C@H]1CCC=C2CC[C@H]3[C@H](C3(C)C)[C@]21C
REMARK SMILES IDX 1 1 2 2 3 3 4 4 5 5 6 6 14 7 10 8 9 9 11 10 12 11 13 12 8 13
REMARK SMILES IDX 7 14 15 15
REMARK H PARENT
REMARK Flexibility Score: inf
ROOT
ATOM      1  C   UNL     1       0.107   2.619  12.444  1.00  0.00     0.008 C 
ATOM      2  C   UNL     1      -1.389   2.830  12.765  1.00  0.00    -0.004 C 
ATOM      3  C   UNL     1      -1.758   2.100  14.086  1.00  0.00     0.008 C 
ATOM      4  C   UNL     1      -1.563   2.941  15.371  1.00  0.00     0.027 C 
ATOM      5  C   UNL     1      -0.960   4.306  15.153  1.00  0.00    -0.027 C 
ATOM      6  C   UNL     1      -1.025   4.968  13.975  1.00  0.00    -0.068 C 
ATOM      7  C   UNL     1      -1.804   4.344  12.809  1.00  0.00    -0.005 C 
ATOM      8  C   UNL     1      -1.535   4.964  11.400  1.00  0.00     0.009 C 
ATOM      9  C   UNL     1      -0.355   5.917  11.203  1.00  0.00    -0.000 C 
ATOM     10  C   UNL     1      -1.791   6.449  11.033  1.00  0.00    -0.028 C 
ATOM     11  C   UNL     1      -2.277   7.523  12.026  1.00  0.00     0.012 C 
ATOM     12  C   UNL     1      -2.169   6.707   9.567  1.00  0.00     0.012 C 
ATOM     13  C   UNL     1       0.499   6.288  12.426  1.00  0.00     0.009 C 
ATOM     14  C   UNL     1      -0.140   6.182  13.811  1.00  0.00     0.031 C 
ATOM     15  C   UNL     1      -3.339   4.421  13.052  1.00  0.00     0.017 C 
ENDROOT
TORSDOF 0
ENDMDL
MODEL 6
REMARK VINA RESULT:    -4.944      1.290      4.511
REMARK INTER + INTRA:          -4.944
REMARK INTER:                  -4.944
REMARK INTRA:                   0.000
REMARK UNBOUND:                 0.000
REMARK SMILES C[C@H]1CCC=C2CC[C@H]3[C@H](C3(C)C)[C@]21C
REMARK SMILES IDX 1 1 2 2 3 3 4 4 5 5 6 6 14 7 10 8 9 9 11 10 12 11 13 12 8 13
REMARK SMILES IDX 7 14 15 15
REMARK H PARENT
REMARK Flexibility Score: inf
ROOT
ATOM      1  C   UNL     1      -0.275   6.203  11.479  1.00  0.00     0.008 C 
ATOM      2  C   UNL     1      -1.658   6.063  12.153  1.00  0.00    -0.004 C 
ATOM      3  C   UNL     1      -2.750   6.728  11.270  1.00  0.00     0.008 C 
ATOM      4  C   UNL     1      -3.388   5.798  10.211  1.00  0.00     0.027 C 
ATOM      5  C   UNL     1      -2.790   4.415  10.135  1.00  0.00    -0.027 C 
ATOM      6  C   UNL     1      -2.128   3.835  11.162  1.00  0.00    -0.068 C 
ATOM      7  C   UNL     1      -2.027   4.577  12.501  1.00  0.00    -0.005 C 
ATOM      8  C   UNL     1      -0.960   4.032  13.505  1.00  0.00     0.009 C 
ATOM      9  C   UNL     1       0.086   3.024  13.026  1.00  0.00    -0.000 C 
ATOM     10  C   UNL     1      -0.952   2.591  14.078  1.00  0.00    -0.028 C 
ATOM     11  C   UNL     1      -1.953   1.488  13.684  1.00  0.00     0.012 C 
ATOM     12  C   UNL     1      -0.359   2.450  15.488  1.00  0.00     0.012 C 
ATOM     13  C   UNL     1       0.012   2.525  11.574  1.00  0.00     0.009 C 
ATOM     14  C   UNL     1      -1.338   2.582  10.859  1.00  0.00     0.031 C 
ATOM     15  C   UNL     1      -3.392   4.577  13.249  1.00  0.00     0.017 C 
ENDROOT
TORSDOF 0
ENDMDL
MODEL 7
REMARK VINA RESULT:    -4.761      1.313      4.238
REMARK INTER + INTRA:          -4.761
REMARK INTER:                  -4.761
REMARK INTRA:                   0.000
REMARK UNBOUND:                 0.000
REMARK SMILES C[C@H]1CCC=C2CC[C@H]3[C@H](C3(C)C)[C@]21C
REMARK SMILES IDX 1 1 2 2 3 3 4 4 5 5 6 6 14 7 10 8 9 9 11 10 12 11 13 12 8 13
REMARK SMILES IDX 7 14 15 15
REMARK H PARENT
REMARK Flexibility Score: inf
ROOT
ATOM      1  C   UNL     1      -0.252   5.887   9.750  1.00  0.00     0.008 C 
ATOM      2  C   UNL     1      -1.288   6.631  10.622  1.00  0.00    -0.004 C 
ATOM      3  C   UNL     1      -2.643   6.733   9.870  1.00  0.00     0.008 C 
ATOM      4  C   UNL     1      -3.602   5.539  10.091  1.00  0.00     0.027 C 
ATOM      5  C   UNL     1      -3.041   4.418  10.930  1.00  0.00    -0.027 C 
ATOM      6  C   UNL     1      -2.034   4.586  11.818  1.00  0.00    -0.068 C 
ATOM      7  C   UNL     1      -1.467   5.994  12.046  1.00  0.00    -0.005 C 
ATOM      8  C   UNL     1      -0.093   6.064  12.788  1.00  0.00     0.009 C 
ATOM      9  C   UNL     1       0.729   4.789  12.984  1.00  0.00    -0.000 C 
ATOM     10  C   UNL     1       0.160   5.517  14.217  1.00  0.00    -0.028 C 
ATOM     11  C   UNL     1      -0.889   4.773  15.066  1.00  0.00     0.012 C 
ATOM     12  C   UNL     1       1.232   6.263  15.025  1.00  0.00     0.012 C 
ATOM     13  C   UNL     1       0.139   3.455  12.498  1.00  0.00     0.009 C 
ATOM     14  C   UNL     1      -1.381   3.341  12.371  1.00  0.00     0.031 C 
ATOM     15  C   UNL     1      -2.462   6.878  12.853  1.00  0.00     0.017 C 
ENDROOT
TORSDOF 0
ENDMDL
MODEL 8
REMARK VINA RESULT:    -4.689      1.220      2.496
REMARK INTER + INTRA:          -4.689
REMARK INTER:                  -4.689
REMARK INTRA:                   0.000
REMARK UNBOUND:                 0.000
REMARK SMILES C[C@H]1CCC=C2CC[C@H]3[C@H](C3(C)C)[C@]21C
REMARK SMILES IDX 1 1 2 2 3 3 4 4 5 5 6 6 14 7 10 8 9 9 11 10 12 11 13 12 8 13
REMARK SMILES IDX 7 14 15 15
REMARK H PARENT
REMARK Flexibility Score: inf
ROOT
ATOM      1  C   UNL     1      -0.193   2.289  11.414  1.00  0.00     0.008 C 
ATOM      2  C   UNL     1      -1.186   2.423  12.590  1.00  0.00    -0.004 C 
ATOM      3  C   UNL     1      -0.532   1.907  13.901  1.00  0.00     0.008 C 
ATOM      4  C   UNL     1       0.256   2.973  14.699  1.00  0.00     0.027 C 
ATOM      5  C   UNL     1       0.346   4.326  14.038  1.00  0.00    -0.027 C 
ATOM      6  C   UNL     1      -0.543   4.763  13.116  1.00  0.00    -0.068 C 
ATOM      7  C   UNL     1      -1.747   3.880  12.761  1.00  0.00    -0.005 C 
ATOM      8  C   UNL     1      -2.513   4.264  11.454  1.00  0.00     0.009 C 
ATOM      9  C   UNL     1      -1.893   5.265  10.478  1.00  0.00    -0.000 C 
ATOM     10  C   UNL     1      -3.197   5.635  11.211  1.00  0.00    -0.028 C 
ATOM     11  C   UNL     1      -3.154   6.820  12.194  1.00  0.00     0.012 C 
ATOM     12  C   UNL     1      -4.432   5.598  10.299  1.00  0.00     0.012 C 
ATOM     13  C   UNL     1      -0.552   5.918  10.851  1.00  0.00     0.009 C 
ATOM     14  C   UNL     1      -0.176   6.001  12.331  1.00  0.00     0.031 C 
ATOM     15  C   UNL     1      -2.795   3.866  13.912  1.00  0.00     0.017 C 
ENDROOT
TORSDOF 0
ENDMDL
MODEL 9
REMARK VINA RESULT:    -4.619      1.437      4.092
REMARK INTER + INTRA:          -4.619
REMARK INTER:                  -4.619
REMARK INTRA:                   0.000
REMARK UNBOUND:                 0.000
REMARK SMILES C[C@H]1CCC=C2CC[C@H]3[C@H](C3(C)C)[C@]21C
REMARK SMILES IDX 1 1 2 2 3 3 4 4 5 5 6 6 14 7 10 8 9 9 11 10 12 11 13 12 8 13
REMARK SMILES IDX 7 14 15 15
REMARK H PARENT
REMARK Flexibility Score: inf
ROOT
ATOM      1  C   UNL     1      -3.249   7.661  12.040  1.00  0.00     0.008 C 
ATOM      2  C   UNL     1      -3.658   6.362  12.770  1.00  0.00    -0.004 C 
ATOM      3  C   UNL     1      -5.067   5.908  12.300  1.00  0.00     0.008 C 
ATOM      4  C   UNL     1      -5.074   4.983  11.059  1.00  0.00     0.027 C 
ATOM      5  C   UNL     1      -3.720   4.737  10.441  1.00  0.00    -0.027 C 
ATOM      6  C   UNL     1      -2.558   4.864  11.122  1.00  0.00    -0.068 C 
ATOM      7  C   UNL     1      -2.602   5.209  12.616  1.00  0.00    -0.005 C 
ATOM      8  C   UNL     1      -1.256   5.696  13.244  1.00  0.00     0.009 C 
ATOM      9  C   UNL     1      -0.086   6.069  12.333  1.00  0.00    -0.000 C 
ATOM     10  C   UNL     1       0.049   4.858  13.275  1.00  0.00    -0.028 C 
ATOM     11  C   UNL     1       0.210   3.467  12.632  1.00  0.00     0.012 C 
ATOM     12  C   UNL     1       0.972   5.126  14.473  1.00  0.00     0.012 C 
ATOM     13  C   UNL     1      -0.252   5.890  10.815  1.00  0.00     0.009 C 
ATOM     14  C   UNL     1      -1.280   4.873  10.317  1.00  0.00     0.031 C 
ATOM     15  C   UNL     1      -3.082   3.994  13.462  1.00  0.00     0.017 C 
ENDROOT
TORSDOF 0
ENDMDL
