MODEL 1
REMARK VINA RESULT:    -4.781      0.000      0.000
REMARK INTER + INTRA:         -11.649
REMARK INTER:                  -9.253
REMARK INTRA:                  -2.396
REMARK UNBOUND:                -2.396
REMARK SMILES CCCCCCCCCCCCCCCCCC(=O)[O-]
REMARK SMILES IDX 10 1 11 2 12 3 13 4 14 5 15 6 16 7 17 8 18 9 19 10 20 11
REMARK SMILES IDX 9 12 8 13 7 14 6 15 5 16 4 17 3 18 2 19 1 20
REMARK H PARENT
REMARK Flexibility Score: inf
ROOT
ATOM      1  C   UNL     1      44.787  60.320  10.449  1.00  0.00     0.000 C 
ENDROOT
BRANCH   1   2
ATOM      2  C   UNL     1      44.964  60.705   8.976  1.00  0.00     0.000 C 
BRANCH   2   3
ATOM      3  C   UNL     1      43.611  60.983   8.309  1.00  0.00     0.000 C 
BRANCH   3   4
ATOM      4  C   UNL     1      43.592  62.303   7.519  1.00  0.00     0.000 C 
BRANCH   4   5
ATOM      5  C   UNL     1      42.255  62.572   6.796  1.00  0.00     0.000 C 
BRANCH   5   6
ATOM      6  C   UNL     1      42.363  63.728   5.785  1.00  0.00     0.000 C 
BRANCH   6   7
ATOM      7  C   UNL     1      43.589  64.627   6.038  1.00  0.00     0.006 C 
BRANCH   7   8
ATOM      8  C   UNL     1      43.296  66.129   5.886  1.00  0.00     0.053 C 
BRANCH   8   9
ATOM      9  C   UNL     1      42.924  66.774   7.184  1.00  0.00     0.041 C 
ATOM     10  O   UNL     1      41.739  67.146   7.392  1.00  0.00    -0.550 OA
ATOM     11  O   UNL     1      43.887  66.968   8.167  1.00  0.00    -0.550 OA
ENDBRANCH   8   9
ENDBRANCH   7   8
ENDBRANCH   6   7
ENDBRANCH   5   6
ENDBRANCH   4   5
ENDBRANCH   3   4
ENDBRANCH   2   3
ENDBRANCH   1   2
BRANCH   1  12
ATOM     12  C   UNL     1      43.364  59.808  10.714  1.00  0.00     0.000 C 
BRANCH  12  13
ATOM     13  C   UNL     1      43.025  59.744  12.211  1.00  0.00    -0.000 C 
BRANCH  13  14
ATOM     14  C   UNL     1      44.217  60.113  13.106  1.00  0.00    -0.000 C 
BRANCH  14  15
ATOM     15  C   UNL     1      43.986  61.461  13.800  1.00  0.00    -0.000 C 
BRANCH  15  16
ATOM     16  C   UNL     1      45.085  62.466  13.437  1.00  0.00    -0.000 C 
BRANCH  16  17
ATOM     17  C   UNL     1      44.588  63.473  12.393  1.00  0.00    -0.000 C 
BRANCH  17  18
ATOM     18  C   UNL     1      43.054  63.555  12.390  1.00  0.00    -0.000 C 
BRANCH  18  19
ATOM     19  C   UNL     1      42.453  63.295  11.002  1.00  0.00    -0.003 C 
ATOM     20  C   UNL     1      42.384  64.558  10.141  1.00  0.00     0.004 C 
ENDBRANCH  18  19
ENDBRANCH  17  18
ENDBRANCH  16  17
ENDBRANCH  15  16
ENDBRANCH  14  15
ENDBRANCH  13  14
ENDBRANCH  12  13
ENDBRANCH   1  12
TORSDOF 16
ENDMDL
MODEL 2
REMARK VINA RESULT:    -4.701      0.986      3.018
REMARK INTER + INTRA:         -11.494
REMARK INTER:                  -8.750
REMARK INTRA:                  -2.744
REMARK UNBOUND:                -2.396
REMARK SMILES CCCCCCCCCCCCCCCCCC(=O)[O-]
REMARK SMILES IDX 10 1 11 2 12 3 13 4 14 5 15 6 16 7 17 8 18 9 19 10 20 11
REMARK SMILES IDX 9 12 8 13 7 14 6 15 5 16 4 17 3 18 2 19 1 20
REMARK H PARENT
REMARK Flexibility Score: inf
ROOT
ATOM      1  C   UNL     1      41.730  63.283  11.300  1.00  0.00     0.000 C 
ENDROOT
BRANCH   1   2
ATOM      2  C   UNL     1      42.510  63.383   9.984  1.00  0.00     0.000 C 
BRANCH   2   3
ATOM      3  C   UNL     1      41.662  62.903   8.799  1.00  0.00     0.000 C 
BRANCH   3   4
ATOM      4  C   UNL     1      42.496  62.214   7.705  1.00  0.00     0.000 C 
BRANCH   4   5
ATOM      5  C   UNL     1      43.479  63.163   6.987  1.00  0.00     0.000 C 
BRANCH   5   6
ATOM      6  C   UNL     1      42.761  64.116   6.015  1.00  0.00     0.000 C 
BRANCH   6   7
ATOM      7  C   UNL     1      43.395  65.521   5.980  1.00  0.00     0.006 C 
BRANCH   7   8
ATOM      8  C   UNL     1      43.417  66.221   7.349  1.00  0.00     0.053 C 
BRANCH   8   9
ATOM      9  C   UNL     1      42.138  66.942   7.644  1.00  0.00     0.041 C 
ATOM     10  O   UNL     1      41.285  66.431   8.416  1.00  0.00    -0.550 OA
ATOM     11  O   UNL     1      41.887  68.180   7.065  1.00  0.00    -0.550 OA
ENDBRANCH   8   9
ENDBRANCH   7   8
ENDBRANCH   6   7
ENDBRANCH   5   6
ENDBRANCH   4   5
ENDBRANCH   3   4
ENDBRANCH   2   3
ENDBRANCH   1   2
BRANCH   1  12
ATOM     12  C   UNL     1      42.651  63.533  12.503  1.00  0.00     0.000 C 
BRANCH  12  13
ATOM     13  C   UNL     1      44.141  63.486  12.131  1.00  0.00    -0.000 C 
BRANCH  13  14
ATOM     14  C   UNL     1      44.958  62.584  13.066  1.00  0.00    -0.000 C 
BRANCH  14  15
ATOM     15  C   UNL     1      44.074  61.498  13.692  1.00  0.00    -0.000 C 
BRANCH  15  16
ATOM     16  C   UNL     1      44.204  60.173  12.932  1.00  0.00    -0.000 C 
BRANCH  16  17
ATOM     17  C   UNL     1      42.885  59.800  12.246  1.00  0.00    -0.000 C 
BRANCH  17  18
ATOM     18  C   UNL     1      43.044  59.772  10.719  1.00  0.00    -0.000 C 
BRANCH  18  19
ATOM     19  C   UNL     1      44.444  60.211  10.264  1.00  0.00    -0.003 C 
ATOM     20  C   UNL     1      44.852  59.593   8.926  1.00  0.00     0.004 C 
ENDBRANCH  18  19
ENDBRANCH  17  18
ENDBRANCH  16  17
ENDBRANCH  15  16
ENDBRANCH  14  15
ENDBRANCH  13  14
ENDBRANCH  12  13
ENDBRANCH   1  12
TORSDOF 16
ENDMDL
MODEL 3
REMARK VINA RESULT:    -4.488      1.458      3.481
REMARK INTER + INTRA:         -11.081
REMARK INTER:                  -8.579
REMARK INTRA:                  -2.502
REMARK UNBOUND:                -2.396
REMARK SMILES CCCCCCCCCCCCCCCCCC(=O)[O-]
REMARK SMILES IDX 10 1 11 2 12 3 13 4 14 5 15 6 16 7 17 8 18 9 19 10 20 11
REMARK SMILES IDX 9 12 8 13 7 14 6 15 5 16 4 17 3 18 2 19 1 20
REMARK H PARENT
REMARK Flexibility Score: inf
ROOT
ATOM      1  C   UNL     1      44.183  63.759  12.233  1.00  0.00     0.000 C 
ENDROOT
BRANCH   1   2
ATOM      2  C   UNL     1      42.674  63.502  12.320  1.00  0.00     0.000 C 
BRANCH   2   3
ATOM      3  C   UNL     1      42.064  63.307  10.926  1.00  0.00     0.000 C 
BRANCH   3   4
ATOM      4  C   UNL     1      42.463  64.416   9.936  1.00  0.00     0.000 C 
BRANCH   4   5
ATOM      5  C   UNL     1      41.274  64.980   9.129  1.00  0.00     0.000 C 
BRANCH   5   6
ATOM      6  C   UNL     1      41.574  65.043   7.620  1.00  0.00     0.000 C 
BRANCH   6   7
ATOM      7  C   UNL     1      43.071  65.253   7.319  1.00  0.00     0.006 C 
BRANCH   7   8
ATOM      8  C   UNL     1      43.511  64.689   5.957  1.00  0.00     0.053 C 
BRANCH   8   9
ATOM      9  C   UNL     1      43.330  65.674   4.844  1.00  0.00     0.041 C 
ATOM     10  O   UNL     1      43.519  65.323   3.649  1.00  0.00    -0.550 OA
ATOM     11  O   UNL     1      42.953  66.981   5.125  1.00  0.00    -0.550 OA
ENDBRANCH   8   9
ENDBRANCH   7   8
ENDBRANCH   6   7
ENDBRANCH   5   6
ENDBRANCH   4   5
ENDBRANCH   3   4
ENDBRANCH   2   3
ENDBRANCH   1   2
BRANCH   1  12
ATOM     12  C   UNL     1      44.965  62.708  13.035  1.00  0.00     0.000 C 
BRANCH  12  13
ATOM     13  C   UNL     1      44.055  61.635  13.653  1.00  0.00    -0.000 C 
BRANCH  13  14
ATOM     14  C   UNL     1      44.261  60.249  13.025  1.00  0.00    -0.000 C 
BRANCH  14  15
ATOM     15  C   UNL     1      42.950  59.713  12.437  1.00  0.00    -0.000 C 
BRANCH  15  16
ATOM     16  C   UNL     1      42.986  59.724  10.904  1.00  0.00    -0.000 C 
BRANCH  16  17
ATOM     17  C   UNL     1      44.296  60.329  10.388  1.00  0.00    -0.000 C 
BRANCH  17  18
ATOM     18  C   UNL     1      44.392  60.220   8.860  1.00  0.00    -0.000 C 
BRANCH  18  19
ATOM     19  C   UNL     1      43.931  61.501   8.148  1.00  0.00    -0.003 C 
ATOM     20  C   UNL     1      42.499  61.403   7.620  1.00  0.00     0.004 C 
ENDBRANCH  18  19
ENDBRANCH  17  18
ENDBRANCH  16  17
ENDBRANCH  15  16
ENDBRANCH  14  15
ENDBRANCH  13  14
ENDBRANCH  12  13
ENDBRANCH   1  12
TORSDOF 16
ENDMDL
MODEL 4
REMARK VINA RESULT:    -4.379      1.346      2.053
REMARK INTER + INTRA:         -10.870
REMARK INTER:                  -7.874
REMARK INTRA:                  -2.997
REMARK UNBOUND:                -2.396
REMARK SMILES CCCCCCCCCCCCCCCCCC(=O)[O-]
REMARK SMILES IDX 10 1 11 2 12 3 13 4 14 5 15 6 16 7 17 8 18 9 19 10 20 11
REMARK SMILES IDX 9 12 8 13 7 14 6 15 5 16 4 17 3 18 2 19 1 20
REMARK H PARENT
REMARK Flexibility Score: inf
ROOT
ATOM      1  C   UNL     1      44.232  60.406   8.852  1.00  0.00     0.000 C 
ENDROOT
BRANCH   1   2
ATOM      2  C   UNL     1      43.412  61.695   8.730  1.00  0.00     0.000 C 
BRANCH   2   3
ATOM      3  C   UNL     1      43.524  62.291   7.320  1.00  0.00     0.000 C 
BRANCH   3   4
ATOM      4  C   UNL     1      42.160  62.691   6.729  1.00  0.00     0.000 C 
BRANCH   4   5
ATOM      5  C   UNL     1      41.085  62.985   7.796  1.00  0.00     0.000 C 
BRANCH   5   6
ATOM      6  C   UNL     1      40.593  64.443   7.739  1.00  0.00     0.000 C 
BRANCH   6   7
ATOM      7  C   UNL     1      41.155  65.306   8.886  1.00  0.00     0.006 C 
BRANCH   7   8
ATOM      8  C   UNL     1      42.642  65.661   8.720  1.00  0.00     0.053 C 
BRANCH   8   9
ATOM      9  C   UNL     1      42.907  66.452   7.478  1.00  0.00     0.041 C 
ATOM     10  O   UNL     1      43.602  65.961   6.549  1.00  0.00    -0.550 OA
ATOM     11  O   UNL     1      42.389  67.734   7.345  1.00  0.00    -0.550 OA
ENDBRANCH   8   9
ENDBRANCH   7   8
ENDBRANCH   6   7
ENDBRANCH   5   6
ENDBRANCH   4   5
ENDBRANCH   3   4
ENDBRANCH   2   3
ENDBRANCH   1   2
BRANCH   1  12
ATOM     12  C   UNL     1      44.188  59.864  10.288  1.00  0.00     0.000 C 
BRANCH  12  13
ATOM     13  C   UNL     1      45.025  60.702  11.266  1.00  0.00    -0.000 C 
BRANCH  13  14
ATOM     14  C   UNL     1      44.545  60.574  12.719  1.00  0.00    -0.000 C 
BRANCH  14  15
ATOM     15  C   UNL     1      44.198  61.949  13.305  1.00  0.00    -0.000 C 
BRANCH  15  16
ATOM     16  C   UNL     1      44.566  63.074  12.332  1.00  0.00    -0.000 C 
BRANCH  16  17
ATOM     17  C   UNL     1      43.311  63.793  11.821  1.00  0.00    -0.000 C 
BRANCH  17  18
ATOM     18  C   UNL     1      42.054  63.292  12.546  1.00  0.00    -0.000 C 
BRANCH  18  19
ATOM     19  C   UNL     1      40.964  62.815  11.575  1.00  0.00    -0.003 C 
ATOM     20  C   UNL     1      40.915  61.292  11.442  1.00  0.00     0.004 C 
ENDBRANCH  18  19
ENDBRANCH  17  18
ENDBRANCH  16  17
ENDBRANCH  15  16
ENDBRANCH  14  15
ENDBRANCH  13  14
ENDBRANCH  12  13
ENDBRANCH   1  12
TORSDOF 16
ENDMDL
MODEL 5
REMARK VINA RESULT:    -4.362      2.516      5.880
REMARK INTER + INTRA:         -10.838
REMARK INTER:                  -8.544
REMARK INTRA:                  -2.294
REMARK UNBOUND:                -2.396
REMARK SMILES CCCCCCCCCCCCCCCCCC(=O)[O-]
REMARK SMILES IDX 10 1 11 2 12 3 13 4 14 5 15 6 16 7 17 8 18 9 19 10 20 11
REMARK SMILES IDX 9 12 8 13 7 14 6 15 5 16 4 17 3 18 2 19 1 20
REMARK H PARENT
REMARK Flexibility Score: inf
ROOT
ATOM      1  C   UNL     1      44.456  60.738   8.616  1.00  0.00     0.000 C 
ENDROOT
BRANCH   1   2
ATOM      2  C   UNL     1      44.452  60.002   9.961  1.00  0.00     0.000 C 
BRANCH   2   3
ATOM      3  C   UNL     1      45.308  60.741  10.998  1.00  0.00     0.000 C 
BRANCH   3   4
ATOM      4  C   UNL     1      44.718  60.675  12.418  1.00  0.00     0.000 C 
BRANCH   4   5
ATOM      5  C   UNL     1      44.685  62.040  13.139  1.00  0.00     0.000 C 
BRANCH   5   6
ATOM      6  C   UNL     1      44.386  63.199  12.171  1.00  0.00     0.000 C 
BRANCH   6   7
ATOM      7  C   UNL     1      42.942  63.724  12.299  1.00  0.00     0.006 C 
BRANCH   7   8
ATOM      8  C   UNL     1      41.998  62.761  13.039  1.00  0.00     0.053 C 
BRANCH   8   9
ATOM      9  C   UNL     1      41.004  62.117  12.124  1.00  0.00     0.041 C 
ATOM     10  O   UNL     1      39.861  62.623  11.972  1.00  0.00    -0.550 OA
ATOM     11  O   UNL     1      41.338  60.954  11.440  1.00  0.00    -0.550 OA
ENDBRANCH   8   9
ENDBRANCH   7   8
ENDBRANCH   6   7
ENDBRANCH   5   6
ENDBRANCH   4   5
ENDBRANCH   3   4
ENDBRANCH   2   3
ENDBRANCH   1   2
BRANCH   1  12
ATOM     12  C   UNL     1      43.067  61.312   8.302  1.00  0.00     0.000 C 
BRANCH  12  13
ATOM     13  C   UNL     1      42.923  62.783   8.721  1.00  0.00    -0.000 C 
BRANCH  13  14
ATOM     14  C   UNL     1      41.471  63.279   8.657  1.00  0.00    -0.000 C 
BRANCH  14  15
ATOM     15  C   UNL     1      41.381  64.762   9.035  1.00  0.00    -0.000 C 
BRANCH  15  16
ATOM     16  C   UNL     1      41.227  65.643   7.789  1.00  0.00    -0.000 C 
BRANCH  16  17
ATOM     17  C   UNL     1      42.330  66.705   7.726  1.00  0.00    -0.000 C 
BRANCH  17  18
ATOM     18  C   UNL     1      43.563  66.178   6.979  1.00  0.00    -0.000 C 
BRANCH  18  19
ATOM     19  C   UNL     1      43.197  65.205   5.849  1.00  0.00    -0.003 C 
ATOM     20  C   UNL     1      43.457  65.786   4.458  1.00  0.00     0.004 C 
ENDBRANCH  18  19
ENDBRANCH  17  18
ENDBRANCH  16  17
ENDBRANCH  15  16
ENDBRANCH  14  15
ENDBRANCH  13  14
ENDBRANCH  12  13
ENDBRANCH   1  12
TORSDOF 16
ENDMDL
MODEL 6
REMARK VINA RESULT:    -4.361      1.250      2.222
REMARK INTER + INTRA:         -10.836
REMARK INTER:                  -8.044
REMARK INTRA:                  -2.792
REMARK UNBOUND:                -2.396
REMARK SMILES CCCCCCCCCCCCCCCCCC(=O)[O-]
REMARK SMILES IDX 10 1 11 2 12 3 13 4 14 5 15 6 16 7 17 8 18 9 19 10 20 11
REMARK SMILES IDX 9 12 8 13 7 14 6 15 5 16 4 17 3 18 2 19 1 20
REMARK H PARENT
REMARK Flexibility Score: inf
ROOT
ATOM      1  C   UNL     1      44.839  60.411  11.328  1.00  0.00     0.000 C 
ENDROOT
BRANCH   1   2
ATOM      2  C   UNL     1      43.806  59.978  10.281  1.00  0.00     0.000 C 
BRANCH   2   3
ATOM      3  C   UNL     1      43.826  60.912   9.064  1.00  0.00     0.000 C 
BRANCH   3   4
ATOM      4  C   UNL     1      42.590  60.746   8.161  1.00  0.00     0.000 C 
BRANCH   4   5
ATOM      5  C   UNL     1      42.249  62.009   7.342  1.00  0.00     0.000 C 
BRANCH   5   6
ATOM      6  C   UNL     1      43.501  62.840   7.007  1.00  0.00     0.000 C 
BRANCH   6   7
ATOM      7  C   UNL     1      43.162  64.183   6.332  1.00  0.00     0.006 C 
BRANCH   7   8
ATOM      8  C   UNL     1      42.769  65.291   7.324  1.00  0.00     0.053 C 
BRANCH   8   9
ATOM      9  C   UNL     1      42.760  66.648   6.693  1.00  0.00     0.041 C 
ATOM     10  O   UNL     1      42.407  67.656   7.360  1.00  0.00    -0.550 OA
ATOM     11  O   UNL     1      43.141  66.801   5.365  1.00  0.00    -0.550 OA
ENDBRANCH   8   9
ENDBRANCH   7   8
ENDBRANCH   6   7
ENDBRANCH   5   6
ENDBRANCH   4   5
ENDBRANCH   3   4
ENDBRANCH   2   3
ENDBRANCH   1   2
BRANCH   1  12
ATOM     12  C   UNL     1      44.290  60.222  12.749  1.00  0.00     0.000 C 
BRANCH  12  13
ATOM     13  C   UNL     1      43.954  61.554  13.438  1.00  0.00    -0.000 C 
BRANCH  13  14
ATOM     14  C   UNL     1      45.004  62.642  13.170  1.00  0.00    -0.000 C 
BRANCH  14  15
ATOM     15  C   UNL     1      44.430  63.750  12.279  1.00  0.00    -0.000 C 
BRANCH  15  16
ATOM     16  C   UNL     1      42.900  63.682  12.228  1.00  0.00    -0.000 C 
BRANCH  16  17
ATOM     17  C   UNL     1      42.391  63.810  10.787  1.00  0.00    -0.000 C 
BRANCH  17  18
ATOM     18  C   UNL     1      41.002  63.173  10.633  1.00  0.00    -0.000 C 
BRANCH  18  19
ATOM     19  C   UNL     1      40.688  62.166  11.749  1.00  0.00    -0.003 C 
ATOM     20  C   UNL     1      40.356  60.772  11.212  1.00  0.00     0.004 C 
ENDBRANCH  18  19
ENDBRANCH  17  18
ENDBRANCH  16  17
ENDBRANCH  15  16
ENDBRANCH  14  15
ENDBRANCH  13  14
ENDBRANCH  12  13
ENDBRANCH   1  12
TORSDOF 16
ENDMDL
MODEL 7
REMARK VINA RESULT:    -4.340      2.000      4.304
REMARK INTER + INTRA:         -10.794
REMARK INTER:                  -7.562
REMARK INTRA:                  -3.232
REMARK UNBOUND:                -2.396
REMARK SMILES CCCCCCCCCCCCCCCCCC(=O)[O-]
REMARK SMILES IDX 10 1 11 2 12 3 13 4 14 5 15 6 16 7 17 8 18 9 19 10 20 11
REMARK SMILES IDX 9 12 8 13 7 14 6 15 5 16 4 17 3 18 2 19 1 20
REMARK H PARENT
REMARK Flexibility Score: inf
ROOT
ATOM      1  C   UNL     1      43.653  63.769  12.252  1.00  0.00     0.000 C 
ENDROOT
BRANCH   1   2
ATOM      2  C   UNL     1      42.233  63.303  11.913  1.00  0.00     0.000 C 
BRANCH   2   3
ATOM      3  C   UNL     1      41.319  63.373  13.144  1.00  0.00     0.000 C 
BRANCH   3   4
ATOM      4  C   UNL     1      39.875  62.931  12.844  1.00  0.00     0.000 C 
BRANCH   4   5
ATOM      5  C   UNL     1      39.732  62.140  11.527  1.00  0.00     0.000 C 
BRANCH   5   6
ATOM      6  C   UNL     1      38.832  62.865  10.509  1.00  0.00     0.000 C 
BRANCH   6   7
ATOM      7  C   UNL     1      39.559  63.171   9.185  1.00  0.00     0.006 C 
BRANCH   7   8
ATOM      8  C   UNL     1      40.149  64.590   9.119  1.00  0.00     0.053 C 
BRANCH   8   9
ATOM      9  C   UNL     1      41.482  64.625   8.438  1.00  0.00     0.041 C 
ATOM     10  O   UNL     1      41.646  64.045   7.333  1.00  0.00    -0.550 OA
ATOM     11  O   UNL     1      42.547  65.298   9.026  1.00  0.00    -0.550 OA
ENDBRANCH   8   9
ENDBRANCH   7   8
ENDBRANCH   6   7
ENDBRANCH   5   6
ENDBRANCH   4   5
ENDBRANCH   3   4
ENDBRANCH   2   3
ENDBRANCH   1   2
BRANCH   1  12
ATOM     12  C   UNL     1      44.664  62.628  12.062  1.00  0.00     0.000 C 
BRANCH  12  13
ATOM     13  C   UNL     1      44.636  61.612  13.213  1.00  0.00    -0.000 C 
BRANCH  13  14
ATOM     14  C   UNL     1      44.287  60.192  12.743  1.00  0.00    -0.000 C 
BRANCH  14  15
ATOM     15  C   UNL     1      42.809  59.876  13.001  1.00  0.00    -0.000 C 
BRANCH  15  16
ATOM     16  C   UNL     1      42.088  59.501  11.701  1.00  0.00    -0.000 C 
BRANCH  16  17
ATOM     17  C   UNL     1      43.020  59.649  10.493  1.00  0.00    -0.000 C 
BRANCH  17  18
ATOM     18  C   UNL     1      42.468  60.673   9.491  1.00  0.00    -0.000 C 
BRANCH  18  19
ATOM     19  C   UNL     1      43.571  61.321   8.641  1.00  0.00    -0.003 C 
ATOM     20  C   UNL     1      44.946  60.693   8.877  1.00  0.00     0.004 C 
ENDBRANCH  18  19
ENDBRANCH  17  18
ENDBRANCH  16  17
ENDBRANCH  15  16
ENDBRANCH  14  15
ENDBRANCH  13  14
ENDBRANCH  12  13
ENDBRANCH   1  12
TORSDOF 16
ENDMDL
MODEL 8
REMARK VINA RESULT:    -4.328      2.411      5.808
REMARK INTER + INTRA:         -10.772
REMARK INTER:                  -8.674
REMARK INTRA:                  -2.098
REMARK UNBOUND:                -2.396
REMARK SMILES CCCCCCCCCCCCCCCCCC(=O)[O-]
REMARK SMILES IDX 10 1 11 2 12 3 13 4 14 5 15 6 16 7 17 8 18 9 19 10 20 11
REMARK SMILES IDX 9 12 8 13 7 14 6 15 5 16 4 17 3 18 2 19 1 20
REMARK H PARENT
REMARK Flexibility Score: inf
ROOT
ATOM      1  C   UNL     1      45.241  60.388  10.140  1.00  0.00     0.000 C 
ENDROOT
BRANCH   1   2
ATOM      2  C   UNL     1      44.276  60.493  11.326  1.00  0.00     0.000 C 
BRANCH   2   3
ATOM      3  C   UNL     1      44.997  60.998  12.583  1.00  0.00     0.000 C 
BRANCH   3   4
ATOM      4  C   UNL     1      44.451  62.347  13.085  1.00  0.00     0.000 C 
BRANCH   4   5
ATOM      5  C   UNL     1      44.238  63.385  11.962  1.00  0.00     0.000 C 
BRANCH   5   6
ATOM      6  C   UNL     1      42.769  63.832  11.856  1.00  0.00     0.000 C 
BRANCH   6   7
ATOM      7  C   UNL     1      41.888  63.255  12.982  1.00  0.00     0.006 C 
BRANCH   7   8
ATOM      8  C   UNL     1      40.417  63.062  12.576  1.00  0.00     0.053 C 
BRANCH   8   9
ATOM      9  C   UNL     1      40.260  62.133  11.413  1.00  0.00     0.041 C 
ATOM     10  O   UNL     1      39.768  62.548  10.331  1.00  0.00    -0.550 OA
ATOM     11  O   UNL     1      40.657  60.806  11.523  1.00  0.00    -0.550 OA
ENDBRANCH   8   9
ENDBRANCH   7   8
ENDBRANCH   6   7
ENDBRANCH   5   6
ENDBRANCH   4   5
ENDBRANCH   3   4
ENDBRANCH   2   3
ENDBRANCH   1   2
BRANCH   1  12
ATOM     12  C   UNL     1      44.512  60.654   8.815  1.00  0.00     0.000 C 
BRANCH  12  13
ATOM     13  C   UNL     1      43.055  61.098   9.017  1.00  0.00    -0.000 C 
BRANCH  13  14
ATOM     14  C   UNL     1      42.767  62.482   8.416  1.00  0.00    -0.000 C 
BRANCH  14  15
ATOM     15  C   UNL     1      43.491  62.659   7.076  1.00  0.00    -0.000 C 
BRANCH  15  16
ATOM     16  C   UNL     1      42.763  63.670   6.182  1.00  0.00    -0.000 C 
BRANCH  16  17
ATOM     17  C   UNL     1      43.639  64.900   5.916  1.00  0.00    -0.000 C 
BRANCH  17  18
ATOM     18  C   UNL     1      42.780  66.139   5.627  1.00  0.00    -0.000 C 
BRANCH  18  19
ATOM     19  C   UNL     1      42.565  67.011   6.873  1.00  0.00    -0.003 C 
ATOM     20  C   UNL     1      43.572  66.712   7.986  1.00  0.00     0.004 C 
ENDBRANCH  18  19
ENDBRANCH  17  18
ENDBRANCH  16  17
ENDBRANCH  15  16
ENDBRANCH  14  15
ENDBRANCH  13  14
ENDBRANCH  12  13
ENDBRANCH   1  12
TORSDOF 16
ENDMDL
MODEL 9
REMARK VINA RESULT:    -4.304      1.494      2.749
REMARK INTER + INTRA:         -10.726
REMARK INTER:                  -7.908
REMARK INTRA:                  -2.818
REMARK UNBOUND:                -2.396
REMARK SMILES CCCCCCCCCCCCCCCCCC(=O)[O-]
REMARK SMILES IDX 10 1 11 2 12 3 13 4 14 5 15 6 16 7 17 8 18 9 19 10 20 11
REMARK SMILES IDX 9 12 8 13 7 14 6 15 5 16 4 17 3 18 2 19 1 20
REMARK H PARENT
REMARK Flexibility Score: inf
ROOT
ATOM      1  C   UNL     1      44.592  61.072   9.053  1.00  0.00     0.000 C 
ENDROOT
BRANCH   1   2
ATOM      2  C   UNL     1      43.354  61.223   8.162  1.00  0.00     0.000 C 
BRANCH   2   3
ATOM      3  C   UNL     1      43.030  62.702   7.910  1.00  0.00     0.000 C 
BRANCH   3   4
ATOM      4  C   UNL     1      41.526  63.011   8.004  1.00  0.00     0.000 C 
BRANCH   4   5
ATOM      5  C   UNL     1      41.194  64.185   8.950  1.00  0.00     0.000 C 
BRANCH   5   6
ATOM      6  C   UNL     1      42.382  65.150   9.116  1.00  0.00     0.000 C 
BRANCH   6   7
ATOM      7  C   UNL     1      42.326  66.337   8.133  1.00  0.00     0.006 C 
BRANCH   7   8
ATOM      8  C   UNL     1      43.529  66.402   7.177  1.00  0.00     0.053 C 
BRANCH   8   9
ATOM      9  C   UNL     1      43.149  66.111   5.758  1.00  0.00     0.041 C 
ATOM     10  O   UNL     1      42.484  66.949   5.095  1.00  0.00    -0.550 OA
ATOM     11  O   UNL     1      43.529  64.912   5.168  1.00  0.00    -0.550 OA
ENDBRANCH   8   9
ENDBRANCH   7   8
ENDBRANCH   6   7
ENDBRANCH   5   6
ENDBRANCH   4   5
ENDBRANCH   3   4
ENDBRANCH   2   3
ENDBRANCH   1   2
BRANCH   1  12
ATOM     12  C   UNL     1      44.363  60.003  10.132  1.00  0.00     0.000 C 
BRANCH  12  13
ATOM     13  C   UNL     1      42.888  59.595  10.261  1.00  0.00    -0.000 C 
BRANCH  13  14
ATOM     14  C   UNL     1      42.222  60.165  11.522  1.00  0.00    -0.000 C 
BRANCH  14  15
ATOM     15  C   UNL     1      41.054  61.089  11.155  1.00  0.00    -0.000 C 
BRANCH  15  16
ATOM     16  C   UNL     1      40.946  62.261  12.138  1.00  0.00    -0.000 C 
BRANCH  16  17
ATOM     17  C   UNL     1      42.257  62.457  12.907  1.00  0.00    -0.000 C 
BRANCH  17  18
ATOM     18  C   UNL     1      43.126  63.540  12.251  1.00  0.00    -0.000 C 
BRANCH  18  19
ATOM     19  C   UNL     1      44.622  63.349  12.537  1.00  0.00    -0.003 C 
ATOM     20  C   UNL     1      44.923  62.039  13.267  1.00  0.00     0.004 C 
ENDBRANCH  18  19
ENDBRANCH  17  18
ENDBRANCH  16  17
ENDBRANCH  15  16
ENDBRANCH  14  15
ENDBRANCH  13  14
ENDBRANCH  12  13
ENDBRANCH   1  12
TORSDOF 16
ENDMDL
