MODEL 1
REMARK VINA RESULT:    -4.558      0.000      0.000
REMARK INTER + INTRA:         -10.982
REMARK INTER:                  -9.887
REMARK INTRA:                  -1.095
REMARK UNBOUND:                -1.095
REMARK SMILES CCCCCCCCCCCCCCCCCCCCCC(=O)[O-]
REMARK SMILES IDX 12 1 11 2 10 3 9 4 8 5 7 6 6 7 5 8 4 9 3 10 2 11 1 12 13 13
REMARK SMILES IDX 14 14 15 15 16 16 17 17 18 18 19 19 20 20 21 21 22 22 23 23
REMARK SMILES IDX 24 24
REMARK H PARENT
REMARK Flexibility Score: inf
ROOT
ATOM      1  C   UNL     1       7.826   9.396   2.942  1.00  0.00     0.000 C 
ENDROOT
BRANCH   1   2
ATOM      2  C   UNL     1       6.800  10.003   3.922  1.00  0.00     0.000 C 
BRANCH   2   3
ATOM      3  C   UNL     1       6.769   9.359   5.322  1.00  0.00     0.000 C 
BRANCH   3   4
ATOM      4  C   UNL     1       6.094  10.211   6.416  1.00  0.00    -0.000 C 
BRANCH   4   5
ATOM      5  C   UNL     1       6.207   9.643   7.844  1.00  0.00    -0.000 C 
BRANCH   5   6
ATOM      6  C   UNL     1       4.878   9.553   8.622  1.00  0.00    -0.000 C 
BRANCH   6   7
ATOM      7  C   UNL     1       3.770  10.496   8.124  1.00  0.00    -0.000 C 
BRANCH   7   8
ATOM      8  C   UNL     1       2.453  10.327   8.900  1.00  0.00    -0.000 C 
BRANCH   8   9
ATOM      9  C   UNL     1       1.641   9.111   8.412  1.00  0.00    -0.000 C 
BRANCH   9  10
ATOM     10  C   UNL     1       0.564   8.648   9.411  1.00  0.00    -0.000 C 
BRANCH  10  11
ATOM     11  C   UNL     1       0.891   7.280  10.027  1.00  0.00    -0.003 C 
ATOM     12  C   UNL     1       1.979   6.562   9.232  1.00  0.00     0.004 C 
ENDBRANCH  10  11
ENDBRANCH   9  10
ENDBRANCH   8   9
ENDBRANCH   7   8
ENDBRANCH   6   7
ENDBRANCH   5   6
ENDBRANCH   4   5
ENDBRANCH   3   4
ENDBRANCH   2   3
ENDBRANCH   1   2
BRANCH   1  13
ATOM     13  C   UNL     1       8.663   8.236   3.513  1.00  0.00     0.000 C 
BRANCH  13  14
ATOM     14  C   UNL     1       8.684   7.008   2.585  1.00  0.00     0.000 C 
BRANCH  14  15
ATOM     15  C   UNL     1       7.541   7.014   1.552  1.00  0.00     0.000 C 
BRANCH  15  16
ATOM     16  C   UNL     1       7.633   5.928   0.462  1.00  0.00     0.000 C 
BRANCH  16  17
ATOM     17  C   UNL     1       7.428   4.485   0.959  1.00  0.00     0.000 C 
BRANCH  17  18
ATOM     18  C   UNL     1       6.943   3.536  -0.147  1.00  0.00     0.000 C 
BRANCH  18  19
ATOM     19  C   UNL     1       6.414   2.225   0.456  1.00  0.00     0.000 C 
BRANCH  19  20
ATOM     20  C   UNL     1       6.068   1.171  -0.612  1.00  0.00     0.006 C 
BRANCH  20  21
ATOM     21  C   UNL     1       6.444   1.579  -2.046  1.00  0.00     0.053 C 
BRANCH  21  22
ATOM     22  C   UNL     1       7.403   0.615  -2.674  1.00  0.00     0.041 C 
ATOM     23  O   UNL     1       8.584   0.526  -2.242  1.00  0.00    -0.550 OA
ATOM     24  O   UNL     1       7.005  -0.164  -3.753  1.00  0.00    -0.550 OA
ENDBRANCH  21  22
ENDBRANCH  20  21
ENDBRANCH  19  20
ENDBRANCH  18  19
ENDBRANCH  17  18
ENDBRANCH  16  17
ENDBRANCH  15  16
ENDBRANCH  14  15
ENDBRANCH  13  14
ENDBRANCH   1  13
TORSDOF 20
ENDMDL
MODEL 2
REMARK VINA RESULT:    -4.536      7.909     10.712
REMARK INTER + INTRA:         -10.936
REMARK INTER:                  -7.552
REMARK INTRA:                  -3.383
REMARK UNBOUND:                -1.095
REMARK SMILES CCCCCCCCCCCCCCCCCCCCCC(=O)[O-]
REMARK SMILES IDX 12 1 11 2 10 3 9 4 8 5 7 6 6 7 5 8 4 9 3 10 2 11 1 12 13 13
REMARK SMILES IDX 14 14 15 15 16 16 17 17 18 18 19 19 20 20 21 21 22 22 23 23
REMARK SMILES IDX 24 24
REMARK H PARENT
REMARK Flexibility Score: inf
ROOT
ATOM      1  C   UNL     1       2.321   7.014   9.025  1.00  0.00     0.000 C 
ENDROOT
BRANCH   1   2
ATOM      2  C   UNL     1       1.289   6.126   9.750  1.00  0.00     0.000 C 
BRANCH   2   3
ATOM      3  C   UNL     1       1.541   5.924  11.258  1.00  0.00     0.000 C 
BRANCH   3   4
ATOM      4  C   UNL     1       2.983   6.211  11.722  1.00  0.00    -0.000 C 
BRANCH   4   5
ATOM      5  C   UNL     1       3.444   5.399  12.949  1.00  0.00    -0.000 C 
BRANCH   5   6
ATOM      6  C   UNL     1       4.551   4.361  12.671  1.00  0.00    -0.000 C 
BRANCH   6   7
ATOM      7  C   UNL     1       4.163   3.248  11.683  1.00  0.00    -0.000 C 
BRANCH   7   8
ATOM      8  C   UNL     1       3.438   2.075  12.364  1.00  0.00    -0.000 C 
BRANCH   8   9
ATOM      9  C   UNL     1       2.592   1.256  11.370  1.00  0.00    -0.000 C 
BRANCH   9  10
ATOM     10  C   UNL     1       1.472   2.070  10.697  1.00  0.00    -0.000 C 
BRANCH  10  11
ATOM     11  C   UNL     1       0.440   2.587  11.710  1.00  0.00    -0.003 C 
ATOM     12  C   UNL     1      -0.084   1.456  12.591  1.00  0.00     0.004 C 
ENDBRANCH  10  11
ENDBRANCH   9  10
ENDBRANCH   8   9
ENDBRANCH   7   8
ENDBRANCH   6   7
ENDBRANCH   5   6
ENDBRANCH   4   5
ENDBRANCH   3   4
ENDBRANCH   2   3
ENDBRANCH   1   2
BRANCH   1  13
ATOM     13  C   UNL     1       1.725   8.213   8.263  1.00  0.00     0.000 C 
BRANCH  13  14
ATOM     14  C   UNL     1       0.520   8.836   8.991  1.00  0.00     0.000 C 
BRANCH  14  15
ATOM     15  C   UNL     1       0.908  10.032   9.882  1.00  0.00     0.000 C 
BRANCH  15  16
ATOM     16  C   UNL     1       0.781   9.790  11.399  1.00  0.00     0.000 C 
BRANCH  16  17
ATOM     17  C   UNL     1       2.114   9.733  12.166  1.00  0.00     0.000 C 
BRANCH  17  18
ATOM     18  C   UNL     1       3.251  10.472  11.444  1.00  0.00     0.000 C 
BRANCH  18  19
ATOM     19  C   UNL     1       4.359   9.491  11.029  1.00  0.00     0.000 C 
BRANCH  19  20
ATOM     20  C   UNL     1       5.241  10.032   9.888  1.00  0.00     0.006 C 
BRANCH  20  21
ATOM     21  C   UNL     1       4.479  10.860   8.840  1.00  0.00     0.053 C 
BRANCH  21  22
ATOM     22  C   UNL     1       4.662  10.323   7.454  1.00  0.00     0.041 C 
ATOM     23  O   UNL     1       5.136   9.168   7.282  1.00  0.00    -0.550 OA
ATOM     24  O   UNL     1       4.339  11.105   6.353  1.00  0.00    -0.550 OA
ENDBRANCH  21  22
ENDBRANCH  20  21
ENDBRANCH  19  20
ENDBRANCH  18  19
ENDBRANCH  17  18
ENDBRANCH  16  17
ENDBRANCH  15  16
ENDBRANCH  14  15
ENDBRANCH  13  14
ENDBRANCH   1  13
TORSDOF 20
ENDMDL
MODEL 3
REMARK VINA RESULT:    -4.492      8.362     10.241
REMARK INTER + INTRA:         -10.839
REMARK INTER:                  -7.200
REMARK INTRA:                  -3.639
REMARK UNBOUND:                -1.095
REMARK SMILES CCCCCCCCCCCCCCCCCCCCCC(=O)[O-]
REMARK SMILES IDX 12 1 11 2 10 3 9 4 8 5 7 6 6 7 5 8 4 9 3 10 2 11 1 12 13 13
REMARK SMILES IDX 14 14 15 15 16 16 17 17 18 18 19 19 20 20 21 21 22 22 23 23
REMARK SMILES IDX 24 24
REMARK H PARENT
REMARK Flexibility Score: inf
ROOT
ATOM      1  C   UNL     1       1.379   3.688  10.851  1.00  0.00     0.000 C 
ENDROOT
BRANCH   1   2
ATOM      2  C   UNL     1       1.802   4.851  11.772  1.00  0.00     0.000 C 
BRANCH   2   3
ATOM      3  C   UNL     1       1.627   6.261  11.173  1.00  0.00     0.000 C 
BRANCH   3   4
ATOM      4  C   UNL     1       1.228   6.291   9.683  1.00  0.00    -0.000 C 
BRANCH   4   5
ATOM      5  C   UNL     1       2.138   7.151   8.784  1.00  0.00    -0.000 C 
BRANCH   5   6
ATOM      6  C   UNL     1       1.485   8.427   8.217  1.00  0.00    -0.000 C 
BRANCH   6   7
ATOM      7  C   UNL     1       2.290   9.720   8.436  1.00  0.00    -0.000 C 
BRANCH   7   8
ATOM      8  C   UNL     1       2.838   9.842   9.868  1.00  0.00    -0.000 C 
BRANCH   8   9
ATOM      9  C   UNL     1       1.940  10.718  10.763  1.00  0.00    -0.000 C 
BRANCH   9  10
ATOM     10  C   UNL     1       1.158   9.919  11.822  1.00  0.00    -0.000 C 
BRANCH  10  11
ATOM     11  C   UNL     1      -0.213   9.457  11.306  1.00  0.00    -0.003 C 
ATOM     12  C   UNL     1      -0.847  10.512  10.402  1.00  0.00     0.004 C 
ENDBRANCH  10  11
ENDBRANCH   9  10
ENDBRANCH   8   9
ENDBRANCH   7   8
ENDBRANCH   6   7
ENDBRANCH   5   6
ENDBRANCH   4   5
ENDBRANCH   3   4
ENDBRANCH   2   3
ENDBRANCH   1   2
BRANCH   1  13
ATOM     13  C   UNL     1       2.501   2.690  10.508  1.00  0.00     0.000 C 
BRANCH  13  14
ATOM     14  C   UNL     1       2.354   1.354  11.259  1.00  0.00     0.000 C 
BRANCH  14  15
ATOM     15  C   UNL     1       3.552   1.044  12.177  1.00  0.00     0.000 C 
BRANCH  15  16
ATOM     16  C   UNL     1       3.980   2.193  13.111  1.00  0.00     0.000 C 
BRANCH  16  17
ATOM     17  C   UNL     1       5.401   2.735  12.871  1.00  0.00     0.000 C 
BRANCH  17  18
ATOM     18  C   UNL     1       5.414   4.214  12.456  1.00  0.00     0.000 C 
BRANCH  18  19
ATOM     19  C   UNL     1       5.920   4.369  11.013  1.00  0.00     0.000 C 
BRANCH  19  20
ATOM     20  C   UNL     1       5.133   5.422  10.212  1.00  0.00     0.006 C 
BRANCH  20  21
ATOM     21  C   UNL     1       5.167   6.834  10.822  1.00  0.00     0.053 C 
BRANCH  21  22
ATOM     22  C   UNL     1       6.115   7.738  10.096  1.00  0.00     0.041 C 
ATOM     23  O   UNL     1       5.909   8.032   8.889  1.00  0.00    -0.550 OA
ATOM     24  O   UNL     1       7.242   8.233  10.742  1.00  0.00    -0.550 OA
ENDBRANCH  21  22
ENDBRANCH  20  21
ENDBRANCH  19  20
ENDBRANCH  18  19
ENDBRANCH  17  18
ENDBRANCH  16  17
ENDBRANCH  15  16
ENDBRANCH  14  15
ENDBRANCH  13  14
ENDBRANCH   1  13
TORSDOF 20
ENDMDL
MODEL 4
REMARK VINA RESULT:    -4.470      7.783     10.651
REMARK INTER + INTRA:         -10.791
REMARK INTER:                  -7.521
REMARK INTRA:                  -3.269
REMARK UNBOUND:                -1.095
REMARK SMILES CCCCCCCCCCCCCCCCCCCCCC(=O)[O-]
REMARK SMILES IDX 12 1 11 2 10 3 9 4 8 5 7 6 6 7 5 8 4 9 3 10 2 11 1 12 13 13
REMARK SMILES IDX 14 14 15 15 16 16 17 17 18 18 19 19 20 20 21 21 22 22 23 23
REMARK SMILES IDX 24 24
REMARK H PARENT
REMARK Flexibility Score: inf
ROOT
ATOM      1  C   UNL     1       2.083   1.845  10.514  1.00  0.00     0.000 C 
ENDROOT
BRANCH   1   2
ATOM      2  C   UNL     1       2.825   0.854  11.434  1.00  0.00     0.000 C 
BRANCH   2   3
ATOM      3  C   UNL     1       3.107   1.367  12.861  1.00  0.00     0.000 C 
BRANCH   3   4
ATOM      4  C   UNL     1       4.560   1.813  13.118  1.00  0.00    -0.000 C 
BRANCH   4   5
ATOM      5  C   UNL     1       4.853   3.290  12.789  1.00  0.00    -0.000 C 
BRANCH   5   6
ATOM      6  C   UNL     1       6.348   3.655  12.684  1.00  0.00    -0.000 C 
BRANCH   6   7
ATOM      7  C   UNL     1       6.696   4.646  11.559  1.00  0.00    -0.000 C 
BRANCH   7   8
ATOM      8  C   UNL     1       5.529   4.865  10.580  1.00  0.00    -0.000 C 
BRANCH   8   9
ATOM      9  C   UNL     1       5.352   6.350  10.209  1.00  0.00    -0.000 C 
BRANCH   9  10
ATOM     10  C   UNL     1       5.490   7.306  11.408  1.00  0.00    -0.000 C 
BRANCH  10  11
ATOM     11  C   UNL     1       4.140   7.896  11.842  1.00  0.00    -0.003 C 
ATOM     12  C   UNL     1       3.393   6.941  12.770  1.00  0.00     0.004 C 
ENDBRANCH  10  11
ENDBRANCH   9  10
ENDBRANCH   8   9
ENDBRANCH   7   8
ENDBRANCH   6   7
ENDBRANCH   5   6
ENDBRANCH   4   5
ENDBRANCH   3   4
ENDBRANCH   2   3
ENDBRANCH   1   2
BRANCH   1  13
ATOM     13  C   UNL     1       1.040   2.732  11.220  1.00  0.00     0.000 C 
BRANCH  13  14
ATOM     14  C   UNL     1       1.517   4.186  11.388  1.00  0.00     0.000 C 
BRANCH  14  15
ATOM     15  C   UNL     1       1.957   4.832  10.060  1.00  0.00     0.000 C 
BRANCH  15  16
ATOM     16  C   UNL     1       1.286   6.180   9.731  1.00  0.00     0.000 C 
BRANCH  16  17
ATOM     17  C   UNL     1       2.102   7.110   8.814  1.00  0.00     0.000 C 
BRANCH  17  18
ATOM     18  C   UNL     1       1.320   8.359   8.380  1.00  0.00     0.000 C 
BRANCH  18  19
ATOM     19  C   UNL     1       1.789   9.593   9.166  1.00  0.00     0.000 C 
BRANCH  19  20
ATOM     20  C   UNL     1       2.861  10.408   8.418  1.00  0.00     0.006 C 
BRANCH  20  21
ATOM     21  C   UNL     1       4.302  10.122   8.873  1.00  0.00     0.053 C 
BRANCH  21  22
ATOM     22  C   UNL     1       5.182   9.712   7.732  1.00  0.00     0.041 C 
ATOM     23  O   UNL     1       4.941  10.128   6.567  1.00  0.00    -0.550 OA
ATOM     24  O   UNL     1       6.249   8.849   7.947  1.00  0.00    -0.550 OA
ENDBRANCH  21  22
ENDBRANCH  20  21
ENDBRANCH  19  20
ENDBRANCH  18  19
ENDBRANCH  17  18
ENDBRANCH  16  17
ENDBRANCH  15  16
ENDBRANCH  14  15
ENDBRANCH  13  14
ENDBRANCH   1  13
TORSDOF 20
ENDMDL
MODEL 5
REMARK VINA RESULT:    -4.449      9.169     11.749
REMARK INTER + INTRA:         -10.747
REMARK INTER:                  -7.453
REMARK INTRA:                  -3.293
REMARK UNBOUND:                -1.095
REMARK SMILES CCCCCCCCCCCCCCCCCCCCCC(=O)[O-]
REMARK SMILES IDX 12 1 11 2 10 3 9 4 8 5 7 6 6 7 5 8 4 9 3 10 2 11 1 12 13 13
REMARK SMILES IDX 14 14 15 15 16 16 17 17 18 18 19 19 20 20 21 21 22 22 23 23
REMARK SMILES IDX 24 24
REMARK H PARENT
REMARK Flexibility Score: inf
ROOT
ATOM      1  C   UNL     1       2.113   1.815  10.510  1.00  0.00     0.000 C 
ENDROOT
BRANCH   1   2
ATOM      2  C   UNL     1       2.743   0.760  11.443  1.00  0.00     0.000 C 
BRANCH   2   3
ATOM      3  C   UNL     1       3.140   1.273  12.842  1.00  0.00     0.000 C 
BRANCH   3   4
ATOM      4  C   UNL     1       4.603   1.743  12.972  1.00  0.00    -0.000 C 
BRANCH   4   5
ATOM      5  C   UNL     1       4.835   3.235  12.661  1.00  0.00    -0.000 C 
BRANCH   5   6
ATOM      6  C   UNL     1       6.313   3.673  12.614  1.00  0.00    -0.000 C 
BRANCH   6   7
ATOM      7  C   UNL     1       6.706   4.496  11.374  1.00  0.00    -0.000 C 
BRANCH   7   8
ATOM      8  C   UNL     1       5.501   4.826  10.475  1.00  0.00    -0.000 C 
BRANCH   8   9
ATOM      9  C   UNL     1       5.397   6.333  10.170  1.00  0.00    -0.000 C 
BRANCH   9  10
ATOM     10  C   UNL     1       5.279   7.210  11.430  1.00  0.00    -0.000 C 
BRANCH  10  11
ATOM     11  C   UNL     1       4.012   6.897  12.241  1.00  0.00    -0.003 C 
ATOM     12  C   UNL     1       3.119   8.129  12.366  1.00  0.00     0.004 C 
ENDBRANCH  10  11
ENDBRANCH   9  10
ENDBRANCH   8   9
ENDBRANCH   7   8
ENDBRANCH   6   7
ENDBRANCH   5   6
ENDBRANCH   4   5
ENDBRANCH   3   4
ENDBRANCH   2   3
ENDBRANCH   1   2
BRANCH   1  13
ATOM     13  C   UNL     1       0.986   2.653  11.143  1.00  0.00     0.000 C 
BRANCH  13  14
ATOM     14  C   UNL     1       1.398   4.118  11.376  1.00  0.00     0.000 C 
BRANCH  14  15
ATOM     15  C   UNL     1       1.963   4.792  10.111  1.00  0.00     0.000 C 
BRANCH  15  16
ATOM     16  C   UNL     1       1.321   6.145   9.745  1.00  0.00     0.000 C 
BRANCH  16  17
ATOM     17  C   UNL     1       2.180   7.053   8.845  1.00  0.00     0.000 C 
BRANCH  17  18
ATOM     18  C   UNL     1       1.398   8.252   8.286  1.00  0.00     0.000 C 
BRANCH  18  19
ATOM     19  C   UNL     1       2.126   9.568   8.601  1.00  0.00     0.000 C 
BRANCH  19  20
ATOM     20  C   UNL     1       1.517  10.317   9.800  1.00  0.00     0.006 C 
BRANCH  20  21
ATOM     21  C   UNL     1       0.030  10.012  10.045  1.00  0.00     0.053 C 
BRANCH  21  22
ATOM     22  C   UNL     1      -0.230   9.562  11.450  1.00  0.00     0.041 C 
ATOM     23  O   UNL     1      -0.395   8.339  11.702  1.00  0.00    -0.550 OA
ATOM     24  O   UNL     1      -0.320  10.494  12.476  1.00  0.00    -0.550 OA
ENDBRANCH  21  22
ENDBRANCH  20  21
ENDBRANCH  19  20
ENDBRANCH  18  19
ENDBRANCH  17  18
ENDBRANCH  16  17
ENDBRANCH  15  16
ENDBRANCH  14  15
ENDBRANCH  13  14
ENDBRANCH   1  13
TORSDOF 20
ENDMDL
MODEL 6
REMARK VINA RESULT:    -4.354      7.051     10.432
REMARK INTER + INTRA:         -10.540
REMARK INTER:                  -6.859
REMARK INTRA:                  -3.681
REMARK UNBOUND:                -1.095
REMARK SMILES CCCCCCCCCCCCCCCCCCCCCC(=O)[O-]
REMARK SMILES IDX 12 1 11 2 10 3 9 4 8 5 7 6 6 7 5 8 4 9 3 10 2 11 1 12 13 13
REMARK SMILES IDX 14 14 15 15 16 16 17 17 18 18 19 19 20 20 21 21 22 22 23 23
REMARK SMILES IDX 24 24
REMARK H PARENT
REMARK Flexibility Score: inf
ROOT
ATOM      1  C   UNL     1       2.410   6.562   8.984  1.00  0.00     0.000 C 
ENDROOT
BRANCH   1   2
ATOM      2  C   UNL     1       1.237   6.040   9.840  1.00  0.00     0.000 C 
BRANCH   2   3
ATOM      3  C   UNL     1       1.639   5.143  11.028  1.00  0.00     0.000 C 
BRANCH   3   4
ATOM      4  C   UNL     1       1.452   3.630  10.795  1.00  0.00    -0.000 C 
BRANCH   4   5
ATOM      5  C   UNL     1       2.616   2.748  11.288  1.00  0.00    -0.000 C 
BRANCH   5   6
ATOM      6  C   UNL     1       3.494   3.376  12.389  1.00  0.00    -0.000 C 
BRANCH   6   7
ATOM      7  C   UNL     1       4.964   3.604  11.994  1.00  0.00    -0.000 C 
BRANCH   7   8
ATOM      8  C   UNL     1       5.190   4.964  11.312  1.00  0.00    -0.000 C 
BRANCH   8   9
ATOM      9  C   UNL     1       5.486   4.819   9.807  1.00  0.00    -0.000 C 
BRANCH   9  10
ATOM     10  C   UNL     1       6.989   4.817   9.471  1.00  0.00    -0.000 C 
BRANCH  10  11
ATOM     11  C   UNL     1       7.593   6.229   9.495  1.00  0.00    -0.003 C 
ATOM     12  C   UNL     1       8.398   6.505   8.227  1.00  0.00     0.004 C 
ENDBRANCH  10  11
ENDBRANCH   9  10
ENDBRANCH   8   9
ENDBRANCH   7   8
ENDBRANCH   6   7
ENDBRANCH   5   6
ENDBRANCH   4   5
ENDBRANCH   3   4
ENDBRANCH   2   3
ENDBRANCH   1   2
BRANCH   1  13
ATOM     13  C   UNL     1       2.124   7.867   8.218  1.00  0.00     0.000 C 
BRANCH  13  14
ATOM     14  C   UNL     1       0.887   8.609   8.754  1.00  0.00     0.000 C 
BRANCH  14  15
ATOM     15  C   UNL     1       1.243   9.890   9.532  1.00  0.00     0.000 C 
BRANCH  15  16
ATOM     16  C   UNL     1       1.478   9.698  11.043  1.00  0.00     0.000 C 
BRANCH  16  17
ATOM     17  C   UNL     1       2.926   9.930  11.513  1.00  0.00     0.000 C 
BRANCH  17  18
ATOM     18  C   UNL     1       3.692   8.622  11.758  1.00  0.00     0.000 C 
BRANCH  18  19
ATOM     19  C   UNL     1       4.947   8.554  10.874  1.00  0.00     0.000 C 
BRANCH  19  20
ATOM     20  C   UNL     1       5.003   9.682   9.827  1.00  0.00     0.006 C 
BRANCH  20  21
ATOM     21  C   UNL     1       5.766   9.313   8.543  1.00  0.00     0.053 C 
BRANCH  21  22
ATOM     22  C   UNL     1       5.090   9.840   7.314  1.00  0.00     0.041 C 
ATOM     23  O   UNL     1       4.147  10.668   7.418  1.00  0.00    -0.550 OA
ATOM     24  O   UNL     1       5.481   9.395   6.057  1.00  0.00    -0.550 OA
ENDBRANCH  21  22
ENDBRANCH  20  21
ENDBRANCH  19  20
ENDBRANCH  18  19
ENDBRANCH  17  18
ENDBRANCH  16  17
ENDBRANCH  15  16
ENDBRANCH  14  15
ENDBRANCH  13  14
ENDBRANCH   1  13
TORSDOF 20
ENDMDL
MODEL 7
REMARK VINA RESULT:    -4.335      1.400      2.233
REMARK INTER + INTRA:         -10.498
REMARK INTER:                  -9.593
REMARK INTRA:                  -0.905
REMARK UNBOUND:                -1.095
REMARK SMILES CCCCCCCCCCCCCCCCCCCCCC(=O)[O-]
REMARK SMILES IDX 12 1 11 2 10 3 9 4 8 5 7 6 6 7 5 8 4 9 3 10 2 11 1 12 13 13
REMARK SMILES IDX 14 14 15 15 16 16 17 17 18 18 19 19 20 20 21 21 22 22 23 23
REMARK SMILES IDX 24 24
REMARK H PARENT
REMARK Flexibility Score: inf
ROOT
ATOM      1  C   UNL     1       6.147   9.593   4.082  1.00  0.00     0.000 C 
ENDROOT
BRANCH   1   2
ATOM      2  C   UNL     1       6.080  11.021   4.661  1.00  0.00     0.000 C 
BRANCH   2   3
ATOM      3  C   UNL     1       6.180  11.113   6.197  1.00  0.00     0.000 C 
BRANCH   3   4
ATOM      4  C   UNL     1       5.409  10.022   6.967  1.00  0.00    -0.000 C 
BRANCH   4   5
ATOM      5  C   UNL     1       4.300  10.547   7.900  1.00  0.00    -0.000 C 
BRANCH   5   6
ATOM      6  C   UNL     1       3.517   9.460   8.665  1.00  0.00    -0.000 C 
BRANCH   6   7
ATOM      7  C   UNL     1       2.043   9.801   8.947  1.00  0.00    -0.000 C 
BRANCH   7   8
ATOM      8  C   UNL     1       1.132   8.562   8.922  1.00  0.00    -0.000 C 
BRANCH   8   9
ATOM      9  C   UNL     1       0.518   8.261  10.303  1.00  0.00    -0.000 C 
BRANCH   9  10
ATOM     10  C   UNL     1       0.893   6.874  10.856  1.00  0.00    -0.000 C 
BRANCH  10  11
ATOM     11  C   UNL     1       1.360   5.914   9.752  1.00  0.00    -0.003 C 
ATOM     12  C   UNL     1       2.883   5.893   9.647  1.00  0.00     0.004 C 
ENDBRANCH  10  11
ENDBRANCH   9  10
ENDBRANCH   8   9
ENDBRANCH   7   8
ENDBRANCH   6   7
ENDBRANCH   5   6
ENDBRANCH   4   5
ENDBRANCH   3   4
ENDBRANCH   2   3
ENDBRANCH   1   2
BRANCH   1  13
ATOM     13  C   UNL     1       7.568   9.081   3.780  1.00  0.00     0.000 C 
BRANCH  13  14
ATOM     14  C   UNL     1       8.093   9.565   2.416  1.00  0.00     0.000 C 
BRANCH  14  15
ATOM     15  C   UNL     1       8.735   8.439   1.583  1.00  0.00     0.000 C 
BRANCH  15  16
ATOM     16  C   UNL     1       8.243   7.016   1.912  1.00  0.00     0.000 C 
BRANCH  16  17
ATOM     17  C   UNL     1       7.528   6.288   0.758  1.00  0.00     0.000 C 
BRANCH  17  18
ATOM     18  C   UNL     1       7.338   4.787   1.024  1.00  0.00     0.000 C 
BRANCH  18  19
ATOM     19  C   UNL     1       8.559   3.991   0.538  1.00  0.00     0.000 C 
BRANCH  19  20
ATOM     20  C   UNL     1       8.204   2.944  -0.533  1.00  0.00     0.006 C 
BRANCH  20  21
ATOM     21  C   UNL     1       6.694   2.702  -0.701  1.00  0.00     0.053 C 
BRANCH  21  22
ATOM     22  C   UNL     1       6.289   1.331  -0.253  1.00  0.00     0.041 C 
ATOM     23  O   UNL     1       6.809   0.314  -0.784  1.00  0.00    -0.550 OA
ATOM     24  O   UNL     1       5.317   1.176   0.727  1.00  0.00    -0.550 OA
ENDBRANCH  21  22
ENDBRANCH  20  21
ENDBRANCH  19  20
ENDBRANCH  18  19
ENDBRANCH  17  18
ENDBRANCH  16  17
ENDBRANCH  15  16
ENDBRANCH  14  15
ENDBRANCH  13  14
ENDBRANCH   1  13
TORSDOF 20
ENDMDL
MODEL 8
REMARK VINA RESULT:    -4.297      7.697      9.575
REMARK INTER + INTRA:         -10.416
REMARK INTER:                  -7.368
REMARK INTRA:                  -3.048
REMARK UNBOUND:                -1.095
REMARK SMILES CCCCCCCCCCCCCCCCCCCCCC(=O)[O-]
REMARK SMILES IDX 12 1 11 2 10 3 9 4 8 5 7 6 6 7 5 8 4 9 3 10 2 11 1 12 13 13
REMARK SMILES IDX 14 14 15 15 16 16 17 17 18 18 19 19 20 20 21 21 22 22 23 23
REMARK SMILES IDX 24 24
REMARK H PARENT
REMARK Flexibility Score: inf
ROOT
ATOM      1  C   UNL     1       1.630   7.888   8.611  1.00  0.00     0.000 C 
ENDROOT
BRANCH   1   2
ATOM      2  C   UNL     1       0.541   8.906   9.010  1.00  0.00     0.000 C 
BRANCH   2   3
ATOM      3  C   UNL     1       0.296   9.044  10.526  1.00  0.00     0.000 C 
BRANCH   3   4
ATOM      4  C   UNL     1       0.461   7.742  11.334  1.00  0.00    -0.000 C 
BRANCH   4   5
ATOM      5  C   UNL     1       1.636   7.741  12.331  1.00  0.00    -0.000 C 
BRANCH   5   6
ATOM      6  C   UNL     1       2.727   6.685  12.060  1.00  0.00    -0.000 C 
BRANCH   6   7
ATOM      7  C   UNL     1       2.199   5.297  11.655  1.00  0.00    -0.000 C 
BRANCH   7   8
ATOM      8  C   UNL     1       2.126   4.321  12.841  1.00  0.00    -0.000 C 
BRANCH   8   9
ATOM      9  C   UNL     1       1.298   3.064  12.511  1.00  0.00    -0.000 C 
BRANCH   9  10
ATOM     10  C   UNL     1       0.931   2.942  11.020  1.00  0.00    -0.000 C 
BRANCH  10  11
ATOM     11  C   UNL     1       1.618   1.744  10.348  1.00  0.00    -0.003 C 
ATOM     12  C   UNL     1       2.718   1.169  11.236  1.00  0.00     0.004 C 
ENDBRANCH  10  11
ENDBRANCH   9  10
ENDBRANCH   8   9
ENDBRANCH   7   8
ENDBRANCH   6   7
ENDBRANCH   5   6
ENDBRANCH   4   5
ENDBRANCH   3   4
ENDBRANCH   2   3
ENDBRANCH   1   2
BRANCH   1  13
ATOM     13  C   UNL     1       3.040   8.482   8.433  1.00  0.00     0.000 C 
BRANCH  13  14
ATOM     14  C   UNL     1       3.024  10.015   8.302  1.00  0.00     0.000 C 
BRANCH  14  15
ATOM     15  C   UNL     1       3.714  10.728   9.481  1.00  0.00     0.000 C 
BRANCH  15  16
ATOM     16  C   UNL     1       4.073   9.824  10.677  1.00  0.00     0.000 C 
BRANCH  16  17
ATOM     17  C   UNL     1       5.575   9.737  11.003  1.00  0.00     0.000 C 
BRANCH  17  18
ATOM     18  C   UNL     1       6.053   8.296  11.240  1.00  0.00     0.000 C 
BRANCH  18  19
ATOM     19  C   UNL     1       6.293   7.578   9.903  1.00  0.00     0.000 C 
BRANCH  19  20
ATOM     20  C   UNL     1       7.406   6.516   9.986  1.00  0.00     0.006 C 
BRANCH  20  21
ATOM     21  C   UNL     1       7.011   5.143   9.419  1.00  0.00     0.053 C 
BRANCH  21  22
ATOM     22  C   UNL     1       5.651   4.713   9.877  1.00  0.00     0.041 C 
ATOM     23  O   UNL     1       5.466   4.378  11.078  1.00  0.00    -0.550 OA
ATOM     24  O   UNL     1       4.596   4.652   8.976  1.00  0.00    -0.550 OA
ENDBRANCH  21  22
ENDBRANCH  20  21
ENDBRANCH  19  20
ENDBRANCH  18  19
ENDBRANCH  17  18
ENDBRANCH  16  17
ENDBRANCH  15  16
ENDBRANCH  14  15
ENDBRANCH  13  14
ENDBRANCH   1  13
TORSDOF 20
ENDMDL
MODEL 9
REMARK VINA RESULT:    -4.254      7.492      9.478
REMARK INTER + INTRA:         -10.323
REMARK INTER:                  -6.491
REMARK INTRA:                  -3.832
REMARK UNBOUND:                -1.095
REMARK SMILES CCCCCCCCCCCCCCCCCCCCCC(=O)[O-]
REMARK SMILES IDX 12 1 11 2 10 3 9 4 8 5 7 6 6 7 5 8 4 9 3 10 2 11 1 12 13 13
REMARK SMILES IDX 14 14 15 15 16 16 17 17 18 18 19 19 20 20 21 21 22 22 23 23
REMARK SMILES IDX 24 24
REMARK H PARENT
REMARK Flexibility Score: inf
ROOT
ATOM      1  C   UNL     1       1.535   6.039  11.152  1.00  0.00     0.000 C 
ENDROOT
BRANCH   1   2
ATOM      2  C   UNL     1       2.611   6.573  12.119  1.00  0.00     0.000 C 
BRANCH   2   3
ATOM      3  C   UNL     1       3.022   8.043  11.898  1.00  0.00     0.000 C 
BRANCH   3   4
ATOM      4  C   UNL     1       4.304   8.244  11.065  1.00  0.00    -0.000 C 
BRANCH   4   5
ATOM      5  C   UNL     1       4.108   8.147   9.539  1.00  0.00    -0.000 C 
BRANCH   5   6
ATOM      6  C   UNL     1       3.993   9.498   8.804  1.00  0.00    -0.000 C 
BRANCH   6   7
ATOM      7  C   UNL     1       2.579   9.848   8.308  1.00  0.00    -0.000 C 
BRANCH   7   8
ATOM      8  C   UNL     1       1.594   8.674   8.447  1.00  0.00    -0.000 C 
BRANCH   8   9
ATOM      9  C   UNL     1       0.388   9.027   9.339  1.00  0.00    -0.000 C 
BRANCH   9  10
ATOM     10  C   UNL     1       0.553  10.355  10.101  1.00  0.00    -0.000 C 
BRANCH  10  11
ATOM     11  C   UNL     1       0.199  10.220  11.589  1.00  0.00    -0.003 C 
ATOM     12  C   UNL     1      -0.642   8.972  11.846  1.00  0.00     0.004 C 
ENDBRANCH  10  11
ENDBRANCH   9  10
ENDBRANCH   8   9
ENDBRANCH   7   8
ENDBRANCH   6   7
ENDBRANCH   5   6
ENDBRANCH   4   5
ENDBRANCH   3   4
ENDBRANCH   2   3
ENDBRANCH   1   2
BRANCH   1  13
ATOM     13  C   UNL     1       1.997   4.890  10.236  1.00  0.00     0.000 C 
BRANCH  13  14
ATOM     14  C   UNL     1       1.302   3.556  10.563  1.00  0.00     0.000 C 
BRANCH  14  15
ATOM     15  C   UNL     1       1.631   3.037  11.976  1.00  0.00     0.000 C 
BRANCH  15  16
ATOM     16  C   UNL     1       3.042   2.439  12.145  1.00  0.00     0.000 C 
BRANCH  16  17
ATOM     17  C   UNL     1       4.025   3.304  12.955  1.00  0.00     0.000 C 
BRANCH  17  18
ATOM     18  C   UNL     1       5.420   3.380  12.317  1.00  0.00     0.000 C 
BRANCH  18  19
ATOM     19  C   UNL     1       5.678   4.782  11.743  1.00  0.00     0.000 C 
BRANCH  19  20
ATOM     20  C   UNL     1       5.648   4.813  10.204  1.00  0.00     0.006 C 
BRANCH  20  21
ATOM     21  C   UNL     1       6.968   5.266   9.557  1.00  0.00     0.053 C 
BRANCH  21  22
ATOM     22  C   UNL     1       7.985   4.166   9.521  1.00  0.00     0.041 C 
ATOM     23  O   UNL     1       8.065   3.412   8.515  1.00  0.00    -0.550 OA
ATOM     24  O   UNL     1       8.823   3.954  10.608  1.00  0.00    -0.550 OA
ENDBRANCH  21  22
ENDBRANCH  20  21
ENDBRANCH  19  20
ENDBRANCH  18  19
ENDBRANCH  17  18
ENDBRANCH  16  17
ENDBRANCH  15  16
ENDBRANCH  14  15
ENDBRANCH  13  14
ENDBRANCH   1  13
TORSDOF 20
ENDMDL
