MODEL 1
REMARK VINA RESULT:    -3.884      0.000      0.000
REMARK INTER + INTRA:          -6.944
REMARK INTER:                  -6.155
REMARK INTRA:                  -0.788
REMARK UNBOUND:                -0.788
REMARK SMILES CCCCCCCCCCCC(=O)[O-]
REMARK SMILES IDX 7 1 8 2 9 3 10 4 11 5 12 6 13 7 14 8 6 9 5 10 4 11 3 12 2 13
REMARK SMILES IDX 1 14
REMARK H PARENT
REMARK Flexibility Score: inf
ROOT
ATOM      1  C   UNL     1       5.542 -21.912 -12.508  1.00  0.00     0.000 C 
ENDROOT
BRANCH   1   2
ATOM      2  C   UNL     1       5.006 -20.505 -12.206  1.00  0.00     0.000 C 
BRANCH   2   3
ATOM      3  C   UNL     1       4.949 -19.654 -13.482  1.00  0.00     0.000 C 
BRANCH   3   4
ATOM      4  C   UNL     1       5.350 -20.481 -14.713  1.00  0.00     0.006 C 
BRANCH   4   5
ATOM      5  C   UNL     1       6.510 -19.843 -15.488  1.00  0.00     0.053 C 
BRANCH   5   6
ATOM      6  C   UNL     1       7.342 -20.872 -16.192  1.00  0.00     0.041 C 
ATOM      7  O   UNL     1       6.968 -21.339 -17.299  1.00  0.00    -0.550 OA
ATOM      8  O   UNL     1       8.546 -21.289 -15.639  1.00  0.00    -0.550 OA
ENDBRANCH   5   6
ENDBRANCH   4   5
ENDBRANCH   3   4
ENDBRANCH   2   3
ENDBRANCH   1   2
BRANCH   1   9
ATOM      9  C   UNL     1       4.912 -22.991 -11.613  1.00  0.00     0.000 C 
BRANCH   9  10
ATOM     10  C   UNL     1       5.794 -24.246 -11.487  1.00  0.00    -0.000 C 
BRANCH  10  11
ATOM     11  C   UNL     1       5.904 -24.738 -10.027  1.00  0.00    -0.000 C 
BRANCH  11  12
ATOM     12  C   UNL     1       5.253 -23.787  -9.004  1.00  0.00    -0.000 C 
BRANCH  12  13
ATOM     13  C   UNL     1       6.249 -22.988  -8.148  1.00  0.00    -0.003 C 
ATOM     14  C   UNL     1       6.286 -21.503  -8.513  1.00  0.00     0.004 C 
ENDBRANCH  12  13
ENDBRANCH  11  12
ENDBRANCH  10  11
ENDBRANCH   9  10
ENDBRANCH   1   9
TORSDOF 10
ENDMDL
MODEL 2
REMARK VINA RESULT:    -3.830     14.202     16.314
REMARK INTER + INTRA:          -6.857
REMARK INTER:                  -6.362
REMARK INTRA:                  -0.495
REMARK UNBOUND:                -0.788
REMARK SMILES CCCCCCCCCCCC(=O)[O-]
REMARK SMILES IDX 7 1 8 2 9 3 10 4 11 5 12 6 13 7 14 8 6 9 5 10 4 11 3 12 2 13
REMARK SMILES IDX 1 14
REMARK H PARENT
REMARK Flexibility Score: inf
ROOT
ATOM      1  C   UNL     1       6.154  -7.818  -8.654  1.00  0.00     0.000 C 
ENDROOT
BRANCH   1   2
ATOM      2  C   UNL     1       5.210  -7.097  -7.682  1.00  0.00     0.000 C 
BRANCH   2   3
ATOM      3  C   UNL     1       5.669  -5.653  -7.441  1.00  0.00     0.000 C 
BRANCH   3   4
ATOM      4  C   UNL     1       6.191  -5.474  -6.007  1.00  0.00     0.006 C 
BRANCH   4   5
ATOM      5  C   UNL     1       7.635  -4.956  -5.975  1.00  0.00     0.053 C 
BRANCH   5   6
ATOM      6  C   UNL     1       8.623  -6.073  -5.839  1.00  0.00     0.041 C 
ATOM      7  O   UNL     1       9.239  -6.501  -6.850  1.00  0.00    -0.550 OA
ATOM      8  O   UNL     1       8.888  -6.619  -4.589  1.00  0.00    -0.550 OA
ENDBRANCH   5   6
ENDBRANCH   4   5
ENDBRANCH   3   4
ENDBRANCH   2   3
ENDBRANCH   1   2
BRANCH   1   9
ATOM      9  C   UNL     1       5.440  -8.305  -9.924  1.00  0.00     0.000 C 
BRANCH   9  10
ATOM     10  C   UNL     1       6.163  -9.486 -10.596  1.00  0.00    -0.000 C 
BRANCH  10  11
ATOM     11  C   UNL     1       6.104  -9.406 -12.137  1.00  0.00    -0.000 C 
BRANCH  11  12
ATOM     12  C   UNL     1       5.308  -8.197 -12.663  1.00  0.00    -0.000 C 
BRANCH  12  13
ATOM     13  C   UNL     1       5.575  -7.844 -14.136  1.00  0.00    -0.003 C 
ATOM     14  C   UNL     1       5.174  -6.410 -14.483  1.00  0.00     0.004 C 
ENDBRANCH  12  13
ENDBRANCH  11  12
ENDBRANCH  10  11
ENDBRANCH   9  10
ENDBRANCH   1   9
TORSDOF 10
ENDMDL
MODEL 3
REMARK VINA RESULT:    -3.747      1.643      2.305
REMARK INTER + INTRA:          -6.726
REMARK INTER:                  -6.246
REMARK INTRA:                  -0.480
REMARK UNBOUND:                -0.788
REMARK SMILES CCCCCCCCCCCC(=O)[O-]
REMARK SMILES IDX 7 1 8 2 9 3 10 4 11 5 12 6 13 7 14 8 6 9 5 10 4 11 3 12 2 13
REMARK SMILES IDX 1 14
REMARK H PARENT
REMARK Flexibility Score: inf
ROOT
ATOM      1  C   UNL     1       6.024 -21.325 -13.334  1.00  0.00     0.000 C 
ENDROOT
BRANCH   1   2
ATOM      2  C   UNL     1       5.548 -20.041 -14.027  1.00  0.00     0.000 C 
BRANCH   2   3
ATOM      3  C   UNL     1       6.589 -19.546 -15.040  1.00  0.00     0.000 C 
BRANCH   3   4
ATOM      4  C   UNL     1       6.941 -20.649 -16.051  1.00  0.00     0.006 C 
BRANCH   4   5
ATOM      5  C   UNL     1       5.819 -20.880 -17.071  1.00  0.00     0.053 C 
BRANCH   5   6
ATOM      6  C   UNL     1       6.283 -21.707 -18.231  1.00  0.00     0.041 C 
ATOM      7  O   UNL     1       6.820 -21.156 -19.227  1.00  0.00    -0.550 OA
ATOM      8  O   UNL     1       6.152 -23.090 -18.196  1.00  0.00    -0.550 OA
ENDBRANCH   5   6
ENDBRANCH   4   5
ENDBRANCH   3   4
ENDBRANCH   2   3
ENDBRANCH   1   2
BRANCH   1   9
ATOM      9  C   UNL     1       4.897 -22.042 -12.573  1.00  0.00     0.000 C 
BRANCH   9  10
ATOM     10  C   UNL     1       5.290 -22.401 -11.129  1.00  0.00    -0.000 C 
BRANCH  10  11
ATOM     11  C   UNL     1       4.983 -21.256 -10.139  1.00  0.00    -0.000 C 
BRANCH  11  12
ATOM     12  C   UNL     1       5.479 -21.530  -8.706  1.00  0.00    -0.000 C 
BRANCH  12  13
ATOM     13  C   UNL     1       6.279 -22.833  -8.542  1.00  0.00    -0.003 C 
ATOM     14  C   UNL     1       5.716 -23.741  -7.449  1.00  0.00     0.004 C 
ENDBRANCH  12  13
ENDBRANCH  11  12
ENDBRANCH  10  11
ENDBRANCH   9  10
ENDBRANCH   1   9
TORSDOF 10
ENDMDL
MODEL 4
REMARK VINA RESULT:    -3.714      3.872      7.685
REMARK INTER + INTRA:          -6.674
REMARK INTER:                  -6.343
REMARK INTRA:                  -0.330
REMARK UNBOUND:                -0.788
REMARK SMILES CCCCCCCCCCCC(=O)[O-]
REMARK SMILES IDX 7 1 8 2 9 3 10 4 11 5 12 6 13 7 14 8 6 9 5 10 4 11 3 12 2 13
REMARK SMILES IDX 1 14
REMARK H PARENT
REMARK Flexibility Score: inf
ROOT
ATOM      1  C   UNL     1       6.446 -20.984 -14.040  1.00  0.00     0.000 C 
ENDROOT
BRANCH   1   2
ATOM      2  C   UNL     1       5.389 -21.092 -12.932  1.00  0.00     0.000 C 
BRANCH   2   3
ATOM      3  C   UNL     1       5.482 -22.445 -12.216  1.00  0.00     0.000 C 
BRANCH   3   4
ATOM      4  C   UNL     1       5.344 -22.275 -10.696  1.00  0.00     0.006 C 
BRANCH   4   5
ATOM      5  C   UNL     1       5.911 -23.473  -9.923  1.00  0.00     0.053 C 
BRANCH   5   6
ATOM      6  C   UNL     1       5.968 -23.208  -8.449  1.00  0.00     0.041 C 
ATOM      7  O   UNL     1       6.853 -22.448  -7.976  1.00  0.00    -0.550 OA
ATOM      8  O   UNL     1       5.023 -23.775  -7.604  1.00  0.00    -0.550 OA
ENDBRANCH   5   6
ENDBRANCH   4   5
ENDBRANCH   3   4
ENDBRANCH   2   3
ENDBRANCH   1   2
BRANCH   1   9
ATOM      9  C   UNL     1       6.032 -20.019 -15.163  1.00  0.00     0.000 C 
BRANCH   9  10
ATOM     10  C   UNL     1       5.947 -18.557 -14.689  1.00  0.00    -0.000 C 
BRANCH  10  11
ATOM     11  C   UNL     1       5.884 -17.563 -15.869  1.00  0.00    -0.000 C 
BRANCH  11  12
ATOM     12  C   UNL     1       5.009 -18.050 -17.040  1.00  0.00    -0.000 C 
BRANCH  12  13
ATOM     13  C   UNL     1       4.934 -17.079 -18.231  1.00  0.00    -0.003 C 
ATOM     14  C   UNL     1       5.722 -15.790 -17.995  1.00  0.00     0.004 C 
ENDBRANCH  12  13
ENDBRANCH  11  12
ENDBRANCH  10  11
ENDBRANCH   9  10
ENDBRANCH   1   9
TORSDOF 10
ENDMDL
MODEL 5
REMARK VINA RESULT:    -3.704      4.013      8.203
REMARK INTER + INTRA:          -6.657
REMARK INTER:                  -6.265
REMARK INTRA:                  -0.392
REMARK UNBOUND:                -0.788
REMARK SMILES CCCCCCCCCCCC(=O)[O-]
REMARK SMILES IDX 7 1 8 2 9 3 10 4 11 5 12 6 13 7 14 8 6 9 5 10 4 11 3 12 2 13
REMARK SMILES IDX 1 14
REMARK H PARENT
REMARK Flexibility Score: inf
ROOT
ATOM      1  C   UNL     1       6.504 -18.595 -15.206  1.00  0.00     0.000 C 
ENDROOT
BRANCH   1   2
ATOM      2  C   UNL     1       5.621 -19.190 -14.099  1.00  0.00     0.000 C 
BRANCH   2   3
ATOM      3  C   UNL     1       5.990 -20.655 -13.833  1.00  0.00     0.000 C 
BRANCH   3   4
ATOM      4  C   UNL     1       5.168 -21.227 -12.667  1.00  0.00     0.006 C 
BRANCH   4   5
ATOM      5  C   UNL     1       5.638 -22.628 -12.258  1.00  0.00     0.053 C 
BRANCH   5   6
ATOM      6  C   UNL     1       5.567 -22.828 -10.775  1.00  0.00     0.041 C 
ATOM      7  O   UNL     1       4.996 -21.974 -10.047  1.00  0.00    -0.550 OA
ATOM      8  O   UNL     1       6.105 -23.973 -10.200  1.00  0.00    -0.550 OA
ENDBRANCH   5   6
ENDBRANCH   4   5
ENDBRANCH   3   4
ENDBRANCH   2   3
ENDBRANCH   1   2
BRANCH   1   9
ATOM      9  C   UNL     1       5.782 -17.511 -16.022  1.00  0.00     0.000 C 
BRANCH   9  10
ATOM     10  C   UNL     1       4.953 -18.093 -17.181  1.00  0.00    -0.000 C 
BRANCH  10  11
ATOM     11  C   UNL     1       5.023 -17.214 -18.448  1.00  0.00    -0.000 C 
BRANCH  11  12
ATOM     12  C   UNL     1       5.539 -15.787 -18.182  1.00  0.00    -0.000 C 
BRANCH  12  13
ATOM     13  C   UNL     1       6.453 -15.220 -19.281  1.00  0.00    -0.003 C 
ATOM     14  C   UNL     1       6.519 -16.117 -20.517  1.00  0.00     0.004 C 
ENDBRANCH  12  13
ENDBRANCH  11  12
ENDBRANCH  10  11
ENDBRANCH   9  10
ENDBRANCH   1   9
TORSDOF 10
ENDMDL
MODEL 6
REMARK VINA RESULT:    -3.689      3.500      4.407
REMARK INTER + INTRA:          -6.634
REMARK INTER:                  -6.408
REMARK INTRA:                  -0.226
REMARK UNBOUND:                -0.788
REMARK SMILES CCCCCCCCCCCC(=O)[O-]
REMARK SMILES IDX 7 1 8 2 9 3 10 4 11 5 12 6 13 7 14 8 6 9 5 10 4 11 3 12 2 13
REMARK SMILES IDX 1 14
REMARK H PARENT
REMARK Flexibility Score: inf
ROOT
ATOM      1  C   UNL     1       5.843 -19.019 -14.316  1.00  0.00     0.000 C 
ENDROOT
BRANCH   1   2
ATOM      2  C   UNL     1       5.220 -18.720 -15.687  1.00  0.00     0.000 C 
BRANCH   2   3
ATOM      3  C   UNL     1       5.703 -17.367 -16.225  1.00  0.00     0.000 C 
BRANCH   3   4
ATOM      4  C   UNL     1       5.299 -17.184 -17.696  1.00  0.00     0.006 C 
BRANCH   4   5
ATOM      5  C   UNL     1       5.517 -15.745 -18.183  1.00  0.00     0.053 C 
BRANCH   5   6
ATOM      6  C   UNL     1       6.262 -15.704 -19.482  1.00  0.00     0.041 C 
ATOM      7  O   UNL     1       6.958 -14.700 -19.782  1.00  0.00    -0.550 OA
ATOM      8  O   UNL     1       6.212 -16.791 -20.347  1.00  0.00    -0.550 OA
ENDBRANCH   5   6
ENDBRANCH   4   5
ENDBRANCH   3   4
ENDBRANCH   2   3
ENDBRANCH   1   2
BRANCH   1   9
ATOM      9  C   UNL     1       6.226 -20.498 -14.148  1.00  0.00     0.000 C 
BRANCH   9  10
ATOM     10  C   UNL     1       5.129 -21.321 -13.450  1.00  0.00    -0.000 C 
BRANCH  10  11
ATOM     11  C   UNL     1       5.701 -22.247 -12.355  1.00  0.00    -0.000 C 
BRANCH  11  12
ATOM     12  C   UNL     1       5.315 -21.824 -10.925  1.00  0.00    -0.000 C 
BRANCH  12  13
ATOM     13  C   UNL     1       5.732 -22.817  -9.827  1.00  0.00    -0.003 C 
ATOM     14  C   UNL     1       6.203 -22.124  -8.549  1.00  0.00     0.004 C 
ENDBRANCH  12  13
ENDBRANCH  11  12
ENDBRANCH  10  11
ENDBRANCH   9  10
ENDBRANCH   1   9
TORSDOF 10
ENDMDL
MODEL 7
REMARK VINA RESULT:    -3.664     14.956     16.956
REMARK INTER + INTRA:          -6.594
REMARK INTER:                  -6.196
REMARK INTRA:                  -0.398
REMARK UNBOUND:                -0.788
REMARK SMILES CCCCCCCCCCCC(=O)[O-]
REMARK SMILES IDX 7 1 8 2 9 3 10 4 11 5 12 6 13 7 14 8 6 9 5 10 4 11 3 12 2 13
REMARK SMILES IDX 1 14
REMARK H PARENT
REMARK Flexibility Score: inf
ROOT
ATOM      1  C   UNL     1       5.963  -6.149  -7.982  1.00  0.00     0.000 C 
ENDROOT
BRANCH   1   2
ATOM      2  C   UNL     1       6.422  -5.909  -6.536  1.00  0.00     0.000 C 
BRANCH   2   3
ATOM      3  C   UNL     1       7.732  -5.112  -6.502  1.00  0.00     0.000 C 
BRANCH   3   4
ATOM      4  C   UNL     1       8.948  -6.052  -6.494  1.00  0.00     0.006 C 
BRANCH   4   5
ATOM      5  C   UNL     1      10.179  -5.403  -5.846  1.00  0.00     0.053 C 
BRANCH   5   6
ATOM      6  C   UNL     1      10.299  -5.763  -4.397  1.00  0.00     0.041 C 
ATOM      7  O   UNL     1      10.185  -4.875  -3.512  1.00  0.00    -0.550 OA
ATOM      8  O   UNL     1      10.504  -7.085  -4.023  1.00  0.00    -0.550 OA
ENDBRANCH   5   6
ENDBRANCH   4   5
ENDBRANCH   3   4
ENDBRANCH   2   3
ENDBRANCH   1   2
BRANCH   1   9
ATOM      9  C   UNL     1       5.614  -7.620  -8.257  1.00  0.00     0.000 C 
BRANCH   9  10
ATOM     10  C   UNL     1       5.254  -7.879  -9.731  1.00  0.00    -0.000 C 
BRANCH  10  11
ATOM     11  C   UNL     1       6.045  -9.065 -10.325  1.00  0.00    -0.000 C 
BRANCH  11  12
ATOM     12  C   UNL     1       5.919  -9.186 -11.856  1.00  0.00    -0.000 C 
BRANCH  12  13
ATOM     13  C   UNL     1       5.241  -7.986 -12.540  1.00  0.00    -0.003 C 
ATOM     14  C   UNL     1       5.612  -7.861 -14.018  1.00  0.00     0.004 C 
ENDBRANCH  12  13
ENDBRANCH  11  12
ENDBRANCH  10  11
ENDBRANCH   9  10
ENDBRANCH   1   9
TORSDOF 10
ENDMDL
MODEL 8
REMARK VINA RESULT:    -3.644      3.479      7.207
REMARK INTER + INTRA:          -6.562
REMARK INTER:                  -6.071
REMARK INTRA:                  -0.491
REMARK UNBOUND:                -0.788
REMARK SMILES CCCCCCCCCCCC(=O)[O-]
REMARK SMILES IDX 7 1 8 2 9 3 10 4 11 5 12 6 13 7 14 8 6 9 5 10 4 11 3 12 2 13
REMARK SMILES IDX 1 14
REMARK H PARENT
REMARK Flexibility Score: inf
ROOT
ATOM      1  C   UNL     1       5.990 -20.597 -14.275  1.00  0.00     0.000 C 
ENDROOT
BRANCH   1   2
ATOM      2  C   UNL     1       5.303 -20.757 -12.912  1.00  0.00     0.000 C 
BRANCH   2   3
ATOM      3  C   UNL     1       5.594 -22.138 -12.310  1.00  0.00     0.000 C 
BRANCH   3   4
ATOM      4  C   UNL     1       5.203 -22.185 -10.825  1.00  0.00     0.006 C 
BRANCH   4   5
ATOM      5  C   UNL     1       5.916 -23.316 -10.072  1.00  0.00     0.053 C 
BRANCH   5   6
ATOM      6  C   UNL     1       6.184 -22.951  -8.643  1.00  0.00     0.041 C 
ATOM      7  O   UNL     1       6.695 -21.837  -8.359  1.00  0.00    -0.550 OA
ATOM      8  O   UNL     1       5.837 -23.830  -7.625  1.00  0.00    -0.550 OA
ENDBRANCH   5   6
ENDBRANCH   4   5
ENDBRANCH   3   4
ENDBRANCH   2   3
ENDBRANCH   1   2
BRANCH   1   9
ATOM      9  C   UNL     1       6.198 -19.126 -14.666  1.00  0.00     0.000 C 
BRANCH   9  10
ATOM     10  C   UNL     1       5.656 -18.801 -16.069  1.00  0.00    -0.000 C 
BRANCH  10  11
ATOM     11  C   UNL     1       4.918 -20.001 -16.702  1.00  0.00    -0.000 C 
BRANCH  11  12
ATOM     12  C   UNL     1       5.558 -20.498 -18.012  1.00  0.00    -0.000 C 
BRANCH  12  13
ATOM     13  C   UNL     1       6.486 -21.714 -17.851  1.00  0.00    -0.003 C 
ATOM     14  C   UNL     1       5.877 -23.001 -18.407  1.00  0.00     0.004 C 
ENDBRANCH  12  13
ENDBRANCH  11  12
ENDBRANCH  10  11
ENDBRANCH   9  10
ENDBRANCH   1   9
TORSDOF 10
ENDMDL
MODEL 9
REMARK VINA RESULT:    -3.641     12.796     15.375
REMARK INTER + INTRA:          -6.557
REMARK INTER:                  -6.144
REMARK INTRA:                  -0.414
REMARK UNBOUND:                -0.788
REMARK SMILES CCCCCCCCCCCC(=O)[O-]
REMARK SMILES IDX 7 1 8 2 9 3 10 4 11 5 12 6 13 7 14 8 6 9 5 10 4 11 3 12 2 13
REMARK SMILES IDX 1 14
REMARK H PARENT
REMARK Flexibility Score: inf
ROOT
ATOM      1  C   UNL     1      20.314 -22.129 -19.124  1.00  0.00     0.000 C 
ENDROOT
BRANCH   1   2
ATOM      2  C   UNL     1      20.612 -20.624 -19.197  1.00  0.00     0.000 C 
BRANCH   2   3
ATOM      3  C   UNL     1      21.895 -20.282 -18.429  1.00  0.00     0.000 C 
BRANCH   3   4
ATOM      4  C   UNL     1      21.570 -19.680 -17.054  1.00  0.00     0.006 C 
BRANCH   4   5
ATOM      5  C   UNL     1      21.002 -18.259 -17.161  1.00  0.00     0.053 C 
BRANCH   5   6
ATOM      6  C   UNL     1      22.071 -17.220 -17.007  1.00  0.00     0.041 C 
ATOM      7  O   UNL     1      21.763 -16.003 -16.916  1.00  0.00    -0.550 OA
ATOM      8  O   UNL     1      23.405 -17.601 -16.932  1.00  0.00    -0.550 OA
ENDBRANCH   5   6
ENDBRANCH   4   5
ENDBRANCH   3   4
ENDBRANCH   2   3
ENDBRANCH   1   2
BRANCH   1   9
ATOM      9  C   UNL     1      18.813 -22.442 -19.228  1.00  0.00     0.000 C 
BRANCH   9  10
ATOM     10  C   UNL     1      18.536 -23.912 -19.590  1.00  0.00    -0.000 C 
BRANCH  10  11
ATOM     11  C   UNL     1      17.143 -24.379 -19.113  1.00  0.00    -0.000 C 
BRANCH  11  12
ATOM     12  C   UNL     1      16.623 -23.611 -17.882  1.00  0.00    -0.000 C 
BRANCH  12  13
ATOM     13  C   UNL     1      15.128 -23.815 -17.584  1.00  0.00    -0.003 C 
ATOM     14  C   UNL     1      14.336 -24.270 -18.811  1.00  0.00     0.004 C 
ENDBRANCH  12  13
ENDBRANCH  11  12
ENDBRANCH  10  11
ENDBRANCH   9  10
ENDBRANCH   1   9
TORSDOF 10
ENDMDL
