MODEL 1
REMARK VINA RESULT:    -4.235      0.000      0.000
REMARK INTER + INTRA:         -16.320
REMARK INTER:                 -10.671
REMARK INTRA:                  -5.649
REMARK UNBOUND:                -5.649
REMARK SMILES CCCCCCCCCCCCCCCCCCCCCCCCCCCC(=O)[O-]
REMARK SMILES IDX 15 1 16 2 17 3 18 4 19 5 20 6 21 7 22 8 23 9 24 10 25 11
REMARK SMILES IDX 26 12 27 13 28 14 29 15 30 16 14 17 13 18 12 19 11 20 10 21
REMARK SMILES IDX 9 22 8 23 7 24 6 25 5 26 4 27 3 28 2 29 1 30
REMARK H PARENT
REMARK Flexibility Score: inf
ROOT
ATOM      1  C   UNL     1      12.000 -18.360  25.442  1.00  0.00     0.000 C 
ENDROOT
BRANCH   1   2
ATOM      2  C   UNL     1      13.180 -18.015  24.513  1.00  0.00     0.000 C 
BRANCH   2   3
ATOM      3  C   UNL     1      13.017 -16.731  23.681  1.00  0.00     0.000 C 
BRANCH   3   4
ATOM      4  C   UNL     1      13.738 -16.795  22.324  1.00  0.00     0.000 C 
BRANCH   4   5
ATOM      5  C   UNL     1      13.160 -15.808  21.292  1.00  0.00     0.000 C 
BRANCH   5   6
ATOM      6  C   UNL     1      11.685 -16.042  20.909  1.00  0.00     0.000 C 
BRANCH   6   7
ATOM      7  C   UNL     1      11.342 -17.464  20.427  1.00  0.00     0.000 C 
BRANCH   7   8
ATOM      8  C   UNL     1      10.288 -18.159  21.307  1.00  0.00     0.000 C 
BRANCH   8   9
ATOM      9  C   UNL     1      10.822 -19.442  21.966  1.00  0.00     0.000 C 
BRANCH   9  10
ATOM     10  C   UNL     1      12.020 -20.042  21.211  1.00  0.00     0.000 C 
BRANCH  10  11
ATOM     11  C   UNL     1      12.743 -21.088  22.073  1.00  0.00     0.000 C 
BRANCH  11  12
ATOM     12  C   UNL     1      14.162 -20.658  22.472  1.00  0.00     0.006 C 
BRANCH  12  13
ATOM     13  C   UNL     1      14.695 -21.413  23.696  1.00  0.00     0.053 C 
BRANCH  13  14
ATOM     14  C   UNL     1      15.782 -20.632  24.365  1.00  0.00     0.041 C 
ATOM     15  O   UNL     1      16.123 -20.911  25.548  1.00  0.00    -0.550 OA
ATOM     16  O   UNL     1      16.386 -19.568  23.706  1.00  0.00    -0.550 OA
ENDBRANCH  13  14
ENDBRANCH  12  13
ENDBRANCH  11  12
ENDBRANCH  10  11
ENDBRANCH   9  10
ENDBRANCH   8   9
ENDBRANCH   7   8
ENDBRANCH   6   7
ENDBRANCH   5   6
ENDBRANCH   4   5
ENDBRANCH   3   4
ENDBRANCH   2   3
ENDBRANCH   1   2
BRANCH   1  17
ATOM     17  C   UNL     1      10.660 -17.700  25.047  1.00  0.00     0.000 C 
BRANCH  17  18
ATOM     18  C   UNL     1      10.113 -16.750  26.133  1.00  0.00     0.000 C 
BRANCH  18  19
ATOM     19  C   UNL     1       9.333 -15.548  25.564  1.00  0.00     0.000 C 
BRANCH  19  20
ATOM     20  C   UNL     1       9.768 -15.108  24.151  1.00  0.00     0.000 C 
BRANCH  20  21
ATOM     21  C   UNL     1       8.657 -15.044  23.084  1.00  0.00     0.000 C 
BRANCH  21  22
ATOM     22  C   UNL     1       7.859 -16.346  22.872  1.00  0.00    -0.000 C 
BRANCH  22  23
ATOM     23  C   UNL     1       6.401 -16.235  23.340  1.00  0.00    -0.000 C 
BRANCH  23  24
ATOM     24  C   UNL     1       5.933 -17.540  24.005  1.00  0.00    -0.000 C 
BRANCH  24  25
ATOM     25  C   UNL     1       7.103 -18.392  24.524  1.00  0.00    -0.000 C 
BRANCH  25  26
ATOM     26  C   UNL     1       7.044 -19.850  24.038  1.00  0.00    -0.000 C 
BRANCH  26  27
ATOM     27  C   UNL     1       6.208 -19.964  22.754  1.00  0.00    -0.000 C 
BRANCH  27  28
ATOM     28  C   UNL     1       7.073 -20.055  21.485  1.00  0.00    -0.000 C 
BRANCH  28  29
ATOM     29  C   UNL     1       7.744 -21.430  21.320  1.00  0.00    -0.003 C 
ATOM     30  C   UNL     1       8.459 -21.537  19.975  1.00  0.00     0.004 C 
ENDBRANCH  28  29
ENDBRANCH  27  28
ENDBRANCH  26  27
ENDBRANCH  25  26
ENDBRANCH  24  25
ENDBRANCH  23  24
ENDBRANCH  22  23
ENDBRANCH  21  22
ENDBRANCH  20  21
ENDBRANCH  19  20
ENDBRANCH  18  19
ENDBRANCH  17  18
ENDBRANCH   1  17
TORSDOF 26
ENDMDL
MODEL 2
REMARK VINA RESULT:    -4.222      1.910      5.495
REMARK INTER + INTRA:         -16.288
REMARK INTER:                 -10.709
REMARK INTRA:                  -5.579
REMARK UNBOUND:                -5.649
REMARK SMILES CCCCCCCCCCCCCCCCCCCCCCCCCCCC(=O)[O-]
REMARK SMILES IDX 15 1 16 2 17 3 18 4 19 5 20 6 21 7 22 8 23 9 24 10 25 11
REMARK SMILES IDX 26 12 27 13 28 14 29 15 30 16 14 17 13 18 12 19 11 20 10 21
REMARK SMILES IDX 9 22 8 23 7 24 6 25 5 26 4 27 3 28 2 29 1 30
REMARK H PARENT
REMARK Flexibility Score: inf
ROOT
ATOM      1  C   UNL     1       7.130 -16.738  22.312  1.00  0.00     0.000 C 
ENDROOT
BRANCH   1   2
ATOM      2  C   UNL     1       7.849 -17.290  21.066  1.00  0.00     0.000 C 
BRANCH   2   3
ATOM      3  C   UNL     1       9.208 -16.644  20.742  1.00  0.00     0.000 C 
BRANCH   3   4
ATOM      4  C   UNL     1      10.356 -17.186  21.612  1.00  0.00     0.000 C 
BRANCH   4   5
ATOM      5  C   UNL     1      11.389 -16.104  21.978  1.00  0.00     0.000 C 
BRANCH   5   6
ATOM      6  C   UNL     1      11.287 -15.554  23.415  1.00  0.00     0.000 C 
BRANCH   6   7
ATOM      7  C   UNL     1      10.008 -14.756  23.730  1.00  0.00     0.000 C 
BRANCH   7   8
ATOM      8  C   UNL     1       9.217 -15.333  24.918  1.00  0.00     0.000 C 
BRANCH   8   9
ATOM      9  C   UNL     1      10.088 -16.196  25.845  1.00  0.00     0.000 C 
BRANCH   9  10
ATOM     10  C   UNL     1       9.627 -17.662  25.896  1.00  0.00     0.000 C 
BRANCH  10  11
ATOM     11  C   UNL     1      10.742 -18.570  26.436  1.00  0.00     0.000 C 
BRANCH  11  12
ATOM     12  C   UNL     1      12.006 -18.550  25.564  1.00  0.00     0.006 C 
BRANCH  12  13
ATOM     13  C   UNL     1      11.800 -19.217  24.198  1.00  0.00     0.053 C 
BRANCH  13  14
ATOM     14  C   UNL     1      13.118 -19.493  23.543  1.00  0.00     0.041 C 
ATOM     15  O   UNL     1      13.792 -18.543  23.058  1.00  0.00    -0.550 OA
ATOM     16  O   UNL     1      13.578 -20.799  23.422  1.00  0.00    -0.550 OA
ENDBRANCH  13  14
ENDBRANCH  12  13
ENDBRANCH  11  12
ENDBRANCH  10  11
ENDBRANCH   9  10
ENDBRANCH   8   9
ENDBRANCH   7   8
ENDBRANCH   6   7
ENDBRANCH   5   6
ENDBRANCH   4   5
ENDBRANCH   3   4
ENDBRANCH   2   3
ENDBRANCH   1   2
BRANCH   1  17
ATOM     17  C   UNL     1       6.794 -17.802  23.380  1.00  0.00     0.000 C 
BRANCH  17  18
ATOM     18  C   UNL     1       7.670 -19.067  23.267  1.00  0.00     0.000 C 
BRANCH  18  19
ATOM     19  C   UNL     1       6.867 -20.346  22.957  1.00  0.00     0.000 C 
BRANCH  19  20
ATOM     20  C   UNL     1       7.050 -20.891  21.525  1.00  0.00     0.000 C 
BRANCH  20  21
ATOM     21  C   UNL     1       8.426 -21.507  21.200  1.00  0.00     0.000 C 
BRANCH  21  22
ATOM     22  C   UNL     1       9.324 -20.680  20.259  1.00  0.00    -0.000 C 
BRANCH  22  23
ATOM     23  C   UNL     1       8.625 -20.308  18.943  1.00  0.00    -0.000 C 
BRANCH  23  24
ATOM     24  C   UNL     1       9.426 -19.246  18.173  1.00  0.00    -0.000 C 
BRANCH  24  25
ATOM     25  C   UNL     1      10.519 -19.860  17.282  1.00  0.00    -0.000 C 
BRANCH  25  26
ATOM     26  C   UNL     1      11.750 -18.951  17.132  1.00  0.00    -0.000 C 
BRANCH  26  27
ATOM     27  C   UNL     1      11.913 -18.045  18.362  1.00  0.00    -0.000 C 
BRANCH  27  28
ATOM     28  C   UNL     1      13.117 -18.437  19.236  1.00  0.00    -0.000 C 
BRANCH  28  29
ATOM     29  C   UNL     1      13.610 -19.868  18.962  1.00  0.00    -0.003 C 
ATOM     30  C   UNL     1      13.025 -20.856  19.967  1.00  0.00     0.004 C 
ENDBRANCH  28  29
ENDBRANCH  27  28
ENDBRANCH  26  27
ENDBRANCH  25  26
ENDBRANCH  24  25
ENDBRANCH  23  24
ENDBRANCH  22  23
ENDBRANCH  21  22
ENDBRANCH  20  21
ENDBRANCH  19  20
ENDBRANCH  18  19
ENDBRANCH  17  18
ENDBRANCH   1  17
TORSDOF 26
ENDMDL
MODEL 3
REMARK VINA RESULT:    -4.218      1.894      4.999
REMARK INTER + INTRA:         -16.277
REMARK INTER:                 -10.695
REMARK INTRA:                  -5.583
REMARK UNBOUND:                -5.649
REMARK SMILES CCCCCCCCCCCCCCCCCCCCCCCCCCCC(=O)[O-]
REMARK SMILES IDX 15 1 16 2 17 3 18 4 19 5 20 6 21 7 22 8 23 9 24 10 25 11
REMARK SMILES IDX 26 12 27 13 28 14 29 15 30 16 14 17 13 18 12 19 11 20 10 21
REMARK SMILES IDX 9 22 8 23 7 24 6 25 5 26 4 27 3 28 2 29 1 30
REMARK H PARENT
REMARK Flexibility Score: inf
ROOT
ATOM      1  C   UNL     1       8.647 -18.821  25.114  1.00  0.00     0.000 C 
ENDROOT
BRANCH   1   2
ATOM      2  C   UNL     1       8.961 -17.529  25.894  1.00  0.00     0.000 C 
BRANCH   2   3
ATOM      3  C   UNL     1       7.993 -16.357  25.656  1.00  0.00     0.000 C 
BRANCH   3   4
ATOM      4  C   UNL     1       8.685 -15.112  25.075  1.00  0.00     0.000 C 
BRANCH   4   5
ATOM      5  C   UNL     1       8.159 -14.734  23.677  1.00  0.00     0.000 C 
BRANCH   5   6
ATOM      6  C   UNL     1       7.274 -15.796  22.996  1.00  0.00     0.000 C 
BRANCH   6   7
ATOM      7  C   UNL     1       7.811 -16.352  21.664  1.00  0.00     0.000 C 
BRANCH   7   8
ATOM      8  C   UNL     1       9.090 -17.190  21.834  1.00  0.00     0.000 C 
BRANCH   8   9
ATOM      9  C   UNL     1      10.336 -16.490  21.264  1.00  0.00     0.000 C 
BRANCH   9  10
ATOM     10  C   UNL     1      11.609 -16.800  22.068  1.00  0.00     0.000 C 
BRANCH  10  11
ATOM     11  C   UNL     1      11.349 -17.905  23.103  1.00  0.00     0.000 C 
BRANCH  11  12
ATOM     12  C   UNL     1      12.612 -18.707  23.452  1.00  0.00     0.006 C 
BRANCH  12  13
ATOM     13  C   UNL     1      13.333 -18.175  24.696  1.00  0.00     0.053 C 
BRANCH  13  14
ATOM     14  C   UNL     1      13.210 -19.143  25.832  1.00  0.00     0.041 C 
ATOM     15  O   UNL     1      12.084 -19.351  26.363  1.00  0.00    -0.550 OA
ATOM     16  O   UNL     1      14.340 -19.777  26.335  1.00  0.00    -0.550 OA
ENDBRANCH  13  14
ENDBRANCH  12  13
ENDBRANCH  11  12
ENDBRANCH  10  11
ENDBRANCH   9  10
ENDBRANCH   8   9
ENDBRANCH   7   8
ENDBRANCH   6   7
ENDBRANCH   5   6
ENDBRANCH   4   5
ENDBRANCH   3   4
ENDBRANCH   2   3
ENDBRANCH   1   2
BRANCH   1  17
ATOM     17  C   UNL     1       7.159 -19.237  25.139  1.00  0.00     0.000 C 
BRANCH  17  18
ATOM     18  C   UNL     1       6.789 -20.217  24.006  1.00  0.00     0.000 C 
BRANCH  18  19
ATOM     19  C   UNL     1       6.362 -19.516  22.701  1.00  0.00     0.000 C 
BRANCH  19  20
ATOM     20  C   UNL     1       6.952 -20.132  21.416  1.00  0.00     0.000 C 
BRANCH  20  21
ATOM     21  C   UNL     1       7.422 -21.597  21.515  1.00  0.00     0.000 C 
BRANCH  21  22
ATOM     22  C   UNL     1       8.465 -22.038  20.469  1.00  0.00    -0.000 C 
BRANCH  22  23
ATOM     23  C   UNL     1       9.781 -22.512  21.102  1.00  0.00    -0.000 C 
BRANCH  23  24
ATOM     24  C   UNL     1      10.616 -21.320  21.597  1.00  0.00    -0.000 C 
BRANCH  24  25
ATOM     25  C   UNL     1      11.827 -21.031  20.694  1.00  0.00    -0.000 C 
BRANCH  25  26
ATOM     26  C   UNL     1      11.589 -19.856  19.731  1.00  0.00    -0.000 C 
BRANCH  26  27
ATOM     27  C   UNL     1      11.082 -20.360  18.371  1.00  0.00    -0.000 C 
BRANCH  27  28
ATOM     28  C   UNL     1      10.173 -19.343  17.659  1.00  0.00    -0.000 C 
BRANCH  28  29
ATOM     29  C   UNL     1       8.857 -19.091  18.415  1.00  0.00    -0.003 C 
ATOM     30  C   UNL     1       8.374 -17.656  18.219  1.00  0.00     0.004 C 
ENDBRANCH  28  29
ENDBRANCH  27  28
ENDBRANCH  26  27
ENDBRANCH  25  26
ENDBRANCH  24  25
ENDBRANCH  23  24
ENDBRANCH  22  23
ENDBRANCH  21  22
ENDBRANCH  20  21
ENDBRANCH  19  20
ENDBRANCH  18  19
ENDBRANCH  17  18
ENDBRANCH   1  17
TORSDOF 26
ENDMDL
MODEL 4
REMARK VINA RESULT:    -4.210      2.440      5.895
REMARK INTER + INTRA:         -16.259
REMARK INTER:                 -10.817
REMARK INTRA:                  -5.442
REMARK UNBOUND:                -5.649
REMARK SMILES CCCCCCCCCCCCCCCCCCCCCCCCCCCC(=O)[O-]
REMARK SMILES IDX 15 1 16 2 17 3 18 4 19 5 20 6 21 7 22 8 23 9 24 10 25 11
REMARK SMILES IDX 26 12 27 13 28 14 29 15 30 16 14 17 13 18 12 19 11 20 10 21
REMARK SMILES IDX 9 22 8 23 7 24 6 25 5 26 4 27 3 28 2 29 1 30
REMARK H PARENT
REMARK Flexibility Score: inf
ROOT
ATOM      1  C   UNL     1       6.760 -15.514  22.484  1.00  0.00     0.000 C 
ENDROOT
BRANCH   1   2
ATOM      2  C   UNL     1       7.569 -14.468  23.276  1.00  0.00     0.000 C 
BRANCH   2   3
ATOM      3  C   UNL     1       8.868 -14.981  23.920  1.00  0.00     0.000 C 
BRANCH   3   4
ATOM      4  C   UNL     1       8.743 -15.204  25.437  1.00  0.00     0.000 C 
BRANCH   4   5
ATOM      5  C   UNL     1       7.989 -16.499  25.791  1.00  0.00     0.000 C 
BRANCH   5   6
ATOM      6  C   UNL     1       8.828 -17.791  25.723  1.00  0.00     0.000 C 
BRANCH   6   7
ATOM      7  C   UNL     1      10.326 -17.626  26.040  1.00  0.00     0.000 C 
BRANCH   7   8
ATOM      8  C   UNL     1      11.240 -18.253  24.972  1.00  0.00     0.000 C 
BRANCH   8   9
ATOM      9  C   UNL     1      10.486 -18.595  23.676  1.00  0.00     0.000 C 
BRANCH   9  10
ATOM     10  C   UNL     1      10.898 -17.698  22.497  1.00  0.00     0.000 C 
BRANCH  10  11
ATOM     11  C   UNL     1      12.207 -16.956  22.804  1.00  0.00     0.000 C 
BRANCH  11  12
ATOM     12  C   UNL     1      12.071 -15.430  22.691  1.00  0.00     0.006 C 
BRANCH  12  13
ATOM     13  C   UNL     1      13.298 -14.766  22.053  1.00  0.00     0.053 C 
BRANCH  13  14
ATOM     14  C   UNL     1      13.219 -14.838  20.559  1.00  0.00     0.041 C 
ATOM     15  O   UNL     1      14.218 -14.514  19.859  1.00  0.00    -0.550 OA
ATOM     16  O   UNL     1      12.033 -15.214  19.939  1.00  0.00    -0.550 OA
ENDBRANCH  13  14
ENDBRANCH  12  13
ENDBRANCH  11  12
ENDBRANCH  10  11
ENDBRANCH   9  10
ENDBRANCH   8   9
ENDBRANCH   7   8
ENDBRANCH   6   7
ENDBRANCH   5   6
ENDBRANCH   4   5
ENDBRANCH   3   4
ENDBRANCH   2   3
ENDBRANCH   1   2
BRANCH   1  17
ATOM     17  C   UNL     1       7.579 -16.288  21.426  1.00  0.00     0.000 C 
BRANCH  17  18
ATOM     18  C   UNL     1       7.295 -17.804  21.436  1.00  0.00     0.000 C 
BRANCH  18  19
ATOM     19  C   UNL     1       6.794 -18.327  22.797  1.00  0.00     0.000 C 
BRANCH  19  20
ATOM     20  C   UNL     1       7.020 -19.835  23.032  1.00  0.00     0.000 C 
BRANCH  20  21
ATOM     21  C   UNL     1       6.949 -20.737  21.783  1.00  0.00     0.000 C 
BRANCH  21  22
ATOM     22  C   UNL     1       8.299 -21.276  21.270  1.00  0.00    -0.000 C 
BRANCH  22  23
ATOM     23  C   UNL     1       8.243 -21.727  19.803  1.00  0.00    -0.000 C 
BRANCH  23  24
ATOM     24  C   UNL     1       8.849 -20.663  18.875  1.00  0.00    -0.000 C 
BRANCH  24  25
ATOM     25  C   UNL     1       9.920 -19.808  19.574  1.00  0.00    -0.000 C 
BRANCH  25  26
ATOM     26  C   UNL     1      11.253 -19.776  18.810  1.00  0.00    -0.000 C 
BRANCH  26  27
ATOM     27  C   UNL     1      12.396 -20.318  19.682  1.00  0.00    -0.000 C 
BRANCH  27  28
ATOM     28  C   UNL     1      11.950 -21.464  20.606  1.00  0.00    -0.000 C 
BRANCH  28  29
ATOM     29  C   UNL     1      12.361 -21.241  22.072  1.00  0.00    -0.003 C 
ATOM     30  C   UNL     1      13.625 -20.391  22.168  1.00  0.00     0.004 C 
ENDBRANCH  28  29
ENDBRANCH  27  28
ENDBRANCH  26  27
ENDBRANCH  25  26
ENDBRANCH  24  25
ENDBRANCH  23  24
ENDBRANCH  22  23
ENDBRANCH  21  22
ENDBRANCH  20  21
ENDBRANCH  19  20
ENDBRANCH  18  19
ENDBRANCH  17  18
ENDBRANCH   1  17
TORSDOF 26
ENDMDL
MODEL 5
REMARK VINA RESULT:    -4.205      1.807      6.568
REMARK INTER + INTRA:         -16.245
REMARK INTER:                 -10.436
REMARK INTRA:                  -5.809
REMARK UNBOUND:                -5.649
REMARK SMILES CCCCCCCCCCCCCCCCCCCCCCCCCCCC(=O)[O-]
REMARK SMILES IDX 15 1 16 2 17 3 18 4 19 5 20 6 21 7 22 8 23 9 24 10 25 11
REMARK SMILES IDX 26 12 27 13 28 14 29 15 30 16 14 17 13 18 12 19 11 20 10 21
REMARK SMILES IDX 9 22 8 23 7 24 6 25 5 26 4 27 3 28 2 29 1 30
REMARK H PARENT
REMARK Flexibility Score: inf
ROOT
ATOM      1  C   UNL     1       8.132 -17.822  21.251  1.00  0.00     0.000 C 
ENDROOT
BRANCH   1   2
ATOM      2  C   UNL     1       8.381 -18.851  22.372  1.00  0.00     0.000 C 
BRANCH   2   3
ATOM      3  C   UNL     1       7.211 -19.805  22.670  1.00  0.00     0.000 C 
BRANCH   3   4
ATOM      4  C   UNL     1       6.749 -19.751  24.137  1.00  0.00     0.000 C 
BRANCH   4   5
ATOM      5  C   UNL     1       7.736 -18.997  25.047  1.00  0.00     0.000 C 
BRANCH   5   6
ATOM      6  C   UNL     1       7.125 -17.848  25.875  1.00  0.00     0.000 C 
BRANCH   6   7
ATOM      7  C   UNL     1       7.896 -16.516  25.831  1.00  0.00     0.000 C 
BRANCH   7   8
ATOM      8  C   UNL     1       7.887 -15.862  24.438  1.00  0.00     0.000 C 
BRANCH   8   9
ATOM      9  C   UNL     1       8.975 -14.786  24.283  1.00  0.00     0.000 C 
BRANCH   9  10
ATOM     10  C   UNL     1      10.169 -15.267  23.442  1.00  0.00     0.000 C 
BRANCH  10  11
ATOM     11  C   UNL     1      11.191 -16.010  24.315  1.00  0.00     0.000 C 
BRANCH  11  12
ATOM     12  C   UNL     1      11.474 -17.437  23.823  1.00  0.00     0.006 C 
BRANCH  12  13
ATOM     13  C   UNL     1      11.287 -18.496  24.917  1.00  0.00     0.053 C 
BRANCH  13  14
ATOM     14  C   UNL     1      12.613 -18.995  25.401  1.00  0.00     0.041 C 
ATOM     15  O   UNL     1      12.720 -19.471  26.564  1.00  0.00    -0.550 OA
ATOM     16  O   UNL     1      13.737 -18.889  24.590  1.00  0.00    -0.550 OA
ENDBRANCH  13  14
ENDBRANCH  12  13
ENDBRANCH  11  12
ENDBRANCH  10  11
ENDBRANCH   9  10
ENDBRANCH   8   9
ENDBRANCH   7   8
ENDBRANCH   6   7
ENDBRANCH   5   6
ENDBRANCH   4   5
ENDBRANCH   3   4
ENDBRANCH   2   3
ENDBRANCH   1   2
BRANCH   1  17
ATOM     17  C   UNL     1       8.853 -18.137  19.922  1.00  0.00     0.000 C 
BRANCH  17  18
ATOM     18  C   UNL     1       8.160 -19.250  19.109  1.00  0.00     0.000 C 
BRANCH  18  19
ATOM     19  C   UNL     1       8.980 -20.553  19.024  1.00  0.00     0.000 C 
BRANCH  19  20
ATOM     20  C   UNL     1       8.427 -21.720  19.867  1.00  0.00     0.000 C 
BRANCH  20  21
ATOM     21  C   UNL     1       9.338 -22.234  21.000  1.00  0.00     0.000 C 
BRANCH  21  22
ATOM     22  C   UNL     1      10.832 -21.878  20.871  1.00  0.00    -0.000 C 
BRANCH  22  23
ATOM     23  C   UNL     1      11.318 -20.935  21.980  1.00  0.00    -0.000 C 
BRANCH  23  24
ATOM     24  C   UNL     1      12.514 -20.093  21.505  1.00  0.00    -0.000 C 
BRANCH  24  25
ATOM     25  C   UNL     1      12.126 -19.072  20.422  1.00  0.00    -0.000 C 
BRANCH  25  26
ATOM     26  C   UNL     1      12.879 -17.739  20.560  1.00  0.00    -0.000 C 
BRANCH  26  27
ATOM     27  C   UNL     1      12.214 -16.645  19.711  1.00  0.00    -0.000 C 
BRANCH  27  28
ATOM     28  C   UNL     1      12.527 -15.226  20.214  1.00  0.00    -0.000 C 
BRANCH  28  29
ATOM     29  C   UNL     1      13.531 -15.216  21.380  1.00  0.00    -0.003 C 
ATOM     30  C   UNL     1      13.497 -13.885  22.126  1.00  0.00     0.004 C 
ENDBRANCH  28  29
ENDBRANCH  27  28
ENDBRANCH  26  27
ENDBRANCH  25  26
ENDBRANCH  24  25
ENDBRANCH  23  24
ENDBRANCH  22  23
ENDBRANCH  21  22
ENDBRANCH  20  21
ENDBRANCH  19  20
ENDBRANCH  18  19
ENDBRANCH  17  18
ENDBRANCH   1  17
TORSDOF 26
ENDMDL
MODEL 6
REMARK VINA RESULT:    -4.183      2.631      4.980
REMARK INTER + INTRA:         -16.190
REMARK INTER:                 -10.176
REMARK INTRA:                  -6.015
REMARK UNBOUND:                -5.649
REMARK SMILES CCCCCCCCCCCCCCCCCCCCCCCCCCCC(=O)[O-]
REMARK SMILES IDX 15 1 16 2 17 3 18 4 19 5 20 6 21 7 22 8 23 9 24 10 25 11
REMARK SMILES IDX 26 12 27 13 28 14 29 15 30 16 14 17 13 18 12 19 11 20 10 21
REMARK SMILES IDX 9 22 8 23 7 24 6 25 5 26 4 27 3 28 2 29 1 30
REMARK H PARENT
REMARK Flexibility Score: inf
ROOT
ATOM      1  C   UNL     1      10.853 -21.457  20.897  1.00  0.00     0.000 C 
ENDROOT
BRANCH   1   2
ATOM      2  C   UNL     1       9.453 -22.092  21.006  1.00  0.00     0.000 C 
BRANCH   2   3
ATOM      3  C   UNL     1       8.463 -21.711  19.892  1.00  0.00     0.000 C 
BRANCH   3   4
ATOM      4  C   UNL     1       7.891 -20.292  20.052  1.00  0.00     0.000 C 
BRANCH   4   5
ATOM      5  C   UNL     1       8.424 -19.310  18.992  1.00  0.00     0.000 C 
BRANCH   5   6
ATOM      6  C   UNL     1       8.564 -17.847  19.459  1.00  0.00     0.000 C 
BRANCH   6   7
ATOM      7  C   UNL     1      10.006 -17.313  19.540  1.00  0.00     0.000 C 
BRANCH   7   8
ATOM      8  C   UNL     1      11.029 -18.237  18.858  1.00  0.00     0.000 C 
BRANCH   8   9
ATOM      9  C   UNL     1      12.384 -18.260  19.586  1.00  0.00     0.000 C 
BRANCH   9  10
ATOM     10  C   UNL     1      12.588 -17.037  20.496  1.00  0.00     0.000 C 
BRANCH  10  11
ATOM     11  C   UNL     1      13.690 -17.303  21.533  1.00  0.00     0.000 C 
BRANCH  11  12
ATOM     12  C   UNL     1      13.654 -16.317  22.710  1.00  0.00     0.006 C 
BRANCH  12  13
ATOM     13  C   UNL     1      12.763 -15.098  22.442  1.00  0.00     0.053 C 
BRANCH  13  14
ATOM     14  C   UNL     1      13.581 -13.942  21.957  1.00  0.00     0.041 C 
ATOM     15  O   UNL     1      13.960 -13.053  22.769  1.00  0.00    -0.550 OA
ATOM     16  O   UNL     1      13.885 -13.820  20.607  1.00  0.00    -0.550 OA
ENDBRANCH  13  14
ENDBRANCH  12  13
ENDBRANCH  11  12
ENDBRANCH  10  11
ENDBRANCH   9  10
ENDBRANCH   8   9
ENDBRANCH   7   8
ENDBRANCH   6   7
ENDBRANCH   5   6
ENDBRANCH   4   5
ENDBRANCH   3   4
ENDBRANCH   2   3
ENDBRANCH   1   2
BRANCH   1  17
ATOM     17  C   UNL     1      11.287 -20.650  22.142  1.00  0.00     0.000 C 
BRANCH  17  18
ATOM     18  C   UNL     1      10.306 -19.512  22.494  1.00  0.00     0.000 C 
BRANCH  18  19
ATOM     19  C   UNL     1      10.829 -18.569  23.596  1.00  0.00     0.000 C 
BRANCH  19  20
ATOM     20  C   UNL     1      10.141 -18.735  24.967  1.00  0.00     0.000 C 
BRANCH  20  21
ATOM     21  C   UNL     1      10.511 -17.698  26.046  1.00  0.00     0.000 C 
BRANCH  21  22
ATOM     22  C   UNL     1      10.554 -16.230  25.575  1.00  0.00    -0.000 C 
BRANCH  22  23
ATOM     23  C   UNL     1       9.156 -15.622  25.393  1.00  0.00    -0.000 C 
BRANCH  23  24
ATOM     24  C   UNL     1       9.076 -14.799  24.097  1.00  0.00    -0.000 C 
BRANCH  24  25
ATOM     25  C   UNL     1       8.945 -15.681  22.844  1.00  0.00    -0.000 C 
BRANCH  25  26
ATOM     26  C   UNL     1       7.484 -16.000  22.487  1.00  0.00    -0.000 C 
BRANCH  26  27
ATOM     27  C   UNL     1       7.176 -17.486  22.727  1.00  0.00    -0.000 C 
BRANCH  27  28
ATOM     28  C   UNL     1       6.455 -17.738  24.062  1.00  0.00    -0.000 C 
BRANCH  28  29
ATOM     29  C   UNL     1       6.755 -19.128  24.647  1.00  0.00    -0.003 C 
ATOM     30  C   UNL     1       6.780 -20.194  23.555  1.00  0.00     0.004 C 
ENDBRANCH  28  29
ENDBRANCH  27  28
ENDBRANCH  26  27
ENDBRANCH  25  26
ENDBRANCH  24  25
ENDBRANCH  23  24
ENDBRANCH  22  23
ENDBRANCH  21  22
ENDBRANCH  20  21
ENDBRANCH  19  20
ENDBRANCH  18  19
ENDBRANCH  17  18
ENDBRANCH   1  17
TORSDOF 26
ENDMDL
MODEL 7
REMARK VINA RESULT:    -4.183      1.537      4.180
REMARK INTER + INTRA:         -16.190
REMARK INTER:                 -11.207
REMARK INTRA:                  -4.983
REMARK UNBOUND:                -5.649
REMARK SMILES CCCCCCCCCCCCCCCCCCCCCCCCCCCC(=O)[O-]
REMARK SMILES IDX 15 1 16 2 17 3 18 4 19 5 20 6 21 7 22 8 23 9 24 10 25 11
REMARK SMILES IDX 26 12 27 13 28 14 29 15 30 16 14 17 13 18 12 19 11 20 10 21
REMARK SMILES IDX 9 22 8 23 7 24 6 25 5 26 4 27 3 28 2 29 1 30
REMARK H PARENT
REMARK Flexibility Score: inf
ROOT
ATOM      1  C   UNL     1       9.298 -14.748  23.827  1.00  0.00     0.000 C 
ENDROOT
BRANCH   1   2
ATOM      2  C   UNL     1       9.997 -15.911  24.558  1.00  0.00     0.000 C 
BRANCH   2   3
ATOM      3  C   UNL     1      11.411 -16.254  24.060  1.00  0.00     0.000 C 
BRANCH   3   4
ATOM      4  C   UNL     1      11.996 -15.185  23.120  1.00  0.00     0.000 C 
BRANCH   4   5
ATOM      5  C   UNL     1      13.511 -15.349  22.899  1.00  0.00     0.000 C 
BRANCH   5   6
ATOM      6  C   UNL     1      13.983 -16.785  22.593  1.00  0.00     0.000 C 
BRANCH   6   7
ATOM      7  C   UNL     1      14.289 -17.080  21.112  1.00  0.00     0.000 C 
BRANCH   7   8
ATOM      8  C   UNL     1      14.999 -18.429  20.903  1.00  0.00     0.000 C 
BRANCH   8   9
ATOM      9  C   UNL     1      16.203 -18.616  21.842  1.00  0.00     0.000 C 
BRANCH   9  10
ATOM     10  C   UNL     1      16.204 -19.988  22.537  1.00  0.00     0.000 C 
BRANCH  10  11
ATOM     11  C   UNL     1      14.811 -20.633  22.479  1.00  0.00     0.000 C 
BRANCH  11  12
ATOM     12  C   UNL     1      14.290 -21.057  23.861  1.00  0.00     0.006 C 
BRANCH  12  13
ATOM     13  C   UNL     1      13.617 -19.909  24.623  1.00  0.00     0.053 C 
BRANCH  13  14
ATOM     14  C   UNL     1      14.330 -19.642  25.912  1.00  0.00     0.041 C 
ATOM     15  O   UNL     1      14.092 -18.584  26.557  1.00  0.00    -0.550 OA
ATOM     16  O   UNL     1      15.292 -20.532  26.376  1.00  0.00    -0.550 OA
ENDBRANCH  13  14
ENDBRANCH  12  13
ENDBRANCH  11  12
ENDBRANCH  10  11
ENDBRANCH   9  10
ENDBRANCH   8   9
ENDBRANCH   7   8
ENDBRANCH   6   7
ENDBRANCH   5   6
ENDBRANCH   4   5
ENDBRANCH   3   4
ENDBRANCH   2   3
ENDBRANCH   1   2
BRANCH   1  17
ATOM     17  C   UNL     1       7.924 -15.109  23.218  1.00  0.00     0.000 C 
BRANCH  17  18
ATOM     18  C   UNL     1       7.345 -16.426  23.777  1.00  0.00     0.000 C 
BRANCH  18  19
ATOM     19  C   UNL     1       7.136 -17.510  22.702  1.00  0.00     0.000 C 
BRANCH  19  20
ATOM     20  C   UNL     1       6.471 -18.805  23.213  1.00  0.00     0.000 C 
BRANCH  20  21
ATOM     21  C   UNL     1       7.225 -20.119  22.923  1.00  0.00     0.000 C 
BRANCH  21  22
ATOM     22  C   UNL     1       6.964 -20.748  21.540  1.00  0.00    -0.000 C 
BRANCH  22  23
ATOM     23  C   UNL     1       8.030 -21.781  21.144  1.00  0.00    -0.000 C 
BRANCH  23  24
ATOM     24  C   UNL     1       8.885 -21.270  19.974  1.00  0.00    -0.000 C 
BRANCH  24  25
ATOM     25  C   UNL     1      10.386 -21.235  20.308  1.00  0.00    -0.000 C 
BRANCH  25  26
ATOM     26  C   UNL     1      10.660 -21.134  21.818  1.00  0.00    -0.000 C 
BRANCH  26  27
ATOM     27  C   UNL     1      10.798 -19.666  22.251  1.00  0.00    -0.000 C 
BRANCH  27  28
ATOM     28  C   UNL     1      11.207 -18.739  21.094  1.00  0.00    -0.000 C 
BRANCH  28  29
ATOM     29  C   UNL     1      10.240 -17.556  20.908  1.00  0.00    -0.003 C 
ATOM     30  C   UNL     1      10.811 -16.523  19.941  1.00  0.00     0.004 C 
ENDBRANCH  28  29
ENDBRANCH  27  28
ENDBRANCH  26  27
ENDBRANCH  25  26
ENDBRANCH  24  25
ENDBRANCH  23  24
ENDBRANCH  22  23
ENDBRANCH  21  22
ENDBRANCH  20  21
ENDBRANCH  19  20
ENDBRANCH  18  19
ENDBRANCH  17  18
ENDBRANCH   1  17
TORSDOF 26
ENDMDL
MODEL 8
REMARK VINA RESULT:    -4.165      1.896      5.280
REMARK INTER + INTRA:         -16.144
REMARK INTER:                 -10.406
REMARK INTRA:                  -5.738
REMARK UNBOUND:                -5.649
REMARK SMILES CCCCCCCCCCCCCCCCCCCCCCCCCCCC(=O)[O-]
REMARK SMILES IDX 15 1 16 2 17 3 18 4 19 5 20 6 21 7 22 8 23 9 24 10 25 11
REMARK SMILES IDX 26 12 27 13 28 14 29 15 30 16 14 17 13 18 12 19 11 20 10 21
REMARK SMILES IDX 9 22 8 23 7 24 6 25 5 26 4 27 3 28 2 29 1 30
REMARK H PARENT
REMARK Flexibility Score: inf
ROOT
ATOM      1  C   UNL     1       7.502 -16.696  19.555  1.00  0.00     0.000 C 
ENDROOT
BRANCH   1   2
ATOM      2  C   UNL     1       7.947 -16.693  21.030  1.00  0.00     0.000 C 
BRANCH   2   3
ATOM      3  C   UNL     1       6.923 -16.132  22.032  1.00  0.00     0.000 C 
BRANCH   3   4
ATOM      4  C   UNL     1       7.487 -14.991  22.896  1.00  0.00     0.000 C 
BRANCH   4   5
ATOM      5  C   UNL     1       7.942 -15.465  24.289  1.00  0.00     0.000 C 
BRANCH   5   6
ATOM      6  C   UNL     1       9.371 -15.050  24.693  1.00  0.00     0.000 C 
BRANCH   6   7
ATOM      7  C   UNL     1      10.468 -15.353  23.655  1.00  0.00     0.000 C 
BRANCH   7   8
ATOM      8  C   UNL     1      11.200 -16.680  23.924  1.00  0.00     0.000 C 
BRANCH   8   9
ATOM      9  C   UNL     1      10.919 -17.739  22.845  1.00  0.00     0.000 C 
BRANCH   9  10
ATOM     10  C   UNL     1      11.555 -17.387  21.490  1.00  0.00     0.000 C 
BRANCH  10  11
ATOM     11  C   UNL     1      13.062 -17.126  21.642  1.00  0.00     0.000 C 
BRANCH  11  12
ATOM     12  C   UNL     1      13.927 -18.230  21.016  1.00  0.00     0.006 C 
BRANCH  12  13
ATOM     13  C   UNL     1      14.976 -18.789  21.984  1.00  0.00     0.053 C 
BRANCH  13  14
ATOM     14  C   UNL     1      14.322 -19.589  23.067  1.00  0.00     0.041 C 
ATOM     15  O   UNL     1      14.243 -19.121  24.236  1.00  0.00    -0.550 OA
ATOM     16  O   UNL     1      13.843 -20.866  22.800  1.00  0.00    -0.550 OA
ENDBRANCH  13  14
ENDBRANCH  12  13
ENDBRANCH  11  12
ENDBRANCH  10  11
ENDBRANCH   9  10
ENDBRANCH   8   9
ENDBRANCH   7   8
ENDBRANCH   6   7
ENDBRANCH   5   6
ENDBRANCH   4   5
ENDBRANCH   3   4
ENDBRANCH   2   3
ENDBRANCH   1   2
BRANCH   1  17
ATOM     17  C   UNL     1       7.873 -17.980  18.778  1.00  0.00     0.000 C 
BRANCH  17  18
ATOM     18  C   UNL     1       9.378 -18.070  18.449  1.00  0.00     0.000 C 
BRANCH  18  19
ATOM     19  C   UNL     1       9.889 -19.517  18.297  1.00  0.00     0.000 C 
BRANCH  19  20
ATOM     20  C   UNL     1      11.362 -19.727  18.703  1.00  0.00     0.000 C 
BRANCH  20  21
ATOM     21  C   UNL     1      11.654 -20.944  19.603  1.00  0.00     0.000 C 
BRANCH  21  22
ATOM     22  C   UNL     1      10.856 -21.007  20.921  1.00  0.00    -0.000 C 
BRANCH  22  23
ATOM     23  C   UNL     1      10.022 -22.290  21.051  1.00  0.00    -0.000 C 
BRANCH  23  24
ATOM     24  C   UNL     1       8.518 -21.980  20.980  1.00  0.00    -0.000 C 
BRANCH  24  25
ATOM     25  C   UNL     1       8.199 -20.514  21.317  1.00  0.00    -0.000 C 
BRANCH  25  26
ATOM     26  C   UNL     1       6.699 -20.264  21.545  1.00  0.00    -0.000 C 
BRANCH  26  27
ATOM     27  C   UNL     1       6.420 -19.922  23.016  1.00  0.00    -0.000 C 
BRANCH  27  28
ATOM     28  C   UNL     1       7.646 -19.336  23.736  1.00  0.00    -0.000 C 
BRANCH  28  29
ATOM     29  C   UNL     1       7.448 -19.227  25.258  1.00  0.00    -0.003 C 
ATOM     30  C   UNL     1       8.677 -18.625  25.933  1.00  0.00     0.004 C 
ENDBRANCH  28  29
ENDBRANCH  27  28
ENDBRANCH  26  27
ENDBRANCH  25  26
ENDBRANCH  24  25
ENDBRANCH  23  24
ENDBRANCH  22  23
ENDBRANCH  21  22
ENDBRANCH  20  21
ENDBRANCH  19  20
ENDBRANCH  18  19
ENDBRANCH  17  18
ENDBRANCH   1  17
TORSDOF 26
ENDMDL
MODEL 9
REMARK VINA RESULT:    -4.146      2.997      7.124
REMARK INTER + INTRA:         -16.097
REMARK INTER:                  -9.866
REMARK INTRA:                  -6.231
REMARK UNBOUND:                -5.649
REMARK SMILES CCCCCCCCCCCCCCCCCCCCCCCCCCCC(=O)[O-]
REMARK SMILES IDX 15 1 16 2 17 3 18 4 19 5 20 6 21 7 22 8 23 9 24 10 25 11
REMARK SMILES IDX 26 12 27 13 28 14 29 15 30 16 14 17 13 18 12 19 11 20 10 21
REMARK SMILES IDX 9 22 8 23 7 24 6 25 5 26 4 27 3 28 2 29 1 30
REMARK H PARENT
REMARK Flexibility Score: inf
ROOT
ATOM      1  C   UNL     1       9.870 -21.599  20.541  1.00  0.00     0.000 C 
ENDROOT
BRANCH   1   2
ATOM      2  C   UNL     1       8.349 -21.572  20.289  1.00  0.00     0.000 C 
BRANCH   2   3
ATOM      3  C   UNL     1       7.471 -21.410  21.542  1.00  0.00     0.000 C 
BRANCH   3   4
ATOM      4  C   UNL     1       6.640 -20.115  21.532  1.00  0.00     0.000 C 
BRANCH   4   5
ATOM      5  C   UNL     1       6.228 -19.659  22.945  1.00  0.00     0.000 C 
BRANCH   5   6
ATOM      6  C   UNL     1       7.274 -19.909  24.050  1.00  0.00     0.000 C 
BRANCH   6   7
ATOM      7  C   UNL     1       7.302 -18.867  25.184  1.00  0.00     0.000 C 
BRANCH   7   8
ATOM      8  C   UNL     1       6.803 -17.481  24.739  1.00  0.00     0.000 C 
BRANCH   8   9
ATOM      9  C   UNL     1       7.931 -16.437  24.683  1.00  0.00     0.000 C 
BRANCH   9  10
ATOM     10  C   UNL     1       7.786 -15.471  23.495  1.00  0.00     0.000 C 
BRANCH  10  11
ATOM     11  C   UNL     1       7.064 -16.150  22.321  1.00  0.00     0.000 C 
BRANCH  11  12
ATOM     12  C   UNL     1       8.027 -16.639  21.229  1.00  0.00     0.006 C 
BRANCH  12  13
ATOM     13  C   UNL     1       7.521 -16.347  19.811  1.00  0.00     0.053 C 
BRANCH  13  14
ATOM     14  C   UNL     1       7.999 -17.395  18.854  1.00  0.00     0.041 C 
ATOM     15  O   UNL     1       9.125 -17.274  18.298  1.00  0.00    -0.550 OA
ATOM     16  O   UNL     1       7.185 -18.476  18.539  1.00  0.00    -0.550 OA
ENDBRANCH  13  14
ENDBRANCH  12  13
ENDBRANCH  11  12
ENDBRANCH  10  11
ENDBRANCH   9  10
ENDBRANCH   8   9
ENDBRANCH   7   8
ENDBRANCH   6   7
ENDBRANCH   5   6
ENDBRANCH   4   5
ENDBRANCH   3   4
ENDBRANCH   2   3
ENDBRANCH   1   2
BRANCH   1  17
ATOM     17  C   UNL     1      10.482 -20.229  20.909  1.00  0.00     0.000 C 
BRANCH  17  18
ATOM     18  C   UNL     1      10.711 -20.059  22.425  1.00  0.00     0.000 C 
BRANCH  18  19
ATOM     19  C   UNL     1      10.506 -18.614  22.921  1.00  0.00     0.000 C 
BRANCH  19  20
ATOM     20  C   UNL     1      11.124 -18.312  24.301  1.00  0.00     0.000 C 
BRANCH  20  21
ATOM     21  C   UNL     1      11.690 -16.892  24.498  1.00  0.00     0.000 C 
BRANCH  21  22
ATOM     22  C   UNL     1      11.446 -15.907  23.337  1.00  0.00    -0.000 C 
BRANCH  22  23
ATOM     23  C   UNL     1      12.710 -15.130  22.939  1.00  0.00    -0.000 C 
BRANCH  23  24
ATOM     24  C   UNL     1      12.945 -15.199  21.422  1.00  0.00    -0.000 C 
BRANCH  24  25
ATOM     25  C   UNL     1      11.765 -15.835  20.668  1.00  0.00    -0.000 C 
BRANCH  25  26
ATOM     26  C   UNL     1      12.156 -17.119  19.917  1.00  0.00    -0.000 C 
BRANCH  26  27
ATOM     27  C   UNL     1      13.678 -17.328  19.949  1.00  0.00    -0.000 C 
BRANCH  27  28
ATOM     28  C   UNL     1      14.075 -18.771  20.305  1.00  0.00    -0.000 C 
BRANCH  28  29
ATOM     29  C   UNL     1      14.084 -19.029  21.822  1.00  0.00    -0.003 C 
ATOM     30  C   UNL     1      15.036 -18.075  22.538  1.00  0.00     0.004 C 
ENDBRANCH  28  29
ENDBRANCH  27  28
ENDBRANCH  26  27
ENDBRANCH  25  26
ENDBRANCH  24  25
ENDBRANCH  23  24
ENDBRANCH  22  23
ENDBRANCH  21  22
ENDBRANCH  20  21
ENDBRANCH  19  20
ENDBRANCH  18  19
ENDBRANCH  17  18
ENDBRANCH   1  17
TORSDOF 26
ENDMDL
