MODEL 1
REMARK VINA RESULT:    -8.437      0.000      0.000
REMARK INTER + INTRA:         -10.195
REMARK INTER:                  -9.917
REMARK INTRA:                  -0.278
REMARK UNBOUND:                -0.278
REMARK SMILES O=c1cc(-c2ccc(O)c(O)c2)oc2cc(O)cc(O)c12
REMARK SMILES IDX 4 1 3 2 2 3 1 4 21 5 19 6 18 7 16 8 15 9 14 10 13 11 5 12
REMARK SMILES IDX 6 13 7 14 8 15 12 16 10 17 9 18 11 20 20 22 17 24
REMARK H PARENT 9 19 11 21 20 23 17 25
REMARK Flexibility Score: inf
ROOT
ATOM      1  C   UNL     1      -0.084 -26.484  -0.389  1.00  0.00     0.138 A 
ATOM      2  C   UNL     1       0.464 -26.267  -1.661  1.00  0.00     0.100 A 
ATOM      3  C   UNL     1       1.717 -26.795  -1.972  1.00  0.00     0.197 A 
ATOM      4  O   UNL     1       2.155 -26.636  -3.140  1.00  0.00    -0.289 OA
ATOM      5  C   UNL     1       2.438 -27.519  -0.992  1.00  0.00     0.107 A 
ATOM      6  C   UNL     1       3.741 -28.068  -1.184  1.00  0.00     0.134 A 
ATOM      7  C   UNL     1       4.308 -28.866  -0.181  1.00  0.00     0.093 A 
ATOM      8  C   UNL     1       3.644 -29.083   1.029  1.00  0.00     0.123 A 
ATOM      9  C   UNL     1       2.395 -28.506   1.246  1.00  0.00     0.094 A 
ATOM     10  C   UNL     1       1.788 -27.734   0.253  1.00  0.00     0.146 A 
ATOM     11  O   UNL     1       0.590 -27.214   0.494  1.00  0.00    -0.456 OA
ENDROOT
BRANCH   1  12
ATOM     12  C   UNL     1      -1.412 -25.944  -0.005  1.00  0.00     0.021 A 
ATOM     13  C   UNL     1      -1.631 -24.555  -0.042  1.00  0.00     0.016 A 
ATOM     14  C   UNL     1      -2.875 -24.022   0.307  1.00  0.00     0.051 A 
ATOM     15  C   UNL     1      -3.924 -24.867   0.689  1.00  0.00     0.157 A 
ATOM     16  C   UNL     1      -2.476 -26.788   0.368  1.00  0.00     0.062 A 
ATOM     17  C   UNL     1      -3.723 -26.256   0.716  1.00  0.00     0.158 A 
BRANCH  15  18
ATOM     18  O   UNL     1      -5.163 -24.332   1.039  1.00  0.00    -0.504 OA
ATOM     19  H   UNL     1      -5.531 -23.504   0.584  1.00  0.00     0.293 HD
ENDBRANCH  15  18
BRANCH  17  20
ATOM     20  O   UNL     1      -4.751 -27.125   1.082  1.00  0.00    -0.504 OA
ATOM     21  H   UNL     1      -4.575 -27.984   1.589  1.00  0.00     0.293 HD
ENDBRANCH  17  20
ENDBRANCH   1  12
BRANCH   6  22
ATOM     22  O   UNL     1       4.524 -27.843  -2.319  1.00  0.00    -0.507 OA
ATOM     23  H   UNL     1       4.183 -27.467  -3.191  1.00  0.00     0.293 HD
ENDBRANCH   6  22
BRANCH   8  24
ATOM     24  O   UNL     1       4.222 -29.864   2.026  1.00  0.00    -0.508 OA
ATOM     25  H   UNL     1       4.685 -29.445   2.825  1.00  0.00     0.293 HD
ENDBRANCH   8  24
TORSDOF 5
ENDMDL
MODEL 2
REMARK VINA RESULT:    -8.220      1.215      1.458
REMARK INTER + INTRA:          -9.940
REMARK INTER:                  -9.630
REMARK INTRA:                  -0.310
REMARK UNBOUND:                -0.278
REMARK SMILES O=c1cc(-c2ccc(O)c(O)c2)oc2cc(O)cc(O)c12
REMARK SMILES IDX 4 1 3 2 2 3 1 4 21 5 19 6 18 7 16 8 15 9 14 10 13 11 5 12
REMARK SMILES IDX 6 13 7 14 8 15 12 16 10 17 9 18 11 20 20 22 17 24
REMARK H PARENT 9 19 11 21 20 23 17 25
REMARK Flexibility Score: inf
ROOT
ATOM      1  C   UNL     1       0.622 -26.853  -0.346  1.00  0.00     0.138 A 
ATOM      2  C   UNL     1       1.482 -26.958  -1.447  1.00  0.00     0.100 A 
ATOM      3  C   UNL     1       2.693 -27.639  -1.314  1.00  0.00     0.197 A 
ATOM      4  O   UNL     1       3.416 -27.771  -2.335  1.00  0.00    -0.289 OA
ATOM      5  C   UNL     1       3.056 -28.190  -0.062  1.00  0.00     0.107 A 
ATOM      6  C   UNL     1       4.283 -28.870   0.201  1.00  0.00     0.134 A 
ATOM      7  C   UNL     1       4.482 -29.475   1.449  1.00  0.00     0.093 A 
ATOM      8  C   UNL     1       3.525 -29.373   2.461  1.00  0.00     0.123 A 
ATOM      9  C   UNL     1       2.347 -28.666   2.231  1.00  0.00     0.094 A 
ATOM     10  C   UNL     1       2.104 -28.080   0.987  1.00  0.00     0.146 A 
ATOM     11  O   UNL     1       0.961 -27.427   0.804  1.00  0.00    -0.456 OA
ENDROOT
BRANCH   1  12
ATOM     12  C   UNL     1      -0.677 -26.139  -0.432  1.00  0.00     0.021 A 
ATOM     13  C   UNL     1      -0.859 -25.150  -1.416  1.00  0.00     0.016 A 
ATOM     14  C   UNL     1      -2.075 -24.469  -1.523  1.00  0.00     0.051 A 
ATOM     15  C   UNL     1      -3.132 -24.771  -0.656  1.00  0.00     0.157 A 
ATOM     16  C   UNL     1      -1.749 -26.445   0.428  1.00  0.00     0.062 A 
ATOM     17  C   UNL     1      -2.969 -25.765   0.321  1.00  0.00     0.158 A 
BRANCH  15  18
ATOM     18  O   UNL     1      -4.343 -24.088  -0.764  1.00  0.00    -0.504 OA
ATOM     19  H   UNL     1      -4.793 -23.674   0.045  1.00  0.00     0.293 HD
ENDBRANCH  15  18
BRANCH  17  20
ATOM     20  O   UNL     1      -4.007 -26.097   1.192  1.00  0.00    -0.504 OA
ATOM     21  H   UNL     1      -4.569 -26.930   1.067  1.00  0.00     0.293 HD
ENDBRANCH  17  20
ENDBRANCH   1  12
BRANCH   6  22
ATOM     22  O   UNL     1       5.339 -28.957  -0.710  1.00  0.00    -0.507 OA
ATOM     23  H   UNL     1       5.293 -29.426  -1.602  1.00  0.00     0.293 HD
ENDBRANCH   6  22
BRANCH   8  24
ATOM     24  O   UNL     1       3.738 -29.965   3.704  1.00  0.00    -0.508 OA
ATOM     25  H   UNL     1       4.111 -29.437   4.485  1.00  0.00     0.293 HD
ENDBRANCH   8  24
TORSDOF 5
ENDMDL
MODEL 3
REMARK VINA RESULT:    -8.206      2.540      6.950
REMARK INTER + INTRA:          -9.923
REMARK INTER:                  -9.606
REMARK INTRA:                  -0.317
REMARK UNBOUND:                -0.278
REMARK SMILES O=c1cc(-c2ccc(O)c(O)c2)oc2cc(O)cc(O)c12
REMARK SMILES IDX 4 1 3 2 2 3 1 4 21 5 19 6 18 7 16 8 15 9 14 10 13 11 5 12
REMARK SMILES IDX 6 13 7 14 8 15 12 16 10 17 9 18 11 20 20 22 17 24
REMARK H PARENT 9 19 11 21 20 23 17 25
REMARK Flexibility Score: inf
ROOT
ATOM      1  C   UNL     1       3.663 -28.888   1.509  1.00  0.00     0.138 A 
ATOM      2  C   UNL     1       4.468 -28.953   0.363  1.00  0.00     0.100 A 
ATOM      3  C   UNL     1       4.025 -28.370  -0.825  1.00  0.00     0.197 A 
ATOM      4  O   UNL     1       4.795 -28.390  -1.819  1.00  0.00    -0.289 OA
ATOM      5  C   UNL     1       2.755 -27.746  -0.872  1.00  0.00     0.107 A 
ATOM      6  C   UNL     1       2.184 -27.155  -2.038  1.00  0.00     0.134 A 
ATOM      7  C   UNL     1       0.970 -26.464  -1.937  1.00  0.00     0.093 A 
ATOM      8  C   UNL     1       0.279 -26.394  -0.725  1.00  0.00     0.123 A 
ATOM      9  C   UNL     1       0.803 -27.014   0.407  1.00  0.00     0.094 A 
ATOM     10  C   UNL     1       2.028 -27.682   0.346  1.00  0.00     0.146 A 
ATOM     11  O   UNL     1       2.499 -28.248   1.452  1.00  0.00    -0.456 OA
ENDROOT
BRANCH   1  12
ATOM     12  C   UNL     1       4.085 -29.492   2.798  1.00  0.00     0.021 A 
ATOM     13  C   UNL     1       5.247 -30.283   2.843  1.00  0.00     0.016 A 
ATOM     14  C   UNL     1       5.670 -30.856   4.046  1.00  0.00     0.051 A 
ATOM     15  C   UNL     1       4.945 -30.641   5.225  1.00  0.00     0.157 A 
ATOM     16  C   UNL     1       3.369 -29.269   3.989  1.00  0.00     0.062 A 
ATOM     17  C   UNL     1       3.791 -29.841   5.196  1.00  0.00     0.158 A 
BRANCH  15  18
ATOM     18  O   UNL     1       5.368 -31.216   6.422  1.00  0.00    -0.504 OA
ATOM     19  H   UNL     1       4.705 -31.541   7.118  1.00  0.00     0.293 HD
ENDBRANCH  15  18
BRANCH  17  20
ATOM     20  O   UNL     1       3.054 -29.598   6.355  1.00  0.00    -0.504 OA
ATOM     21  H   UNL     1       2.083 -29.310   6.324  1.00  0.00     0.293 HD
ENDBRANCH  17  20
ENDBRANCH   1  12
BRANCH   6  22
ATOM     22  O   UNL     1       2.749 -27.238  -3.313  1.00  0.00    -0.507 OA
ATOM     23  H   UNL     1       2.361 -27.762  -4.083  1.00  0.00     0.293 HD
ENDBRANCH   6  22
BRANCH   8  24
ATOM     24  O   UNL     1      -0.936 -25.718  -0.637  1.00  0.00    -0.508 OA
ATOM     25  H   UNL     1      -1.794 -26.200  -0.394  1.00  0.00     0.293 HD
ENDBRANCH   8  24
TORSDOF 5
ENDMDL
MODEL 4
REMARK VINA RESULT:    -8.104      3.242      6.870
REMARK INTER + INTRA:          -9.803
REMARK INTER:                  -9.508
REMARK INTRA:                  -0.295
REMARK UNBOUND:                -0.278
REMARK SMILES O=c1cc(-c2ccc(O)c(O)c2)oc2cc(O)cc(O)c12
REMARK SMILES IDX 4 1 3 2 2 3 1 4 21 5 19 6 18 7 16 8 15 9 14 10 13 11 5 12
REMARK SMILES IDX 6 13 7 14 8 15 12 16 10 17 9 18 11 20 20 22 17 24
REMARK H PARENT 9 19 11 21 20 23 17 25
REMARK Flexibility Score: inf
ROOT
ATOM      1  C   UNL     1       3.158 -28.692   1.551  1.00  0.00     0.138 A 
ATOM      2  C   UNL     1       1.830 -28.246   1.521  1.00  0.00     0.100 A 
ATOM      3  C   UNL     1       1.327 -27.652   0.362  1.00  0.00     0.197 A 
ATOM      4  O   UNL     1       0.115 -27.319   0.343  1.00  0.00    -0.289 OA
ATOM      5  C   UNL     1       2.171 -27.478  -0.762  1.00  0.00     0.107 A 
ATOM      6  C   UNL     1       1.779 -26.850  -1.981  1.00  0.00     0.134 A 
ATOM      7  C   UNL     1       2.665 -26.838  -3.067  1.00  0.00     0.093 A 
ATOM      8  C   UNL     1       3.948 -27.378  -2.956  1.00  0.00     0.123 A 
ATOM      9  C   UNL     1       4.358 -27.946  -1.752  1.00  0.00     0.094 A 
ATOM     10  C   UNL     1       3.487 -28.003  -0.662  1.00  0.00     0.146 A 
ATOM     11  O   UNL     1       3.913 -28.566   0.464  1.00  0.00    -0.456 OA
ENDROOT
BRANCH   1  12
ATOM     12  C   UNL     1       3.743 -29.328   2.758  1.00  0.00     0.021 A 
ATOM     13  C   UNL     1       4.966 -30.015   2.653  1.00  0.00     0.016 A 
ATOM     14  C   UNL     1       5.542 -30.616   3.776  1.00  0.00     0.051 A 
ATOM     15  C   UNL     1       4.911 -30.533   5.024  1.00  0.00     0.157 A 
ATOM     16  C   UNL     1       3.121 -29.239   4.018  1.00  0.00     0.062 A 
ATOM     17  C   UNL     1       3.697 -29.839   5.144  1.00  0.00     0.158 A 
BRANCH  15  18
ATOM     18  O   UNL     1       5.487 -31.136   6.141  1.00  0.00    -0.504 OA
ATOM     19  H   UNL     1       5.582 -30.641   7.022  1.00  0.00     0.293 HD
ENDBRANCH  15  18
BRANCH  17  20
ATOM     20  O   UNL     1       3.049 -29.729   6.375  1.00  0.00    -0.504 OA
ATOM     21  H   UNL     1       3.280 -29.001   7.041  1.00  0.00     0.293 HD
ENDBRANCH  17  20
ENDBRANCH   1  12
BRANCH   6  22
ATOM     22  O   UNL     1       0.553 -26.207  -2.170  1.00  0.00    -0.507 OA
ATOM     23  H   UNL     1       0.093 -26.091  -3.060  1.00  0.00     0.293 HD
ENDBRANCH   6  22
BRANCH   8  24
ATOM     24  O   UNL     1       4.828 -27.348  -4.035  1.00  0.00    -0.508 OA
ATOM     25  H   UNL     1       4.718 -27.974  -4.825  1.00  0.00     0.293 HD
ENDBRANCH   8  24
TORSDOF 5
ENDMDL
MODEL 5
REMARK VINA RESULT:    -8.100      1.368      2.768
REMARK INTER + INTRA:          -9.799
REMARK INTER:                  -9.506
REMARK INTRA:                  -0.293
REMARK UNBOUND:                -0.278
REMARK SMILES O=c1cc(-c2ccc(O)c(O)c2)oc2cc(O)cc(O)c12
REMARK SMILES IDX 4 1 3 2 2 3 1 4 21 5 19 6 18 7 16 8 15 9 14 10 13 11 5 12
REMARK SMILES IDX 6 13 7 14 8 15 12 16 10 17 9 18 11 20 20 22 17 24
REMARK H PARENT 9 19 11 21 20 23 17 25
REMARK Flexibility Score: inf
ROOT
ATOM      1  C   UNL     1       0.487 -26.753  -0.393  1.00  0.00     0.138 A 
ATOM      2  C   UNL     1       0.886 -27.462   0.748  1.00  0.00     0.100 A 
ATOM      3  C   UNL     1       2.134 -28.086   0.772  1.00  0.00     0.197 A 
ATOM      4  O   UNL     1       2.489 -28.662   1.831  1.00  0.00    -0.289 OA
ATOM      5  C   UNL     1       2.973 -28.024  -0.367  1.00  0.00     0.107 A 
ATOM      6  C   UNL     1       4.247 -28.657  -0.471  1.00  0.00     0.134 A 
ATOM      7  C   UNL     1       5.040 -28.429  -1.604  1.00  0.00     0.093 A 
ATOM      8  C   UNL     1       4.577 -27.642  -2.661  1.00  0.00     0.123 A 
ATOM      9  C   UNL     1       3.312 -27.064  -2.591  1.00  0.00     0.094 A 
ATOM     10  C   UNL     1       2.512 -27.244  -1.461  1.00  0.00     0.146 A 
ATOM     11  O   UNL     1       1.317 -26.664  -1.428  1.00  0.00    -0.456 OA
ENDROOT
BRANCH   1  12
ATOM     12  C   UNL     1      -0.829 -26.071  -0.472  1.00  0.00     0.021 A 
ATOM     13  C   UNL     1      -1.037 -25.078  -1.445  1.00  0.00     0.016 A 
ATOM     14  C   UNL     1      -2.270 -24.427  -1.546  1.00  0.00     0.051 A 
ATOM     15  C   UNL     1      -3.319 -24.765  -0.682  1.00  0.00     0.157 A 
ATOM     16  C   UNL     1      -1.893 -26.414   0.385  1.00  0.00     0.062 A 
ATOM     17  C   UNL     1      -3.130 -25.765   0.285  1.00  0.00     0.158 A 
BRANCH  15  18
ATOM     18  O   UNL     1      -4.547 -24.112  -0.783  1.00  0.00    -0.504 OA
ATOM     19  H   UNL     1      -4.968 -23.908  -1.683  1.00  0.00     0.293 HD
ENDBRANCH  15  18
BRANCH  17  20
ATOM     20  O   UNL     1      -4.159 -26.132   1.153  1.00  0.00    -0.504 OA
ATOM     21  H   UNL     1      -4.985 -26.622   0.831  1.00  0.00     0.293 HD
ENDBRANCH  17  20
ENDBRANCH   1  12
BRANCH   6  22
ATOM     22  O   UNL     1       4.768 -29.529   0.489  1.00  0.00    -0.507 OA
ATOM     23  H   UNL     1       5.691 -29.935   0.459  1.00  0.00     0.293 HD
ENDBRANCH   6  22
BRANCH   8  24
ATOM     24  O   UNL     1       5.365 -27.434  -3.791  1.00  0.00    -0.508 OA
ATOM     25  H   UNL     1       5.757 -28.209  -4.313  1.00  0.00     0.293 HD
ENDBRANCH   8  24
TORSDOF 5
ENDMDL
MODEL 6
REMARK VINA RESULT:    -7.845      2.974      5.776
REMARK INTER + INTRA:          -9.499
REMARK INTER:                  -9.203
REMARK INTRA:                  -0.297
REMARK UNBOUND:                -0.278
REMARK SMILES O=c1cc(-c2ccc(O)c(O)c2)oc2cc(O)cc(O)c12
REMARK SMILES IDX 4 1 3 2 2 3 1 4 21 5 19 6 18 7 16 8 15 9 14 10 13 11 5 12
REMARK SMILES IDX 6 13 7 14 8 15 12 16 10 17 9 18 11 20 20 22 17 24
REMARK H PARENT 9 19 11 21 20 23 17 25
REMARK Flexibility Score: inf
ROOT
ATOM      1  C   UNL     1       3.441 -28.777   1.433  1.00  0.00     0.138 A 
ATOM      2  C   UNL     1       4.708 -29.259   1.076  1.00  0.00     0.100 A 
ATOM      3  C   UNL     1       5.481 -29.937   2.021  1.00  0.00     0.197 A 
ATOM      4  O   UNL     1       6.586 -30.411   1.653  1.00  0.00    -0.289 OA
ATOM      5  C   UNL     1       4.992 -30.106   3.338  1.00  0.00     0.107 A 
ATOM      6  C   UNL     1       5.708 -30.744   4.394  1.00  0.00     0.134 A 
ATOM      7  C   UNL     1       5.076 -30.957   5.626  1.00  0.00     0.093 A 
ATOM      8  C   UNL     1       3.777 -30.500   5.858  1.00  0.00     0.123 A 
ATOM      9  C   UNL     1       3.089 -29.828   4.851  1.00  0.00     0.094 A 
ATOM     10  C   UNL     1       3.679 -29.631   3.600  1.00  0.00     0.146 A 
ATOM     11  O   UNL     1       2.983 -28.997   2.662  1.00  0.00    -0.456 OA
ENDROOT
BRANCH   1  12
ATOM     12  C   UNL     1       2.580 -28.049   0.469  1.00  0.00     0.021 A 
ATOM     13  C   UNL     1       1.353 -27.516   0.903  1.00  0.00     0.016 A 
ATOM     14  C   UNL     1       0.527 -26.818   0.017  1.00  0.00     0.051 A 
ATOM     15  C   UNL     1       0.917 -26.634  -1.315  1.00  0.00     0.157 A 
ATOM     16  C   UNL     1       2.971 -27.848  -0.869  1.00  0.00     0.062 A 
ATOM     17  C   UNL     1       2.146 -27.148  -1.758  1.00  0.00     0.158 A 
BRANCH  15  18
ATOM     18  O   UNL     1       0.090 -25.940  -2.198  1.00  0.00    -0.504 OA
ATOM     19  H   UNL     1      -0.843 -26.268  -2.421  1.00  0.00     0.293 HD
ENDBRANCH  15  18
BRANCH  17  20
ATOM     20  O   UNL     1       2.568 -26.971  -3.076  1.00  0.00    -0.504 OA
ATOM     21  H   UNL     1       2.532 -26.070  -3.536  1.00  0.00     0.293 HD
ENDBRANCH  17  20
ENDBRANCH   1  12
BRANCH   6  22
ATOM     22  O   UNL     1       7.038 -31.162   4.295  1.00  0.00    -0.507 OA
ATOM     23  H   UNL     1       7.762 -30.947   4.963  1.00  0.00     0.293 HD
ENDBRANCH   6  22
BRANCH   8  24
ATOM     24  O   UNL     1       3.162 -30.701   7.092  1.00  0.00    -0.508 OA
ATOM     25  H   UNL     1       3.419 -31.477   7.691  1.00  0.00     0.293 HD
ENDBRANCH   8  24
TORSDOF 5
ENDMDL
MODEL 7
REMARK VINA RESULT:    -7.637      3.312      6.332
REMARK INTER + INTRA:          -9.255
REMARK INTER:                  -8.937
REMARK INTRA:                  -0.318
REMARK UNBOUND:                -0.278
REMARK SMILES O=c1cc(-c2ccc(O)c(O)c2)oc2cc(O)cc(O)c12
REMARK SMILES IDX 4 1 3 2 2 3 1 4 21 5 19 6 18 7 16 8 15 9 14 10 13 11 5 12
REMARK SMILES IDX 6 13 7 14 8 15 12 16 10 17 9 18 11 20 20 22 17 24
REMARK H PARENT 9 19 11 21 20 23 17 25
REMARK Flexibility Score: inf
ROOT
ATOM      1  C   UNL     1       3.517 -28.895   1.788  1.00  0.00     0.138 A 
ATOM      2  C   UNL     1       2.922 -28.943   3.056  1.00  0.00     0.100 A 
ATOM      3  C   UNL     1       3.582 -29.584   4.105  1.00  0.00     0.197 A 
ATOM      4  O   UNL     1       3.053 -29.557   5.245  1.00  0.00    -0.289 OA
ATOM      5  C   UNL     1       4.832 -30.208   3.872  1.00  0.00     0.107 A 
ATOM      6  C   UNL     1       5.577 -30.925   4.855  1.00  0.00     0.134 A 
ATOM      7  C   UNL     1       6.856 -31.400   4.540  1.00  0.00     0.093 A 
ATOM      8  C   UNL     1       7.391 -31.236   3.260  1.00  0.00     0.123 A 
ATOM      9  C   UNL     1       6.649 -30.584   2.278  1.00  0.00     0.094 A 
ATOM     10  C   UNL     1       5.385 -30.069   2.570  1.00  0.00     0.146 A 
ATOM     11  O   UNL     1       4.716 -29.441   1.609  1.00  0.00    -0.456 OA
ENDROOT
BRANCH   1  12
ATOM     12  C   UNL     1       2.857 -28.227   0.638  1.00  0.00     0.021 A 
ATOM     13  C   UNL     1       1.601 -27.621   0.817  1.00  0.00     0.016 A 
ATOM     14  C   UNL     1       0.963 -26.979  -0.248  1.00  0.00     0.051 A 
ATOM     15  C   UNL     1       1.573 -26.923  -1.507  1.00  0.00     0.157 A 
ATOM     16  C   UNL     1       3.470 -28.156  -0.628  1.00  0.00     0.062 A 
ATOM     17  C   UNL     1       2.833 -27.511  -1.696  1.00  0.00     0.158 A 
BRANCH  15  18
ATOM     18  O   UNL     1       0.933 -26.283  -2.568  1.00  0.00    -0.504 OA
ATOM     19  H   UNL     1       0.293 -25.512  -2.415  1.00  0.00     0.293 HD
ENDBRANCH  15  18
BRANCH  17  20
ATOM     20  O   UNL     1       3.472 -27.463  -2.935  1.00  0.00    -0.504 OA
ATOM     21  H   UNL     1       3.464 -26.632  -3.513  1.00  0.00     0.293 HD
ENDBRANCH  17  20
ENDBRANCH   1  12
BRANCH   6  22
ATOM     22  O   UNL     1       5.101 -31.218   6.136  1.00  0.00    -0.507 OA
ATOM     23  H   UNL     1       4.692 -30.545   6.767  1.00  0.00     0.293 HD
ENDBRANCH   6  22
BRANCH   8  24
ATOM     24  O   UNL     1       8.658 -31.726   2.951  1.00  0.00    -0.508 OA
ATOM     25  H   UNL     1       8.797 -32.405   2.211  1.00  0.00     0.293 HD
ENDBRANCH   8  24
TORSDOF 5
ENDMDL
MODEL 8
REMARK VINA RESULT:    -7.585      1.547      7.286
REMARK INTER + INTRA:          -9.193
REMARK INTER:                  -8.930
REMARK INTRA:                  -0.263
REMARK UNBOUND:                -0.278
REMARK SMILES O=c1cc(-c2ccc(O)c(O)c2)oc2cc(O)cc(O)c12
REMARK SMILES IDX 4 1 3 2 2 3 1 4 21 5 19 6 18 7 16 8 15 9 14 10 13 11 5 12
REMARK SMILES IDX 6 13 7 14 8 15 12 16 10 17 9 18 11 20 20 22 17 24
REMARK H PARENT 9 19 11 21 20 23 17 25
REMARK Flexibility Score: inf
ROOT
ATOM      1  C   UNL     1      -0.455 -25.890  -0.492  1.00  0.00     0.138 A 
ATOM      2  C   UNL     1      -0.466 -24.570  -0.022  1.00  0.00     0.100 A 
ATOM      3  C   UNL     1      -1.682 -23.955   0.281  1.00  0.00     0.197 A 
ATOM      4  O   UNL     1      -1.657 -22.793   0.760  1.00  0.00    -0.289 OA
ATOM      5  C   UNL     1      -2.894 -24.659   0.083  1.00  0.00     0.107 A 
ATOM      6  C   UNL     1      -4.194 -24.120   0.319  1.00  0.00     0.134 A 
ATOM      7  C   UNL     1      -5.317 -24.949   0.199  1.00  0.00     0.093 A 
ATOM      8  C   UNL     1      -5.191 -26.280  -0.207  1.00  0.00     0.123 A 
ATOM      9  C   UNL     1      -3.930 -26.800  -0.492  1.00  0.00     0.094 A 
ATOM     10  C   UNL     1      -2.788 -26.009  -0.349  1.00  0.00     0.146 A 
ATOM     11  O   UNL     1      -1.604 -26.547  -0.617  1.00  0.00    -0.456 OA
ENDROOT
BRANCH   1  12
ATOM     12  C   UNL     1       0.810 -26.590  -0.830  1.00  0.00     0.021 A 
ATOM     13  C   UNL     1       1.434 -27.398   0.137  1.00  0.00     0.016 A 
ATOM     14  C   UNL     1       2.620 -28.074  -0.159  1.00  0.00     0.051 A 
ATOM     15  C   UNL     1       3.199 -27.963  -1.430  1.00  0.00     0.157 A 
ATOM     16  C   UNL     1       1.391 -26.493  -2.109  1.00  0.00     0.062 A 
ATOM     17  C   UNL     1       2.578 -27.171  -2.409  1.00  0.00     0.158 A 
BRANCH  15  18
ATOM     18  O   UNL     1       4.384 -28.636  -1.722  1.00  0.00    -0.504 OA
ATOM     19  H   UNL     1       5.164 -28.169  -2.171  1.00  0.00     0.293 HD
ENDBRANCH  15  18
BRANCH  17  20
ATOM     20  O   UNL     1       3.123 -27.048  -3.688  1.00  0.00    -0.504 OA
ATOM     21  H   UNL     1       3.714 -26.268  -3.948  1.00  0.00     0.293 HD
ENDBRANCH  17  20
ENDBRANCH   1  12
BRANCH   6  22
ATOM     22  O   UNL     1      -4.437 -22.784   0.647  1.00  0.00    -0.507 OA
ATOM     23  H   UNL     1      -3.902 -21.999   0.307  1.00  0.00     0.293 HD
ENDBRANCH   6  22
BRANCH   8  24
ATOM     24  O   UNL     1      -6.314 -27.092  -0.340  1.00  0.00    -0.508 OA
ATOM     25  H   UNL     1      -7.041 -26.885  -1.016  1.00  0.00     0.293 HD
ENDBRANCH   8  24
TORSDOF 5
ENDMDL
MODEL 9
REMARK VINA RESULT:    -7.513      4.403      7.267
REMARK INTER + INTRA:          -9.109
REMARK INTER:                  -8.818
REMARK INTRA:                  -0.291
REMARK UNBOUND:                -0.278
REMARK SMILES O=c1cc(-c2ccc(O)c(O)c2)oc2cc(O)cc(O)c12
REMARK SMILES IDX 4 1 3 2 2 3 1 4 21 5 19 6 18 7 16 8 15 9 14 10 13 11 5 12
REMARK SMILES IDX 6 13 7 14 8 15 12 16 10 17 9 18 11 20 20 22 17 24
REMARK H PARENT 9 19 11 21 20 23 17 25
REMARK Flexibility Score: inf
ROOT
ATOM      1  C   UNL     1       4.130 -29.456   1.816  1.00  0.00     0.138 A 
ATOM      2  C   UNL     1       5.438 -29.658   2.276  1.00  0.00     0.100 A 
ATOM      3  C   UNL     1       5.648 -30.226   3.534  1.00  0.00     0.197 A 
ATOM      4  O   UNL     1       6.832 -30.452   3.893  1.00  0.00    -0.289 OA
ATOM      5  C   UNL     1       4.540 -30.565   4.346  1.00  0.00     0.107 A 
ATOM      6  C   UNL     1       4.634 -31.111   5.660  1.00  0.00     0.134 A 
ATOM      7  C   UNL     1       3.468 -31.516   6.324  1.00  0.00     0.093 A 
ATOM      8  C   UNL     1       2.210 -31.338   5.745  1.00  0.00     0.123 A 
ATOM      9  C   UNL     1       2.105 -30.755   4.484  1.00  0.00     0.094 A 
ATOM     10  C   UNL     1       3.250 -30.373   3.782  1.00  0.00     0.146 A 
ATOM     11  O   UNL     1       3.107 -29.834   2.576  1.00  0.00    -0.456 OA
ENDROOT
BRANCH   1  12
ATOM     12  C   UNL     1       3.851 -28.855   0.488  1.00  0.00     0.021 A 
ATOM     13  C   UNL     1       2.605 -28.247   0.252  1.00  0.00     0.016 A 
ATOM     14  C   UNL     1       2.319 -27.667  -0.987  1.00  0.00     0.051 A 
ATOM     15  C   UNL     1       3.278 -27.675  -2.008  1.00  0.00     0.157 A 
ATOM     16  C   UNL     1       4.813 -28.848  -0.540  1.00  0.00     0.062 A 
ATOM     17  C   UNL     1       4.531 -28.265  -1.781  1.00  0.00     0.158 A 
BRANCH  15  18
ATOM     18  O   UNL     1       2.990 -27.097  -3.244  1.00  0.00    -0.504 OA
ATOM     19  H   UNL     1       3.121 -27.606  -4.111  1.00  0.00     0.293 HD
ENDBRANCH  15  18
BRANCH  17  20
ATOM     20  O   UNL     1       5.511 -28.280  -2.774  1.00  0.00    -0.504 OA
ATOM     21  H   UNL     1       5.621 -29.061  -3.410  1.00  0.00     0.293 HD
ENDBRANCH  17  20
ENDBRANCH   1  12
BRANCH   6  22
ATOM     22  O   UNL     1       5.833 -31.254   6.363  1.00  0.00    -0.507 OA
ATOM     23  H   UNL     1       6.639 -31.763   6.032  1.00  0.00     0.293 HD
ENDBRANCH   6  22
BRANCH   8  24
ATOM     24  O   UNL     1       1.055 -31.728   6.418  1.00  0.00    -0.508 OA
ATOM     25  H   UNL     1       1.094 -32.120   7.352  1.00  0.00     0.293 HD
ENDBRANCH   8  24
TORSDOF 5
ENDMDL
