MODEL 1
REMARK VINA RESULT:    -3.175      0.000      0.000
REMARK INTER + INTRA:         -14.411
REMARK INTER:                  -8.371
REMARK INTRA:                  -6.039
REMARK UNBOUND:                -6.039
REMARK SMILES CCCCCCCCCCCCCCCCCCCCCCCCCCCCCC(=O)[O-]
REMARK SMILES IDX 16 1 17 2 18 3 19 4 20 5 21 6 22 7 23 8 24 9 25 10 26 11
REMARK SMILES IDX 27 12 28 13 29 14 30 15 31 16 32 17 15 18 14 19 13 20 12 21
REMARK SMILES IDX 11 22 10 23 9 24 8 25 7 26 6 27 5 28 4 29 3 30 2 31 1 32
REMARK H PARENT
REMARK Flexibility Score: inf
ROOT
ATOM      1  C   UNL     1     -98.117 149.660 235.582  1.00  0.00     0.000 C 
ENDROOT
BRANCH   1   2
ATOM      2  C   UNL     1     -98.636 150.639 234.515  1.00  0.00     0.000 C 
BRANCH   2   3
ATOM      3  C   UNL     1     -99.775 150.027 233.679  1.00  0.00     0.000 C 
BRANCH   3   4
ATOM      4  C   UNL     1     -99.553 150.201 232.162  1.00  0.00     0.000 C 
BRANCH   4   5
ATOM      5  C   UNL     1     -98.923 148.972 231.477  1.00  0.00     0.000 C 
BRANCH   5   6
ATOM      6  C   UNL     1     -97.397 149.046 231.270  1.00  0.00     0.000 C 
BRANCH   6   7
ATOM      7  C   UNL     1     -96.863 150.477 231.074  1.00  0.00     0.000 C 
BRANCH   7   8
ATOM      8  C   UNL     1     -95.569 150.731 231.870  1.00  0.00     0.000 C 
BRANCH   8   9
ATOM      9  C   UNL     1     -95.704 151.917 232.838  1.00  0.00     0.000 C 
BRANCH   9  10
ATOM     10  C   UNL     1     -96.801 152.898 232.387  1.00  0.00     0.000 C 
BRANCH  10  11
ATOM     11  C   UNL     1     -96.941 154.112 233.317  1.00  0.00     0.000 C 
BRANCH  11  12
ATOM     12  C   UNL     1     -98.202 154.944 233.023  1.00  0.00     0.000 C 
BRANCH  12  13
ATOM     13  C   UNL     1     -99.401 154.072 232.603  1.00  0.00     0.006 C 
BRANCH  13  14
ATOM     14  C   UNL     1    -100.398 153.784 233.738  1.00  0.00     0.053 C 
BRANCH  14  15
ATOM     15  C   UNL     1    -101.328 154.934 233.977  1.00  0.00     0.041 C 
ATOM     16  O   UNL     1    -101.072 155.779 234.875  1.00  0.00    -0.550 OA
ATOM     17  O   UNL     1    -102.491 155.059 233.227  1.00  0.00    -0.550 OA
ENDBRANCH  14  15
ENDBRANCH  13  14
ENDBRANCH  12  13
ENDBRANCH  11  12
ENDBRANCH  10  11
ENDBRANCH   9  10
ENDBRANCH   8   9
ENDBRANCH   7   8
ENDBRANCH   6   7
ENDBRANCH   5   6
ENDBRANCH   4   5
ENDBRANCH   3   4
ENDBRANCH   2   3
ENDBRANCH   1   2
BRANCH   1  18
ATOM     18  C   UNL     1     -97.626 148.334 234.975  1.00  0.00     0.000 C 
BRANCH  18  19
ATOM     19  C   UNL     1     -96.116 148.337 234.668  1.00  0.00     0.000 C 
BRANCH  19  20
ATOM     20  C   UNL     1     -95.280 149.317 235.513  1.00  0.00     0.000 C 
BRANCH  20  21
ATOM     21  C   UNL     1     -94.214 148.612 236.368  1.00  0.00     0.000 C 
BRANCH  21  22
ATOM     22  C   UNL     1     -94.446 148.805 237.877  1.00  0.00     0.000 C 
BRANCH  22  23
ATOM     23  C   UNL     1     -95.431 147.786 238.467  1.00  0.00     0.000 C 
BRANCH  23  24
ATOM     24  C   UNL     1     -96.660 148.491 239.058  1.00  0.00    -0.000 C 
BRANCH  24  25
ATOM     25  C   UNL     1     -96.562 150.026 239.005  1.00  0.00    -0.000 C 
BRANCH  25  26
ATOM     26  C   UNL     1     -97.908 150.774 239.086  1.00  0.00    -0.000 C 
BRANCH  26  27
ATOM     27  C   UNL     1     -98.833 150.337 240.237  1.00  0.00    -0.000 C 
BRANCH  27  28
ATOM     28  C   UNL     1    -100.268 149.982 239.813  1.00  0.00    -0.000 C 
BRANCH  28  29
ATOM     29  C   UNL     1    -100.330 149.283 238.443  1.00  0.00    -0.000 C 
BRANCH  29  30
ATOM     30  C   UNL     1    -101.350 149.950 237.496  1.00  0.00    -0.000 C 
BRANCH  30  31
ATOM     31  C   UNL     1    -101.024 151.420 237.186  1.00  0.00    -0.003 C 
ATOM     32  C   UNL     1    -102.252 152.326 237.225  1.00  0.00     0.004 C 
ENDBRANCH  30  31
ENDBRANCH  29  30
ENDBRANCH  28  29
ENDBRANCH  27  28
ENDBRANCH  26  27
ENDBRANCH  25  26
ENDBRANCH  24  25
ENDBRANCH  23  24
ENDBRANCH  22  23
ENDBRANCH  21  22
ENDBRANCH  20  21
ENDBRANCH  19  20
ENDBRANCH  18  19
ENDBRANCH   1  18
TORSDOF 28
ENDMDL
MODEL 2
REMARK VINA RESULT:    -3.065      1.403      3.808
REMARK INTER + INTRA:         -14.121
REMARK INTER:                  -8.159
REMARK INTRA:                  -5.962
REMARK UNBOUND:                -6.039
REMARK SMILES CCCCCCCCCCCCCCCCCCCCCCCCCCCCCC(=O)[O-]
REMARK SMILES IDX 16 1 17 2 18 3 19 4 20 5 21 6 22 7 23 8 24 9 25 10 26 11
REMARK SMILES IDX 27 12 28 13 29 14 30 15 31 16 32 17 15 18 14 19 13 20 12 21
REMARK SMILES IDX 11 22 10 23 9 24 8 25 7 26 6 27 5 28 4 29 3 30 2 31 1 32
REMARK H PARENT
REMARK Flexibility Score: inf
ROOT
ATOM      1  C   UNL     1    -100.217 152.050 236.095  1.00  0.00     0.000 C 
ENDROOT
BRANCH   1   2
ATOM      2  C   UNL     1     -99.434 152.059 234.771  1.00  0.00     0.000 C 
BRANCH   2   3
ATOM      3  C   UNL     1     -99.833 150.884 233.860  1.00  0.00     0.000 C 
BRANCH   3   4
ATOM      4  C   UNL     1     -98.660 150.387 232.991  1.00  0.00     0.000 C 
BRANCH   4   5
ATOM      5  C   UNL     1     -97.271 150.630 233.616  1.00  0.00     0.000 C 
BRANCH   5   6
ATOM      6  C   UNL     1     -96.127 150.855 232.608  1.00  0.00     0.000 C 
BRANCH   6   7
ATOM      7  C   UNL     1     -96.119 152.260 231.978  1.00  0.00     0.000 C 
BRANCH   7   8
ATOM      8  C   UNL     1     -96.608 153.342 232.959  1.00  0.00     0.000 C 
BRANCH   8   9
ATOM      9  C   UNL     1     -97.562 154.345 232.291  1.00  0.00     0.000 C 
BRANCH   9  10
ATOM     10  C   UNL     1     -98.495 153.655 231.280  1.00  0.00     0.000 C 
BRANCH  10  11
ATOM     11  C   UNL     1     -99.980 153.965 231.525  1.00  0.00     0.000 C 
BRANCH  11  12
ATOM     12  C   UNL     1    -100.198 154.947 232.690  1.00  0.00     0.000 C 
BRANCH  12  13
ATOM     13  C   UNL     1    -101.549 154.733 233.399  1.00  0.00     0.006 C 
BRANCH  13  14
ATOM     14  C   UNL     1    -101.751 155.608 234.648  1.00  0.00     0.053 C 
BRANCH  14  15
ATOM     15  C   UNL     1    -102.450 156.894 234.327  1.00  0.00     0.041 C 
ATOM     16  O   UNL     1    -102.999 157.053 233.205  1.00  0.00    -0.550 OA
ATOM     17  O   UNL     1    -102.472 157.927 235.257  1.00  0.00    -0.550 OA
ENDBRANCH  14  15
ENDBRANCH  13  14
ENDBRANCH  12  13
ENDBRANCH  11  12
ENDBRANCH  10  11
ENDBRANCH   9  10
ENDBRANCH   8   9
ENDBRANCH   7   8
ENDBRANCH   6   7
ENDBRANCH   5   6
ENDBRANCH   4   5
ENDBRANCH   3   4
ENDBRANCH   2   3
ENDBRANCH   1   2
BRANCH   1  18
ATOM     18  C   UNL     1     -99.545 151.179 237.171  1.00  0.00     0.000 C 
BRANCH  18  19
ATOM     19  C   UNL     1    -100.412 149.981 237.602  1.00  0.00     0.000 C 
BRANCH  19  20
ATOM     20  C   UNL     1     -99.925 148.608 237.102  1.00  0.00     0.000 C 
BRANCH  20  21
ATOM     21  C   UNL     1     -98.516 148.660 236.489  1.00  0.00     0.000 C 
BRANCH  21  22
ATOM     22  C   UNL     1     -98.268 147.522 235.483  1.00  0.00     0.000 C 
BRANCH  22  23
ATOM     23  C   UNL     1     -96.873 146.895 235.619  1.00  0.00     0.000 C 
BRANCH  23  24
ATOM     24  C   UNL     1     -95.964 147.324 234.459  1.00  0.00    -0.000 C 
BRANCH  24  25
ATOM     25  C   UNL     1     -94.657 147.990 234.928  1.00  0.00    -0.000 C 
BRANCH  25  26
ATOM     26  C   UNL     1     -94.832 149.133 235.948  1.00  0.00    -0.000 C 
BRANCH  26  27
ATOM     27  C   UNL     1     -94.312 148.832 237.366  1.00  0.00    -0.000 C 
BRANCH  27  28
ATOM     28  C   UNL     1     -95.282 149.201 238.502  1.00  0.00    -0.000 C 
BRANCH  28  29
ATOM     29  C   UNL     1     -95.950 147.971 239.140  1.00  0.00    -0.000 C 
BRANCH  29  30
ATOM     30  C   UNL     1     -97.246 148.339 239.893  1.00  0.00    -0.000 C 
BRANCH  30  31
ATOM     31  C   UNL     1     -97.505 149.854 239.957  1.00  0.00    -0.003 C 
ATOM     32  C   UNL     1     -98.640 150.225 240.909  1.00  0.00     0.004 C 
ENDBRANCH  30  31
ENDBRANCH  29  30
ENDBRANCH  28  29
ENDBRANCH  27  28
ENDBRANCH  26  27
ENDBRANCH  25  26
ENDBRANCH  24  25
ENDBRANCH  23  24
ENDBRANCH  22  23
ENDBRANCH  21  22
ENDBRANCH  20  21
ENDBRANCH  19  20
ENDBRANCH  18  19
ENDBRANCH   1  18
TORSDOF 28
ENDMDL
MODEL 3
REMARK VINA RESULT:    -3.061      3.187      7.837
REMARK INTER + INTRA:         -14.112
REMARK INTER:                  -8.604
REMARK INTRA:                  -5.508
REMARK UNBOUND:                -6.039
REMARK SMILES CCCCCCCCCCCCCCCCCCCCCCCCCCCCCC(=O)[O-]
REMARK SMILES IDX 16 1 17 2 18 3 19 4 20 5 21 6 22 7 23 8 24 9 25 10 26 11
REMARK SMILES IDX 27 12 28 13 29 14 30 15 31 16 32 17 15 18 14 19 13 20 12 21
REMARK SMILES IDX 11 22 10 23 9 24 8 25 7 26 6 27 5 28 4 29 3 30 2 31 1 32
REMARK H PARENT
REMARK Flexibility Score: inf
ROOT
ATOM      1  C   UNL     1     -97.862 148.863 236.029  1.00  0.00     0.000 C 
ENDROOT
BRANCH   1   2
ATOM      2  C   UNL     1     -97.171 147.724 235.260  1.00  0.00     0.000 C 
BRANCH   2   3
ATOM      3  C   UNL     1     -95.779 148.138 234.750  1.00  0.00     0.000 C 
BRANCH   3   4
ATOM      4  C   UNL     1     -95.111 149.199 235.650  1.00  0.00     0.000 C 
BRANCH   4   5
ATOM      5  C   UNL     1     -94.185 148.608 236.732  1.00  0.00     0.000 C 
BRANCH   5   6
ATOM      6  C   UNL     1     -94.575 148.944 238.185  1.00  0.00     0.000 C 
BRANCH   6   7
ATOM      7  C   UNL     1     -95.556 147.940 238.816  1.00  0.00     0.000 C 
BRANCH   7   8
ATOM      8  C   UNL     1     -96.700 148.640 239.573  1.00  0.00     0.000 C 
BRANCH   8   9
ATOM      9  C   UNL     1     -96.820 150.127 239.202  1.00  0.00     0.000 C 
BRANCH   9  10
ATOM     10  C   UNL     1     -98.237 150.667 239.467  1.00  0.00     0.000 C 
BRANCH  10  11
ATOM     11  C   UNL     1     -99.207 149.586 239.969  1.00  0.00     0.000 C 
BRANCH  11  12
ATOM     12  C   UNL     1    -100.092 150.075 241.130  1.00  0.00     0.000 C 
BRANCH  12  13
ATOM     13  C   UNL     1     -99.342 150.094 242.477  1.00  0.00     0.006 C 
BRANCH  13  14
ATOM     14  C   UNL     1     -99.015 151.505 242.995  1.00  0.00     0.053 C 
BRANCH  14  15
ATOM     15  C   UNL     1     -99.159 151.606 244.483  1.00  0.00     0.041 C 
ATOM     16  O   UNL     1     -99.545 150.611 245.151  1.00  0.00    -0.550 OA
ATOM     17  O   UNL     1     -98.894 152.807 245.129  1.00  0.00    -0.550 OA
ENDBRANCH  14  15
ENDBRANCH  13  14
ENDBRANCH  12  13
ENDBRANCH  11  12
ENDBRANCH  10  11
ENDBRANCH   9  10
ENDBRANCH   8   9
ENDBRANCH   7   8
ENDBRANCH   6   7
ENDBRANCH   5   6
ENDBRANCH   4   5
ENDBRANCH   3   4
ENDBRANCH   2   3
ENDBRANCH   1   2
BRANCH   1  18
ATOM     18  C   UNL     1     -99.341 148.558 236.326  1.00  0.00     0.000 C 
BRANCH  18  19
ATOM     19  C   UNL     1    -100.293 149.668 235.841  1.00  0.00     0.000 C 
BRANCH  19  20
ATOM     20  C   UNL     1    -100.164 151.010 236.587  1.00  0.00     0.000 C 
BRANCH  20  21
ATOM     21  C   UNL     1    -101.249 152.023 236.186  1.00  0.00     0.000 C 
BRANCH  21  22
ATOM     22  C   UNL     1    -100.665 153.283 235.522  1.00  0.00     0.000 C 
BRANCH  22  23
ATOM     23  C   UNL     1     -99.459 152.980 234.622  1.00  0.00     0.000 C 
BRANCH  23  24
ATOM     24  C   UNL     1     -99.580 153.712 233.278  1.00  0.00    -0.000 C 
BRANCH  24  25
ATOM     25  C   UNL     1    -100.459 152.964 232.259  1.00  0.00    -0.000 C 
BRANCH  25  26
ATOM     26  C   UNL     1    -100.640 151.456 232.529  1.00  0.00    -0.000 C 
BRANCH  26  27
ATOM     27  C   UNL     1     -99.731 150.528 231.703  1.00  0.00    -0.000 C 
BRANCH  27  28
ATOM     28  C   UNL     1     -98.649 149.795 232.514  1.00  0.00    -0.000 C 
BRANCH  28  29
ATOM     29  C   UNL     1     -97.221 150.198 232.105  1.00  0.00    -0.000 C 
BRANCH  29  30
ATOM     30  C   UNL     1     -96.631 151.276 233.041  1.00  0.00    -0.000 C 
BRANCH  30  31
ATOM     31  C   UNL     1     -96.164 152.539 232.300  1.00  0.00    -0.003 C 
ATOM     32  C   UNL     1     -96.773 152.674 230.907  1.00  0.00     0.004 C 
ENDBRANCH  30  31
ENDBRANCH  29  30
ENDBRANCH  28  29
ENDBRANCH  27  28
ENDBRANCH  26  27
ENDBRANCH  25  26
ENDBRANCH  24  25
ENDBRANCH  23  24
ENDBRANCH  22  23
ENDBRANCH  21  22
ENDBRANCH  20  21
ENDBRANCH  19  20
ENDBRANCH  18  19
ENDBRANCH   1  18
TORSDOF 28
ENDMDL
MODEL 4
REMARK VINA RESULT:    -3.061      1.656      5.301
REMARK INTER + INTRA:         -14.111
REMARK INTER:                  -8.032
REMARK INTRA:                  -6.079
REMARK UNBOUND:                -6.039
REMARK SMILES CCCCCCCCCCCCCCCCCCCCCCCCCCCCCC(=O)[O-]
REMARK SMILES IDX 16 1 17 2 18 3 19 4 20 5 21 6 22 7 23 8 24 9 25 10 26 11
REMARK SMILES IDX 27 12 28 13 29 14 30 15 31 16 32 17 15 18 14 19 13 20 12 21
REMARK SMILES IDX 11 22 10 23 9 24 8 25 7 26 6 27 5 28 4 29 3 30 2 31 1 32
REMARK H PARENT
REMARK Flexibility Score: inf
ROOT
ATOM      1  C   UNL     1     -98.379 148.759 241.488  1.00  0.00     0.000 C 
ENDROOT
BRANCH   1   2
ATOM      2  C   UNL     1     -98.293 147.594 240.487  1.00  0.00     0.000 C 
BRANCH   2   3
ATOM      3  C   UNL     1     -96.836 147.235 240.146  1.00  0.00     0.000 C 
BRANCH   3   4
ATOM      4  C   UNL     1     -96.452 147.628 238.704  1.00  0.00     0.000 C 
BRANCH   4   5
ATOM      5  C   UNL     1     -95.489 148.829 238.619  1.00  0.00     0.000 C 
BRANCH   5   6
ATOM      6  C   UNL     1     -94.314 148.661 237.635  1.00  0.00     0.000 C 
BRANCH   6   7
ATOM      7  C   UNL     1     -94.628 149.129 236.203  1.00  0.00     0.000 C 
BRANCH   7   8
ATOM      8  C   UNL     1     -95.036 147.963 235.284  1.00  0.00     0.000 C 
BRANCH   8   9
ATOM      9  C   UNL     1     -96.065 148.389 234.225  1.00  0.00     0.000 C 
BRANCH   9  10
ATOM     10  C   UNL     1     -96.278 149.913 234.219  1.00  0.00     0.000 C 
BRANCH  10  11
ATOM     11  C   UNL     1     -96.788 150.444 232.871  1.00  0.00     0.000 C 
BRANCH  11  12
ATOM     12  C   UNL     1     -95.826 151.459 232.229  1.00  0.00     0.000 C 
BRANCH  12  13
ATOM     13  C   UNL     1     -96.505 152.811 231.932  1.00  0.00     0.006 C 
BRANCH  13  14
ATOM     14  C   UNL     1     -96.908 153.603 233.187  1.00  0.00     0.053 C 
BRANCH  14  15
ATOM     15  C   UNL     1     -97.852 154.722 232.868  1.00  0.00     0.041 C 
ATOM     16  O   UNL     1     -97.579 155.900 233.218  1.00  0.00    -0.550 OA
ATOM     17  O   UNL     1     -99.046 154.460 232.207  1.00  0.00    -0.550 OA
ENDBRANCH  14  15
ENDBRANCH  13  14
ENDBRANCH  12  13
ENDBRANCH  11  12
ENDBRANCH  10  11
ENDBRANCH   9  10
ENDBRANCH   8   9
ENDBRANCH   7   8
ENDBRANCH   6   7
ENDBRANCH   5   6
ENDBRANCH   4   5
ENDBRANCH   3   4
ENDBRANCH   2   3
ENDBRANCH   1   2
BRANCH   1  18
ATOM     18  C   UNL     1     -98.381 150.132 240.793  1.00  0.00     0.000 C 
BRANCH  18  19
ATOM     19  C   UNL     1     -99.247 150.159 239.519  1.00  0.00     0.000 C 
BRANCH  19  20
ATOM     20  C   UNL     1     -98.547 150.715 238.264  1.00  0.00     0.000 C 
BRANCH  20  21
ATOM     21  C   UNL     1     -98.759 149.835 237.021  1.00  0.00     0.000 C 
BRANCH  21  22
ATOM     22  C   UNL     1     -99.801 148.727 237.253  1.00  0.00     0.000 C 
BRANCH  22  23
ATOM     23  C   UNL     1    -100.588 148.370 235.984  1.00  0.00     0.000 C 
BRANCH  23  24
ATOM     24  C   UNL     1     -99.646 148.215 234.781  1.00  0.00    -0.000 C 
BRANCH  24  25
ATOM     25  C   UNL     1    -100.155 148.933 233.518  1.00  0.00    -0.000 C 
BRANCH  25  26
ATOM     26  C   UNL     1    -101.431 149.778 233.712  1.00  0.00    -0.000 C 
BRANCH  26  27
ATOM     27  C   UNL     1    -101.221 151.303 233.661  1.00  0.00    -0.000 C 
BRANCH  27  28
ATOM     28  C   UNL     1     -99.929 151.800 234.333  1.00  0.00    -0.000 C 
BRANCH  28  29
ATOM     29  C   UNL     1    -100.193 152.823 235.452  1.00  0.00    -0.000 C 
BRANCH  29  30
ATOM     30  C   UNL     1    -101.652 152.771 235.953  1.00  0.00    -0.000 C 
BRANCH  30  31
ATOM     31  C   UNL     1    -101.825 151.962 237.248  1.00  0.00    -0.003 C 
ATOM     32  C   UNL     1    -102.975 150.960 237.177  1.00  0.00     0.004 C 
ENDBRANCH  30  31
ENDBRANCH  29  30
ENDBRANCH  28  29
ENDBRANCH  27  28
ENDBRANCH  26  27
ENDBRANCH  25  26
ENDBRANCH  24  25
ENDBRANCH  23  24
ENDBRANCH  22  23
ENDBRANCH  21  22
ENDBRANCH  20  21
ENDBRANCH  19  20
ENDBRANCH  18  19
ENDBRANCH   1  18
TORSDOF 28
ENDMDL
MODEL 5
REMARK VINA RESULT:    -3.057      2.884      7.131
REMARK INTER + INTRA:         -14.101
REMARK INTER:                  -8.298
REMARK INTRA:                  -5.803
REMARK UNBOUND:                -6.039
REMARK SMILES CCCCCCCCCCCCCCCCCCCCCCCCCCCCCC(=O)[O-]
REMARK SMILES IDX 16 1 17 2 18 3 19 4 20 5 21 6 22 7 23 8 24 9 25 10 26 11
REMARK SMILES IDX 27 12 28 13 29 14 30 15 31 16 32 17 15 18 14 19 13 20 12 21
REMARK SMILES IDX 11 22 10 23 9 24 8 25 7 26 6 27 5 28 4 29 3 30 2 31 1 32
REMARK H PARENT
REMARK Flexibility Score: inf
ROOT
ATOM      1  C   UNL     1     -96.127 149.053 238.824  1.00  0.00     0.000 C 
ENDROOT
BRANCH   1   2
ATOM      2  C   UNL     1     -96.383 147.664 239.432  1.00  0.00     0.000 C 
BRANCH   2   3
ATOM      3  C   UNL     1     -97.638 146.999 238.838  1.00  0.00     0.000 C 
BRANCH   3   4
ATOM      4  C   UNL     1     -97.830 147.329 237.343  1.00  0.00     0.000 C 
BRANCH   4   5
ATOM      5  C   UNL     1     -99.307 147.436 236.912  1.00  0.00     0.000 C 
BRANCH   5   6
ATOM      6  C   UNL     1     -99.676 148.723 236.148  1.00  0.00     0.000 C 
BRANCH   6   7
ATOM      7  C   UNL     1     -98.736 149.909 236.432  1.00  0.00     0.000 C 
BRANCH   7   8
ATOM      8  C   UNL     1     -99.422 151.011 237.261  1.00  0.00     0.000 C 
BRANCH   8   9
ATOM      9  C   UNL     1    -100.928 150.757 237.435  1.00  0.00     0.000 C 
BRANCH   9  10
ATOM     10  C   UNL     1    -101.320 150.662 238.920  1.00  0.00     0.000 C 
BRANCH  10  11
ATOM     11  C   UNL     1    -101.429 149.213 239.422  1.00  0.00     0.000 C 
BRANCH  11  12
ATOM     12  C   UNL     1    -100.310 148.842 240.412  1.00  0.00     0.000 C 
BRANCH  12  13
ATOM     13  C   UNL     1     -99.361 150.021 240.701  1.00  0.00     0.006 C 
BRANCH  13  14
ATOM     14  C   UNL     1     -98.708 149.978 242.093  1.00  0.00     0.053 C 
BRANCH  14  15
ATOM     15  C   UNL     1     -99.226 151.059 242.992  1.00  0.00     0.041 C 
ATOM     16  O   UNL     1    -100.415 151.459 242.881  1.00  0.00    -0.550 OA
ATOM     17  O   UNL     1     -98.389 151.643 243.935  1.00  0.00    -0.550 OA
ENDBRANCH  14  15
ENDBRANCH  13  14
ENDBRANCH  12  13
ENDBRANCH  11  12
ENDBRANCH  10  11
ENDBRANCH   9  10
ENDBRANCH   8   9
ENDBRANCH   7   8
ENDBRANCH   6   7
ENDBRANCH   5   6
ENDBRANCH   4   5
ENDBRANCH   3   4
ENDBRANCH   2   3
ENDBRANCH   1   2
BRANCH   1  18
ATOM     18  C   UNL     1     -94.695 149.202 238.279  1.00  0.00     0.000 C 
BRANCH  18  19
ATOM     19  C   UNL     1     -94.239 147.986 237.451  1.00  0.00     0.000 C 
BRANCH  19  20
ATOM     20  C   UNL     1     -94.456 148.112 235.931  1.00  0.00     0.000 C 
BRANCH  20  21
ATOM     21  C   UNL     1     -95.065 149.464 235.524  1.00  0.00     0.000 C 
BRANCH  21  22
ATOM     22  C   UNL     1     -95.910 149.368 234.241  1.00  0.00     0.000 C 
BRANCH  22  23
ATOM     23  C   UNL     1     -95.529 148.169 233.361  1.00  0.00     0.000 C 
BRANCH  23  24
ATOM     24  C   UNL     1     -95.947 148.403 231.902  1.00  0.00    -0.000 C 
BRANCH  24  25
ATOM     25  C   UNL     1     -95.274 149.635 231.271  1.00  0.00    -0.000 C 
BRANCH  25  26
ATOM     26  C   UNL     1     -96.235 150.767 230.852  1.00  0.00    -0.000 C 
BRANCH  26  27
ATOM     27  C   UNL     1     -95.793 152.186 231.256  1.00  0.00    -0.000 C 
BRANCH  27  28
ATOM     28  C   UNL     1     -96.185 152.603 232.683  1.00  0.00    -0.000 C 
BRANCH  28  29
ATOM     29  C   UNL     1     -97.649 153.065 232.789  1.00  0.00    -0.000 C 
BRANCH  29  30
ATOM     30  C   UNL     1     -98.496 152.114 233.662  1.00  0.00    -0.000 C 
BRANCH  30  31
ATOM     31  C   UNL     1     -99.590 151.375 232.874  1.00  0.00    -0.003 C 
ATOM     32  C   UNL     1     -99.301 149.885 232.707  1.00  0.00     0.004 C 
ENDBRANCH  30  31
ENDBRANCH  29  30
ENDBRANCH  28  29
ENDBRANCH  27  28
ENDBRANCH  26  27
ENDBRANCH  25  26
ENDBRANCH  24  25
ENDBRANCH  23  24
ENDBRANCH  22  23
ENDBRANCH  21  22
ENDBRANCH  20  21
ENDBRANCH  19  20
ENDBRANCH  18  19
ENDBRANCH   1  18
TORSDOF 28
ENDMDL
MODEL 6
REMARK VINA RESULT:    -3.035      1.724      4.514
REMARK INTER + INTRA:         -14.043
REMARK INTER:                  -8.769
REMARK INTRA:                  -5.273
REMARK UNBOUND:                -6.039
REMARK SMILES CCCCCCCCCCCCCCCCCCCCCCCCCCCCCC(=O)[O-]
REMARK SMILES IDX 16 1 17 2 18 3 19 4 20 5 21 6 22 7 23 8 24 9 25 10 26 11
REMARK SMILES IDX 27 12 28 13 29 14 30 15 31 16 32 17 15 18 14 19 13 20 12 21
REMARK SMILES IDX 11 22 10 23 9 24 8 25 7 26 6 27 5 28 4 29 3 30 2 31 1 32
REMARK H PARENT
REMARK Flexibility Score: inf
ROOT
ATOM      1  C   UNL     1     -96.368 148.437 239.211  1.00  0.00     0.000 C 
ENDROOT
BRANCH   1   2
ATOM      2  C   UNL     1     -95.075 147.724 238.780  1.00  0.00     0.000 C 
BRANCH   2   3
ATOM      3  C   UNL     1     -94.331 148.498 237.677  1.00  0.00     0.000 C 
BRANCH   3   4
ATOM      4  C   UNL     1     -93.437 147.584 236.814  1.00  0.00     0.000 C 
BRANCH   4   5
ATOM      5  C   UNL     1     -93.957 147.380 235.376  1.00  0.00     0.000 C 
BRANCH   5   6
ATOM      6  C   UNL     1     -94.989 148.419 234.897  1.00  0.00     0.000 C 
BRANCH   6   7
ATOM      7  C   UNL     1     -95.674 148.052 233.568  1.00  0.00     0.000 C 
BRANCH   7   8
ATOM      8  C   UNL     1     -95.602 149.196 232.539  1.00  0.00     0.000 C 
BRANCH   8   9
ATOM      9  C   UNL     1     -95.645 150.581 233.205  1.00  0.00     0.000 C 
BRANCH   9  10
ATOM     10  C   UNL     1     -95.990 151.688 232.193  1.00  0.00     0.000 C 
BRANCH  10  11
ATOM     11  C   UNL     1     -96.579 152.944 232.854  1.00  0.00     0.000 C 
BRANCH  11  12
ATOM     12  C   UNL     1     -97.595 153.669 231.953  1.00  0.00     0.000 C 
BRANCH  12  13
ATOM     13  C   UNL     1     -98.964 153.854 232.634  1.00  0.00     0.006 C 
BRANCH  13  14
ATOM     14  C   UNL     1     -99.109 155.174 233.409  1.00  0.00     0.053 C 
BRANCH  14  15
ATOM     15  C   UNL     1     -98.602 156.346 232.625  1.00  0.00     0.041 C 
ATOM     16  O   UNL     1     -99.223 156.739 231.602  1.00  0.00    -0.550 OA
ATOM     17  O   UNL     1     -97.430 156.987 233.008  1.00  0.00    -0.550 OA
ENDBRANCH  14  15
ENDBRANCH  13  14
ENDBRANCH  12  13
ENDBRANCH  11  12
ENDBRANCH  10  11
ENDBRANCH   9  10
ENDBRANCH   8   9
ENDBRANCH   7   8
ENDBRANCH   6   7
ENDBRANCH   5   6
ENDBRANCH   4   5
ENDBRANCH   3   4
ENDBRANCH   2   3
ENDBRANCH   1   2
BRANCH   1  18
ATOM     18  C   UNL     1     -96.353 149.938 238.869  1.00  0.00     0.000 C 
BRANCH  18  19
ATOM     19  C   UNL     1     -97.676 150.646 239.214  1.00  0.00     0.000 C 
BRANCH  19  20
ATOM     20  C   UNL     1     -98.377 150.137 240.488  1.00  0.00     0.000 C 
BRANCH  20  21
ATOM     21  C   UNL     1     -99.807 149.636 240.226  1.00  0.00     0.000 C 
BRANCH  21  22
ATOM     22  C   UNL     1    -100.282 149.933 238.793  1.00  0.00     0.000 C 
BRANCH  22  23
ATOM     23  C   UNL     1    -100.685 148.669 238.021  1.00  0.00     0.000 C 
BRANCH  23  24
ATOM     24  C   UNL     1     -99.474 148.055 237.303  1.00  0.00    -0.000 C 
BRANCH  24  25
ATOM     25  C   UNL     1     -99.330 148.530 235.846  1.00  0.00    -0.000 C 
BRANCH  25  26
ATOM     26  C   UNL     1     -98.379 149.726 235.635  1.00  0.00    -0.000 C 
BRANCH  26  27
ATOM     27  C   UNL     1     -99.002 150.940 234.920  1.00  0.00    -0.000 C 
BRANCH  27  28
ATOM     28  C   UNL     1     -99.537 152.037 235.857  1.00  0.00    -0.000 C 
BRANCH  28  29
ATOM     29  C   UNL     1    -101.063 152.209 235.764  1.00  0.00    -0.000 C 
BRANCH  29  30
ATOM     30  C   UNL     1    -101.619 151.732 234.405  1.00  0.00    -0.000 C 
BRANCH  30  31
ATOM     31  C   UNL     1    -102.438 150.435 234.501  1.00  0.00    -0.003 C 
ATOM     32  C   UNL     1    -103.146 150.274 235.843  1.00  0.00     0.004 C 
ENDBRANCH  30  31
ENDBRANCH  29  30
ENDBRANCH  28  29
ENDBRANCH  27  28
ENDBRANCH  26  27
ENDBRANCH  25  26
ENDBRANCH  24  25
ENDBRANCH  23  24
ENDBRANCH  22  23
ENDBRANCH  21  22
ENDBRANCH  20  21
ENDBRANCH  19  20
ENDBRANCH  18  19
ENDBRANCH   1  18
TORSDOF 28
ENDMDL
MODEL 7
REMARK VINA RESULT:    -3.006      1.587      2.999
REMARK INTER + INTRA:         -13.966
REMARK INTER:                  -8.111
REMARK INTRA:                  -5.855
REMARK UNBOUND:                -6.039
REMARK SMILES CCCCCCCCCCCCCCCCCCCCCCCCCCCCCC(=O)[O-]
REMARK SMILES IDX 16 1 17 2 18 3 19 4 20 5 21 6 22 7 23 8 24 9 25 10 26 11
REMARK SMILES IDX 27 12 28 13 29 14 30 15 31 16 32 17 15 18 14 19 13 20 12 21
REMARK SMILES IDX 11 22 10 23 9 24 8 25 7 26 6 27 5 28 4 29 3 30 2 31 1 32
REMARK H PARENT
REMARK Flexibility Score: inf
ROOT
ATOM      1  C   UNL     1     -95.387 149.484 235.261  1.00  0.00     0.000 C 
ENDROOT
BRANCH   1   2
ATOM      2  C   UNL     1     -96.922 149.442 235.349  1.00  0.00     0.000 C 
BRANCH   2   3
ATOM      3  C   UNL     1     -97.462 148.002 235.299  1.00  0.00     0.000 C 
BRANCH   3   4
ATOM      4  C   UNL     1     -98.342 147.744 234.058  1.00  0.00     0.000 C 
BRANCH   4   5
ATOM      5  C   UNL     1     -97.549 147.306 232.810  1.00  0.00     0.000 C 
BRANCH   5   6
ATOM      6  C   UNL     1     -97.328 148.407 231.753  1.00  0.00     0.000 C 
BRANCH   6   7
ATOM      7  C   UNL     1     -95.846 148.725 231.484  1.00  0.00     0.000 C 
BRANCH   7   8
ATOM      8  C   UNL     1     -95.552 150.235 231.552  1.00  0.00     0.000 C 
BRANCH   8   9
ATOM      9  C   UNL     1     -96.763 151.042 232.046  1.00  0.00     0.000 C 
BRANCH   9  10
ATOM     10  C   UNL     1     -96.346 152.142 233.038  1.00  0.00     0.000 C 
BRANCH  10  11
ATOM     11  C   UNL     1     -96.943 153.516 232.698  1.00  0.00     0.000 C 
BRANCH  11  12
ATOM     12  C   UNL     1     -97.938 153.458 231.524  1.00  0.00     0.000 C 
BRANCH  12  13
ATOM     13  C   UNL     1     -99.211 154.285 231.786  1.00  0.00     0.006 C 
BRANCH  13  14
ATOM     14  C   UNL     1     -99.107 155.239 232.989  1.00  0.00     0.053 C 
BRANCH  14  15
ATOM     15  C   UNL     1     -98.681 156.616 232.580  1.00  0.00     0.041 C 
ATOM     16  O   UNL     1     -99.466 157.353 231.927  1.00  0.00    -0.550 OA
ATOM     17  O   UNL     1     -97.408 157.075 232.897  1.00  0.00    -0.550 OA
ENDBRANCH  14  15
ENDBRANCH  13  14
ENDBRANCH  12  13
ENDBRANCH  11  12
ENDBRANCH  10  11
ENDBRANCH   9  10
ENDBRANCH   8   9
ENDBRANCH   7   8
ENDBRANCH   6   7
ENDBRANCH   5   6
ENDBRANCH   4   5
ENDBRANCH   3   4
ENDBRANCH   2   3
ENDBRANCH   1   2
BRANCH   1  18
ATOM     18  C   UNL     1     -94.769 148.083 235.112  1.00  0.00     0.000 C 
BRANCH  18  19
ATOM     19  C   UNL     1     -93.830 147.714 236.276  1.00  0.00     0.000 C 
BRANCH  19  20
ATOM     20  C   UNL     1     -94.075 148.490 237.584  1.00  0.00     0.000 C 
BRANCH  20  21
ATOM     21  C   UNL     1     -94.816 147.657 238.644  1.00  0.00     0.000 C 
BRANCH  21  22
ATOM     22  C   UNL     1     -96.212 148.220 238.967  1.00  0.00     0.000 C 
BRANCH  22  23
ATOM     23  C   UNL     1     -96.256 149.754 238.955  1.00  0.00     0.000 C 
BRANCH  23  24
ATOM     24  C   UNL     1     -97.622 150.267 239.435  1.00  0.00    -0.000 C 
BRANCH  24  25
ATOM     25  C   UNL     1     -98.400 151.028 238.345  1.00  0.00    -0.000 C 
BRANCH  25  26
ATOM     26  C   UNL     1     -99.715 150.363 237.891  1.00  0.00    -0.000 C 
BRANCH  26  27
ATOM     27  C   UNL     1    -100.476 151.109 236.778  1.00  0.00    -0.000 C 
BRANCH  27  28
ATOM     28  C   UNL     1     -99.611 152.047 235.921  1.00  0.00    -0.000 C 
BRANCH  28  29
ATOM     29  C   UNL     1     -99.778 151.800 234.411  1.00  0.00    -0.000 C 
BRANCH  29  30
ATOM     30  C   UNL     1    -101.183 152.196 233.910  1.00  0.00    -0.000 C 
BRANCH  30  31
ATOM     31  C   UNL     1    -101.953 151.030 233.269  1.00  0.00    -0.003 C 
ATOM     32  C   UNL     1    -101.071 149.818 232.981  1.00  0.00     0.004 C 
ENDBRANCH  30  31
ENDBRANCH  29  30
ENDBRANCH  28  29
ENDBRANCH  27  28
ENDBRANCH  26  27
ENDBRANCH  25  26
ENDBRANCH  24  25
ENDBRANCH  23  24
ENDBRANCH  22  23
ENDBRANCH  21  22
ENDBRANCH  20  21
ENDBRANCH  19  20
ENDBRANCH  18  19
ENDBRANCH   1  18
TORSDOF 28
ENDMDL
MODEL 8
REMARK VINA RESULT:    -3.006      2.757      7.638
REMARK INTER + INTRA:         -13.965
REMARK INTER:                  -8.294
REMARK INTRA:                  -5.671
REMARK UNBOUND:                -6.039
REMARK SMILES CCCCCCCCCCCCCCCCCCCCCCCCCCCCCC(=O)[O-]
REMARK SMILES IDX 16 1 17 2 18 3 19 4 20 5 21 6 22 7 23 8 24 9 25 10 26 11
REMARK SMILES IDX 27 12 28 13 29 14 30 15 31 16 32 17 15 18 14 19 13 20 12 21
REMARK SMILES IDX 11 22 10 23 9 24 8 25 7 26 6 27 5 28 4 29 3 30 2 31 1 32
REMARK H PARENT
REMARK Flexibility Score: inf
ROOT
ATOM      1  C   UNL     1     -97.944 149.885 235.511  1.00  0.00     0.000 C 
ENDROOT
BRANCH   1   2
ATOM      2  C   UNL     1     -97.849 148.350 235.551  1.00  0.00     0.000 C 
BRANCH   2   3
ATOM      3  C   UNL     1     -96.528 147.840 234.948  1.00  0.00     0.000 C 
BRANCH   3   4
ATOM      4  C   UNL     1     -95.368 148.840 235.135  1.00  0.00     0.000 C 
BRANCH   4   5
ATOM      5  C   UNL     1     -94.251 148.334 236.070  1.00  0.00     0.000 C 
BRANCH   5   6
ATOM      6  C   UNL     1     -94.339 148.829 237.527  1.00  0.00     0.000 C 
BRANCH   6   7
ATOM      7  C   UNL     1     -95.129 147.892 238.458  1.00  0.00     0.000 C 
BRANCH   7   8
ATOM      8  C   UNL     1     -96.373 148.575 239.054  1.00  0.00     0.000 C 
BRANCH   8   9
ATOM      9  C   UNL     1     -96.300 150.108 238.954  1.00  0.00     0.000 C 
BRANCH   9  10
ATOM     10  C   UNL     1     -97.700 150.746 238.981  1.00  0.00     0.000 C 
BRANCH  10  11
ATOM     11  C   UNL     1     -98.819 149.730 239.255  1.00  0.00     0.000 C 
BRANCH  11  12
ATOM     12  C   UNL     1     -99.598 150.038 240.547  1.00  0.00     0.000 C 
BRANCH  12  13
ATOM     13  C   UNL     1     -98.770 149.763 241.817  1.00  0.00     0.006 C 
BRANCH  13  14
ATOM     14  C   UNL     1     -99.512 150.062 243.130  1.00  0.00     0.053 C 
BRANCH  14  15
ATOM     15  C   UNL     1     -99.758 151.528 243.317  1.00  0.00     0.041 C 
ATOM     16  O   UNL     1     -98.812 152.291 243.648  1.00  0.00    -0.550 OA
ATOM     17  O   UNL     1    -101.036 152.048 243.154  1.00  0.00    -0.550 OA
ENDBRANCH  14  15
ENDBRANCH  13  14
ENDBRANCH  12  13
ENDBRANCH  11  12
ENDBRANCH  10  11
ENDBRANCH   9  10
ENDBRANCH   8   9
ENDBRANCH   7   8
ENDBRANCH   6   7
ENDBRANCH   5   6
ENDBRANCH   4   5
ENDBRANCH   3   4
ENDBRANCH   2   3
ENDBRANCH   1   2
BRANCH   1  18
ATOM     18  C   UNL     1     -99.396 150.382 235.395  1.00  0.00     0.000 C 
BRANCH  18  19
ATOM     19  C   UNL     1     -99.513 151.916 235.457  1.00  0.00     0.000 C 
BRANCH  19  20
ATOM     20  C   UNL     1    -100.860 152.489 234.976  1.00  0.00     0.000 C 
BRANCH  20  21
ATOM     21  C   UNL     1    -101.623 151.526 234.050  1.00  0.00     0.000 C 
BRANCH  21  22
ATOM     22  C   UNL     1    -101.282 151.742 232.565  1.00  0.00     0.000 C 
BRANCH  22  23
ATOM     23  C   UNL     1    -100.739 150.477 231.885  1.00  0.00     0.000 C 
BRANCH  23  24
ATOM     24  C   UNL     1     -99.270 150.661 231.478  1.00  0.00    -0.000 C 
BRANCH  24  25
ATOM     25  C   UNL     1     -98.385 149.455 231.845  1.00  0.00    -0.000 C 
BRANCH  25  26
ATOM     26  C   UNL     1     -96.866 149.700 231.742  1.00  0.00    -0.000 C 
BRANCH  26  27
ATOM     27  C   UNL     1     -96.459 151.020 231.061  1.00  0.00    -0.000 C 
BRANCH  27  28
ATOM     28  C   UNL     1     -95.710 152.011 231.968  1.00  0.00    -0.000 C 
BRANCH  28  29
ATOM     29  C   UNL     1     -96.546 152.460 233.180  1.00  0.00    -0.000 C 
BRANCH  29  30
ATOM     30  C   UNL     1     -96.989 153.935 233.065  1.00  0.00    -0.000 C 
BRANCH  30  31
ATOM     31  C   UNL     1     -98.440 154.100 232.584  1.00  0.00    -0.003 C 
ATOM     32  C   UNL     1     -98.548 154.317 231.076  1.00  0.00     0.004 C 
ENDBRANCH  30  31
ENDBRANCH  29  30
ENDBRANCH  28  29
ENDBRANCH  27  28
ENDBRANCH  26  27
ENDBRANCH  25  26
ENDBRANCH  24  25
ENDBRANCH  23  24
ENDBRANCH  22  23
ENDBRANCH  21  22
ENDBRANCH  20  21
ENDBRANCH  19  20
ENDBRANCH  18  19
ENDBRANCH   1  18
TORSDOF 28
ENDMDL
MODEL 9
REMARK VINA RESULT:    -2.963      2.894      6.915
REMARK INTER + INTRA:         -13.852
REMARK INTER:                  -8.232
REMARK INTRA:                  -5.620
REMARK UNBOUND:                -6.039
REMARK SMILES CCCCCCCCCCCCCCCCCCCCCCCCCCCCCC(=O)[O-]
REMARK SMILES IDX 16 1 17 2 18 3 19 4 20 5 21 6 22 7 23 8 24 9 25 10 26 11
REMARK SMILES IDX 27 12 28 13 29 14 30 15 31 16 32 17 15 18 14 19 13 20 12 21
REMARK SMILES IDX 11 22 10 23 9 24 8 25 7 26 6 27 5 28 4 29 3 30 2 31 1 32
REMARK H PARENT
REMARK Flexibility Score: inf
ROOT
ATOM      1  C   UNL     1     -96.992 148.687 237.717  1.00  0.00     0.000 C 
ENDROOT
BRANCH   1   2
ATOM      2  C   UNL     1     -97.708 147.642 236.843  1.00  0.00     0.000 C 
BRANCH   2   3
ATOM      3  C   UNL     1     -98.291 148.266 235.563  1.00  0.00     0.000 C 
BRANCH   3   4
ATOM      4  C   UNL     1     -97.964 149.769 235.436  1.00  0.00     0.000 C 
BRANCH   4   5
ATOM      5  C   UNL     1     -99.074 150.595 234.754  1.00  0.00     0.000 C 
BRANCH   5   6
ATOM      6  C   UNL     1     -99.934 151.451 235.706  1.00  0.00     0.000 C 
BRANCH   6   7
ATOM      7  C   UNL     1     -99.502 151.369 237.181  1.00  0.00     0.000 C 
BRANCH   7   8
ATOM      8  C   UNL     1    -100.632 150.855 238.092  1.00  0.00     0.000 C 
BRANCH   8   9
ATOM      9  C   UNL     1    -101.278 149.570 237.550  1.00  0.00     0.000 C 
BRANCH   9  10
ATOM     10  C   UNL     1    -100.834 148.330 238.347  1.00  0.00     0.000 C 
BRANCH  10  11
ATOM     11  C   UNL     1    -100.499 148.647 239.812  1.00  0.00     0.000 C 
BRANCH  11  12
ATOM     12  C   UNL     1     -99.288 147.851 240.331  1.00  0.00     0.000 C 
BRANCH  12  13
ATOM     13  C   UNL     1     -98.344 148.707 241.197  1.00  0.00     0.006 C 
BRANCH  13  14
ATOM     14  C   UNL     1     -98.745 150.189 241.290  1.00  0.00     0.053 C 
BRANCH  14  15
ATOM     15  C   UNL     1     -99.146 150.579 242.680  1.00  0.00     0.041 C 
ATOM     16  O   UNL     1     -98.796 151.694 243.150  1.00  0.00    -0.550 OA
ATOM     17  O   UNL     1     -99.882 149.701 243.466  1.00  0.00    -0.550 OA
ENDBRANCH  14  15
ENDBRANCH  13  14
ENDBRANCH  12  13
ENDBRANCH  11  12
ENDBRANCH  10  11
ENDBRANCH   9  10
ENDBRANCH   8   9
ENDBRANCH   7   8
ENDBRANCH   6   7
ENDBRANCH   5   6
ENDBRANCH   4   5
ENDBRANCH   3   4
ENDBRANCH   2   3
ENDBRANCH   1   2
BRANCH   1  18
ATOM     18  C   UNL     1     -95.767 148.105 238.444  1.00  0.00     0.000 C 
BRANCH  18  19
ATOM     19  C   UNL     1     -94.441 148.747 237.996  1.00  0.00     0.000 C 
BRANCH  19  20
ATOM     20  C   UNL     1     -94.211 148.776 236.473  1.00  0.00     0.000 C 
BRANCH  20  21
ATOM     21  C   UNL     1     -94.022 147.375 235.869  1.00  0.00     0.000 C 
BRANCH  21  22
ATOM     22  C   UNL     1     -94.602 147.261 234.448  1.00  0.00     0.000 C 
BRANCH  22  23
ATOM     23  C   UNL     1     -94.938 148.625 233.828  1.00  0.00     0.000 C 
BRANCH  23  24
ATOM     24  C   UNL     1     -95.965 148.474 232.695  1.00  0.00    -0.000 C 
BRANCH  24  25
ATOM     25  C   UNL     1     -96.269 149.799 231.973  1.00  0.00    -0.000 C 
BRANCH  25  26
ATOM     26  C   UNL     1     -95.361 150.983 232.364  1.00  0.00    -0.000 C 
BRANCH  26  27
ATOM     27  C   UNL     1     -96.087 152.184 233.000  1.00  0.00    -0.000 C 
BRANCH  27  28
ATOM     28  C   UNL     1     -97.166 152.829 232.116  1.00  0.00    -0.000 C 
BRANCH  28  29
ATOM     29  C   UNL     1     -97.791 154.082 232.754  1.00  0.00    -0.000 C 
BRANCH  29  30
ATOM     30  C   UNL     1     -99.301 153.906 233.022  1.00  0.00    -0.000 C 
BRANCH  30  31
ATOM     31  C   UNL     1    -100.042 155.235 233.243  1.00  0.00    -0.003 C 
ATOM     32  C   UNL     1    -100.855 155.258 234.535  1.00  0.00     0.004 C 
ENDBRANCH  30  31
ENDBRANCH  29  30
ENDBRANCH  28  29
ENDBRANCH  27  28
ENDBRANCH  26  27
ENDBRANCH  25  26
ENDBRANCH  24  25
ENDBRANCH  23  24
ENDBRANCH  22  23
ENDBRANCH  21  22
ENDBRANCH  20  21
ENDBRANCH  19  20
ENDBRANCH  18  19
ENDBRANCH   1  18
TORSDOF 28
ENDMDL
