MODEL 1
REMARK VINA RESULT:    -3.714      0.000      0.000
REMARK INTER + INTRA:          -4.838
REMARK INTER:                  -5.233
REMARK INTRA:                   0.395
REMARK UNBOUND:                 0.395
REMARK SMILES CC1=CCC(=C(C)C)C(=O)CC(C)=CCC1
REMARK SMILES IDX 12 1 14 2 13 3 15 4 16 5 2 6 1 7 3 8 11 10 9 11 10 12 5 13
REMARK SMILES IDX 6 14 7 15 8 16 4 17
REMARK H PARENT
REMARK Flexibility Score: 60.00
ROOT
ATOM      1  C   UNL     1      18.137  26.591  27.988  1.00  0.00    -0.070 C 
ATOM      2  C   UNL     1      19.100  25.641  27.961  1.00  0.00    -0.027 C 
ATOM      3  C   UNL     1      16.701  26.128  27.949  1.00  0.00     0.039 C 
ENDROOT
BRANCH   2   4
ATOM      4  C   UNL     1      20.590  25.879  27.885  1.00  0.00     0.032 C 
BRANCH   4   5
ATOM      5  C   UNL     1      21.192  26.293  29.241  1.00  0.00     0.034 C 
BRANCH   5   6
ATOM      6  C   UNL     1      21.955  27.601  29.152  1.00  0.00    -0.077 C 
ATOM      7  C   UNL     1      23.159  27.667  28.247  1.00  0.00     0.039 C 
ATOM      8  C   UNL     1      21.602  28.723  29.819  1.00  0.00    -0.023 CG0
ATOM      9  G   UNL     1      20.413  28.864  30.740  1.00  0.00     0.000 G0
ENDBRANCH   5   6
ENDBRANCH   4   5
ENDBRANCH   2   4
BRANCH   1  10
ATOM     10  C   UNL     1      18.423  28.084  27.989  1.00  0.00     0.111 C 
BRANCH  10  11
ATOM     11  C   UNL     1      18.238  28.685  29.361  1.00  0.00     0.163 C 
ATOM     12  O   UNL     1      17.193  28.391  30.001  1.00  0.00    -0.294 OA
BRANCH  11  13
ATOM     13  C   UNL     1      19.276  29.562  29.988  1.00  0.00    -0.002 C 
ATOM     14  C   UNL     1      19.243  30.922  29.854  1.00  0.00    -0.069 C 
ATOM     15  C   UNL     1      18.199  31.610  29.004  1.00  0.00     0.039 C 
ATOM     16  C   UNL     1      20.275  31.805  30.524  1.00  0.00     0.039 C 
BRANCH  13  17
ATOM     17  C   UNL     1      20.412  28.870  30.720  1.00  0.00     0.066 CG0
ATOM     18  G   UNL     1      21.598  28.717  29.796  1.00  0.00     0.000 G0
ENDBRANCH  13  17
ENDBRANCH  11  13
ENDBRANCH  10  11
ENDBRANCH   1  10
TORSDOF 0
ENDMDL
MODEL 2
REMARK VINA RESULT:    -3.689      1.990      3.799
REMARK INTER + INTRA:          -4.804
REMARK INTER:                  -5.246
REMARK INTRA:                   0.443
REMARK UNBOUND:                 0.395
REMARK SMILES CC1=CCC(=C(C)C)C(=O)CC(C)=CCC1
REMARK SMILES IDX 12 1 14 2 13 3 15 4 16 5 2 6 1 7 3 8 11 10 9 11 10 12 5 13
REMARK SMILES IDX 6 14 7 15 8 16 4 17
REMARK H PARENT
REMARK Flexibility Score: 60.00
ROOT
ATOM      1  C   UNL     1      20.447  25.218  28.022  1.00  0.00    -0.070 C 
ATOM      2  C   UNL     1      19.176  25.002  27.608  1.00  0.00    -0.027 C 
ATOM      3  C   UNL     1      21.550  24.492  27.291  1.00  0.00     0.039 C 
ENDROOT
BRANCH   2   4
ATOM      4  C   UNL     1      17.922  25.536  28.256  1.00  0.00     0.032 C 
BRANCH   4   5
ATOM      5  C   UNL     1      17.583  26.968  27.798  1.00  0.00     0.034 C 
BRANCH   5   6
ATOM      6  C   UNL     1      17.547  27.945  28.957  1.00  0.00    -0.077 C 
ATOM      7  C   UNL     1      16.409  27.846  29.941  1.00  0.00     0.039 C 
ATOM      8  C   UNL     1      18.492  28.887  29.174  1.00  0.00    -0.023 CG0
ATOM      9  G   UNL     1      19.719  29.117  28.324  1.00  0.00     0.000 G0
ENDBRANCH   5   6
ENDBRANCH   4   5
ENDBRANCH   2   4
BRANCH   1  10
ATOM     10  C   UNL     1      20.811  26.091  29.212  1.00  0.00     0.111 C 
BRANCH  10  11
ATOM     11  C   UNL     1      21.527  27.347  28.781  1.00  0.00     0.163 C 
ATOM     12  O   UNL     1      22.590  27.225  28.113  1.00  0.00    -0.294 OA
BRANCH  11  13
ATOM     13  C   UNL     1      20.985  28.710  29.077  1.00  0.00    -0.002 C 
ATOM     14  C   UNL     1      21.548  29.517  30.026  1.00  0.00    -0.069 C 
ATOM     15  C   UNL     1      22.705  29.049  30.880  1.00  0.00     0.039 C 
ATOM     16  C   UNL     1      21.016  30.909  30.293  1.00  0.00     0.039 C 
BRANCH  13  17
ATOM     17  C   UNL     1      19.732  29.131  28.329  1.00  0.00     0.066 CG0
ATOM     18  G   UNL     1      18.515  28.879  29.188  1.00  0.00     0.000 G0
ENDBRANCH  13  17
ENDBRANCH  11  13
ENDBRANCH  10  11
ENDBRANCH   1  10
TORSDOF 0
ENDMDL
MODEL 3
REMARK VINA RESULT:    -3.637      2.978      5.958
REMARK INTER + INTRA:          -4.731
REMARK INTER:                  -5.060
REMARK INTRA:                   0.329
REMARK UNBOUND:                 0.395
REMARK SMILES CC1=CCC(=C(C)C)C(=O)CC(C)=CCC1
REMARK SMILES IDX 12 1 14 2 13 3 15 4 16 5 2 6 1 7 3 8 11 10 9 11 10 12 5 13
REMARK SMILES IDX 6 14 7 15 8 16 4 17
REMARK H PARENT
REMARK Flexibility Score: 60.00
ROOT
ATOM      1  C   UNL     1      26.023  28.945  28.732  1.00  0.00    -0.070 C 
ATOM      2  C   UNL     1      26.173  30.049  29.500  1.00  0.00    -0.027 C 
ATOM      3  C   UNL     1      26.881  28.836  27.494  1.00  0.00     0.039 C 
ENDROOT
BRANCH   2   4
ATOM      4  C   UNL     1      25.351  30.411  30.714  1.00  0.00     0.032 C 
BRANCH   4   5
ATOM      5  C   UNL     1      23.993  31.037  30.344  1.00  0.00     0.034 C 
BRANCH   5   6
ATOM      6  C   UNL     1      22.839  30.363  31.060  1.00  0.00    -0.077 C 
ATOM      7  C   UNL     1      22.711  30.556  32.550  1.00  0.00     0.039 C 
ATOM      8  C   UNL     1      21.901  29.617  30.435  1.00  0.00    -0.023 CG0
ATOM      9  G   UNL     1      21.838  29.339  28.952  1.00  0.00     0.000 G0
ENDBRANCH   5   6
ENDBRANCH   4   5
ENDBRANCH   2   4
BRANCH   1  10
ATOM     10  C   UNL     1      25.002  27.854  29.010  1.00  0.00     0.111 C 
BRANCH  10  11
ATOM     11  C   UNL     1      23.807  27.966  28.096  1.00  0.00     0.163 C 
ATOM     12  O   UNL     1      24.012  28.007  26.853  1.00  0.00    -0.294 OA
BRANCH  11  13
ATOM     13  C   UNL     1      22.405  27.976  28.621  1.00  0.00    -0.002 C 
ATOM     14  C   UNL     1      21.676  26.826  28.743  1.00  0.00    -0.069 C 
ATOM     15  C   UNL     1      22.217  25.491  28.284  1.00  0.00     0.039 C 
ATOM     16  C   UNL     1      20.272  26.840  29.310  1.00  0.00     0.039 C 
BRANCH  13  17
ATOM     17  C   UNL     1      21.799  29.330  28.944  1.00  0.00     0.066 CG0
ATOM     18  G   UNL     1      21.920  29.605  30.425  1.00  0.00     0.000 G0
ENDBRANCH  13  17
ENDBRANCH  11  13
ENDBRANCH  10  11
ENDBRANCH   1  10
TORSDOF 0
ENDMDL
MODEL 4
REMARK VINA RESULT:    -3.628      2.410      5.245
REMARK INTER + INTRA:          -4.717
REMARK INTER:                  -5.467
REMARK INTRA:                   0.750
REMARK UNBOUND:                 0.395
REMARK SMILES CC1=CCC(=C(C)C)C(=O)CC(C)=CCC1
REMARK SMILES IDX 12 1 14 2 13 3 15 4 16 5 2 6 1 7 3 8 11 10 9 11 10 12 5 13
REMARK SMILES IDX 6 14 7 15 8 16 4 17
REMARK H PARENT
REMARK Flexibility Score: 60.00
ROOT
ATOM      1  C   UNL     1      15.582  31.912  30.593  1.00  0.00    -0.070 C 
ATOM      2  C   UNL     1      16.346  32.946  30.169  1.00  0.00    -0.027 C 
ATOM      3  C   UNL     1      14.934  32.035  31.951  1.00  0.00     0.039 C 
ENDROOT
BRANCH   2   4
ATOM      4  C   UNL     1      17.166  32.992  28.902  1.00  0.00     0.032 C 
BRANCH   4   5
ATOM      5  C   UNL     1      18.677  33.112  29.179  1.00  0.00     0.034 C 
BRANCH   5   6
ATOM      6  C   UNL     1      19.151  32.100  30.204  1.00  0.00    -0.077 C 
ATOM      7  C   UNL     1      19.692  32.610  31.515  1.00  0.00     0.039 C 
ATOM      8  C   UNL     1      19.095  30.762  30.020  1.00  0.00    -0.023 CG0
ATOM      9  G   UNL     1      18.556  30.063  28.794  1.00  0.00     0.000 G0
ENDBRANCH   5   6
ENDBRANCH   4   5
ENDBRANCH   2   4
BRANCH   1  10
ATOM     10  C   UNL     1      15.400  30.621  29.812  1.00  0.00     0.111 C 
BRANCH  10  11
ATOM     11  C   UNL     1      16.441  29.594  30.185  1.00  0.00     0.163 C 
ATOM     12  O   UNL     1      16.418  29.124  31.354  1.00  0.00    -0.294 OA
BRANCH  11  13
ATOM     13  C   UNL     1      17.448  29.093  29.198  1.00  0.00    -0.002 C 
ATOM     14  C   UNL     1      17.414  27.810  28.726  1.00  0.00    -0.069 C 
ATOM     15  C   UNL     1      16.402  26.806  29.230  1.00  0.00     0.039 C 
ATOM     16  C   UNL     1      18.414  27.322  27.700  1.00  0.00     0.039 C 
BRANCH  13  17
ATOM     17  C   UNL     1      18.558  30.049  28.799  1.00  0.00     0.066 CG0
ATOM     18  G   UNL     1      19.089  30.756  30.023  1.00  0.00     0.000 G0
ENDBRANCH  13  17
ENDBRANCH  11  13
ENDBRANCH  10  11
ENDBRANCH   1  10
TORSDOF 0
ENDMDL
MODEL 5
REMARK VINA RESULT:    -3.548      2.214      4.240
REMARK INTER + INTRA:          -4.604
REMARK INTER:                  -5.039
REMARK INTRA:                   0.435
REMARK UNBOUND:                 0.395
REMARK SMILES CC1=CCC(=C(C)C)C(=O)CC(C)=CCC1
REMARK SMILES IDX 12 1 14 2 13 3 15 4 16 5 2 6 1 7 3 8 11 10 9 11 10 12 5 13
REMARK SMILES IDX 6 14 7 15 8 16 4 17
REMARK H PARENT
REMARK Flexibility Score: 60.00
ROOT
ATOM      1  C   UNL     1      21.249  30.883  29.999  1.00  0.00    -0.070 C 
ATOM      2  C   UNL     1      21.567  29.632  29.588  1.00  0.00    -0.027 C 
ATOM      3  C   UNL     1      22.193  31.561  30.962  1.00  0.00     0.039 C 
ENDROOT
BRANCH   2   4
ATOM      4  C   UNL     1      20.721  28.735  28.718  1.00  0.00     0.032 C 
BRANCH   4   5
ATOM      5  C   UNL     1      19.830  27.782  29.539  1.00  0.00     0.034 C 
BRANCH   5   6
ATOM      6  C   UNL     1      18.396  27.774  29.045  1.00  0.00    -0.077 C 
ATOM      7  C   UNL     1      18.055  26.914  27.855  1.00  0.00     0.039 C 
ATOM      8  C   UNL     1      17.398  28.476  29.627  1.00  0.00    -0.023 CG0
ATOM      9  G   UNL     1      17.535  29.362  30.842  1.00  0.00     0.000 G0
ENDBRANCH   5   6
ENDBRANCH   4   5
ENDBRANCH   2   4
BRANCH   1  10
ATOM     10  C   UNL     1      19.973  31.605  29.597  1.00  0.00     0.111 C 
BRANCH  10  11
ATOM     11  C   UNL     1      18.921  31.513  30.674  1.00  0.00     0.163 C 
ATOM     12  O   UNL     1      19.149  32.078  31.777  1.00  0.00    -0.294 OA
BRANCH  11  13
ATOM     13  C   UNL     1      17.612  30.823  30.446  1.00  0.00    -0.002 C 
ATOM     14  C   UNL     1      16.526  31.488  29.947  1.00  0.00    -0.069 C 
ATOM     15  C   UNL     1      16.567  32.974  29.668  1.00  0.00     0.039 C 
ATOM     16  C   UNL     1      15.217  30.775  29.684  1.00  0.00     0.039 C 
BRANCH  13  17
ATOM     17  C   UNL     1      17.518  29.366  30.864  1.00  0.00     0.066 CG0
ATOM     18  G   UNL     1      17.388  28.490  29.640  1.00  0.00     0.000 G0
ENDBRANCH  13  17
ENDBRANCH  11  13
ENDBRANCH  10  11
ENDBRANCH   1  10
TORSDOF 0
ENDMDL
MODEL 6
REMARK VINA RESULT:    -3.506      1.735      3.284
REMARK INTER + INTRA:          -4.546
REMARK INTER:                  -5.149
REMARK INTRA:                   0.603
REMARK UNBOUND:                 0.395
REMARK SMILES CC1=CCC(=C(C)C)C(=O)CC(C)=CCC1
REMARK SMILES IDX 12 1 14 2 13 3 15 4 16 5 2 6 1 7 3 8 11 10 9 11 10 12 5 13
REMARK SMILES IDX 6 14 7 15 8 16 4 17
REMARK H PARENT
REMARK Flexibility Score: 60.00
ROOT
ATOM      1  C   UNL     1      20.821  25.298  27.952  1.00  0.00    -0.070 C 
ATOM      2  C   UNL     1      22.007  25.947  28.020  1.00  0.00    -0.027 C 
ATOM      3  C   UNL     1      20.598  24.377  26.777  1.00  0.00     0.039 C 
ENDROOT
BRANCH   2   4
ATOM      4  C   UNL     1      22.400  26.987  29.042  1.00  0.00     0.032 C 
BRANCH   4   5
ATOM      5  C   UNL     1      22.069  28.421  28.584  1.00  0.00     0.034 C 
BRANCH   5   6
ATOM      6  C   UNL     1      21.131  29.124  29.546  1.00  0.00    -0.077 C 
ATOM      7  C   UNL     1      21.720  29.780  30.768  1.00  0.00     0.039 C 
ATOM      8  C   UNL     1      19.796  29.219  29.358  1.00  0.00    -0.023 CG0
ATOM      9  G   UNL     1      19.029  28.660  28.182  1.00  0.00     0.000 G0
ENDBRANCH   5   6
ENDBRANCH   4   5
ENDBRANCH   2   4
BRANCH   1  10
ATOM     10  C   UNL     1      19.691  25.497  28.948  1.00  0.00     0.111 C 
BRANCH  10  11
ATOM     11  C   UNL     1      18.497  26.161  28.308  1.00  0.00     0.163 C 
ATOM     12  O   UNL     1      17.808  25.487  27.495  1.00  0.00    -0.294 OA
BRANCH  11  13
ATOM     13  C   UNL     1      18.089  27.559  28.651  1.00  0.00    -0.002 C 
ATOM     14  C   UNL     1      16.911  27.827  29.291  1.00  0.00    -0.069 C 
ATOM     15  C   UNL     1      15.921  26.733  29.622  1.00  0.00     0.039 C 
ATOM     16  C   UNL     1      16.523  29.241  29.668  1.00  0.00     0.039 C 
BRANCH  13  17
ATOM     17  C   UNL     1      19.006  28.678  28.190  1.00  0.00     0.066 CG0
ATOM     18  G   UNL     1      19.789  29.215  29.365  1.00  0.00     0.000 G0
ENDBRANCH  13  17
ENDBRANCH  11  13
ENDBRANCH  10  11
ENDBRANCH   1  10
TORSDOF 0
ENDMDL
MODEL 7
REMARK VINA RESULT:    -3.371      2.157      4.047
REMARK INTER + INTRA:          -4.356
REMARK INTER:                  -4.858
REMARK INTRA:                   0.502
REMARK UNBOUND:                 0.395
REMARK SMILES CC1=CCC(=C(C)C)C(=O)CC(C)=CCC1
REMARK SMILES IDX 12 1 14 2 13 3 15 4 16 5 2 6 1 7 3 8 11 10 9 11 10 12 5 13
REMARK SMILES IDX 6 14 7 15 8 16 4 17
REMARK H PARENT
REMARK Flexibility Score: 60.00
ROOT
ATOM      1  C   UNL     1      20.446  28.150  28.607  1.00  0.00    -0.070 C 
ATOM      2  C   UNL     1      20.253  26.832  28.363  1.00  0.00    -0.027 C 
ATOM      3  C   UNL     1      21.731  28.551  29.289  1.00  0.00     0.039 C 
ENDROOT
BRANCH   2   4
ATOM      4  C   UNL     1      19.005  26.202  27.792  1.00  0.00     0.032 C 
BRANCH   4   5
ATOM      5  C   UNL     1      17.985  25.817  28.881  1.00  0.00     0.034 C 
BRANCH   5   6
ATOM      6  C   UNL     1      16.613  26.405  28.612  1.00  0.00    -0.077 C 
ATOM      7  C   UNL     1      15.735  25.731  27.589  1.00  0.00     0.039 C 
ATOM      8  C   UNL     1      16.121  27.486  29.256  1.00  0.00    -0.023 CG0
ATOM      9  G   UNL     1      16.833  28.272  30.332  1.00  0.00     0.000 G0
ENDBRANCH   5   6
ENDBRANCH   4   5
ENDBRANCH   2   4
BRANCH   1  10
ATOM     10  C   UNL     1      19.419  29.226  28.295  1.00  0.00     0.111 C 
BRANCH  10  11
ATOM     11  C   UNL     1      18.766  29.752  29.549  1.00  0.00     0.163 C 
ATOM     12  O   UNL     1      19.488  30.366  30.381  1.00  0.00    -0.294 OA
BRANCH  11  13
ATOM     13  C   UNL     1      17.297  29.609  29.798  1.00  0.00    -0.002 C 
ATOM     14  C   UNL     1      16.433  30.653  29.615  1.00  0.00    -0.069 C 
ATOM     15  C   UNL     1      16.922  32.028  29.222  1.00  0.00     0.039 C 
ATOM     16  C   UNL     1      14.944  30.489  29.832  1.00  0.00     0.039 C 
BRANCH  13  17
ATOM     17  C   UNL     1      16.816  28.273  30.336  1.00  0.00     0.066 CG0
ATOM     18  G   UNL     1      16.125  27.499  29.239  1.00  0.00     0.000 G0
ENDBRANCH  13  17
ENDBRANCH  11  13
ENDBRANCH  10  11
ENDBRANCH   1  10
TORSDOF 0
ENDMDL
MODEL 8
REMARK VINA RESULT:    -3.359      1.745      3.853
REMARK INTER + INTRA:          -4.338
REMARK INTER:                  -4.729
REMARK INTRA:                   0.391
REMARK UNBOUND:                 0.395
REMARK SMILES CC1=CCC(=C(C)C)C(=O)CC(C)=CCC1
REMARK SMILES IDX 12 1 14 2 13 3 15 4 16 5 2 6 1 7 3 8 11 10 9 11 10 12 5 13
REMARK SMILES IDX 6 14 7 15 8 16 4 17
REMARK H PARENT
REMARK Flexibility Score: 60.00
ROOT
ATOM      1  C   UNL     1      18.859  27.505  28.662  1.00  0.00    -0.070 C 
ATOM      2  C   UNL     1      17.977  28.351  29.244  1.00  0.00    -0.027 C 
ATOM      3  C   UNL     1      18.409  26.083  28.428  1.00  0.00     0.039 C 
ENDROOT
BRANCH   2   4
ATOM      4  C   UNL     1      18.249  29.775  29.664  1.00  0.00     0.032 C 
BRANCH   4   5
ATOM      5  C   UNL     1      18.980  29.864  31.017  1.00  0.00     0.034 C 
BRANCH   5   6
ATOM      6  C   UNL     1      20.148  30.831  30.973  1.00  0.00    -0.077 C 
ATOM      7  C   UNL     1      19.853  32.300  30.808  1.00  0.00     0.039 C 
ATOM      8  C   UNL     1      21.440  30.454  31.097  1.00  0.00    -0.023 CG0
ATOM      9  G   UNL     1      21.930  29.041  31.304  1.00  0.00     0.000 G0
ENDBRANCH   5   6
ENDBRANCH   4   5
ENDBRANCH   2   4
BRANCH   1  10
ATOM     10  C   UNL     1      20.284  27.889  28.297  1.00  0.00     0.111 C 
BRANCH  10  11
ATOM     11  C   UNL     1      21.262  27.474  29.368  1.00  0.00     0.163 C 
ATOM     12  O   UNL     1      21.249  26.273  29.751  1.00  0.00    -0.294 OA
BRANCH  11  13
ATOM     13  C   UNL     1      22.266  28.427  29.937  1.00  0.00    -0.002 C 
ATOM     14  C   UNL     1      23.447  28.691  29.301  1.00  0.00    -0.069 C 
ATOM     15  C   UNL     1      23.837  27.980  28.025  1.00  0.00     0.039 C 
ATOM     16  C   UNL     1      24.440  29.685  29.864  1.00  0.00     0.039 C 
BRANCH  13  17
ATOM     17  C   UNL     1      21.949  29.034  31.293  1.00  0.00     0.066 CG0
ATOM     18  G   UNL     1      21.451  30.449  31.116  1.00  0.00     0.000 G0
ENDBRANCH  13  17
ENDBRANCH  11  13
ENDBRANCH  10  11
ENDBRANCH   1  10
TORSDOF 0
ENDMDL
MODEL 9
REMARK VINA RESULT:    -3.235      1.709      2.821
REMARK INTER + INTRA:          -4.163
REMARK INTER:                  -5.177
REMARK INTRA:                   1.014
REMARK UNBOUND:                 0.395
REMARK SMILES CC1=CCC(=C(C)C)C(=O)CC(C)=CCC1
REMARK SMILES IDX 12 1 14 2 13 3 15 4 16 5 2 6 1 7 3 8 11 10 9 11 10 12 5 13
REMARK SMILES IDX 6 14 7 15 8 16 4 17
REMARK H PARENT
REMARK Flexibility Score: 60.00
ROOT
ATOM      1  C   UNL     1      19.715  28.023  28.663  1.00  0.00    -0.070 C 
ATOM      2  C   UNL     1      21.021  28.033  29.021  1.00  0.00    -0.027 C 
ATOM      3  C   UNL     1      19.017  26.686  28.613  1.00  0.00     0.039 C 
ENDROOT
BRANCH   2   4
ATOM      4  C   UNL     1      21.936  29.234  29.035  1.00  0.00     0.032 C 
BRANCH   4   5
ATOM      5  C   UNL     1      22.726  29.361  30.352  1.00  0.00     0.034 C 
BRANCH   5   6
ATOM      6  C   UNL     1      21.939  30.093  31.422  1.00  0.00    -0.077 C 
ATOM      7  C   UNL     1      22.174  29.719  32.863  1.00  0.00     0.039 C 
ATOM      8  C   UNL     1      21.055  31.081  31.160  1.00  0.00    -0.023 CG0
ATOM      9  G   UNL     1      20.712  31.617  29.790  1.00  0.00     0.000 G0
ENDBRANCH   5   6
ENDBRANCH   4   5
ENDBRANCH   2   4
BRANCH   1  10
ATOM     10  C   UNL     1      18.944  29.266  28.249  1.00  0.00     0.111 C 
BRANCH  10  11
ATOM     11  C   UNL     1      18.628  30.144  29.435  1.00  0.00     0.163 C 
ATOM     12  O   UNL     1      17.897  29.670  30.346  1.00  0.00    -0.294 OA
BRANCH  11  13
ATOM     13  C   UNL     1      19.198  31.521  29.576  1.00  0.00    -0.002 C 
ATOM     14  C   UNL     1      18.418  32.637  29.453  1.00  0.00    -0.069 C 
ATOM     15  C   UNL     1      16.952  32.545  29.095  1.00  0.00     0.039 C 
ATOM     16  C   UNL     1      18.995  34.025  29.635  1.00  0.00     0.039 C 
BRANCH  13  17
ATOM     17  C   UNL     1      20.698  31.628  29.788  1.00  0.00     0.066 CG0
ATOM     18  G   UNL     1      21.061  31.089  31.152  1.00  0.00     0.000 G0
ENDBRANCH  13  17
ENDBRANCH  11  13
ENDBRANCH  10  11
ENDBRANCH   1  10
TORSDOF 0
ENDMDL
