MODEL 1
REMARK VINA RESULT:    -4.825      0.000      0.000
REMARK INTER + INTRA:          -5.610
REMARK INTER:                  -5.390
REMARK INTRA:                  -0.220
REMARK UNBOUND:                -0.220
REMARK SMILES O=C([O-])c1ccccc1C(=O)[O-]
REMARK SMILES IDX 4 1 9 2 5 3 8 4 6 5 7 6 2 7 1 8 3 9 10 10 11 11 12 12
REMARK H PARENT
REMARK Flexibility Score: inf
ROOT
ATOM      1  C   UNL     1      89.728  35.882  27.849  1.00  0.00     0.006 A 
ATOM      2  C   UNL     1      90.983  35.388  28.306  1.00  0.00     0.006 A 
ATOM      3  C   UNL     1      89.581  36.224  26.492  1.00  0.00     0.010 A 
ATOM      4  C   UNL     1      92.059  35.317  27.404  1.00  0.00     0.010 A 
ATOM      5  C   UNL     1      90.657  36.125  25.610  1.00  0.00     0.001 A 
ATOM      6  C   UNL     1      91.895  35.684  26.067  1.00  0.00     0.001 A 
ENDROOT
BRANCH   1   7
ATOM      7  C   UNL     1      88.576  36.120  28.751  1.00  0.00     0.072 C 
ATOM      8  O   UNL     1      88.352  37.267  29.221  1.00  0.00    -0.545 OA
ATOM      9  O   UNL     1      87.688  35.089  29.034  1.00  0.00    -0.545 OA
ENDBRANCH   1   7
BRANCH   2  10
ATOM     10  C   UNL     1      91.197  34.875  29.680  1.00  0.00     0.072 C 
ATOM     11  O   UNL     1      91.582  35.642  30.601  1.00  0.00    -0.545 OA
ATOM     12  O   UNL     1      90.909  33.550  29.981  1.00  0.00    -0.545 OA
ENDBRANCH   2  10
TORSDOF 2
ENDMDL
MODEL 2
REMARK VINA RESULT:    -4.819      0.079      2.876
REMARK INTER + INTRA:          -5.602
REMARK INTER:                  -5.379
REMARK INTRA:                  -0.224
REMARK UNBOUND:                -0.220
REMARK SMILES O=C([O-])c1ccccc1C(=O)[O-]
REMARK SMILES IDX 4 1 9 2 5 3 8 4 6 5 7 6 2 7 1 8 3 9 10 10 11 11 12 12
REMARK H PARENT
REMARK Flexibility Score: inf
ROOT
ATOM      1  C   UNL     1      91.011  35.427  28.251  1.00  0.00     0.006 A 
ATOM      2  C   UNL     1      89.741  35.890  27.805  1.00  0.00     0.006 A 
ATOM      3  C   UNL     1      92.078  35.367  27.336  1.00  0.00     0.010 A 
ATOM      4  C   UNL     1      89.570  36.211  26.446  1.00  0.00     0.010 A 
ATOM      5  C   UNL     1      91.890  35.711  25.997  1.00  0.00     0.001 A 
ATOM      6  C   UNL     1      90.637  36.122  25.551  1.00  0.00     0.001 A 
ENDROOT
BRANCH   1   7
ATOM      7  C   UNL     1      91.254  34.938  29.629  1.00  0.00     0.072 C 
ATOM      8  O   UNL     1      91.706  35.708  30.517  1.00  0.00    -0.545 OA
ATOM      9  O   UNL     1      90.919  33.633  29.974  1.00  0.00    -0.545 OA
ENDBRANCH   1   7
BRANCH   2  10
ATOM     10  C   UNL     1      88.597  36.118  28.719  1.00  0.00     0.072 C 
ATOM     11  O   UNL     1      88.375  37.259  29.201  1.00  0.00    -0.545 OA
ATOM     12  O   UNL     1      87.714  35.082  29.000  1.00  0.00    -0.545 OA
ENDBRANCH   2  10
TORSDOF 2
ENDMDL
MODEL 3
REMARK VINA RESULT:    -4.815      6.496      7.600
REMARK INTER + INTRA:          -5.598
REMARK INTER:                  -5.383
REMARK INTRA:                  -0.216
REMARK UNBOUND:                -0.220
REMARK SMILES O=C([O-])c1ccccc1C(=O)[O-]
REMARK SMILES IDX 4 1 9 2 5 3 8 4 6 5 7 6 2 7 1 8 3 9 10 10 11 11 12 12
REMARK H PARENT
REMARK Flexibility Score: inf
ROOT
ATOM      1  C   UNL     1      93.753  29.850  29.526  1.00  0.00     0.006 A 
ATOM      2  C   UNL     1      93.992  29.882  28.123  1.00  0.00     0.006 A 
ATOM      3  C   UNL     1      93.969  31.016  30.283  1.00  0.00     0.010 A 
ATOM      4  C   UNL     1      94.501  31.059  27.543  1.00  0.00     0.010 A 
ATOM      5  C   UNL     1      94.454  32.178  29.683  1.00  0.00     0.001 A 
ATOM      6  C   UNL     1      94.729  32.196  28.319  1.00  0.00     0.001 A 
ENDROOT
BRANCH   1   7
ATOM      7  C   UNL     1      93.348  28.621  30.248  1.00  0.00     0.072 C 
ATOM      8  O   UNL     1      94.200  27.916  30.849  1.00  0.00    -0.545 OA
ATOM      9  O   UNL     1      92.005  28.270  30.326  1.00  0.00    -0.545 OA
ENDBRANCH   1   7
BRANCH   2  10
ATOM     10  C   UNL     1      93.666  28.753  27.221  1.00  0.00     0.072 C 
ATOM     11  O   UNL     1      94.506  27.841  27.002  1.00  0.00    -0.545 OA
ATOM     12  O   UNL     1      92.399  28.653  26.660  1.00  0.00    -0.545 OA
ENDBRANCH   2  10
TORSDOF 2
ENDMDL
MODEL 4
REMARK VINA RESULT:    -4.814      6.494      7.456
REMARK INTER + INTRA:          -5.597
REMARK INTER:                  -5.383
REMARK INTRA:                  -0.214
REMARK UNBOUND:                -0.220
REMARK SMILES O=C([O-])c1ccccc1C(=O)[O-]
REMARK SMILES IDX 4 1 9 2 5 3 8 4 6 5 7 6 2 7 1 8 3 9 10 10 11 11 12 12
REMARK H PARENT
REMARK Flexibility Score: inf
ROOT
ATOM      1  C   UNL     1      93.957  29.892  28.145  1.00  0.00     0.006 A 
ATOM      2  C   UNL     1      93.751  29.858  29.553  1.00  0.00     0.006 A 
ATOM      3  C   UNL     1      94.457  31.068  27.555  1.00  0.00     0.010 A 
ATOM      4  C   UNL     1      93.990  31.021  30.307  1.00  0.00     0.010 A 
ATOM      5  C   UNL     1      94.706  32.203  28.326  1.00  0.00     0.001 A 
ATOM      6  C   UNL     1      94.463  32.183  29.696  1.00  0.00     0.001 A 
ENDROOT
BRANCH   1   7
ATOM      7  C   UNL     1      93.607  28.764  27.249  1.00  0.00     0.072 C 
ATOM      8  O   UNL     1      94.442  27.854  27.001  1.00  0.00    -0.545 OA
ATOM      9  O   UNL     1      92.323  28.662  26.727  1.00  0.00    -0.545 OA
ENDBRANCH   1   7
BRANCH   2  10
ATOM     10  C   UNL     1      93.360  28.629  30.283  1.00  0.00     0.072 C 
ATOM     11  O   UNL     1      94.221  27.935  30.884  1.00  0.00    -0.545 OA
ATOM     12  O   UNL     1      92.021  28.266  30.368  1.00  0.00    -0.545 OA
ENDBRANCH   2  10
TORSDOF 2
ENDMDL
MODEL 5
REMARK VINA RESULT:    -4.808      6.462      7.448
REMARK INTER + INTRA:          -5.590
REMARK INTER:                  -5.388
REMARK INTRA:                  -0.202
REMARK UNBOUND:                -0.220
REMARK SMILES O=C([O-])c1ccccc1C(=O)[O-]
REMARK SMILES IDX 4 1 9 2 5 3 8 4 6 5 7 6 2 7 1 8 3 9 10 10 11 11 12 12
REMARK H PARENT
REMARK Flexibility Score: inf
ROOT
ATOM      1  C   UNL     1      90.950  31.911  23.148  1.00  0.00     0.006 A 
ATOM      2  C   UNL     1      90.820  30.536  22.802  1.00  0.00     0.006 A 
ATOM      3  C   UNL     1      92.208  32.401  23.544  1.00  0.00     0.010 A 
ATOM      4  C   UNL     1      91.937  29.691  22.930  1.00  0.00     0.010 A 
ATOM      5  C   UNL     1      93.307  31.548  23.643  1.00  0.00     0.001 A 
ATOM      6  C   UNL     1      93.169  30.195  23.348  1.00  0.00     0.001 A 
ENDROOT
BRANCH   1   7
ATOM      7  C   UNL     1      89.803  32.850  23.176  1.00  0.00     0.072 C 
ATOM      8  O   UNL     1      89.470  33.492  22.145  1.00  0.00    -0.545 OA
ATOM      9  O   UNL     1      89.037  32.979  24.329  1.00  0.00    -0.545 OA
ENDBRANCH   1   7
BRANCH   2  10
ATOM     10  C   UNL     1      89.575  29.958  22.245  1.00  0.00     0.072 C 
ATOM     11  O   UNL     1      89.473  29.712  21.014  1.00  0.00    -0.545 OA
ATOM     12  O   UNL     1      88.526  29.616  23.090  1.00  0.00    -0.545 OA
ENDBRANCH   2  10
TORSDOF 2
ENDMDL
MODEL 6
REMARK VINA RESULT:    -4.797      6.494      7.606
REMARK INTER + INTRA:          -5.578
REMARK INTER:                  -5.385
REMARK INTRA:                  -0.192
REMARK UNBOUND:                -0.220
REMARK SMILES O=C([O-])c1ccccc1C(=O)[O-]
REMARK SMILES IDX 4 1 9 2 5 3 8 4 6 5 7 6 2 7 1 8 3 9 10 10 11 11 12 12
REMARK H PARENT
REMARK Flexibility Score: inf
ROOT
ATOM      1  C   UNL     1      90.809  30.537  22.751  1.00  0.00     0.006 A 
ATOM      2  C   UNL     1      90.941  31.911  23.102  1.00  0.00     0.006 A 
ATOM      3  C   UNL     1      91.921  29.686  22.887  1.00  0.00     0.010 A 
ATOM      4  C   UNL     1      92.197  32.393  23.511  1.00  0.00     0.010 A 
ATOM      5  C   UNL     1      93.152  30.183  23.316  1.00  0.00     0.001 A 
ATOM      6  C   UNL     1      93.293  31.534  23.617  1.00  0.00     0.001 A 
ENDROOT
BRANCH   1   7
ATOM      7  C   UNL     1      89.565  29.965  22.182  1.00  0.00     0.072 C 
ATOM      8  O   UNL     1      89.482  29.698  20.954  1.00  0.00    -0.545 OA
ATOM      9  O   UNL     1      88.497  29.653  23.015  1.00  0.00    -0.545 OA
ENDBRANCH   1   7
BRANCH   2  10
ATOM     10  C   UNL     1      89.798  32.853  23.123  1.00  0.00     0.072 C 
ATOM     11  O   UNL     1      89.449  33.466  22.081  1.00  0.00    -0.545 OA
ATOM     12  O   UNL     1      89.053  33.018  24.285  1.00  0.00    -0.545 OA
ENDBRANCH   2  10
TORSDOF 2
ENDMDL
MODEL 7
REMARK VINA RESULT:    -4.729      6.135      7.399
REMARK INTER + INTRA:          -5.502
REMARK INTER:                  -5.279
REMARK INTRA:                  -0.223
REMARK UNBOUND:                -0.220
REMARK SMILES O=C([O-])c1ccccc1C(=O)[O-]
REMARK SMILES IDX 4 1 9 2 5 3 8 4 6 5 7 6 2 7 1 8 3 9 10 10 11 11 12 12
REMARK H PARENT
REMARK Flexibility Score: inf
ROOT
ATOM      1  C   UNL     1      91.328  30.986  23.656  1.00  0.00     0.006 A 
ATOM      2  C   UNL     1      89.971  31.286  23.347  1.00  0.00     0.006 A 
ATOM      3  C   UNL     1      91.771  29.653  23.567  1.00  0.00     0.010 A 
ATOM      4  C   UNL     1      89.095  30.234  23.026  1.00  0.00     0.010 A 
ATOM      5  C   UNL     1      90.888  28.628  23.225  1.00  0.00     0.001 A 
ATOM      6  C   UNL     1      89.551  28.917  22.966  1.00  0.00     0.001 A 
ENDROOT
BRANCH   1   7
ATOM      7  C   UNL     1      92.292  32.004  24.135  1.00  0.00     0.072 C 
ATOM      8  O   UNL     1      93.048  32.607  23.328  1.00  0.00    -0.545 OA
ATOM      9  O   UNL     1      92.324  32.355  25.480  1.00  0.00    -0.545 OA
ENDBRANCH   1   7
BRANCH   2  10
ATOM     10  C   UNL     1      89.445  32.669  23.280  1.00  0.00     0.072 C 
ATOM     11  O   UNL     1      89.379  33.281  22.181  1.00  0.00    -0.545 OA
ATOM     12  O   UNL     1      88.954  33.284  24.425  1.00  0.00    -0.545 OA
ENDBRANCH   2  10
TORSDOF 2
ENDMDL
MODEL 8
REMARK VINA RESULT:    -4.711      5.613      7.500
REMARK INTER + INTRA:          -5.482
REMARK INTER:                  -5.260
REMARK INTRA:                  -0.221
REMARK UNBOUND:                -0.220
REMARK SMILES O=C([O-])c1ccccc1C(=O)[O-]
REMARK SMILES IDX 4 1 9 2 5 3 8 4 6 5 7 6 2 7 1 8 3 9 10 10 11 11 12 12
REMARK H PARENT
REMARK Flexibility Score: inf
ROOT
ATOM      1  C   UNL     1      93.083  29.305  28.557  1.00  0.00     0.006 A 
ATOM      2  C   UNL     1      93.440  30.667  28.771  1.00  0.00     0.006 A 
ATOM      3  C   UNL     1      92.563  28.557  29.629  1.00  0.00     0.010 A 
ATOM      4  C   UNL     1      93.323  31.208  30.064  1.00  0.00     0.010 A 
ATOM      5  C   UNL     1      92.436  29.122  30.898  1.00  0.00     0.001 A 
ATOM      6  C   UNL     1      92.825  30.441  31.117  1.00  0.00     0.001 A 
ENDROOT
BRANCH   1   7
ATOM      7  C   UNL     1      93.297  28.607  27.266  1.00  0.00     0.072 C 
ATOM      8  O   UNL     1      94.360  27.969  27.047  1.00  0.00    -0.545 OA
ATOM      9  O   UNL     1      92.291  28.594  26.307  1.00  0.00    -0.545 OA
ENDBRANCH   1   7
BRANCH   2  10
ATOM     10  C   UNL     1      93.866  31.572  27.678  1.00  0.00     0.072 C 
ATOM     11  O   UNL     1      95.083  31.687  27.375  1.00  0.00    -0.545 OA
ATOM     12  O   UNL     1      92.916  32.253  26.927  1.00  0.00    -0.545 OA
ENDBRANCH   2  10
TORSDOF 2
ENDMDL
MODEL 9
REMARK VINA RESULT:    -4.703      5.630      7.422
REMARK INTER + INTRA:          -5.472
REMARK INTER:                  -5.254
REMARK INTRA:                  -0.218
REMARK UNBOUND:                -0.220
REMARK SMILES O=C([O-])c1ccccc1C(=O)[O-]
REMARK SMILES IDX 4 1 9 2 5 3 8 4 6 5 7 6 2 7 1 8 3 9 10 10 11 11 12 12
REMARK H PARENT
REMARK Flexibility Score: inf
ROOT
ATOM      1  C   UNL     1      93.468  30.658  28.774  1.00  0.00     0.006 A 
ATOM      2  C   UNL     1      93.067  29.309  28.556  1.00  0.00     0.006 A 
ATOM      3  C   UNL     1      93.372  31.199  30.069  1.00  0.00     0.010 A 
ATOM      4  C   UNL     1      92.524  28.577  29.627  1.00  0.00     0.010 A 
ATOM      5  C   UNL     1      92.850  30.446  31.120  1.00  0.00     0.001 A 
ATOM      6  C   UNL     1      92.417  29.142  30.898  1.00  0.00     0.001 A 
ENDROOT
BRANCH   1   7
ATOM      7  C   UNL     1      93.924  31.551  27.682  1.00  0.00     0.072 C 
ATOM      8  O   UNL     1      95.139  31.602  27.356  1.00  0.00    -0.545 OA
ATOM      9  O   UNL     1      92.999  32.295  26.959  1.00  0.00    -0.545 OA
ENDBRANCH   1   7
BRANCH   2  10
ATOM     10  C   UNL     1      93.256  28.609  27.264  1.00  0.00     0.072 C 
ATOM     11  O   UNL     1      94.305  27.953  27.034  1.00  0.00    -0.545 OA
ATOM     12  O   UNL     1      92.241  28.613  26.314  1.00  0.00    -0.545 OA
ENDBRANCH   2  10
TORSDOF 2
ENDMDL
