MODEL 1
REMARK VINA RESULT:    -3.512      0.000      0.000
REMARK INTER + INTRA:          -5.587
REMARK INTER:                  -5.155
REMARK INTRA:                  -0.433
REMARK UNBOUND:                -0.433
REMARK SMILES O=C([O-])CCCCCCCC(=O)[O-]
REMARK SMILES IDX 7 1 6 2 5 3 4 4 2 5 1 6 3 7 8 8 9 9 10 10 11 11 12 12 13 13
REMARK H PARENT
REMARK Flexibility Score: inf
ROOT
ATOM      1  C   UNL     1      61.714  33.697  60.685  1.00  0.00     0.000 C 
ENDROOT
BRANCH   1   2
ATOM      2  C   UNL     1      60.900  32.813  59.723  1.00  0.00     0.000 C 
BRANCH   2   3
ATOM      3  C   UNL     1      60.491  31.437  60.288  1.00  0.00     0.006 C 
BRANCH   3   4
ATOM      4  C   UNL     1      60.980  31.165  61.719  1.00  0.00     0.053 C 
BRANCH   4   5
ATOM      5  C   UNL     1      62.117  30.191  61.746  1.00  0.00     0.041 C 
ATOM      6  O   UNL     1      61.891  28.953  61.804  1.00  0.00    -0.550 OA
ATOM      7  O   UNL     1      63.426  30.648  61.675  1.00  0.00    -0.550 OA
ENDBRANCH   4   5
ENDBRANCH   3   4
ENDBRANCH   2   3
ENDBRANCH   1   2
BRANCH   1   8
ATOM      8  C   UNL     1      61.337  35.183  60.595  1.00  0.00     0.000 C 
BRANCH   8   9
ATOM      9  C   UNL     1      62.510  36.074  61.033  1.00  0.00     0.006 C 
BRANCH   9  10
ATOM     10  C   UNL     1      63.766  35.258  61.368  1.00  0.00     0.053 C 
BRANCH  10  11
ATOM     11  C   UNL     1      64.978  35.795  60.672  1.00  0.00     0.041 C 
ATOM     12  O   UNL     1      65.022  35.836  59.414  1.00  0.00    -0.550 OA
ATOM     13  O   UNL     1      66.047  36.283  61.414  1.00  0.00    -0.550 OA
ENDBRANCH  10  11
ENDBRANCH   9  10
ENDBRANCH   8   9
ENDBRANCH   1   8
TORSDOF 8
ENDMDL
MODEL 2
REMARK VINA RESULT:    -3.481      1.226      5.816
REMARK INTER + INTRA:          -5.542
REMARK INTER:                  -5.142
REMARK INTRA:                  -0.400
REMARK UNBOUND:                -0.433
REMARK SMILES O=C([O-])CCCCCCCC(=O)[O-]
REMARK SMILES IDX 7 1 6 2 5 3 4 4 2 5 1 6 3 7 8 8 9 9 10 10 11 11 12 12 13 13
REMARK H PARENT
REMARK Flexibility Score: inf
ROOT
ATOM      1  C   UNL     1      61.962  32.822  60.673  1.00  0.00     0.000 C 
ENDROOT
BRANCH   1   2
ATOM      2  C   UNL     1      61.516  34.274  60.428  1.00  0.00     0.000 C 
BRANCH   2   3
ATOM      3  C   UNL     1      62.491  35.353  60.944  1.00  0.00     0.006 C 
BRANCH   3   4
ATOM      4  C   UNL     1      63.901  34.835  61.268  1.00  0.00     0.053 C 
BRANCH   4   5
ATOM      5  C   UNL     1      64.881  35.953  61.448  1.00  0.00     0.041 C 
ATOM      6  O   UNL     1      65.759  36.173  60.572  1.00  0.00    -0.550 OA
ATOM      7  O   UNL     1      64.803  36.772  62.566  1.00  0.00    -0.550 OA
ENDBRANCH   4   5
ENDBRANCH   3   4
ENDBRANCH   2   3
ENDBRANCH   1   2
BRANCH   1   8
ATOM      8  C   UNL     1      60.799  31.894  61.051  1.00  0.00     0.000 C 
BRANCH   8   9
ATOM      9  C   UNL     1      61.287  30.732  61.930  1.00  0.00     0.006 C 
BRANCH   9  10
ATOM     10  C   UNL     1      62.745  30.355  61.638  1.00  0.00     0.053 C 
BRANCH  10  11
ATOM     11  C   UNL     1      62.840  29.140  60.767  1.00  0.00     0.041 C 
ATOM     12  O   UNL     1      62.803  29.253  59.514  1.00  0.00    -0.550 OA
ATOM     13  O   UNL     1      63.005  27.885  61.340  1.00  0.00    -0.550 OA
ENDBRANCH  10  11
ENDBRANCH   9  10
ENDBRANCH   8   9
ENDBRANCH   1   8
TORSDOF 8
ENDMDL
MODEL 3
REMARK VINA RESULT:    -3.471     12.781     14.662
REMARK INTER + INTRA:          -5.527
REMARK INTER:                  -5.092
REMARK INTRA:                  -0.435
REMARK UNBOUND:                -0.433
REMARK SMILES O=C([O-])CCCCCCCC(=O)[O-]
REMARK SMILES IDX 7 1 6 2 5 3 4 4 2 5 1 6 3 7 8 8 9 9 10 10 11 11 12 12 13 13
REMARK H PARENT
REMARK Flexibility Score: inf
ROOT
ATOM      1  C   UNL     1      57.002  28.495  50.639  1.00  0.00     0.000 C 
ENDROOT
BRANCH   1   2
ATOM      2  C   UNL     1      58.081  29.379  49.989  1.00  0.00     0.000 C 
BRANCH   2   3
ATOM      3  C   UNL     1      59.194  28.611  49.247  1.00  0.00     0.006 C 
BRANCH   3   4
ATOM      4  C   UNL     1      59.161  27.088  49.448  1.00  0.00     0.053 C 
BRANCH   4   5
ATOM      5  C   UNL     1      60.436  26.574  50.042  1.00  0.00     0.041 C 
ATOM      6  O   UNL     1      60.410  25.643  50.890  1.00  0.00    -0.550 OA
ATOM      7  O   UNL     1      61.654  27.100  49.635  1.00  0.00    -0.550 OA
ENDBRANCH   4   5
ENDBRANCH   3   4
ENDBRANCH   2   3
ENDBRANCH   1   2
BRANCH   1   8
ATOM      8  C   UNL     1      55.621  29.167  50.680  1.00  0.00     0.000 C 
BRANCH   8   9
ATOM      9  C   UNL     1      54.535  28.222  50.145  1.00  0.00     0.006 C 
BRANCH   9  10
ATOM     10  C   UNL     1      55.038  26.779  50.004  1.00  0.00     0.053 C 
BRANCH  10  11
ATOM     11  C   UNL     1      53.914  25.822  49.753  1.00  0.00     0.041 C 
ATOM     12  O   UNL     1      53.418  25.713  48.601  1.00  0.00    -0.550 OA
ATOM     13  O   UNL     1      53.437  25.024  50.785  1.00  0.00    -0.550 OA
ENDBRANCH  10  11
ENDBRANCH   9  10
ENDBRANCH   8   9
ENDBRANCH   1   8
TORSDOF 8
ENDMDL
MODEL 4
REMARK VINA RESULT:    -3.462     12.797     14.122
REMARK INTER + INTRA:          -5.515
REMARK INTER:                  -5.079
REMARK INTRA:                  -0.436
REMARK UNBOUND:                -0.433
REMARK SMILES O=C([O-])CCCCCCCC(=O)[O-]
REMARK SMILES IDX 7 1 6 2 5 3 4 4 2 5 1 6 3 7 8 8 9 9 10 10 11 11 12 12 13 13
REMARK H PARENT
REMARK Flexibility Score: inf
ROOT
ATOM      1  C   UNL     1      57.234  28.516  50.534  1.00  0.00     0.000 C 
ENDROOT
BRANCH   1   2
ATOM      2  C   UNL     1      55.822  29.119  50.636  1.00  0.00     0.000 C 
BRANCH   2   3
ATOM      3  C   UNL     1      54.676  28.172  50.223  1.00  0.00     0.006 C 
BRANCH   3   4
ATOM      4  C   UNL     1      55.118  26.732  49.919  1.00  0.00     0.053 C 
BRANCH   4   5
ATOM      5  C   UNL     1      53.949  25.811  49.752  1.00  0.00     0.041 C 
ATOM      6  O   UNL     1      53.554  25.106  50.718  1.00  0.00    -0.550 OA
ATOM      7  O   UNL     1      53.275  25.756  48.539  1.00  0.00    -0.550 OA
ENDBRANCH   4   5
ENDBRANCH   3   4
ENDBRANCH   2   3
ENDBRANCH   1   2
BRANCH   1   8
ATOM      8  C   UNL     1      58.215  29.415  49.767  1.00  0.00     0.000 C 
BRANCH   8   9
ATOM      9  C   UNL     1      59.384  28.594  49.201  1.00  0.00     0.006 C 
BRANCH   9  10
ATOM     10  C   UNL     1      59.230  27.094  49.483  1.00  0.00     0.053 C 
BRANCH  10  11
ATOM     11  C   UNL     1      60.439  26.532  50.167  1.00  0.00     0.041 C 
ATOM     12  O   UNL     1      61.593  26.848  49.776  1.00  0.00    -0.550 OA
ATOM     13  O   UNL     1      60.290  25.687  51.260  1.00  0.00    -0.550 OA
ENDBRANCH  10  11
ENDBRANCH   9  10
ENDBRANCH   8   9
ENDBRANCH   1   8
TORSDOF 8
ENDMDL
MODEL 5
REMARK VINA RESULT:    -3.363      1.271      1.950
REMARK INTER + INTRA:          -5.369
REMARK INTER:                  -4.974
REMARK INTRA:                  -0.395
REMARK UNBOUND:                -0.433
REMARK SMILES O=C([O-])CCCCCCCC(=O)[O-]
REMARK SMILES IDX 7 1 6 2 5 3 4 4 2 5 1 6 3 7 8 8 9 9 10 10 11 11 12 12 13 13
REMARK H PARENT
REMARK Flexibility Score: inf
ROOT
ATOM      1  C   UNL     1      61.303  32.367  60.194  1.00  0.00     0.000 C 
ENDROOT
BRANCH   1   2
ATOM      2  C   UNL     1      60.822  31.567  61.418  1.00  0.00     0.000 C 
BRANCH   2   3
ATOM      3  C   UNL     1      61.715  30.372  61.808  1.00  0.00     0.006 C 
BRANCH   3   4
ATOM      4  C   UNL     1      63.212  30.576  61.529  1.00  0.00     0.053 C 
BRANCH   4   5
ATOM      5  C   UNL     1      63.874  29.313  61.072  1.00  0.00     0.041 C 
ATOM      6  O   UNL     1      65.067  29.333  60.669  1.00  0.00    -0.550 OA
ATOM      7  O   UNL     1      63.185  28.109  61.123  1.00  0.00    -0.550 OA
ENDBRANCH   4   5
ENDBRANCH   3   4
ENDBRANCH   2   3
ENDBRANCH   1   2
BRANCH   1   8
ATOM      8  C   UNL     1      61.421  33.873  60.472  1.00  0.00     0.000 C 
BRANCH   8   9
ATOM      9  C   UNL     1      62.860  34.248  60.859  1.00  0.00     0.006 C 
BRANCH   9  10
ATOM     10  C   UNL     1      63.052  35.766  60.981  1.00  0.00     0.053 C 
BRANCH  10  11
ATOM     11  C   UNL     1      64.492  36.128  61.184  1.00  0.00     0.041 C 
ATOM     12  O   UNL     1      65.301  36.077  60.221  1.00  0.00    -0.550 OA
ATOM     13  O   UNL     1      64.932  36.555  62.431  1.00  0.00    -0.550 OA
ENDBRANCH  10  11
ENDBRANCH   9  10
ENDBRANCH   8   9
ENDBRANCH   1   8
TORSDOF 8
ENDMDL
MODEL 6
REMARK VINA RESULT:    -3.354     12.077     13.788
REMARK INTER + INTRA:          -5.355
REMARK INTER:                  -4.792
REMARK INTRA:                  -0.563
REMARK UNBOUND:                -0.433
REMARK SMILES O=C([O-])CCCCCCCC(=O)[O-]
REMARK SMILES IDX 7 1 6 2 5 3 4 4 2 5 1 6 3 7 8 8 9 9 10 10 11 11 12 12 13 13
REMARK H PARENT
REMARK Flexibility Score: inf
ROOT
ATOM      1  C   UNL     1      58.373  29.483  51.069  1.00  0.00     0.000 C 
ENDROOT
BRANCH   1   2
ATOM      2  C   UNL     1      56.959  29.116  51.554  1.00  0.00     0.000 C 
BRANCH   2   3
ATOM      3  C   UNL     1      55.957  28.759  50.436  1.00  0.00     0.006 C 
BRANCH   3   4
ATOM      4  C   UNL     1      55.723  27.252  50.248  1.00  0.00     0.053 C 
BRANCH   4   5
ATOM      5  C   UNL     1      54.365  26.963  49.686  1.00  0.00     0.041 C 
ATOM      6  O   UNL     1      53.492  27.869  49.639  1.00  0.00    -0.550 OA
ATOM      7  O   UNL     1      54.075  25.701  49.184  1.00  0.00    -0.550 OA
ENDBRANCH   4   5
ENDBRANCH   3   4
ENDBRANCH   2   3
ENDBRANCH   1   2
BRANCH   1   8
ATOM      8  C   UNL     1      58.485  29.538  49.538  1.00  0.00     0.000 C 
BRANCH   8   9
ATOM      9  C   UNL     1      59.613  28.622  49.037  1.00  0.00     0.006 C 
BRANCH   9  10
ATOM     10  C   UNL     1      59.383  27.155  49.422  1.00  0.00     0.053 C 
BRANCH  10  11
ATOM     11  C   UNL     1      60.595  26.555  50.067  1.00  0.00     0.041 C 
ATOM     12  O   UNL     1      61.745  26.967  49.762  1.00  0.00    -0.550 OA
ATOM     13  O   UNL     1      60.452  25.563  51.029  1.00  0.00    -0.550 OA
ENDBRANCH  10  11
ENDBRANCH   9  10
ENDBRANCH   8   9
ENDBRANCH   1   8
TORSDOF 8
ENDMDL
MODEL 7
REMARK VINA RESULT:    -3.274      2.010      5.217
REMARK INTER + INTRA:          -5.238
REMARK INTER:                  -4.702
REMARK INTRA:                  -0.536
REMARK UNBOUND:                -0.433
REMARK SMILES O=C([O-])CCCCCCCC(=O)[O-]
REMARK SMILES IDX 7 1 6 2 5 3 4 4 2 5 1 6 3 7 8 8 9 9 10 10 11 11 12 12 13 13
REMARK H PARENT
REMARK Flexibility Score: inf
ROOT
ATOM      1  C   UNL     1      60.544  31.454  60.190  1.00  0.00     0.000 C 
ENDROOT
BRANCH   1   2
ATOM      2  C   UNL     1      61.093  32.649  60.990  1.00  0.00     0.000 C 
BRANCH   2   3
ATOM      3  C   UNL     1      61.575  33.840  60.137  1.00  0.00     0.006 C 
BRANCH   3   4
ATOM      4  C   UNL     1      62.663  34.700  60.800  1.00  0.00     0.053 C 
BRANCH   4   5
ATOM      5  C   UNL     1      62.183  36.090  61.082  1.00  0.00     0.041 C 
ATOM      6  O   UNL     1      60.977  36.397  60.884  1.00  0.00    -0.550 OA
ATOM      7  O   UNL     1      63.059  37.037  61.595  1.00  0.00    -0.550 OA
ENDBRANCH   4   5
ENDBRANCH   3   4
ENDBRANCH   2   3
ENDBRANCH   1   2
BRANCH   1   8
ATOM      8  C   UNL     1      60.929  30.098  60.799  1.00  0.00     0.000 C 
BRANCH   8   9
ATOM      9  C   UNL     1      62.133  30.242  61.742  1.00  0.00     0.006 C 
BRANCH   9  10
ATOM     10  C   UNL     1      63.347  29.437  61.261  1.00  0.00     0.053 C 
BRANCH  10  11
ATOM     11  C   UNL     1      64.498  30.328  60.906  1.00  0.00     0.041 C 
ATOM     12  O   UNL     1      64.365  31.579  60.938  1.00  0.00    -0.550 OA
ATOM     13  O   UNL     1      65.728  29.775  60.573  1.00  0.00    -0.550 OA
ENDBRANCH  10  11
ENDBRANCH   9  10
ENDBRANCH   8   9
ENDBRANCH   1   8
TORSDOF 8
ENDMDL
MODEL 8
REMARK VINA RESULT:    -3.267     12.437     14.000
REMARK INTER + INTRA:          -5.228
REMARK INTER:                  -4.684
REMARK INTRA:                  -0.544
REMARK UNBOUND:                -0.433
REMARK SMILES O=C([O-])CCCCCCCC(=O)[O-]
REMARK SMILES IDX 7 1 6 2 5 3 4 4 2 5 1 6 3 7 8 8 9 9 10 10 11 11 12 12 13 13
REMARK H PARENT
REMARK Flexibility Score: inf
ROOT
ATOM      1  C   UNL     1      58.791  29.512  49.400  1.00  0.00     0.000 C 
ENDROOT
BRANCH   1   2
ATOM      2  C   UNL     1      59.560  28.223  49.060  1.00  0.00     0.000 C 
BRANCH   2   3
ATOM      3  C   UNL     1      60.948  28.097  49.720  1.00  0.00     0.006 C 
BRANCH   3   4
ATOM      4  C   UNL     1      61.352  26.660  50.086  1.00  0.00     0.053 C 
BRANCH   4   5
ATOM      5  C   UNL     1      60.277  25.956  50.857  1.00  0.00     0.041 C 
ATOM      6  O   UNL     1      59.972  26.342  52.016  1.00  0.00    -0.550 OA
ATOM      7  O   UNL     1      59.591  24.895  50.282  1.00  0.00    -0.550 OA
ENDBRANCH   4   5
ENDBRANCH   3   4
ENDBRANCH   2   3
ENDBRANCH   1   2
BRANCH   1   8
ATOM      8  C   UNL     1      57.576  29.262  50.306  1.00  0.00     0.000 C 
BRANCH   8   9
ATOM      9  C   UNL     1      57.121  27.797  50.223  1.00  0.00     0.006 C 
BRANCH   9  10
ATOM     10  C   UNL     1      55.775  27.565  50.922  1.00  0.00     0.053 C 
BRANCH  10  11
ATOM     11  C   UNL     1      54.677  27.305  49.937  1.00  0.00     0.041 C 
ATOM     12  O   UNL     1      53.826  28.199  49.686  1.00  0.00    -0.550 OA
ATOM     13  O   UNL     1      54.614  26.088  49.271  1.00  0.00    -0.550 OA
ENDBRANCH  10  11
ENDBRANCH   9  10
ENDBRANCH   8   9
ENDBRANCH   1   8
TORSDOF 8
ENDMDL
MODEL 9
REMARK VINA RESULT:    -3.184      2.441      5.817
REMARK INTER + INTRA:          -5.106
REMARK INTER:                  -4.512
REMARK INTRA:                  -0.595
REMARK UNBOUND:                -0.433
REMARK SMILES O=C([O-])CCCCCCCC(=O)[O-]
REMARK SMILES IDX 7 1 6 2 5 3 4 4 2 5 1 6 3 7 8 8 9 9 10 10 11 11 12 12 13 13
REMARK H PARENT
REMARK Flexibility Score: inf
ROOT
ATOM      1  C   UNL     1      64.321  31.635  59.744  1.00  0.00     0.000 C 
ENDROOT
BRANCH   1   2
ATOM      2  C   UNL     1      64.126  32.552  60.964  1.00  0.00     0.000 C 
BRANCH   2   3
ATOM      3  C   UNL     1      63.630  33.976  60.639  1.00  0.00     0.006 C 
BRANCH   3   4
ATOM      4  C   UNL     1      62.102  34.140  60.670  1.00  0.00     0.053 C 
BRANCH   4   5
ATOM      5  C   UNL     1      61.696  35.578  60.777  1.00  0.00     0.041 C 
ATOM      6  O   UNL     1      62.423  36.398  61.399  1.00  0.00    -0.550 OA
ATOM      7  O   UNL     1      60.532  36.019  60.162  1.00  0.00    -0.550 OA
ENDBRANCH   4   5
ENDBRANCH   3   4
ENDBRANCH   2   3
ENDBRANCH   1   2
BRANCH   1   8
ATOM      8  C   UNL     1      63.797  30.210  59.975  1.00  0.00     0.000 C 
BRANCH   8   9
ATOM      9  C   UNL     1      63.395  30.006  61.444  1.00  0.00     0.006 C 
BRANCH   9  10
ATOM     10  C   UNL     1      61.964  29.472  61.586  1.00  0.00     0.053 C 
BRANCH  10  11
ATOM     11  C   UNL     1      60.946  30.532  61.293  1.00  0.00     0.041 C 
ATOM     12  O   UNL     1      60.539  31.292  62.211  1.00  0.00    -0.550 OA
ATOM     13  O   UNL     1      60.473  30.702  59.999  1.00  0.00    -0.550 OA
ENDBRANCH  10  11
ENDBRANCH   9  10
ENDBRANCH   8   9
ENDBRANCH   1   8
TORSDOF 8
ENDMDL
