MODEL 1
REMARK VINA RESULT:    -2.368      0.000      0.000
REMARK INTER + INTRA:          -5.995
REMARK INTER:                  -4.099
REMARK INTRA:                  -1.896
REMARK UNBOUND:                -1.896
REMARK SMILES CCCCCCCCCCCCCCO
REMARK SMILES IDX 8 1 7 2 6 3 5 4 4 5 3 6 2 7 1 8 9 9 10 10 11 11 12 12 13 13
REMARK SMILES IDX 14 14 15 15
REMARK H PARENT 15 16
REMARK Flexibility Score: inf
ROOT
ATOM      1  C   UNL     1     110.704 115.447 105.113  1.00  0.00     0.000 C 
ENDROOT
BRANCH   1   2
ATOM      2  C   UNL     1     111.657 115.413 106.326  1.00  0.00    -0.000 C 
BRANCH   2   3
ATOM      3  C   UNL     1     111.694 116.706 107.159  1.00  0.00    -0.000 C 
BRANCH   3   4
ATOM      4  C   UNL     1     110.323 117.398 107.245  1.00  0.00    -0.000 C 
BRANCH   4   5
ATOM      5  C   UNL     1     109.534 116.988 108.498  1.00  0.00    -0.000 C 
BRANCH   5   6
ATOM      6  C   UNL     1     108.027 117.271 108.365  1.00  0.00    -0.000 C 
BRANCH   6   7
ATOM      7  C   UNL     1     107.634 117.710 106.946  1.00  0.00    -0.003 C 
ATOM      8  C   UNL     1     106.908 116.611 106.169  1.00  0.00     0.004 C 
ENDBRANCH   6   7
ENDBRANCH   5   6
ENDBRANCH   4   5
ENDBRANCH   3   4
ENDBRANCH   2   3
ENDBRANCH   1   2
BRANCH   1   9
ATOM      9  C   UNL     1     109.591 114.384 105.126  1.00  0.00     0.000 C 
BRANCH   9  10
ATOM     10  C   UNL     1     109.770 113.347 106.244  1.00  0.00     0.000 C 
BRANCH  10  11
ATOM     11  C   UNL     1     108.798 113.617 107.403  1.00  0.00     0.000 C 
BRANCH  11  12
ATOM     12  C   UNL     1     109.151 112.833 108.679  1.00  0.00     0.002 C 
BRANCH  12  13
ATOM     13  C   UNL     1     110.085 113.566 109.660  1.00  0.00     0.028 C 
BRANCH  13  14
ATOM     14  C   UNL     1     111.566 113.191 109.501  1.00  0.00     0.156 C 
BRANCH  14  15
ATOM     15  O   UNL     1     112.333 113.700 110.559  1.00  0.00    -0.396 OA
ATOM     16  H   UNL     1     111.697 114.104 111.203  1.00  0.00     0.210 HD
ENDBRANCH  14  15
ENDBRANCH  13  14
ENDBRANCH  12  13
ENDBRANCH  11  12
ENDBRANCH  10  11
ENDBRANCH   9  10
ENDBRANCH   1   9
TORSDOF 13
ENDMDL
MODEL 2
REMARK VINA RESULT:    -2.365     11.807     13.998
REMARK INTER + INTRA:          -5.989
REMARK INTER:                  -4.191
REMARK INTRA:                  -1.798
REMARK UNBOUND:                -1.896
REMARK SMILES CCCCCCCCCCCCCCO
REMARK SMILES IDX 8 1 7 2 6 3 5 4 4 5 3 6 2 7 1 8 9 9 10 10 11 11 12 12 13 13
REMARK SMILES IDX 14 14 15 15
REMARK H PARENT 15 16
REMARK Flexibility Score: inf
ROOT
ATOM      1  C   UNL     1     122.901 114.695 105.652  1.00  0.00     0.000 C 
ENDROOT
BRANCH   1   2
ATOM      2  C   UNL     1     123.975 113.608 105.860  1.00  0.00    -0.000 C 
BRANCH   2   3
ATOM      3  C   UNL     1     125.370 114.138 106.237  1.00  0.00    -0.000 C 
BRANCH   3   4
ATOM      4  C   UNL     1     125.501 114.455 107.736  1.00  0.00    -0.000 C 
BRANCH   4   5
ATOM      5  C   UNL     1     125.893 115.918 107.996  1.00  0.00    -0.000 C 
BRANCH   5   6
ATOM      6  C   UNL     1     125.812 116.784 106.727  1.00  0.00    -0.000 C 
BRANCH   6   7
ATOM      7  C   UNL     1     124.811 117.943 106.868  1.00  0.00    -0.003 C 
ATOM      8  C   UNL     1     125.021 118.750 108.149  1.00  0.00     0.004 C 
ENDBRANCH   6   7
ENDBRANCH   5   6
ENDBRANCH   4   5
ENDBRANCH   3   4
ENDBRANCH   2   3
ENDBRANCH   1   2
BRANCH   1   9
ATOM      9  C   UNL     1     121.605 114.496 106.459  1.00  0.00     0.000 C 
BRANCH   9  10
ATOM     10  C   UNL     1     121.234 115.724 107.303  1.00  0.00     0.000 C 
BRANCH  10  11
ATOM     11  C   UNL     1     122.158 115.851 108.523  1.00  0.00     0.000 C 
BRANCH  11  12
ATOM     12  C   UNL     1     121.932 117.150 109.316  1.00  0.00     0.002 C 
BRANCH  12  13
ATOM     13  C   UNL     1     121.158 118.250 108.563  1.00  0.00     0.028 C 
BRANCH  13  14
ATOM     14  C   UNL     1     120.154 119.010 109.441  1.00  0.00     0.156 C 
BRANCH  14  15
ATOM     15  O   UNL     1     119.763 118.240 110.546  1.00  0.00    -0.396 OA
ATOM     16  H   UNL     1     120.247 117.376 110.477  1.00  0.00     0.210 HD
ENDBRANCH  14  15
ENDBRANCH  13  14
ENDBRANCH  12  13
ENDBRANCH  11  12
ENDBRANCH  10  11
ENDBRANCH   9  10
ENDBRANCH   1   9
TORSDOF 13
ENDMDL
MODEL 3
REMARK VINA RESULT:    -2.313      7.812      9.711
REMARK INTER + INTRA:          -5.898
REMARK INTER:                  -4.451
REMARK INTRA:                  -1.447
REMARK UNBOUND:                -1.896
REMARK SMILES CCCCCCCCCCCCCCO
REMARK SMILES IDX 8 1 7 2 6 3 5 4 4 5 3 6 2 7 1 8 9 9 10 10 11 11 12 12 13 13
REMARK SMILES IDX 14 14 15 15
REMARK H PARENT 15 16
REMARK Flexibility Score: inf
ROOT
ATOM      1  C   UNL     1     117.463 124.303 106.952  1.00  0.00     0.000 C 
ENDROOT
BRANCH   1   2
ATOM      2  C   UNL     1     116.786 125.669 106.717  1.00  0.00    -0.000 C 
BRANCH   2   3
ATOM      3  C   UNL     1     115.676 126.025 107.721  1.00  0.00    -0.000 C 
BRANCH   3   4
ATOM      4  C   UNL     1     114.302 125.465 107.314  1.00  0.00    -0.000 C 
BRANCH   4   5
ATOM      5  C   UNL     1     113.265 125.571 108.442  1.00  0.00    -0.000 C 
BRANCH   5   6
ATOM      6  C   UNL     1     112.128 124.545 108.296  1.00  0.00    -0.000 C 
BRANCH   6   7
ATOM      7  C   UNL     1     111.714 123.929 109.642  1.00  0.00    -0.003 C 
ATOM      8  C   UNL     1     110.238 124.160 109.967  1.00  0.00     0.004 C 
ENDBRANCH   6   7
ENDBRANCH   5   6
ENDBRANCH   4   5
ENDBRANCH   3   4
ENDBRANCH   2   3
ENDBRANCH   1   2
BRANCH   1   9
ATOM      9  C   UNL     1     117.366 123.765 108.391  1.00  0.00     0.000 C 
BRANCH   9  10
ATOM     10  C   UNL     1     116.836 122.326 108.455  1.00  0.00     0.000 C 
BRANCH  10  11
ATOM     11  C   UNL     1     115.357 122.304 108.867  1.00  0.00     0.000 C 
BRANCH  11  12
ATOM     12  C   UNL     1     114.449 121.644 107.815  1.00  0.00     0.002 C 
BRANCH  12  13
ATOM     13  C   UNL     1     113.288 120.806 108.385  1.00  0.00     0.028 C 
BRANCH  13  14
ATOM     14  C   UNL     1     113.744 119.535 109.116  1.00  0.00     0.156 C 
BRANCH  14  15
ATOM     15  O   UNL     1     113.709 119.711 110.506  1.00  0.00    -0.396 OA
ATOM     16  H   UNL     1     112.770 119.926 110.743  1.00  0.00     0.210 HD
ENDBRANCH  14  15
ENDBRANCH  13  14
ENDBRANCH  12  13
ENDBRANCH  11  12
ENDBRANCH  10  11
ENDBRANCH   9  10
ENDBRANCH   1   9
TORSDOF 13
ENDMDL
MODEL 4
REMARK VINA RESULT:    -2.270      6.975      9.095
REMARK INTER + INTRA:          -5.825
REMARK INTER:                  -3.960
REMARK INTRA:                  -1.865
REMARK UNBOUND:                -1.896
REMARK SMILES CCCCCCCCCCCCCCO
REMARK SMILES IDX 8 1 7 2 6 3 5 4 4 5 3 6 2 7 1 8 9 9 10 10 11 11 12 12 13 13
REMARK SMILES IDX 14 14 15 15
REMARK H PARENT 15 16
REMARK Flexibility Score: inf
ROOT
ATOM      1  C   UNL     1     115.060 121.833 104.871  1.00  0.00     0.000 C 
ENDROOT
BRANCH   1   2
ATOM      2  C   UNL     1     115.962 120.776 105.540  1.00  0.00    -0.000 C 
BRANCH   2   3
ATOM      3  C   UNL     1     115.938 120.783 107.079  1.00  0.00    -0.000 C 
BRANCH   3   4
ATOM      4  C   UNL     1     117.200 121.414 107.691  1.00  0.00    -0.000 C 
BRANCH   4   5
ATOM      5  C   UNL     1     116.873 122.526 108.699  1.00  0.00    -0.000 C 
BRANCH   5   6
ATOM      6  C   UNL     1     117.249 123.924 108.178  1.00  0.00    -0.000 C 
BRANCH   6   7
ATOM      7  C   UNL     1     116.059 124.651 107.532  1.00  0.00    -0.003 C 
ATOM      8  C   UNL     1     116.332 125.055 106.083  1.00  0.00     0.004 C 
ENDBRANCH   6   7
ENDBRANCH   5   6
ENDBRANCH   4   5
ENDBRANCH   3   4
ENDBRANCH   2   3
ENDBRANCH   1   2
BRANCH   1   9
ATOM      9  C   UNL     1     113.553 121.672 105.142  1.00  0.00     0.000 C 
BRANCH   9  10
ATOM     10  C   UNL     1     113.002 122.736 106.101  1.00  0.00     0.000 C 
BRANCH  10  11
ATOM     11  C   UNL     1     112.536 122.098 107.418  1.00  0.00     0.000 C 
BRANCH  11  12
ATOM     12  C   UNL     1     113.077 122.824 108.663  1.00  0.00     0.002 C 
BRANCH  12  13
ATOM     13  C   UNL     1     113.163 121.963 109.937  1.00  0.00     0.028 C 
BRANCH  13  14
ATOM     14  C   UNL     1     112.935 120.465 109.686  1.00  0.00     0.156 C 
BRANCH  14  15
ATOM     15  O   UNL     1     113.804 119.684 110.462  1.00  0.00    -0.396 OA
ATOM     16  H   UNL     1     113.385 118.789 110.547  1.00  0.00     0.210 HD
ENDBRANCH  14  15
ENDBRANCH  13  14
ENDBRANCH  12  13
ENDBRANCH  11  12
ENDBRANCH  10  11
ENDBRANCH   9  10
ENDBRANCH   1   9
TORSDOF 13
ENDMDL
MODEL 5
REMARK VINA RESULT:    -2.246      8.243     10.753
REMARK INTER + INTRA:          -5.782
REMARK INTER:                  -3.859
REMARK INTRA:                  -1.924
REMARK UNBOUND:                -1.896
REMARK SMILES CCCCCCCCCCCCCCO
REMARK SMILES IDX 8 1 7 2 6 3 5 4 4 5 3 6 2 7 1 8 9 9 10 10 11 11 12 12 13 13
REMARK SMILES IDX 14 14 15 15
REMARK H PARENT 15 16
REMARK Flexibility Score: inf
ROOT
ATOM      1  C   UNL     1     116.124 107.129 107.594  1.00  0.00     0.000 C 
ENDROOT
BRANCH   1   2
ATOM      2  C   UNL     1     115.951 106.524 106.186  1.00  0.00    -0.000 C 
BRANCH   2   3
ATOM      3  C   UNL     1     117.103 106.813 105.208  1.00  0.00    -0.000 C 
BRANCH   3   4
ATOM      4  C   UNL     1     117.083 108.256 104.675  1.00  0.00    -0.000 C 
BRANCH   4   5
ATOM      5  C   UNL     1     118.394 109.006 104.957  1.00  0.00    -0.000 C 
BRANCH   5   6
ATOM      6  C   UNL     1     119.433 108.127 105.676  1.00  0.00    -0.000 C 
BRANCH   6   7
ATOM      7  C   UNL     1     119.843 108.698 107.042  1.00  0.00    -0.003 C 
ATOM      8  C   UNL     1     119.733 107.670 108.167  1.00  0.00     0.004 C 
ENDBRANCH   6   7
ENDBRANCH   5   6
ENDBRANCH   4   5
ENDBRANCH   3   4
ENDBRANCH   2   3
ENDBRANCH   1   2
BRANCH   1   9
ATOM      9  C   UNL     1     114.849 107.735 108.207  1.00  0.00     0.000 C 
BRANCH   9  10
ATOM     10  C   UNL     1     115.022 109.206 108.610  1.00  0.00     0.000 C 
BRANCH  10  11
ATOM     11  C   UNL     1     115.654 110.018 107.470  1.00  0.00     0.000 C 
BRANCH  11  12
ATOM     12  C   UNL     1     116.813 110.914 107.940  1.00  0.00     0.002 C 
BRANCH  12  13
ATOM     13  C   UNL     1     117.528 110.441 109.220  1.00  0.00     0.028 C 
BRANCH  13  14
ATOM     14  C   UNL     1     118.681 111.356 109.658  1.00  0.00     0.156 C 
BRANCH  14  15
ATOM     15  O   UNL     1     118.253 112.286 110.616  1.00  0.00    -0.396 OA
ATOM     16  H   UNL     1     117.312 112.058 110.834  1.00  0.00     0.210 HD
ENDBRANCH  14  15
ENDBRANCH  13  14
ENDBRANCH  12  13
ENDBRANCH  11  12
ENDBRANCH  10  11
ENDBRANCH   9  10
ENDBRANCH   1   9
TORSDOF 13
ENDMDL
MODEL 6
REMARK VINA RESULT:    -2.241      1.777      2.940
REMARK INTER + INTRA:          -5.775
REMARK INTER:                  -4.214
REMARK INTRA:                  -1.560
REMARK UNBOUND:                -1.896
REMARK SMILES CCCCCCCCCCCCCCO
REMARK SMILES IDX 8 1 7 2 6 3 5 4 4 5 3 6 2 7 1 8 9 9 10 10 11 11 12 12 13 13
REMARK SMILES IDX 14 14 15 15
REMARK H PARENT 15 16
REMARK Flexibility Score: inf
ROOT
ATOM      1  C   UNL     1     111.130 116.006 106.911  1.00  0.00     0.000 C 
ENDROOT
BRANCH   1   2
ATOM      2  C   UNL     1     110.464 117.174 107.667  1.00  0.00    -0.000 C 
BRANCH   2   3
ATOM      3  C   UNL     1     109.423 116.756 108.720  1.00  0.00    -0.000 C 
BRANCH   3   4
ATOM      4  C   UNL     1     108.022 117.322 108.431  1.00  0.00    -0.000 C 
BRANCH   4   5
ATOM      5  C   UNL     1     107.766 117.518 106.928  1.00  0.00    -0.000 C 
BRANCH   5   6
ATOM      6  C   UNL     1     106.711 116.543 106.379  1.00  0.00    -0.000 C 
BRANCH   6   7
ATOM      7  C   UNL     1     106.957 115.094 106.829  1.00  0.00    -0.003 C 
ATOM      8  C   UNL     1     107.982 114.372 105.955  1.00  0.00     0.004 C 
ENDBRANCH   6   7
ENDBRANCH   5   6
ENDBRANCH   4   5
ENDBRANCH   3   4
ENDBRANCH   2   3
ENDBRANCH   1   2
BRANCH   1   9
ATOM      9  C   UNL     1     111.874 114.992 107.800  1.00  0.00     0.000 C 
BRANCH   9  10
ATOM     10  C   UNL     1     111.220 113.603 107.795  1.00  0.00     0.000 C 
BRANCH  10  11
ATOM     11  C   UNL     1     111.082 113.057 109.224  1.00  0.00     0.000 C 
BRANCH  11  12
ATOM     12  C   UNL     1     109.624 113.017 109.713  1.00  0.00     0.002 C 
BRANCH  12  13
ATOM     13  C   UNL     1     108.678 112.133 108.878  1.00  0.00     0.028 C 
BRANCH  13  14
ATOM     14  C   UNL     1     107.301 111.919 109.525  1.00  0.00     0.156 C 
BRANCH  14  15
ATOM     15  O   UNL     1     107.400 111.877 110.923  1.00  0.00    -0.396 OA
ATOM     16  H   UNL     1     107.341 112.815 111.241  1.00  0.00     0.210 HD
ENDBRANCH  14  15
ENDBRANCH  13  14
ENDBRANCH  12  13
ENDBRANCH  11  12
ENDBRANCH  10  11
ENDBRANCH   9  10
ENDBRANCH   1   9
TORSDOF 13
ENDMDL
MODEL 7
REMARK VINA RESULT:    -2.240      7.647     10.352
REMARK INTER + INTRA:          -5.772
REMARK INTER:                  -4.429
REMARK INTRA:                  -1.343
REMARK UNBOUND:                -1.896
REMARK SMILES CCCCCCCCCCCCCCO
REMARK SMILES IDX 8 1 7 2 6 3 5 4 4 5 3 6 2 7 1 8 9 9 10 10 11 11 12 12 13 13
REMARK SMILES IDX 14 14 15 15
REMARK H PARENT 15 16
REMARK Flexibility Score: inf
ROOT
ATOM      1  C   UNL     1     118.662 107.747 107.927  1.00  0.00     0.000 C 
ENDROOT
BRANCH   1   2
ATOM      2  C   UNL     1     117.900 106.408 107.853  1.00  0.00    -0.000 C 
BRANCH   2   3
ATOM      3  C   UNL     1     116.535 106.476 107.145  1.00  0.00    -0.000 C 
BRANCH   3   4
ATOM      4  C   UNL     1     115.356 106.231 108.101  1.00  0.00    -0.000 C 
BRANCH   4   5
ATOM      5  C   UNL     1     114.377 107.415 108.145  1.00  0.00    -0.000 C 
BRANCH   5   6
ATOM      6  C   UNL     1     115.014 108.684 108.738  1.00  0.00    -0.000 C 
BRANCH   6   7
ATOM      7  C   UNL     1     114.799 109.921 107.851  1.00  0.00    -0.003 C 
ATOM      8  C   UNL     1     114.599 109.563 106.379  1.00  0.00     0.004 C 
ENDBRANCH   6   7
ENDBRANCH   5   6
ENDBRANCH   4   5
ENDBRANCH   3   4
ENDBRANCH   2   3
ENDBRANCH   1   2
BRANCH   1   9
ATOM      9  C   UNL     1     119.671 107.862 109.084  1.00  0.00     0.000 C 
BRANCH   9  10
ATOM     10  C   UNL     1     119.729 109.272 109.687  1.00  0.00     0.000 C 
BRANCH  10  11
ATOM     11  C   UNL     1     118.370 109.978 109.565  1.00  0.00     0.000 C 
BRANCH  11  12
ATOM     12  C   UNL     1     118.499 111.484 109.281  1.00  0.00     0.002 C 
BRANCH  12  13
ATOM     13  C   UNL     1     117.742 111.982 108.034  1.00  0.00     0.028 C 
BRANCH  13  14
ATOM     14  C   UNL     1     117.703 113.512 107.904  1.00  0.00     0.156 C 
BRANCH  14  15
ATOM     15  O   UNL     1     117.116 114.100 109.034  1.00  0.00    -0.396 OA
ATOM     16  H   UNL     1     116.136 113.977 108.943  1.00  0.00     0.210 HD
ENDBRANCH  14  15
ENDBRANCH  13  14
ENDBRANCH  12  13
ENDBRANCH  11  12
ENDBRANCH  10  11
ENDBRANCH   9  10
ENDBRANCH   1   9
TORSDOF 13
ENDMDL
MODEL 8
REMARK VINA RESULT:    -2.218     12.931     15.166
REMARK INTER + INTRA:          -5.734
REMARK INTER:                  -4.213
REMARK INTRA:                  -1.522
REMARK UNBOUND:                -1.896
REMARK SMILES CCCCCCCCCCCCCCO
REMARK SMILES IDX 8 1 7 2 6 3 5 4 4 5 3 6 2 7 1 8 9 9 10 10 11 11 12 12 13 13
REMARK SMILES IDX 14 14 15 15
REMARK H PARENT 15 16
REMARK Flexibility Score: inf
ROOT
ATOM      1  C   UNL     1     125.913 116.762 107.744  1.00  0.00     0.000 C 
ENDROOT
BRANCH   1   2
ATOM      2  C   UNL     1     126.026 115.225 107.718  1.00  0.00    -0.000 C 
BRANCH   2   3
ATOM      3  C   UNL     1     124.770 114.473 108.193  1.00  0.00    -0.000 C 
BRANCH   3   4
ATOM      4  C   UNL     1     123.774 114.199 107.053  1.00  0.00    -0.000 C 
BRANCH   4   5
ATOM      5  C   UNL     1     122.434 114.925 107.253  1.00  0.00    -0.000 C 
BRANCH   5   6
ATOM      6  C   UNL     1     122.388 115.722 108.568  1.00  0.00    -0.000 C 
BRANCH   6   7
ATOM      7  C   UNL     1     121.698 117.086 108.405  1.00  0.00    -0.003 C 
ATOM      8  C   UNL     1     121.587 117.851 109.724  1.00  0.00     0.004 C 
ENDBRANCH   6   7
ENDBRANCH   5   6
ENDBRANCH   4   5
ENDBRANCH   3   4
ENDBRANCH   2   3
ENDBRANCH   1   2
BRANCH   1   9
ATOM      9  C   UNL     1     125.238 117.389 106.511  1.00  0.00     0.000 C 
BRANCH   9  10
ATOM     10  C   UNL     1     124.553 118.728 106.821  1.00  0.00     0.000 C 
BRANCH  10  11
ATOM     11  C   UNL     1     124.843 119.171 108.262  1.00  0.00     0.000 C 
BRANCH  11  12
ATOM     12  C   UNL     1     124.043 120.417 108.680  1.00  0.00     0.002 C 
BRANCH  12  13
ATOM     13  C   UNL     1     124.895 121.624 109.120  1.00  0.00     0.028 C 
BRANCH  13  14
ATOM     14  C   UNL     1     124.943 121.825 110.642  1.00  0.00     0.156 C 
BRANCH  14  15
ATOM     15  O   UNL     1     125.113 120.602 111.308  1.00  0.00    -0.396 OA
ATOM     16  H   UNL     1     125.703 120.781 112.086  1.00  0.00     0.210 HD
ENDBRANCH  14  15
ENDBRANCH  13  14
ENDBRANCH  12  13
ENDBRANCH  11  12
ENDBRANCH  10  11
ENDBRANCH   9  10
ENDBRANCH   1   9
TORSDOF 13
ENDMDL
MODEL 9
REMARK VINA RESULT:    -2.211     12.137     14.209
REMARK INTER + INTRA:          -5.721
REMARK INTER:                  -3.561
REMARK INTRA:                  -2.161
REMARK UNBOUND:                -1.896
REMARK SMILES CCCCCCCCCCCCCCO
REMARK SMILES IDX 8 1 7 2 6 3 5 4 4 5 3 6 2 7 1 8 9 9 10 10 11 11 12 12 13 13
REMARK SMILES IDX 14 14 15 15
REMARK H PARENT 15 16
REMARK Flexibility Score: inf
ROOT
ATOM      1  C   UNL     1     122.608 114.915 108.238  1.00  0.00     0.000 C 
ENDROOT
BRANCH   1   2
ATOM      2  C   UNL     1     124.131 114.702 108.119  1.00  0.00    -0.000 C 
BRANCH   2   3
ATOM      3  C   UNL     1     124.940 115.969 107.788  1.00  0.00    -0.000 C 
BRANCH   3   4
ATOM      4  C   UNL     1     125.101 116.194 106.275  1.00  0.00    -0.000 C 
BRANCH   4   5
ATOM      5  C   UNL     1     124.488 117.524 105.809  1.00  0.00    -0.000 C 
BRANCH   5   6
ATOM      6  C   UNL     1     123.339 117.324 104.807  1.00  0.00    -0.000 C 
BRANCH   6   7
ATOM      7  C   UNL     1     123.134 115.848 104.432  1.00  0.00    -0.003 C 
ATOM      8  C   UNL     1     121.695 115.379 104.650  1.00  0.00     0.004 C 
ENDBRANCH   6   7
ENDBRANCH   5   6
ENDBRANCH   4   5
ENDBRANCH   3   4
ENDBRANCH   2   3
ENDBRANCH   1   2
BRANCH   1   9
ATOM      9  C   UNL     1     122.182 116.263 108.847  1.00  0.00     0.000 C 
BRANCH   9  10
ATOM     10  C   UNL     1     121.239 117.059 107.934  1.00  0.00     0.000 C 
BRANCH  10  11
ATOM     11  C   UNL     1     121.620 118.547 107.915  1.00  0.00     0.000 C 
BRANCH  11  12
ATOM     12  C   UNL     1     122.697 118.905 108.954  1.00  0.00     0.002 C 
BRANCH  12  13
ATOM     13  C   UNL     1     123.581 120.114 108.589  1.00  0.00     0.028 C 
BRANCH  13  14
ATOM     14  C   UNL     1     124.011 120.952 109.802  1.00  0.00     0.156 C 
BRANCH  14  15
ATOM     15  O   UNL     1     124.697 120.168 110.741  1.00  0.00    -0.396 OA
ATOM     16  H   UNL     1     124.228 120.285 111.607  1.00  0.00     0.210 HD
ENDBRANCH  14  15
ENDBRANCH  13  14
ENDBRANCH  12  13
ENDBRANCH  11  12
ENDBRANCH  10  11
ENDBRANCH   9  10
ENDBRANCH   1   9
TORSDOF 13
ENDMDL
