MODEL 1
REMARK VINA RESULT:    -5.402      0.000      0.000
REMARK INTER + INTRA:          -6.592
REMARK INTER:                  -6.665
REMARK INTRA:                   0.073
REMARK UNBOUND:                 0.073
REMARK SMILES COc1cc(-c2oc3cc(O)cc(O)c3c(=O)c2O)ccc1O
REMARK SMILES IDX 6 1 18 2 16 3 17 4 15 5 13 6 12 7 10 8 9 9 8 10 7 11 5 12
REMARK SMILES IDX 3 13 22 14 4 15 21 16 20 17 2 18 1 19 23 20 19 22 14 24
REMARK SMILES IDX 11 26
REMARK H PARENT 23 21 19 23 14 25 11 27
REMARK Flexibility Score: inf
ROOT
ATOM      1  C   UNL     1      -1.188  49.631  23.823  1.00  0.00     0.180 A 
ATOM      2  C   UNL     1      -1.877  50.810  24.156  1.00  0.00     0.208 A 
ATOM      3  C   UNL     1      -2.875  50.760  25.143  1.00  0.00     0.238 A 
ATOM      4  O   UNL     1      -3.451  51.829  25.475  1.00  0.00    -0.285 OA
ATOM      5  C   UNL     1      -3.183  49.529  25.773  1.00  0.00     0.111 A 
ATOM      6  C   UNL     1      -4.201  49.355  26.757  1.00  0.00     0.134 A 
ATOM      7  C   UNL     1      -4.330  48.121  27.407  1.00  0.00     0.093 A 
ATOM      8  C   UNL     1      -3.520  47.037  27.061  1.00  0.00     0.123 A 
ATOM      9  C   UNL     1      -2.562  47.181  26.059  1.00  0.00     0.094 A 
ATOM     10  C   UNL     1      -2.386  48.410  25.419  1.00  0.00     0.146 A 
ATOM     11  O   UNL     1      -1.455  48.506  24.477  1.00  0.00    -0.452 OA
ENDROOT
BRANCH   1  12
ATOM     12  C   UNL     1      -0.142  49.599  22.776  1.00  0.00     0.025 A 
ATOM     13  C   UNL     1       2.106  50.211  22.036  1.00  0.00     0.161 A 
ATOM     14  C   UNL     1       1.896  49.512  20.838  1.00  0.00     0.157 A 
ATOM     15  C   UNL     1       1.085  50.244  23.005  1.00  0.00     0.062 A 
ATOM     16  C   UNL     1       0.682  48.851  20.616  1.00  0.00     0.051 A 
ATOM     17  C   UNL     1      -0.328  48.887  21.580  1.00  0.00     0.016 A 
BRANCH  13  18
ATOM     18  O   UNL     1       3.339  50.855  22.225  1.00  0.00    -0.493 OA
ATOM     19  C   UNL     1       3.847  51.888  21.387  1.00  0.00     0.278 C 
ENDBRANCH  13  18
BRANCH  14  20
ATOM     20  O   UNL     1       2.903  49.477  19.875  1.00  0.00    -0.504 OA
ATOM     21  H   UNL     1       3.867  49.287  20.123  1.00  0.00     0.293 HD
ENDBRANCH  14  20
ENDBRANCH   1  12
BRANCH   2  22
ATOM     22  O   UNL     1      -1.544  52.018  23.538  1.00  0.00    -0.502 OA
ATOM     23  H   UNL     1      -2.235  52.723  23.311  1.00  0.00     0.293 HD
ENDBRANCH   2  22
BRANCH   6  24
ATOM     24  O   UNL     1      -5.122  50.345  27.110  1.00  0.00    -0.507 OA
ATOM     25  H   UNL     1      -5.676  50.876  26.455  1.00  0.00     0.293 HD
ENDBRANCH   6  24
BRANCH   8  26
ATOM     26  O   UNL     1      -3.664  45.808  27.702  1.00  0.00    -0.508 OA
ATOM     27  H   UNL     1      -4.497  45.583  28.234  1.00  0.00     0.293 HD
ENDBRANCH   8  26
TORSDOF 6
ENDMDL
MODEL 2
REMARK VINA RESULT:    -5.347      1.328      3.106
REMARK INTER + INTRA:          -6.525
REMARK INTER:                  -6.540
REMARK INTRA:                   0.015
REMARK UNBOUND:                 0.073
REMARK SMILES COc1cc(-c2oc3cc(O)cc(O)c3c(=O)c2O)ccc1O
REMARK SMILES IDX 6 1 18 2 16 3 17 4 15 5 13 6 12 7 10 8 9 9 8 10 7 11 5 12
REMARK SMILES IDX 3 13 22 14 4 15 21 16 20 17 2 18 1 19 23 20 19 22 14 24
REMARK SMILES IDX 11 26
REMARK H PARENT 23 21 19 23 14 25 11 27
REMARK Flexibility Score: inf
ROOT
ATOM      1  C   UNL     1      -1.260  49.728  23.534  1.00  0.00     0.180 A 
ATOM      2  C   UNL     1      -1.684  48.662  24.347  1.00  0.00     0.208 A 
ATOM      3  C   UNL     1      -2.724  48.879  25.265  1.00  0.00     0.238 A 
ATOM      4  O   UNL     1      -3.136  47.908  25.952  1.00  0.00    -0.285 OA
ATOM      5  C   UNL     1      -3.315  50.162  25.372  1.00  0.00     0.111 A 
ATOM      6  C   UNL     1      -4.347  50.504  26.296  1.00  0.00     0.134 A 
ATOM      7  C   UNL     1      -4.948  51.767  26.223  1.00  0.00     0.093 A 
ATOM      8  C   UNL     1      -4.507  52.722  25.304  1.00  0.00     0.123 A 
ATOM      9  C   UNL     1      -3.459  52.417  24.438  1.00  0.00     0.094 A 
ATOM     10  C   UNL     1      -2.866  51.153  24.462  1.00  0.00     0.146 A 
ATOM     11  O   UNL     1      -1.877  50.901  23.612  1.00  0.00    -0.452 OA
ENDROOT
BRANCH   1  12
ATOM     12  C   UNL     1      -0.153  49.584  22.560  1.00  0.00     0.025 A 
ATOM     13  C   UNL     1       2.126  50.141  21.875  1.00  0.00     0.161 A 
ATOM     14  C   UNL     1       1.995  49.290  20.768  1.00  0.00     0.157 A 
ATOM     15  C   UNL     1       1.050  50.277  22.773  1.00  0.00     0.062 A 
ATOM     16  C   UNL     1       0.804  48.582  20.565  1.00  0.00     0.051 A 
ATOM     17  C   UNL     1      -0.260  48.720  21.458  1.00  0.00     0.016 A 
BRANCH  13  18
ATOM     18  O   UNL     1       3.338  50.829  22.049  1.00  0.00    -0.493 OA
ATOM     19  C   UNL     1       3.822  51.843  21.175  1.00  0.00     0.278 C 
ENDBRANCH  13  18
BRANCH  14  20
ATOM     20  O   UNL     1       3.057  49.152  19.876  1.00  0.00    -0.504 OA
ATOM     21  H   UNL     1       3.829  49.808  19.866  1.00  0.00     0.293 HD
ENDBRANCH  14  20
ENDBRANCH   1  12
BRANCH   2  22
ATOM     22  O   UNL     1      -1.103  47.400  24.211  1.00  0.00    -0.502 OA
ATOM     23  H   UNL     1      -0.725  47.065  23.332  1.00  0.00     0.293 HD
ENDBRANCH   2  22
BRANCH   6  24
ATOM     24  O   UNL     1      -4.797  49.657  27.313  1.00  0.00    -0.507 OA
ATOM     25  H   UNL     1      -5.622  49.079  27.257  1.00  0.00     0.293 HD
ENDBRANCH   6  24
BRANCH   8  26
ATOM     26  O   UNL     1      -5.100  53.982  25.249  1.00  0.00    -0.508 OA
ATOM     27  H   UNL     1      -4.993  54.651  26.002  1.00  0.00     0.293 HD
ENDBRANCH   8  26
TORSDOF 6
ENDMDL
MODEL 3
REMARK VINA RESULT:    -5.255      3.688      5.908
REMARK INTER + INTRA:          -6.411
REMARK INTER:                  -6.200
REMARK INTRA:                  -0.211
REMARK UNBOUND:                 0.073
REMARK SMILES COc1cc(-c2oc3cc(O)cc(O)c3c(=O)c2O)ccc1O
REMARK SMILES IDX 6 1 18 2 16 3 17 4 15 5 13 6 12 7 10 8 9 9 8 10 7 11 5 12
REMARK SMILES IDX 3 13 22 14 4 15 21 16 20 17 2 18 1 19 23 20 19 22 14 24
REMARK SMILES IDX 11 26
REMARK H PARENT 23 21 19 23 14 25 11 27
REMARK Flexibility Score: inf
ROOT
ATOM      1  C   UNL     1      -2.941  48.064  24.177  1.00  0.00     0.180 A 
ATOM      2  C   UNL     1      -1.689  48.129  24.812  1.00  0.00     0.208 A 
ATOM      3  C   UNL     1      -1.247  49.361  25.321  1.00  0.00     0.238 A 
ATOM      4  O   UNL     1      -0.149  49.402  25.935  1.00  0.00    -0.285 OA
ATOM      5  C   UNL     1      -2.055  50.515  25.173  1.00  0.00     0.111 A 
ATOM      6  C   UNL     1      -1.688  51.822  25.614  1.00  0.00     0.134 A 
ATOM      7  C   UNL     1      -2.621  52.864  25.534  1.00  0.00     0.093 A 
ATOM      8  C   UNL     1      -3.881  52.661  24.968  1.00  0.00     0.123 A 
ATOM      9  C   UNL     1      -4.226  51.402  24.481  1.00  0.00     0.094 A 
ATOM     10  C   UNL     1      -3.331  50.334  24.580  1.00  0.00     0.146 A 
ATOM     11  O   UNL     1      -3.703  49.149  24.112  1.00  0.00    -0.452 OA
ENDROOT
BRANCH   1  12
ATOM     12  C   UNL     1      -3.464  46.807  23.594  1.00  0.00     0.025 A 
ATOM     13  C   UNL     1      -3.238  44.993  21.970  1.00  0.00     0.161 A 
ATOM     14  C   UNL     1      -4.388  44.387  22.497  1.00  0.00     0.157 A 
ATOM     15  C   UNL     1      -2.776  46.200  22.529  1.00  0.00     0.062 A 
ATOM     16  C   UNL     1      -5.063  44.979  23.571  1.00  0.00     0.051 A 
ATOM     17  C   UNL     1      -4.602  46.176  24.122  1.00  0.00     0.016 A 
BRANCH  13  18
ATOM     18  O   UNL     1      -2.584  44.365  20.898  1.00  0.00    -0.493 OA
ATOM     19  C   UNL     1      -1.223  44.586  20.544  1.00  0.00     0.278 C 
ENDBRANCH  13  18
BRANCH  14  20
ATOM     20  O   UNL     1      -4.850  43.192  21.947  1.00  0.00    -0.504 OA
ATOM     21  H   UNL     1      -5.281  42.476  22.521  1.00  0.00     0.293 HD
ENDBRANCH  14  20
ENDBRANCH   1  12
BRANCH   2  22
ATOM     22  O   UNL     1      -0.917  46.975  24.966  1.00  0.00    -0.502 OA
ATOM     23  H   UNL     1       0.072  47.005  25.185  1.00  0.00     0.293 HD
ENDBRANCH   2  22
BRANCH   6  24
ATOM     24  O   UNL     1      -0.424  52.153  26.110  1.00  0.00    -0.507 OA
ATOM     25  H   UNL     1      -0.163  53.063  26.458  1.00  0.00     0.293 HD
ENDBRANCH   6  24
BRANCH   8  26
ATOM     26  O   UNL     1      -4.798  53.707  24.878  1.00  0.00    -0.508 OA
ATOM     27  H   UNL     1      -5.703  53.581  24.442  1.00  0.00     0.293 HD
ENDBRANCH   8  26
TORSDOF 6
ENDMDL
MODEL 4
REMARK VINA RESULT:    -4.781      1.783      7.220
REMARK INTER + INTRA:          -5.826
REMARK INTER:                  -5.459
REMARK INTRA:                  -0.367
REMARK UNBOUND:                 0.073
REMARK SMILES COc1cc(-c2oc3cc(O)cc(O)c3c(=O)c2O)ccc1O
REMARK SMILES IDX 6 1 18 2 16 3 17 4 15 5 13 6 12 7 10 8 9 9 8 10 7 11 5 12
REMARK SMILES IDX 3 13 22 14 4 15 21 16 20 17 2 18 1 19 23 20 19 22 14 24
REMARK SMILES IDX 11 26
REMARK H PARENT 23 21 19 23 14 25 11 27
REMARK Flexibility Score: inf
ROOT
ATOM      1  C   UNL     1      -2.515  49.497  24.379  1.00  0.00     0.180 A 
ATOM      2  C   UNL     1      -3.209  49.929  23.235  1.00  0.00     0.208 A 
ATOM      3  C   UNL     1      -2.477  50.361  22.118  1.00  0.00     0.238 A 
ATOM      4  O   UNL     1      -3.103  50.696  21.078  1.00  0.00    -0.285 OA
ATOM      5  C   UNL     1      -1.061  50.373  22.163  1.00  0.00     0.111 A 
ATOM      6  C   UNL     1      -0.220  50.829  21.105  1.00  0.00     0.134 A 
ATOM      7  C   UNL     1       1.167  50.672  21.209  1.00  0.00     0.093 A 
ATOM      8  C   UNL     1       1.747  50.137  22.362  1.00  0.00     0.123 A 
ATOM      9  C   UNL     1       0.937  49.744  23.425  1.00  0.00     0.094 A 
ATOM     10  C   UNL     1      -0.452  49.854  23.335  1.00  0.00     0.146 A 
ATOM     11  O   UNL     1      -1.188  49.459  24.368  1.00  0.00    -0.452 OA
ENDROOT
BRANCH   1  12
ATOM     12  C   UNL     1      -3.217  49.051  25.604  1.00  0.00     0.025 A 
ATOM     13  C   UNL     1      -3.947  47.226  27.058  1.00  0.00     0.161 A 
ATOM     14  C   UNL     1      -4.488  48.162  27.951  1.00  0.00     0.157 A 
ATOM     15  C   UNL     1      -3.305  47.678  25.888  1.00  0.00     0.062 A 
ATOM     16  C   UNL     1      -4.383  49.532  27.680  1.00  0.00     0.051 A 
ATOM     17  C   UNL     1      -3.746  49.975  26.520  1.00  0.00     0.016 A 
BRANCH  13  18
ATOM     18  O   UNL     1      -4.066  45.862  27.367  1.00  0.00    -0.493 OA
ATOM     19  C   UNL     1      -5.122  45.021  26.916  1.00  0.00     0.278 C 
ENDBRANCH  13  18
BRANCH  14  20
ATOM     20  O   UNL     1      -5.125  47.721  29.110  1.00  0.00    -0.504 OA
ATOM     21  H   UNL     1      -6.134  47.744  29.201  1.00  0.00     0.293 HD
ENDBRANCH  14  20
ENDBRANCH   1  12
BRANCH   2  22
ATOM     22  O   UNL     1      -4.605  49.889  23.203  1.00  0.00    -0.502 OA
ATOM     23  H   UNL     1      -5.165  50.670  22.880  1.00  0.00     0.293 HD
ENDBRANCH   2  22
BRANCH   6  24
ATOM     24  O   UNL     1      -0.692  51.461  19.950  1.00  0.00    -0.507 OA
ATOM     25  H   UNL     1      -1.347  51.056  19.300  1.00  0.00     0.293 HD
ENDBRANCH   6  24
BRANCH   8  26
ATOM     26  O   UNL     1       3.130  49.999  22.464  1.00  0.00    -0.508 OA
ATOM     27  H   UNL     1       3.761  50.569  21.913  1.00  0.00     0.293 HD
ENDBRANCH   8  26
TORSDOF 6
ENDMDL
MODEL 5
REMARK VINA RESULT:    -4.715      2.105      7.092
REMARK INTER + INTRA:          -5.745
REMARK INTER:                  -5.352
REMARK INTRA:                  -0.393
REMARK UNBOUND:                 0.073
REMARK SMILES COc1cc(-c2oc3cc(O)cc(O)c3c(=O)c2O)ccc1O
REMARK SMILES IDX 6 1 18 2 16 3 17 4 15 5 13 6 12 7 10 8 9 9 8 10 7 11 5 12
REMARK SMILES IDX 3 13 22 14 4 15 21 16 20 17 2 18 1 19 23 20 19 22 14 24
REMARK SMILES IDX 11 26
REMARK H PARENT 23 21 19 23 14 25 11 27
REMARK Flexibility Score: inf
ROOT
ATOM      1  C   UNL     1      -1.838  49.215  23.223  1.00  0.00     0.180 A 
ATOM      2  C   UNL     1      -2.339  50.477  22.860  1.00  0.00     0.208 A 
ATOM      3  C   UNL     1      -1.599  51.272  21.969  1.00  0.00     0.238 A 
ATOM      4  O   UNL     1      -2.079  52.377  21.606  1.00  0.00    -0.285 OA
ATOM      5  C   UNL     1      -0.361  50.803  21.466  1.00  0.00     0.111 A 
ATOM      6  C   UNL     1       0.489  51.541  20.591  1.00  0.00     0.134 A 
ATOM      7  C   UNL     1       1.627  50.927  20.052  1.00  0.00     0.093 A 
ATOM      8  C   UNL     1       1.979  49.624  20.411  1.00  0.00     0.123 A 
ATOM      9  C   UNL     1       1.187  48.916  21.312  1.00  0.00     0.094 A 
ATOM     10  C   UNL     1       0.026  49.489  21.836  1.00  0.00     0.146 A 
ATOM     11  O   UNL     1      -0.706  48.776  22.684  1.00  0.00    -0.452 OA
ENDROOT
BRANCH   1  12
ATOM     12  C   UNL     1      -2.547  48.330  24.175  1.00  0.00     0.025 A 
ATOM     13  C   UNL     1      -4.161  46.536  24.572  1.00  0.00     0.161 A 
ATOM     14  C   UNL     1      -3.873  46.589  25.943  1.00  0.00     0.157 A 
ATOM     15  C   UNL     1      -3.488  47.405  23.691  1.00  0.00     0.062 A 
ATOM     16  C   UNL     1      -2.921  47.495  26.426  1.00  0.00     0.051 A 
ATOM     17  C   UNL     1      -2.257  48.355  25.549  1.00  0.00     0.016 A 
BRANCH  13  18
ATOM     18  O   UNL     1      -5.115  45.609  24.124  1.00  0.00    -0.493 OA
ATOM     19  C   UNL     1      -5.032  44.895  22.895  1.00  0.00     0.278 C 
ENDBRANCH  13  18
BRANCH  14  20
ATOM     20  O   UNL     1      -4.536  45.732  26.820  1.00  0.00    -0.504 OA
ATOM     21  H   UNL     1      -5.329  46.045  27.368  1.00  0.00     0.293 HD
ENDBRANCH  14  20
ENDBRANCH   1  12
BRANCH   2  22
ATOM     22  O   UNL     1      -3.572  50.911  23.350  1.00  0.00    -0.502 OA
ATOM     23  H   UNL     1      -4.375  50.298  23.426  1.00  0.00     0.293 HD
ENDBRANCH   2  22
BRANCH   6  24
ATOM     24  O   UNL     1       0.278  52.879  20.241  1.00  0.00    -0.507 OA
ATOM     25  H   UNL     1       0.780  53.661  20.633  1.00  0.00     0.293 HD
ENDBRANCH   6  24
BRANCH   8  26
ATOM     26  O   UNL     1       3.121  49.025  19.883  1.00  0.00    -0.508 OA
ATOM     27  H   UNL     1       3.193  48.019  19.781  1.00  0.00     0.293 HD
ENDBRANCH   8  26
TORSDOF 6
ENDMDL
MODEL 6
REMARK VINA RESULT:    -4.522      3.621      5.617
REMARK INTER + INTRA:          -5.507
REMARK INTER:                  -5.174
REMARK INTRA:                  -0.333
REMARK UNBOUND:                 0.073
REMARK SMILES COc1cc(-c2oc3cc(O)cc(O)c3c(=O)c2O)ccc1O
REMARK SMILES IDX 6 1 18 2 16 3 17 4 15 5 13 6 12 7 10 8 9 9 8 10 7 11 5 12
REMARK SMILES IDX 3 13 22 14 4 15 21 16 20 17 2 18 1 19 23 20 19 22 14 24
REMARK SMILES IDX 11 26
REMARK H PARENT 23 21 19 23 14 25 11 27
REMARK Flexibility Score: inf
ROOT
ATOM      1  C   UNL     1      -3.234  47.925  23.677  1.00  0.00     0.180 A 
ATOM      2  C   UNL     1      -3.981  49.094  23.446  1.00  0.00     0.208 A 
ATOM      3  C   UNL     1      -3.538  50.305  24.000  1.00  0.00     0.238 A 
ATOM      4  O   UNL     1      -4.182  51.357  23.746  1.00  0.00    -0.285 OA
ATOM      5  C   UNL     1      -2.364  50.331  24.792  1.00  0.00     0.111 A 
ATOM      6  C   UNL     1      -1.847  51.495  25.436  1.00  0.00     0.134 A 
ATOM      7  C   UNL     1      -0.608  51.431  26.085  1.00  0.00     0.093 A 
ATOM      8  C   UNL     1       0.100  50.230  26.170  1.00  0.00     0.123 A 
ATOM      9  C   UNL     1      -0.427  49.075  25.596  1.00  0.00     0.094 A 
ATOM     10  C   UNL     1      -1.643  49.116  24.910  1.00  0.00     0.146 A 
ATOM     11  O   UNL     1      -2.103  47.994  24.369  1.00  0.00    -0.452 OA
ENDROOT
BRANCH   1  12
ATOM     12  C   UNL     1      -3.650  46.606  23.147  1.00  0.00     0.025 A 
ATOM     13  C   UNL     1      -3.274  44.753  21.597  1.00  0.00     0.161 A 
ATOM     14  C   UNL     1      -4.370  44.076  22.152  1.00  0.00     0.157 A 
ATOM     15  C   UNL     1      -2.914  46.017  22.106  1.00  0.00     0.062 A 
ATOM     16  C   UNL     1      -5.092  44.652  23.203  1.00  0.00     0.051 A 
ATOM     17  C   UNL     1      -4.732  45.905  23.704  1.00  0.00     0.016 A 
BRANCH  13  18
ATOM     18  O   UNL     1      -2.570  44.140  20.549  1.00  0.00    -0.493 OA
ATOM     19  C   UNL     1      -1.194  44.365  20.262  1.00  0.00     0.278 C 
ENDBRANCH  13  18
BRANCH  14  20
ATOM     20  O   UNL     1      -4.731  42.825  21.652  1.00  0.00    -0.504 OA
ATOM     21  H   UNL     1      -5.232  42.152  22.221  1.00  0.00     0.293 HD
ENDBRANCH  14  20
ENDBRANCH   1  12
BRANCH   2  22
ATOM     22  O   UNL     1      -5.124  49.050  22.645  1.00  0.00    -0.502 OA
ATOM     23  H   UNL     1      -5.546  48.179  22.343  1.00  0.00     0.293 HD
ENDBRANCH   2  22
BRANCH   6  24
ATOM     24  O   UNL     1      -2.517  52.721  25.489  1.00  0.00    -0.507 OA
ATOM     25  H   UNL     1      -3.388  52.879  25.973  1.00  0.00     0.293 HD
ENDBRANCH   6  24
BRANCH   8  26
ATOM     26  O   UNL     1       1.325  50.172  26.832  1.00  0.00    -0.508 OA
ATOM     27  H   UNL     1       1.876  49.322  26.852  1.00  0.00     0.293 HD
ENDBRANCH   8  26
TORSDOF 6
ENDMDL
MODEL 7
REMARK VINA RESULT:    -4.511      3.493      5.656
REMARK INTER + INTRA:          -5.493
REMARK INTER:                  -5.183
REMARK INTRA:                  -0.309
REMARK UNBOUND:                 0.073
REMARK SMILES COc1cc(-c2oc3cc(O)cc(O)c3c(=O)c2O)ccc1O
REMARK SMILES IDX 6 1 18 2 16 3 17 4 15 5 13 6 12 7 10 8 9 9 8 10 7 11 5 12
REMARK SMILES IDX 3 13 22 14 4 15 21 16 20 17 2 18 1 19 23 20 19 22 14 24
REMARK SMILES IDX 11 26
REMARK H PARENT 23 21 19 23 14 25 11 27
REMARK Flexibility Score: inf
ROOT
ATOM      1  C   UNL     1      -2.045  48.851  23.719  1.00  0.00     0.180 A 
ATOM      2  C   UNL     1      -0.941  49.002  24.577  1.00  0.00     0.208 A 
ATOM      3  C   UNL     1      -0.811  50.190  25.315  1.00  0.00     0.238 A 
ATOM      4  O   UNL     1       0.150  50.297  26.121  1.00  0.00    -0.285 OA
ATOM      5  C   UNL     1      -1.775  51.217  25.174  1.00  0.00     0.111 A 
ATOM      6  C   UNL     1      -1.720  52.477  25.843  1.00  0.00     0.134 A 
ATOM      7  C   UNL     1      -2.796  53.366  25.730  1.00  0.00     0.093 A 
ATOM      8  C   UNL     1      -3.894  53.068  24.920  1.00  0.00     0.123 A 
ATOM      9  C   UNL     1      -3.929  51.866  24.216  1.00  0.00     0.094 A 
ATOM     10  C   UNL     1      -2.888  50.943  24.338  1.00  0.00     0.146 A 
ATOM     11  O   UNL     1      -2.966  49.805  23.658  1.00  0.00    -0.452 OA
ENDROOT
BRANCH   1  12
ATOM     12  C   UNL     1      -2.238  47.639  22.890  1.00  0.00     0.025 A 
ATOM     13  C   UNL     1      -3.529  45.626  22.384  1.00  0.00     0.161 A 
ATOM     14  C   UNL     1      -2.677  45.359  21.303  1.00  0.00     0.157 A 
ATOM     15  C   UNL     1      -3.309  46.774  23.170  1.00  0.00     0.062 A 
ATOM     16  C   UNL     1      -1.621  46.230  21.010  1.00  0.00     0.051 A 
ATOM     17  C   UNL     1      -1.406  47.366  21.792  1.00  0.00     0.016 A 
BRANCH  13  18
ATOM     18  O   UNL     1      -4.581  44.733  22.642  1.00  0.00    -0.493 OA
ATOM     19  C   UNL     1      -5.125  44.479  23.933  1.00  0.00     0.278 C 
ENDBRANCH  13  18
BRANCH  14  20
ATOM     20  O   UNL     1      -2.890  44.223  20.523  1.00  0.00    -0.504 OA
ATOM     21  H   UNL     1      -2.183  43.881  19.882  1.00  0.00     0.293 HD
ENDBRANCH  14  20
ENDBRANCH   1  12
BRANCH   2  22
ATOM     22  O   UNL     1      -0.013  47.968  24.718  1.00  0.00    -0.502 OA
ATOM     23  H   UNL     1       0.729  47.992  25.407  1.00  0.00     0.293 HD
ENDBRANCH   2  22
BRANCH   6  24
ATOM     24  O   UNL     1      -0.629  52.911  26.601  1.00  0.00    -0.507 OA
ATOM     25  H   UNL     1      -0.142  52.348  27.282  1.00  0.00     0.293 HD
ENDBRANCH   6  24
BRANCH   8  26
ATOM     26  O   UNL     1      -4.954  53.965  24.800  1.00  0.00    -0.508 OA
ATOM     27  H   UNL     1      -4.861  54.828  24.278  1.00  0.00     0.293 HD
ENDBRANCH   8  26
TORSDOF 6
ENDMDL
MODEL 8
REMARK VINA RESULT:    -4.457      2.225      3.115
REMARK INTER + INTRA:          -5.427
REMARK INTER:                  -5.038
REMARK INTRA:                  -0.389
REMARK UNBOUND:                 0.073
REMARK SMILES COc1cc(-c2oc3cc(O)cc(O)c3c(=O)c2O)ccc1O
REMARK SMILES IDX 6 1 18 2 16 3 17 4 15 5 13 6 12 7 10 8 9 9 8 10 7 11 5 12
REMARK SMILES IDX 3 13 22 14 4 15 21 16 20 17 2 18 1 19 23 20 19 22 14 24
REMARK SMILES IDX 11 26
REMARK H PARENT 23 21 19 23 14 25 11 27
REMARK Flexibility Score: inf
ROOT
ATOM      1  C   UNL     1      -2.439  49.240  23.259  1.00  0.00     0.180 A 
ATOM      2  C   UNL     1      -2.914  48.000  22.797  1.00  0.00     0.208 A 
ATOM      3  C   UNL     1      -3.608  47.163  23.685  1.00  0.00     0.238 A 
ATOM      4  O   UNL     1      -4.077  46.078  23.250  1.00  0.00    -0.285 OA
ATOM      5  C   UNL     1      -3.804  47.567  25.028  1.00  0.00     0.111 A 
ATOM      6  C   UNL     1      -4.458  46.781  26.023  1.00  0.00     0.134 A 
ATOM      7  C   UNL     1      -4.712  47.335  27.284  1.00  0.00     0.093 A 
ATOM      8  C   UNL     1      -4.277  48.623  27.605  1.00  0.00     0.123 A 
ATOM      9  C   UNL     1      -3.585  49.376  26.659  1.00  0.00     0.094 A 
ATOM     10  C   UNL     1      -3.350  48.864  25.381  1.00  0.00     0.146 A 
ATOM     11  O   UNL     1      -2.695  49.619  24.506  1.00  0.00    -0.452 OA
ENDROOT
BRANCH   1  12
ATOM     12  C   UNL     1      -1.678  50.166  22.390  1.00  0.00     0.025 A 
ATOM     13  C   UNL     1       0.467  50.898  21.473  1.00  0.00     0.161 A 
ATOM     14  C   UNL     1      -0.199  51.864  20.705  1.00  0.00     0.157 A 
ATOM     15  C   UNL     1      -0.280  50.046  22.309  1.00  0.00     0.062 A 
ATOM     16  C   UNL     1      -1.593  51.973  20.769  1.00  0.00     0.051 A 
ATOM     17  C   UNL     1      -2.329  51.126  21.599  1.00  0.00     0.016 A 
BRANCH  13  18
ATOM     18  O   UNL     1       1.865  50.815  21.377  1.00  0.00    -0.493 OA
ATOM     19  C   UNL     1       2.728  50.459  22.452  1.00  0.00     0.278 C 
ENDBRANCH  13  18
BRANCH  14  20
ATOM     20  O   UNL     1       0.536  52.712  19.877  1.00  0.00    -0.504 OA
ATOM     21  H   UNL     1       0.112  53.170  19.078  1.00  0.00     0.293 HD
ENDBRANCH  14  20
ENDBRANCH   1  12
BRANCH   2  22
ATOM     22  O   UNL     1      -2.728  47.630  21.463  1.00  0.00    -0.502 OA
ATOM     23  H   UNL     1      -3.096  48.172  20.690  1.00  0.00     0.293 HD
ENDBRANCH   2  22
BRANCH   6  24
ATOM     24  O   UNL     1      -4.851  45.452  25.835  1.00  0.00    -0.507 OA
ATOM     25  H   UNL     1      -5.317  44.887  26.528  1.00  0.00     0.293 HD
ENDBRANCH   6  24
BRANCH   8  26
ATOM     26  O   UNL     1      -4.520  49.161  28.867  1.00  0.00    -0.508 OA
ATOM     27  H   UNL     1      -5.355  48.928  29.391  1.00  0.00     0.293 HD
ENDBRANCH   8  26
TORSDOF 6
ENDMDL
