MODEL 1
REMARK VINA RESULT:    -3.260      0.000      0.000
REMARK INTER + INTRA:          -3.707
REMARK INTER:                  -3.641
REMARK INTRA:                  -0.065
REMARK UNBOUND:                -0.065
REMARK SMILES CCCC(=O)[O-]
REMARK SMILES IDX 3 1 4 2 5 3 6 4 2 5 1 6
REMARK H PARENT
REMARK Flexibility Score: inf
ROOT
ATOM      1  C   UNL     1      48.887  33.846  17.354  1.00  0.00     0.052 C 
ENDROOT
BRANCH   1   2
ATOM      2  C   UNL     1      47.813  33.882  16.312  1.00  0.00     0.041 C 
ATOM      3  O   UNL     1      46.696  34.403  16.572  1.00  0.00    -0.550 OA
ATOM      4  O   UNL     1      48.032  33.309  15.065  1.00  0.00    -0.550 OA
ENDBRANCH   1   2
BRANCH   1   5
ATOM      5  C   UNL     1      49.320  32.410  17.677  1.00  0.00     0.003 C 
ATOM      6  C   UNL     1      48.146  31.530  18.105  1.00  0.00     0.004 C 
ENDBRANCH   1   5
TORSDOF 2
ENDMDL
MODEL 2
REMARK VINA RESULT:    -3.228      2.167      3.158
REMARK INTER + INTRA:          -3.670
REMARK INTER:                  -3.628
REMARK INTRA:                  -0.043
REMARK UNBOUND:                -0.065
REMARK SMILES CCCC(=O)[O-]
REMARK SMILES IDX 3 1 4 2 5 3 6 4 2 5 1 6
REMARK H PARENT
REMARK Flexibility Score: inf
ROOT
ATOM      1  C   UNL     1      48.519  33.800  17.334  1.00  0.00     0.052 C 
ENDROOT
BRANCH   1   2
ATOM      2  C   UNL     1      48.872  32.415  17.782  1.00  0.00     0.041 C 
ATOM      3  O   UNL     1      50.075  32.041  17.793  1.00  0.00    -0.550 OA
ATOM      4  O   UNL     1      47.871  31.526  18.155  1.00  0.00    -0.550 OA
ENDBRANCH   1   2
BRANCH   1   5
ATOM      5  C   UNL     1      47.461  33.786  16.223  1.00  0.00     0.003 C 
ATOM      6  C   UNL     1      48.083  33.724  14.828  1.00  0.00     0.004 C 
ENDBRANCH   1   5
TORSDOF 2
ENDMDL
MODEL 3
REMARK VINA RESULT:    -3.188      2.161      2.879
REMARK INTER + INTRA:          -3.626
REMARK INTER:                  -3.563
REMARK INTRA:                  -0.062
REMARK UNBOUND:                -0.065
REMARK SMILES CCCC(=O)[O-]
REMARK SMILES IDX 3 1 4 2 5 3 6 4 2 5 1 6
REMARK H PARENT
REMARK Flexibility Score: inf
ROOT
ATOM      1  C   UNL     1      49.435  32.774  17.771  1.00  0.00     0.052 C 
ENDROOT
BRANCH   1   2
ATOM      2  C   UNL     1      48.795  31.436  17.567  1.00  0.00     0.041 C 
ATOM      3  O   UNL     1      47.761  31.125  18.214  1.00  0.00    -0.550 OA
ATOM      4  O   UNL     1      49.359  30.520  16.687  1.00  0.00    -0.550 OA
ENDBRANCH   1   2
BRANCH   1   5
ATOM      5  C   UNL     1      48.525  33.918  17.307  1.00  0.00     0.003 C 
ATOM      6  C   UNL     1      48.030  33.724  15.874  1.00  0.00     0.004 C 
ENDBRANCH   1   5
TORSDOF 2
ENDMDL
MODEL 4
REMARK VINA RESULT:    -3.186      2.158      3.157
REMARK INTER + INTRA:          -3.624
REMARK INTER:                  -3.566
REMARK INTRA:                  -0.057
REMARK UNBOUND:                -0.065
REMARK SMILES CCCC(=O)[O-]
REMARK SMILES IDX 3 1 4 2 5 3 6 4 2 5 1 6
REMARK H PARENT
REMARK Flexibility Score: inf
ROOT
ATOM      1  C   UNL     1      49.540  32.754  17.767  1.00  0.00     0.052 C 
ENDROOT
BRANCH   1   2
ATOM      2  C   UNL     1      48.865  31.430  17.587  1.00  0.00     0.041 C 
ATOM      3  O   UNL     1      49.317  30.597  16.757  1.00  0.00    -0.550 OA
ATOM      4  O   UNL     1      47.717  31.129  18.309  1.00  0.00    -0.550 OA
ENDBRANCH   1   2
BRANCH   1   5
ATOM      5  C   UNL     1      48.633  33.918  17.347  1.00  0.00     0.003 C 
ATOM      6  C   UNL     1      48.089  33.750  15.929  1.00  0.00     0.004 C 
ENDBRANCH   1   5
TORSDOF 2
ENDMDL
MODEL 5
REMARK VINA RESULT:    -3.107      1.625      2.053
REMARK INTER + INTRA:          -3.535
REMARK INTER:                  -3.507
REMARK INTRA:                  -0.028
REMARK UNBOUND:                -0.065
REMARK SMILES CCCC(=O)[O-]
REMARK SMILES IDX 3 1 4 2 5 3 6 4 2 5 1 6
REMARK H PARENT
REMARK Flexibility Score: inf
ROOT
ATOM      1  C   UNL     1      47.549  33.699  16.056  1.00  0.00     0.052 C 
ENDROOT
BRANCH   1   2
ATOM      2  C   UNL     1      48.077  33.322  14.707  1.00  0.00     0.041 C 
ATOM      3  O   UNL     1      48.215  34.199  13.814  1.00  0.00    -0.550 OA
ATOM      4  O   UNL     1      48.385  31.997  14.424  1.00  0.00    -0.550 OA
ENDBRANCH   1   2
BRANCH   1   5
ATOM      5  C   UNL     1      48.679  34.044  17.034  1.00  0.00     0.003 C 
ATOM      6  C   UNL     1      49.296  32.801  17.675  1.00  0.00     0.004 C 
ENDBRANCH   1   5
TORSDOF 2
ENDMDL
MODEL 6
REMARK VINA RESULT:    -3.106      2.129      3.039
REMARK INTER + INTRA:          -3.535
REMARK INTER:                  -3.521
REMARK INTRA:                  -0.014
REMARK UNBOUND:                -0.065
REMARK SMILES CCCC(=O)[O-]
REMARK SMILES IDX 3 1 4 2 5 3 6 4 2 5 1 6
REMARK H PARENT
REMARK Flexibility Score: inf
ROOT
ATOM      1  C   UNL     1      48.335  31.784  16.609  1.00  0.00     0.052 C 
ENDROOT
BRANCH   1   2
ATOM      2  C   UNL     1      47.984  31.061  15.346  1.00  0.00     0.041 C 
ATOM      3  O   UNL     1      48.471  31.436  14.247  1.00  0.00    -0.550 OA
ATOM      4  O   UNL     1      47.092  29.996  15.377  1.00  0.00    -0.550 OA
ENDBRANCH   1   2
BRANCH   1   5
ATOM      5  C   UNL     1      47.824  33.230  16.599  1.00  0.00     0.003 C 
ATOM      6  C   UNL     1      48.757  34.183  17.347  1.00  0.00     0.004 C 
ENDBRANCH   1   5
TORSDOF 2
ENDMDL
MODEL 7
REMARK VINA RESULT:    -3.051     11.997     12.748
REMARK INTER + INTRA:          -3.473
REMARK INTER:                  -3.431
REMARK INTRA:                  -0.042
REMARK UNBOUND:                -0.065
REMARK SMILES CCCC(=O)[O-]
REMARK SMILES IDX 3 1 4 2 5 3 6 4 2 5 1 6
REMARK H PARENT
REMARK Flexibility Score: inf
ROOT
ATOM      1  C   UNL     1      45.125  33.323  29.763  1.00  0.00     0.052 C 
ENDROOT
BRANCH   1   2
ATOM      2  C   UNL     1      45.109  32.988  28.304  1.00  0.00     0.041 C 
ATOM      3  O   UNL     1      44.182  32.281  27.827  1.00  0.00    -0.550 OA
ATOM      4  O   UNL     1      46.136  33.426  27.477  1.00  0.00    -0.550 OA
ENDBRANCH   1   2
BRANCH   1   5
ATOM      5  C   UNL     1      44.035  34.340  30.125  1.00  0.00     0.003 C 
ATOM      6  C   UNL     1      44.523  35.783  30.013  1.00  0.00     0.004 C 
ENDBRANCH   1   5
TORSDOF 2
ENDMDL
MODEL 8
REMARK VINA RESULT:    -2.986     12.240     12.775
REMARK INTER + INTRA:          -3.400
REMARK INTER:                  -3.393
REMARK INTRA:                  -0.007
REMARK UNBOUND:                -0.065
REMARK SMILES CCCC(=O)[O-]
REMARK SMILES IDX 3 1 4 2 5 3 6 4 2 5 1 6
REMARK H PARENT
REMARK Flexibility Score: inf
ROOT
ATOM      1  C   UNL     1      45.443  33.746  28.565  1.00  0.00     0.052 C 
ENDROOT
BRANCH   1   2
ATOM      2  C   UNL     1      44.680  34.764  29.355  1.00  0.00     0.041 C 
ATOM      3  O   UNL     1      43.714  34.408  30.080  1.00  0.00    -0.550 OA
ATOM      4  O   UNL     1      45.013  36.110  29.264  1.00  0.00    -0.550 OA
ENDBRANCH   1   2
BRANCH   1   5
ATOM      5  C   UNL     1      44.508  32.752  27.865  1.00  0.00     0.003 C 
ATOM      6  C   UNL     1      44.430  31.412  28.595  1.00  0.00     0.004 C 
ENDBRANCH   1   5
TORSDOF 2
ENDMDL
MODEL 9
REMARK VINA RESULT:    -2.924     11.238     11.820
REMARK INTER + INTRA:          -3.331
REMARK INTER:                  -3.313
REMARK INTRA:                  -0.018
REMARK UNBOUND:                -0.065
REMARK SMILES CCCC(=O)[O-]
REMARK SMILES IDX 3 1 4 2 5 3 6 4 2 5 1 6
REMARK H PARENT
REMARK Flexibility Score: inf
ROOT
ATOM      1  C   UNL     1      40.194  36.598  24.164  1.00  0.00     0.052 C 
ENDROOT
BRANCH   1   2
ATOM      2  C   UNL     1      38.870  37.298  24.160  1.00  0.00     0.041 C 
ATOM      3  O   UNL     1      38.774  38.474  24.600  1.00  0.00    -0.550 OA
ATOM      4  O   UNL     1      37.734  36.639  23.704  1.00  0.00    -0.550 OA
ENDBRANCH   1   2
BRANCH   1   5
ATOM      5  C   UNL     1      41.358  37.582  23.997  1.00  0.00     0.003 C 
ATOM      6  C   UNL     1      42.208  37.274  22.765  1.00  0.00     0.004 C 
ENDBRANCH   1   5
TORSDOF 2
ENDMDL
