MODEL 1
REMARK VINA RESULT:    -4.428      0.000      0.000
REMARK INTER + INTRA:          -7.564
REMARK INTER:                  -6.369
REMARK INTRA:                  -1.195
REMARK UNBOUND:                -1.195
REMARK SMILES O=C(CO)[C@H](O)[C@@H](O)[C@H](O)CO
REMARK SMILES IDX 7 1 9 2 11 3 12 4 10 6 5 8 2 9 1 10 3 11 4 12 6 14 8 16
REMARK H PARENT 12 5 10 7 4 13 6 15 8 17
REMARK Flexibility Score: inf
ROOT
ATOM      1  C   UNL     1      14.898 -54.311  21.240  1.00  0.00     0.181 C 
ENDROOT
BRANCH   1   2
ATOM      2  C   UNL     1      16.287 -54.987  21.399  1.00  0.00     0.171 C 
BRANCH   2   3
ATOM      3  C   UNL     1      17.244 -54.124  22.243  1.00  0.00     0.190 C 
BRANCH   3   4
ATOM      4  O   UNL     1      16.676 -53.845  23.495  1.00  0.00    -0.394 OA
ATOM      5  H   UNL     1      16.879 -54.620  24.080  1.00  0.00     0.210 HD
ENDBRANCH   3   4
ENDBRANCH   2   3
BRANCH   2   6
ATOM      6  O   UNL     1      16.174 -56.286  21.929  1.00  0.00    -0.388 OA
ATOM      7  H   UNL     1      16.847 -56.861  21.481  1.00  0.00     0.211 HD
ENDBRANCH   2   6
ENDBRANCH   1   2
BRANCH   1   8
ATOM      8  C   UNL     1      13.780 -55.063  22.004  1.00  0.00     0.214 C 
BRANCH   8   9
ATOM      9  C   UNL     1      12.470 -54.309  21.897  1.00  0.00     0.189 C 
ATOM     10  O   UNL     1      11.856 -54.338  20.840  1.00  0.00    -0.294 OA
BRANCH   9  11
ATOM     11  C   UNL     1      11.903 -53.553  23.073  1.00  0.00     0.234 C 
BRANCH  11  12
ATOM     12  O   UNL     1      12.888 -52.776  23.701  1.00  0.00    -0.388 OA
ATOM     13  H   UNL     1      13.763 -53.183  23.468  1.00  0.00     0.211 HD
ENDBRANCH  11  12
ENDBRANCH   9  11
ENDBRANCH   8   9
BRANCH   8  14
ATOM     14  O   UNL     1      14.144 -55.244  23.350  1.00  0.00    -0.382 OA
ATOM     15  H   UNL     1      13.329 -55.084  23.894  1.00  0.00     0.211 HD
ENDBRANCH   8  14
ENDBRANCH   1   8
BRANCH   1  16
ATOM     16  O   UNL     1      14.944 -52.948  21.587  1.00  0.00    -0.387 OA
ATOM     17  H   UNL     1      15.889 -52.704  21.761  1.00  0.00     0.211 HD
ENDBRANCH   1  16
TORSDOF 10
ENDMDL
MODEL 2
REMARK VINA RESULT:    -4.359      1.388      2.362
REMARK INTER + INTRA:          -7.464
REMARK INTER:                  -6.188
REMARK INTRA:                  -1.276
REMARK UNBOUND:                -1.195
REMARK SMILES O=C(CO)[C@H](O)[C@@H](O)[C@H](O)CO
REMARK SMILES IDX 7 1 9 2 11 3 12 4 10 6 5 8 2 9 1 10 3 11 4 12 6 14 8 16
REMARK H PARENT 12 5 10 7 4 13 6 15 8 17
REMARK Flexibility Score: inf
ROOT
ATOM      1  C   UNL     1      14.370 -54.009  22.714  1.00  0.00     0.181 C 
ENDROOT
BRANCH   1   2
ATOM      2  C   UNL     1      15.495 -54.576  21.808  1.00  0.00     0.171 C 
BRANCH   2   3
ATOM      3  C   UNL     1      16.775 -54.873  22.612  1.00  0.00     0.190 C 
BRANCH   3   4
ATOM      4  O   UNL     1      16.451 -55.423  23.861  1.00  0.00    -0.394 OA
ATOM      5  H   UNL     1      15.526 -55.772  23.788  1.00  0.00     0.210 HD
ENDBRANCH   3   4
ENDBRANCH   2   3
BRANCH   2   6
ATOM      6  O   UNL     1      15.067 -55.713  21.098  1.00  0.00    -0.388 OA
ATOM      7  H   UNL     1      15.237 -55.556  20.134  1.00  0.00     0.211 HD
ENDBRANCH   2   6
ENDBRANCH   1   2
BRANCH   1   8
ATOM      8  C   UNL     1      13.364 -53.126  21.932  1.00  0.00     0.214 C 
BRANCH   8   9
ATOM      9  C   UNL     1      12.023 -53.822  21.827  1.00  0.00     0.189 C 
ATOM     10  O   UNL     1      11.189 -53.634  22.702  1.00  0.00    -0.294 OA
BRANCH   9  11
ATOM     11  C   UNL     1      11.693 -54.714  20.656  1.00  0.00     0.234 C 
BRANCH  11  12
ATOM     12  O   UNL     1      12.108 -56.034  20.889  1.00  0.00    -0.388 OA
ATOM     13  H   UNL     1      13.098 -56.013  20.963  1.00  0.00     0.211 HD
ENDBRANCH  11  12
ENDBRANCH   9  11
ENDBRANCH   8   9
BRANCH   8  14
ATOM     14  O   UNL     1      13.871 -52.822  20.656  1.00  0.00    -0.382 OA
ATOM     15  H   UNL     1      13.117 -52.453  20.127  1.00  0.00     0.211 HD
ENDBRANCH   8  14
ENDBRANCH   1   8
BRANCH   1  16
ATOM     16  O   UNL     1      13.720 -55.030  23.433  1.00  0.00    -0.387 OA
ATOM     17  H   UNL     1      12.991 -54.619  23.965  1.00  0.00     0.211 HD
ENDBRANCH   1  16
TORSDOF 10
ENDMDL
MODEL 3
REMARK VINA RESULT:    -4.275     13.830     15.309
REMARK INTER + INTRA:          -7.343
REMARK INTER:                  -6.723
REMARK INTRA:                  -0.620
REMARK UNBOUND:                -1.195
REMARK SMILES O=C(CO)[C@H](O)[C@@H](O)[C@H](O)CO
REMARK SMILES IDX 7 1 9 2 11 3 12 4 10 6 5 8 2 9 1 10 3 11 4 12 6 14 8 16
REMARK H PARENT 12 5 10 7 4 13 6 15 8 17
REMARK Flexibility Score: inf
ROOT
ATOM      1  C   UNL     1      -0.241 -49.689  22.273  1.00  0.00     0.181 C 
ENDROOT
BRANCH   1   2
ATOM      2  C   UNL     1       0.556 -51.019  22.215  1.00  0.00     0.171 C 
BRANCH   2   3
ATOM      3  C   UNL     1       0.385 -51.724  20.854  1.00  0.00     0.190 C 
BRANCH   3   4
ATOM      4  O   UNL     1      -0.975 -51.912  20.568  1.00  0.00    -0.394 OA
ATOM      5  H   UNL     1      -1.112 -52.889  20.465  1.00  0.00     0.210 HD
ENDBRANCH   3   4
ENDBRANCH   2   3
BRANCH   2   6
ATOM      6  O   UNL     1       1.917 -50.824  22.516  1.00  0.00    -0.388 OA
ATOM      7  H   UNL     1       2.225 -50.014  22.033  1.00  0.00     0.211 HD
ENDBRANCH   2   6
ENDBRANCH   1   2
BRANCH   1   8
ATOM      8  C   UNL     1      -0.803 -49.393  23.687  1.00  0.00     0.214 C 
BRANCH   8   9
ATOM      9  C   UNL     1      -0.201 -48.116  24.236  1.00  0.00     0.189 C 
ATOM     10  O   UNL     1      -0.692 -47.044  23.910  1.00  0.00    -0.294 OA
BRANCH   9  11
ATOM     11  C   UNL     1       0.966 -48.147  25.191  1.00  0.00     0.234 C 
BRANCH  11  12
ATOM     12  O   UNL     1       1.866 -47.103  24.928  1.00  0.00    -0.388 OA
ATOM     13  H   UNL     1       1.345 -46.259  24.972  1.00  0.00     0.211 HD
ENDBRANCH  11  12
ENDBRANCH   9  11
ENDBRANCH   8   9
BRANCH   8  14
ATOM     14  O   UNL     1      -0.550 -50.476  24.549  1.00  0.00    -0.382 OA
ATOM     15  H   UNL     1       0.039 -50.137  25.272  1.00  0.00     0.211 HD
ENDBRANCH   8  14
ENDBRANCH   1   8
BRANCH   1  16
ATOM     16  O   UNL     1       0.514 -48.611  21.774  1.00  0.00    -0.387 OA
ATOM     17  H   UNL     1       0.641 -47.955  22.508  1.00  0.00     0.211 HD
ENDBRANCH   1  16
TORSDOF 10
ENDMDL
MODEL 4
REMARK VINA RESULT:    -4.257     12.789     14.438
REMARK INTER + INTRA:          -7.318
REMARK INTER:                  -5.900
REMARK INTRA:                  -1.418
REMARK UNBOUND:                -1.195
REMARK SMILES O=C(CO)[C@H](O)[C@@H](O)[C@H](O)CO
REMARK SMILES IDX 7 1 9 2 11 3 12 4 10 6 5 8 2 9 1 10 3 11 4 12 6 14 8 16
REMARK H PARENT 12 5 10 7 4 13 6 15 8 17
REMARK Flexibility Score: inf
ROOT
ATOM      1  C   UNL     1       0.671 -50.927  22.523  1.00  0.00     0.181 C 
ENDROOT
BRANCH   1   2
ATOM      2  C   UNL     1      -0.132 -49.605  22.665  1.00  0.00     0.171 C 
BRANCH   2   3
ATOM      3  C   UNL     1      -0.355 -49.234  24.144  1.00  0.00     0.190 C 
BRANCH   3   4
ATOM      4  O   UNL     1       0.858 -49.273  24.847  1.00  0.00    -0.394 OA
ATOM      5  H   UNL     1       1.223 -48.351  24.837  1.00  0.00     0.210 HD
ENDBRANCH   3   4
ENDBRANCH   2   3
BRANCH   2   6
ATOM      6  O   UNL     1       0.479 -48.549  21.964  1.00  0.00    -0.388 OA
ATOM      7  H   UNL     1       1.166 -48.935  21.362  1.00  0.00     0.211 HD
ENDBRANCH   2   6
ENDBRANCH   1   2
BRANCH   1   8
ATOM      8  C   UNL     1       0.450 -51.612  21.151  1.00  0.00     0.214 C 
BRANCH   8   9
ATOM      9  C   UNL     1       1.770 -51.779  20.427  1.00  0.00     0.189 C 
ATOM     10  O   UNL     1       2.457 -52.761  20.669  1.00  0.00    -0.294 OA
BRANCH   9  11
ATOM     11  C   UNL     1       2.234 -50.775  19.401  1.00  0.00     0.234 C 
BRANCH  11  12
ATOM     12  O   UNL     1       2.331 -49.489  19.954  1.00  0.00    -0.388 OA
ATOM     13  H   UNL     1       1.438 -49.066  19.849  1.00  0.00     0.211 HD
ENDBRANCH  11  12
ENDBRANCH   9  11
ENDBRANCH   8   9
BRANCH   8  14
ATOM     14  O   UNL     1      -0.456 -50.868  20.373  1.00  0.00    -0.382 OA
ATOM     15  H   UNL     1      -0.142 -50.923  19.433  1.00  0.00     0.211 HD
ENDBRANCH   8  14
ENDBRANCH   1   8
BRANCH   1  16
ATOM     16  O   UNL     1       2.038 -50.734  22.798  1.00  0.00    -0.387 OA
ATOM     17  H   UNL     1       2.537 -51.521  22.458  1.00  0.00     0.211 HD
ENDBRANCH   1  16
TORSDOF 10
ENDMDL
MODEL 5
REMARK VINA RESULT:    -4.248      0.943      4.173
REMARK INTER + INTRA:          -7.305
REMARK INTER:                  -5.886
REMARK INTRA:                  -1.420
REMARK UNBOUND:                -1.195
REMARK SMILES O=C(CO)[C@H](O)[C@@H](O)[C@H](O)CO
REMARK SMILES IDX 7 1 9 2 11 3 12 4 10 6 5 8 2 9 1 10 3 11 4 12 6 14 8 16
REMARK H PARENT 12 5 10 7 4 13 6 15 8 17
REMARK Flexibility Score: inf
ROOT
ATOM      1  C   UNL     1      13.274 -54.493  22.034  1.00  0.00     0.181 C 
ENDROOT
BRANCH   1   2
ATOM      2  C   UNL     1      12.680 -53.171  22.590  1.00  0.00     0.171 C 
BRANCH   2   3
ATOM      3  C   UNL     1      11.185 -53.321  22.932  1.00  0.00     0.190 C 
BRANCH   3   4
ATOM      4  O   UNL     1      10.822 -54.675  22.957  1.00  0.00    -0.394 OA
ATOM      5  H   UNL     1      10.525 -54.874  23.883  1.00  0.00     0.210 HD
ENDBRANCH   3   4
ENDBRANCH   2   3
BRANCH   2   6
ATOM      6  O   UNL     1      13.409 -52.701  23.699  1.00  0.00    -0.388 OA
ATOM      7  H   UNL     1      12.927 -51.919  24.074  1.00  0.00     0.211 HD
ENDBRANCH   2   6
ENDBRANCH   1   2
BRANCH   1   8
ATOM      8  C   UNL     1      14.439 -54.250  21.041  1.00  0.00     0.214 C 
BRANCH   8   9
ATOM      9  C   UNL     1      15.676 -55.001  21.487  1.00  0.00     0.189 C 
ATOM     10  O   UNL     1      15.779 -56.188  21.211  1.00  0.00    -0.294 OA
BRANCH   9  11
ATOM     11  C   UNL     1      16.787 -54.306  22.236  1.00  0.00     0.234 C 
BRANCH  11  12
ATOM     12  O   UNL     1      16.310 -53.704  23.410  1.00  0.00    -0.388 OA
ATOM     13  H   UNL     1      16.868 -52.897  23.563  1.00  0.00     0.211 HD
ENDBRANCH  11  12
ENDBRANCH   9  11
ENDBRANCH   8   9
BRANCH   8  14
ATOM     14  O   UNL     1      14.703 -52.873  20.925  1.00  0.00    -0.382 OA
ATOM     15  H   UNL     1      13.953 -52.478  20.410  1.00  0.00     0.211 HD
ENDBRANCH   8  14
ENDBRANCH   1   8
BRANCH   1  16
ATOM     16  O   UNL     1      13.644 -55.371  23.070  1.00  0.00    -0.387 OA
ATOM     17  H   UNL     1      12.933 -55.353  23.761  1.00  0.00     0.211 HD
ENDBRANCH   1  16
TORSDOF 10
ENDMDL
MODEL 6
REMARK VINA RESULT:    -4.215      1.786      2.345
REMARK INTER + INTRA:          -7.257
REMARK INTER:                  -6.652
REMARK INTRA:                  -0.605
REMARK UNBOUND:                -1.195
REMARK SMILES O=C(CO)[C@H](O)[C@@H](O)[C@H](O)CO
REMARK SMILES IDX 7 1 9 2 11 3 12 4 10 6 5 8 2 9 1 10 3 11 4 12 6 14 8 16
REMARK H PARENT 12 5 10 7 4 13 6 15 8 17
REMARK Flexibility Score: inf
ROOT
ATOM      1  C   UNL     1      14.783 -54.695  22.367  1.00  0.00     0.181 C 
ENDROOT
BRANCH   1   2
ATOM      2  C   UNL     1      16.257 -54.997  22.750  1.00  0.00     0.171 C 
BRANCH   2   3
ATOM      3  C   UNL     1      17.156 -53.760  22.560  1.00  0.00     0.190 C 
BRANCH   3   4
ATOM      4  O   UNL     1      18.334 -53.891  23.311  1.00  0.00    -0.394 OA
ATOM      5  H   UNL     1      18.704 -52.978  23.421  1.00  0.00     0.210 HD
ENDBRANCH   3   4
ENDBRANCH   2   3
BRANCH   2   6
ATOM      6  O   UNL     1      16.360 -55.502  24.060  1.00  0.00    -0.388 OA
ATOM      7  H   UNL     1      16.335 -54.735  24.688  1.00  0.00     0.211 HD
ENDBRANCH   2   6
ENDBRANCH   1   2
BRANCH   1   8
ATOM      8  C   UNL     1      14.526 -54.826  20.844  1.00  0.00     0.214 C 
BRANCH   8   9
ATOM      9  C   UNL     1      13.312 -54.014  20.443  1.00  0.00     0.189 C 
ATOM     10  O   UNL     1      13.422 -52.801  20.332  1.00  0.00    -0.294 OA
BRANCH   9  11
ATOM     11  C   UNL     1      11.986 -54.675  20.155  1.00  0.00     0.234 C 
BRANCH  11  12
ATOM     12  O   UNL     1      11.638 -55.581  21.168  1.00  0.00    -0.388 OA
ATOM     13  H   UNL     1      11.266 -55.043  21.915  1.00  0.00     0.211 HD
ENDBRANCH  11  12
ENDBRANCH   9  11
ENDBRANCH   8   9
BRANCH   8  14
ATOM     14  O   UNL     1      14.362 -56.178  20.491  1.00  0.00    -0.382 OA
ATOM     15  H   UNL     1      14.896 -56.711  21.135  1.00  0.00     0.211 HD
ENDBRANCH   8  14
ENDBRANCH   1   8
BRANCH   1  16
ATOM     16  O   UNL     1      13.883 -55.474  23.118  1.00  0.00    -0.387 OA
ATOM     17  H   UNL     1      14.399 -56.183  23.583  1.00  0.00     0.211 HD
ENDBRANCH   1  16
TORSDOF 10
ENDMDL
MODEL 7
REMARK VINA RESULT:    -4.158     15.173     16.247
REMARK INTER + INTRA:          -7.176
REMARK INTER:                  -5.989
REMARK INTRA:                  -1.187
REMARK UNBOUND:                -1.195
REMARK SMILES O=C(CO)[C@H](O)[C@@H](O)[C@H](O)CO
REMARK SMILES IDX 7 1 9 2 11 3 12 4 10 6 5 8 2 9 1 10 3 11 4 12 6 14 8 16
REMARK H PARENT 12 5 10 7 4 13 6 15 8 17
REMARK Flexibility Score: inf
ROOT
ATOM      1  C   UNL     1       1.372 -44.658  23.117  1.00  0.00     0.181 C 
ENDROOT
BRANCH   1   2
ATOM      2  C   UNL     1       1.526 -43.840  21.807  1.00  0.00     0.171 C 
BRANCH   2   3
ATOM      3  C   UNL     1       2.768 -44.278  21.007  1.00  0.00     0.190 C 
BRANCH   3   4
ATOM      4  O   UNL     1       2.578 -45.560  20.471  1.00  0.00    -0.394 OA
ATOM      5  H   UNL     1       2.000 -45.451  19.672  1.00  0.00     0.210 HD
ENDBRANCH   3   4
ENDBRANCH   2   3
BRANCH   2   6
ATOM      6  O   UNL     1       0.364 -43.905  21.015  1.00  0.00    -0.388 OA
ATOM      7  H   UNL     1       0.418 -43.189  20.330  1.00  0.00     0.211 HD
ENDBRANCH   2   6
ENDBRANCH   1   2
BRANCH   1   8
ATOM      8  C   UNL     1       0.262 -45.735  23.019  1.00  0.00     0.214 C 
BRANCH   8   9
ATOM      9  C   UNL     1      -0.145 -46.198  24.403  1.00  0.00     0.189 C 
ATOM     10  O   UNL     1      -0.921 -45.511  25.052  1.00  0.00    -0.294 OA
BRANCH   9  11
ATOM     11  C   UNL     1       0.365 -47.497  24.976  1.00  0.00     0.234 C 
BRANCH  11  12
ATOM     12  O   UNL     1       1.765 -47.497  25.070  1.00  0.00    -0.388 OA
ATOM     13  H   UNL     1       2.096 -48.143  24.392  1.00  0.00     0.211 HD
ENDBRANCH  11  12
ENDBRANCH   9  11
ENDBRANCH   8   9
BRANCH   8  14
ATOM     14  O   UNL     1       0.701 -46.819  22.238  1.00  0.00    -0.382 OA
ATOM     15  H   UNL     1       1.323 -46.451  21.558  1.00  0.00     0.211 HD
ENDBRANCH   8  14
ENDBRANCH   1   8
BRANCH   1  16
ATOM     16  O   UNL     1       2.600 -45.208  23.530  1.00  0.00    -0.387 OA
ATOM     17  H   UNL     1       2.915 -44.703  24.324  1.00  0.00     0.211 HD
ENDBRANCH   1  16
TORSDOF 10
ENDMDL
MODEL 8
REMARK VINA RESULT:    -4.088      1.557      4.461
REMARK INTER + INTRA:          -7.075
REMARK INTER:                  -6.145
REMARK INTRA:                  -0.929
REMARK UNBOUND:                -1.195
REMARK SMILES O=C(CO)[C@H](O)[C@@H](O)[C@H](O)CO
REMARK SMILES IDX 7 1 9 2 11 3 12 4 10 6 5 8 2 9 1 10 3 11 4 12 6 14 8 16
REMARK H PARENT 12 5 10 7 4 13 6 15 8 17
REMARK Flexibility Score: inf
ROOT
ATOM      1  C   UNL     1      15.202 -54.512  21.650  1.00  0.00     0.181 C 
ENDROOT
BRANCH   1   2
ATOM      2  C   UNL     1      13.794 -54.268  22.254  1.00  0.00     0.171 C 
BRANCH   2   3
ATOM      3  C   UNL     1      12.683 -54.478  21.207  1.00  0.00     0.190 C 
BRANCH   3   4
ATOM      4  O   UNL     1      12.187 -55.788  21.275  1.00  0.00    -0.394 OA
ATOM      5  H   UNL     1      11.347 -55.802  20.747  1.00  0.00     0.210 HD
ENDBRANCH   3   4
ENDBRANCH   2   3
BRANCH   2   6
ATOM      6  O   UNL     1      13.572 -55.065  23.393  1.00  0.00    -0.388 OA
ATOM      7  H   UNL     1      13.092 -54.515  24.065  1.00  0.00     0.211 HD
ENDBRANCH   2   6
ENDBRANCH   1   2
BRANCH   1   8
ATOM      8  C   UNL     1      16.342 -54.208  22.655  1.00  0.00     0.214 C 
BRANCH   8   9
ATOM      9  C   UNL     1      17.592 -53.774  21.919  1.00  0.00     0.189 C 
ATOM     10  O   UNL     1      17.662 -53.958  20.712  1.00  0.00    -0.294 OA
BRANCH   9  11
ATOM     11  C   UNL     1      18.732 -53.097  22.640  1.00  0.00     0.234 C 
BRANCH  11  12
ATOM     12  O   UNL     1      19.125 -53.830  23.771  1.00  0.00    -0.388 OA
ATOM     13  H   UNL     1      18.316 -54.306  24.097  1.00  0.00     0.211 HD
ENDBRANCH  11  12
ENDBRANCH   9  11
ENDBRANCH   8   9
BRANCH   8  14
ATOM     14  O   UNL     1      16.600 -55.336  23.456  1.00  0.00    -0.382 OA
ATOM     15  H   UNL     1      17.409 -55.130  23.992  1.00  0.00     0.211 HD
ENDBRANCH   8  14
ENDBRANCH   1   8
BRANCH   1  16
ATOM     16  O   UNL     1      15.315 -55.805  21.105  1.00  0.00    -0.387 OA
ATOM     17  H   UNL     1      16.256 -56.103  21.206  1.00  0.00     0.211 HD
ENDBRANCH   1  16
TORSDOF 10
ENDMDL
MODEL 9
REMARK VINA RESULT:    -4.045      1.300      2.261
REMARK INTER + INTRA:          -7.013
REMARK INTER:                  -6.216
REMARK INTRA:                  -0.798
REMARK UNBOUND:                -1.195
REMARK SMILES O=C(CO)[C@H](O)[C@@H](O)[C@H](O)CO
REMARK SMILES IDX 7 1 9 2 11 3 12 4 10 6 5 8 2 9 1 10 3 11 4 12 6 14 8 16
REMARK H PARENT 12 5 10 7 4 13 6 15 8 17
REMARK Flexibility Score: inf
ROOT
ATOM      1  C   UNL     1      15.755 -54.126  22.646  1.00  0.00     0.181 C 
ENDROOT
BRANCH   1   2
ATOM      2  C   UNL     1      16.640 -54.104  21.371  1.00  0.00     0.171 C 
BRANCH   2   3
ATOM      3  C   UNL     1      16.371 -55.328  20.473  1.00  0.00     0.190 C 
BRANCH   3   4
ATOM      4  O   UNL     1      16.630 -56.515  21.174  1.00  0.00    -0.394 OA
ATOM      5  H   UNL     1      16.369 -57.262  20.576  1.00  0.00     0.210 HD
ENDBRANCH   3   4
ENDBRANCH   2   3
BRANCH   2   6
ATOM      6  O   UNL     1      16.484 -52.904  20.651  1.00  0.00    -0.388 OA
ATOM      7  H   UNL     1      17.386 -52.585  20.388  1.00  0.00     0.211 HD
ENDBRANCH   2   6
ENDBRANCH   1   2
BRANCH   1   8
ATOM      8  C   UNL     1      14.292 -54.540  22.347  1.00  0.00     0.214 C 
BRANCH   8   9
ATOM      9  C   UNL     1      13.384 -53.327  22.382  1.00  0.00     0.189 C 
ATOM     10  O   UNL     1      13.657 -52.364  21.680  1.00  0.00    -0.294 OA
BRANCH   9  11
ATOM     11  C   UNL     1      12.144 -53.301  23.242  1.00  0.00     0.234 C 
BRANCH  11  12
ATOM     12  O   UNL     1      11.268 -54.342  22.903  1.00  0.00    -0.388 OA
ATOM     13  H   UNL     1      10.693 -54.003  22.168  1.00  0.00     0.211 HD
ENDBRANCH  11  12
ENDBRANCH   9  11
ENDBRANCH   8   9
BRANCH   8  14
ATOM     14  O   UNL     1      13.862 -55.513  23.268  1.00  0.00    -0.382 OA
ATOM     15  H   UNL     1      14.226 -56.383  22.958  1.00  0.00     0.211 HD
ENDBRANCH   8  14
ENDBRANCH   1   8
BRANCH   1  16
ATOM     16  O   UNL     1      16.327 -54.918  23.659  1.00  0.00    -0.387 OA
ATOM     17  H   UNL     1      15.627 -55.529  24.007  1.00  0.00     0.211 HD
ENDBRANCH   1  16
TORSDOF 10
ENDMDL
