MODEL 1
REMARK VINA RESULT:    -3.089      0.000      0.000
REMARK INTER + INTRA:          -4.059
REMARK INTER:                  -3.811
REMARK INTRA:                  -0.248
REMARK UNBOUND:                -0.248
REMARK SMILES CCCCCC(=O)[O-]
REMARK SMILES IDX 4 1 5 2 6 3 7 4 8 5 3 6 2 7 1 8
REMARK H PARENT
REMARK Flexibility Score: inf
ROOT
ATOM      1  C   UNL     1     156.526 173.011 163.402  1.00  0.00     0.006 C 
ENDROOT
BRANCH   1   2
ATOM      2  C   UNL     1     156.410 173.652 164.788  1.00  0.00     0.053 C 
BRANCH   2   3
ATOM      3  C   UNL     1     155.691 174.962 164.701  1.00  0.00     0.041 C 
ATOM      4  O   UNL     1     156.311 176.001 164.353  1.00  0.00    -0.550 OA
ATOM      5  O   UNL     1     154.328 175.024 164.957  1.00  0.00    -0.550 OA
ENDBRANCH   2   3
ENDBRANCH   1   2
BRANCH   1   6
ATOM      6  C   UNL     1     157.975 173.046 162.899  1.00  0.00     0.000 C 
BRANCH   6   7
ATOM      7  C   UNL     1     158.182 174.189 161.899  1.00  0.00    -0.003 C 
ATOM      8  C   UNL     1     156.966 174.354 160.991  1.00  0.00     0.004 C 
ENDBRANCH   6   7
ENDBRANCH   1   6
TORSDOF 4
ENDMDL
MODEL 2
REMARK VINA RESULT:    -3.022      2.319      3.828
REMARK INTER + INTRA:          -3.976
REMARK INTER:                  -3.863
REMARK INTRA:                  -0.113
REMARK UNBOUND:                -0.248
REMARK SMILES CCCCCC(=O)[O-]
REMARK SMILES IDX 4 1 5 2 6 3 7 4 8 5 3 6 2 7 1 8
REMARK H PARENT
REMARK Flexibility Score: inf
ROOT
ATOM      1  C   UNL     1     157.126 173.160 163.726  1.00  0.00     0.006 C 
ENDROOT
BRANCH   1   2
ATOM      2  C   UNL     1     158.105 173.231 162.551  1.00  0.00     0.053 C 
BRANCH   2   3
ATOM      3  C   UNL     1     157.783 174.398 161.671  1.00  0.00     0.041 C 
ATOM      4  O   UNL     1     157.410 174.211 160.484  1.00  0.00    -0.550 OA
ATOM      5  O   UNL     1     157.849 175.690 162.179  1.00  0.00    -0.550 OA
ENDBRANCH   2   3
ENDBRANCH   1   2
BRANCH   1   6
ATOM      6  C   UNL     1     155.742 172.690 163.262  1.00  0.00     0.000 C 
BRANCH   6   7
ATOM      7  C   UNL     1     155.037 171.886 164.360  1.00  0.00    -0.003 C 
ATOM      8  C   UNL     1     154.400 170.620 163.793  1.00  0.00     0.004 C 
ENDBRANCH   6   7
ENDBRANCH   1   6
TORSDOF 4
ENDMDL
MODEL 3
REMARK VINA RESULT:    -2.995      1.751      3.223
REMARK INTER + INTRA:          -3.943
REMARK INTER:                  -3.703
REMARK INTRA:                  -0.240
REMARK UNBOUND:                -0.248
REMARK SMILES CCCCCC(=O)[O-]
REMARK SMILES IDX 4 1 5 2 6 3 7 4 8 5 3 6 2 7 1 8
REMARK H PARENT
REMARK Flexibility Score: inf
ROOT
ATOM      1  C   UNL     1     155.599 173.472 162.568  1.00  0.00     0.006 C 
ENDROOT
BRANCH   1   2
ATOM      2  C   UNL     1     154.449 174.371 163.033  1.00  0.00     0.053 C 
BRANCH   2   3
ATOM      3  C   UNL     1     154.780 175.009 164.345  1.00  0.00     0.041 C 
ATOM      4  O   UNL     1     154.057 174.794 165.353  1.00  0.00    -0.550 OA
ATOM      5  O   UNL     1     155.915 175.801 164.466  1.00  0.00    -0.550 OA
ENDBRANCH   2   3
ENDBRANCH   1   2
BRANCH   1   6
ATOM      6  C   UNL     1     155.939 172.421 163.632  1.00  0.00     0.000 C 
BRANCH   6   7
ATOM      7  C   UNL     1     154.816 171.386 163.762  1.00  0.00    -0.003 C 
ATOM      8  C   UNL     1     154.383 171.223 165.216  1.00  0.00     0.004 C 
ENDBRANCH   6   7
ENDBRANCH   1   6
TORSDOF 4
ENDMDL
MODEL 4
REMARK VINA RESULT:    -2.939      1.211      1.672
REMARK INTER + INTRA:          -3.874
REMARK INTER:                  -3.722
REMARK INTRA:                  -0.152
REMARK UNBOUND:                -0.248
REMARK SMILES CCCCCC(=O)[O-]
REMARK SMILES IDX 4 1 5 2 6 3 7 4 8 5 3 6 2 7 1 8
REMARK H PARENT
REMARK Flexibility Score: inf
ROOT
ATOM      1  C   UNL     1     156.937 174.012 164.932  1.00  0.00     0.006 C 
ENDROOT
BRANCH   1   2
ATOM      2  C   UNL     1     156.047 175.238 164.712  1.00  0.00     0.053 C 
BRANCH   2   3
ATOM      3  C   UNL     1     154.603 174.844 164.717  1.00  0.00     0.041 C 
ATOM      4  O   UNL     1     153.914 174.955 163.669  1.00  0.00    -0.550 OA
ATOM      5  O   UNL     1     154.032 174.310 165.865  1.00  0.00    -0.550 OA
ENDBRANCH   2   3
ENDBRANCH   1   2
BRANCH   1   6
ATOM      6  C   UNL     1     156.871 173.062 163.730  1.00  0.00     0.000 C 
BRANCH   6   7
ATOM      7  C   UNL     1     158.178 173.096 162.929  1.00  0.00    -0.003 C 
ATOM      8  C   UNL     1     158.127 174.160 161.837  1.00  0.00     0.004 C 
ENDBRANCH   6   7
ENDBRANCH   1   6
TORSDOF 4
ENDMDL
MODEL 5
REMARK VINA RESULT:    -2.929      2.815      4.516
REMARK INTER + INTRA:          -3.862
REMARK INTER:                  -3.773
REMARK INTRA:                  -0.089
REMARK UNBOUND:                -0.248
REMARK SMILES CCCCCC(=O)[O-]
REMARK SMILES IDX 4 1 5 2 6 3 7 4 8 5 3 6 2 7 1 8
REMARK H PARENT
REMARK Flexibility Score: inf
ROOT
ATOM      1  C   UNL     1     157.113 173.830 165.892  1.00  0.00     0.006 C 
ENDROOT
BRANCH   1   2
ATOM      2  C   UNL     1     156.587 174.186 164.499  1.00  0.00     0.053 C 
BRANCH   2   3
ATOM      3  C   UNL     1     156.733 173.021 163.571  1.00  0.00     0.041 C 
ATOM      4  O   UNL     1     157.859 172.736 163.085  1.00  0.00    -0.550 OA
ATOM      5  O   UNL     1     155.634 172.221 163.281  1.00  0.00    -0.550 OA
ENDBRANCH   2   3
ENDBRANCH   1   2
BRANCH   1   6
ATOM      6  C   UNL     1     156.089 172.997 166.671  1.00  0.00     0.000 C 
BRANCH   6   7
ATOM      7  C   UNL     1     156.739 172.320 167.884  1.00  0.00    -0.003 C 
ATOM      8  C   UNL     1     156.146 170.934 168.124  1.00  0.00     0.004 C 
ENDBRANCH   6   7
ENDBRANCH   1   6
TORSDOF 4
ENDMDL
MODEL 6
REMARK VINA RESULT:    -2.885     15.241     16.346
REMARK INTER + INTRA:          -3.807
REMARK INTER:                  -3.559
REMARK INTRA:                  -0.248
REMARK UNBOUND:                -0.248
REMARK SMILES CCCCCC(=O)[O-]
REMARK SMILES IDX 4 1 5 2 6 3 7 4 8 5 3 6 2 7 1 8
REMARK H PARENT
REMARK Flexibility Score: inf
ROOT
ATOM      1  C   UNL     1     170.782 170.959 154.047  1.00  0.00     0.006 C 
ENDROOT
BRANCH   1   2
ATOM      2  C   UNL     1     169.821 170.479 155.138  1.00  0.00     0.053 C 
BRANCH   2   3
ATOM      3  C   UNL     1     168.444 170.302 154.582  1.00  0.00     0.041 C 
ATOM      4  O   UNL     1     168.202 170.602 153.383  1.00  0.00    -0.550 OA
ATOM      5  O   UNL     1     167.439 169.761 155.374  1.00  0.00    -0.550 OA
ENDBRANCH   2   3
ENDBRANCH   1   2
BRANCH   1   6
ATOM      6  C   UNL     1     171.227 172.405 154.302  1.00  0.00     0.000 C 
BRANCH   6   7
ATOM      7  C   UNL     1     170.693 173.344 153.215  1.00  0.00    -0.003 C 
ATOM      8  C   UNL     1     169.347 173.941 153.615  1.00  0.00     0.004 C 
ENDBRANCH   6   7
ENDBRANCH   1   6
TORSDOF 4
ENDMDL
MODEL 7
REMARK VINA RESULT:    -2.882      2.618      3.921
REMARK INTER + INTRA:          -3.803
REMARK INTER:                  -3.702
REMARK INTRA:                  -0.101
REMARK UNBOUND:                -0.248
REMARK SMILES CCCCCC(=O)[O-]
REMARK SMILES IDX 4 1 5 2 6 3 7 4 8 5 3 6 2 7 1 8
REMARK H PARENT
REMARK Flexibility Score: inf
ROOT
ATOM      1  C   UNL     1     155.627 172.773 163.462  1.00  0.00     0.006 C 
ENDROOT
BRANCH   1   2
ATOM      2  C   UNL     1     157.105 173.099 163.229  1.00  0.00     0.053 C 
BRANCH   2   3
ATOM      3  C   UNL     1     157.275 173.878 161.963  1.00  0.00     0.041 C 
ATOM      4  O   UNL     1     158.404 174.342 161.653  1.00  0.00    -0.550 OA
ATOM      5  O   UNL     1     156.199 174.049 161.101  1.00  0.00    -0.550 OA
ENDBRANCH   2   3
ENDBRANCH   1   2
BRANCH   1   6
ATOM      6  C   UNL     1     155.362 172.445 164.937  1.00  0.00     0.000 C 
BRANCH   6   7
ATOM      7  C   UNL     1     154.420 171.243 165.073  1.00  0.00    -0.003 C 
ATOM      8  C   UNL     1     154.327 170.466 163.763  1.00  0.00     0.004 C 
ENDBRANCH   6   7
ENDBRANCH   1   6
TORSDOF 4
ENDMDL
MODEL 8
REMARK VINA RESULT:    -2.849      1.919      2.387
REMARK INTER + INTRA:          -3.762
REMARK INTER:                  -3.523
REMARK INTRA:                  -0.239
REMARK UNBOUND:                -0.248
REMARK SMILES CCCCCC(=O)[O-]
REMARK SMILES IDX 4 1 5 2 6 3 7 4 8 5 3 6 2 7 1 8
REMARK H PARENT
REMARK Flexibility Score: inf
ROOT
ATOM      1  C   UNL     1     156.860 173.279 163.774  1.00  0.00     0.006 C 
ENDROOT
BRANCH   1   2
ATOM      2  C   UNL     1     155.730 172.282 163.499  1.00  0.00     0.053 C 
BRANCH   2   3
ATOM      3  C   UNL     1     154.503 172.999 163.029  1.00  0.00     0.041 C 
ATOM      4  O   UNL     1     153.425 172.893 163.670  1.00  0.00    -0.550 OA
ATOM      5  O   UNL     1     154.563 173.820 161.910  1.00  0.00    -0.550 OA
ENDBRANCH   2   3
ENDBRANCH   1   2
BRANCH   1   6
ATOM      6  C   UNL     1     158.020 173.080 162.791  1.00  0.00     0.000 C 
BRANCH   6   7
ATOM      7  C   UNL     1     158.083 174.227 161.775  1.00  0.00    -0.003 C 
ATOM      8  C   UNL     1     157.652 175.547 162.408  1.00  0.00     0.004 C 
ENDBRANCH   6   7
ENDBRANCH   1   6
TORSDOF 4
ENDMDL
MODEL 9
REMARK VINA RESULT:    -2.846      2.535      4.144
REMARK INTER + INTRA:          -3.759
REMARK INTER:                  -3.601
REMARK INTRA:                  -0.158
REMARK UNBOUND:                -0.248
REMARK SMILES CCCCCC(=O)[O-]
REMARK SMILES IDX 4 1 5 2 6 3 7 4 8 5 3 6 2 7 1 8
REMARK H PARENT
REMARK Flexibility Score: inf
ROOT
ATOM      1  C   UNL     1     155.507 172.055 163.644  1.00  0.00     0.006 C 
ENDROOT
BRANCH   1   2
ATOM      2  C   UNL     1     155.976 173.453 163.232  1.00  0.00     0.053 C 
BRANCH   2   3
ATOM      3  C   UNL     1     157.295 173.377 162.530  1.00  0.00     0.041 C 
ATOM      4  O   UNL     1     158.220 172.662 162.997  1.00  0.00    -0.550 OA
ATOM      5  O   UNL     1     157.486 174.057 161.334  1.00  0.00    -0.550 OA
ENDBRANCH   2   3
ENDBRANCH   1   2
BRANCH   1   6
ATOM      6  C   UNL     1     155.051 172.036 165.108  1.00  0.00     0.000 C 
BRANCH   6   7
ATOM      7  C   UNL     1     155.890 172.997 165.957  1.00  0.00    -0.003 C 
ATOM      8  C   UNL     1     156.182 172.404 167.333  1.00  0.00     0.004 C 
ENDBRANCH   6   7
ENDBRANCH   1   6
TORSDOF 4
ENDMDL
