MODEL 1
REMARK VINA RESULT:    -1.382      0.000      0.000
REMARK INTER + INTRA:          -3.619
REMARK INTER:                  -2.595
REMARK INTRA:                  -1.025
REMARK UNBOUND:                -1.025
REMARK SMILES CCCCCCCCC=CCCCCCCCC(=O)[O-]
REMARK SMILES IDX 10 1 9 2 11 3 12 4 13 5 14 6 15 7 16 8 17 9 18 10 19 11
REMARK SMILES IDX 20 12 8 13 7 14 6 15 5 16 4 17 3 18 2 19 1 20
REMARK H PARENT
REMARK Flexibility Score: inf
ROOT
ATOM      1  C   UNL     1      87.897  54.056  89.217  1.00  0.00    -0.031 C 
ATOM      2  C   UNL     1      86.661  53.812  88.759  1.00  0.00    -0.031 C 
ENDROOT
BRANCH   1   3
ATOM      3  C   UNL     1      88.822  52.941  89.631  1.00  0.00     0.027 C 
BRANCH   3   4
ATOM      4  C   UNL     1      88.927  51.859  88.546  1.00  0.00     0.004 C 
BRANCH   4   5
ATOM      5  C   UNL     1      89.984  50.772  88.831  1.00  0.00     0.000 C 
BRANCH   5   6
ATOM      6  C   UNL     1      89.459  49.535  89.582  1.00  0.00     0.000 C 
BRANCH   6   7
ATOM      7  C   UNL     1      90.026  49.344  91.002  1.00  0.00     0.000 C 
BRANCH   7   8
ATOM      8  C   UNL     1      90.124  50.654  91.812  1.00  0.00     0.006 C 
BRANCH   8   9
ATOM      9  C   UNL     1      89.141  50.692  92.989  1.00  0.00     0.053 C 
BRANCH   9  10
ATOM     10  C   UNL     1      89.666  51.569  94.081  1.00  0.00     0.041 C 
ATOM     11  O   UNL     1      89.781  51.122  95.252  1.00  0.00    -0.550 OA
ATOM     12  O   UNL     1      89.983  52.896  93.817  1.00  0.00    -0.550 OA
ENDBRANCH   9  10
ENDBRANCH   8   9
ENDBRANCH   7   8
ENDBRANCH   6   7
ENDBRANCH   5   6
ENDBRANCH   4   5
ENDBRANCH   3   4
ENDBRANCH   1   3
BRANCH   2  13
ATOM     13  C   UNL     1      85.736  54.924  88.344  1.00  0.00     0.027 C 
BRANCH  13  14
ATOM     14  C   UNL     1      86.206  56.281  88.888  1.00  0.00     0.004 C 
BRANCH  14  15
ATOM     15  C   UNL     1      85.067  57.189  89.396  1.00  0.00     0.000 C 
BRANCH  15  16
ATOM     16  C   UNL     1      84.158  57.776  88.297  1.00  0.00     0.000 C 
BRANCH  16  17
ATOM     17  C   UNL     1      84.591  59.149  87.751  1.00  0.00    -0.000 C 
BRANCH  17  18
ATOM     18  C   UNL     1      85.550  59.892  88.697  1.00  0.00    -0.000 C 
BRANCH  18  19
ATOM     19  C   UNL     1      84.886  61.098  89.379  1.00  0.00    -0.003 C 
ATOM     20  C   UNL     1      84.085  60.710  90.621  1.00  0.00     0.004 C 
ENDBRANCH  18  19
ENDBRANCH  17  18
ENDBRANCH  16  17
ENDBRANCH  15  16
ENDBRANCH  14  15
ENDBRANCH  13  14
ENDBRANCH   2  13
TORSDOF 15
ENDMDL
MODEL 2
REMARK VINA RESULT:    -1.350      0.965      2.108
REMARK INTER + INTRA:          -3.559
REMARK INTER:                  -2.980
REMARK INTRA:                  -0.578
REMARK UNBOUND:                -1.025
REMARK SMILES CCCCCCCCC=CCCCCCCCC(=O)[O-]
REMARK SMILES IDX 10 1 9 2 11 3 12 4 13 5 14 6 15 7 16 8 17 9 18 10 19 11
REMARK SMILES IDX 20 12 8 13 7 14 6 15 5 16 4 17 3 18 2 19 1 20
REMARK H PARENT
REMARK Flexibility Score: inf
ROOT
ATOM      1  C   UNL     1      86.056  55.361  88.542  1.00  0.00    -0.031 C 
ATOM      2  C   UNL     1      86.206  56.138  89.625  1.00  0.00    -0.031 C 
ENDROOT
BRANCH   1   3
ATOM      3  C   UNL     1      86.576  53.948  88.504  1.00  0.00     0.027 C 
BRANCH   3   4
ATOM      4  C   UNL     1      87.904  53.812  89.264  1.00  0.00     0.004 C 
BRANCH   4   5
ATOM      5  C   UNL     1      88.670  52.503  88.979  1.00  0.00     0.000 C 
BRANCH   5   6
ATOM      6  C   UNL     1      89.815  52.193  89.960  1.00  0.00     0.000 C 
BRANCH   6   7
ATOM      7  C   UNL     1      89.779  50.783  90.580  1.00  0.00     0.000 C 
BRANCH   7   8
ATOM      8  C   UNL     1      90.072  50.762  92.095  1.00  0.00     0.006 C 
BRANCH   8   9
ATOM      9  C   UNL     1      89.553  52.015  92.811  1.00  0.00     0.053 C 
BRANCH   9  10
ATOM     10  C   UNL     1      89.249  51.711  94.244  1.00  0.00     0.041 C 
ATOM     11  O   UNL     1      89.904  52.268  95.163  1.00  0.00    -0.550 OA
ATOM     12  O   UNL     1      88.274  50.774  94.564  1.00  0.00    -0.550 OA
ENDBRANCH   9  10
ENDBRANCH   8   9
ENDBRANCH   7   8
ENDBRANCH   6   7
ENDBRANCH   5   6
ENDBRANCH   4   5
ENDBRANCH   3   4
ENDBRANCH   1   3
BRANCH   2  13
ATOM     13  C   UNL     1      85.687  57.550  89.665  1.00  0.00     0.027 C 
BRANCH  13  14
ATOM     14  C   UNL     1      84.245  57.636  89.144  1.00  0.00     0.004 C 
BRANCH  14  15
ATOM     15  C   UNL     1      84.054  58.615  87.967  1.00  0.00     0.000 C 
BRANCH  15  16
ATOM     16  C   UNL     1      85.235  59.574  87.715  1.00  0.00     0.000 C 
BRANCH  16  17
ATOM     17  C   UNL     1      85.598  60.492  88.896  1.00  0.00    -0.000 C 
BRANCH  17  18
ATOM     18  C   UNL     1      84.385  61.252  89.457  1.00  0.00    -0.000 C 
BRANCH  18  19
ATOM     19  C   UNL     1      83.980  60.764  90.857  1.00  0.00    -0.003 C 
ATOM     20  C   UNL     1      83.385  61.874  91.723  1.00  0.00     0.004 C 
ENDBRANCH  18  19
ENDBRANCH  17  18
ENDBRANCH  16  17
ENDBRANCH  15  16
ENDBRANCH  14  15
ENDBRANCH  13  14
ENDBRANCH   2  13
TORSDOF 15
ENDMDL
MODEL 3
REMARK VINA RESULT:    -1.248      3.693      9.088
REMARK INTER + INTRA:          -3.366
REMARK INTER:                  -3.780
REMARK INTRA:                   0.414
REMARK UNBOUND:                -1.025
REMARK SMILES CCCCCCCCC=CCCCCCCCC(=O)[O-]
REMARK SMILES IDX 10 1 9 2 11 3 12 4 13 5 14 6 15 7 16 8 17 9 18 10 19 11
REMARK SMILES IDX 20 12 8 13 7 14 6 15 5 16 4 17 3 18 2 19 1 20
REMARK H PARENT
REMARK Flexibility Score: inf
ROOT
ATOM      1  C   UNL     1      88.340  52.773  88.584  1.00  0.00    -0.031 C 
ATOM      2  C   UNL     1      89.378  52.137  89.145  1.00  0.00    -0.031 C 
ENDROOT
BRANCH   1   3
ATOM      3  C   UNL     1      87.752  54.020  89.193  1.00  0.00     0.027 C 
BRANCH   3   4
ATOM      4  C   UNL     1      86.384  54.357  88.583  1.00  0.00     0.004 C 
BRANCH   4   5
ATOM      5  C   UNL     1      86.121  55.867  88.405  1.00  0.00     0.000 C 
BRANCH   5   6
ATOM      6  C   UNL     1      85.686  56.607  89.683  1.00  0.00     0.000 C 
BRANCH   6   7
ATOM      7  C   UNL     1      84.643  57.721  89.469  1.00  0.00     0.000 C 
BRANCH   7   8
ATOM      8  C   UNL     1      84.750  58.876  90.488  1.00  0.00     0.006 C 
BRANCH   8   9
ATOM      9  C   UNL     1      84.584  60.254  89.834  1.00  0.00     0.053 C 
BRANCH   9  10
ATOM     10  C   UNL     1      85.327  60.311  88.537  1.00  0.00     0.041 C 
ATOM     11  O   UNL     1      86.235  61.166  88.364  1.00  0.00    -0.550 OA
ATOM     12  O   UNL     1      84.984  59.451  87.501  1.00  0.00    -0.550 OA
ENDBRANCH   9  10
ENDBRANCH   8   9
ENDBRANCH   7   8
ENDBRANCH   6   7
ENDBRANCH   5   6
ENDBRANCH   4   5
ENDBRANCH   3   4
ENDBRANCH   1   3
BRANCH   2  13
ATOM     13  C   UNL     1      89.966  50.892  88.537  1.00  0.00     0.027 C 
BRANCH  13  14
ATOM     14  C   UNL     1      89.341  49.623  89.136  1.00  0.00     0.004 C 
BRANCH  14  15
ATOM     15  C   UNL     1      89.941  49.202  90.494  1.00  0.00     0.000 C 
BRANCH  15  16
ATOM     16  C   UNL     1      90.124  50.346  91.511  1.00  0.00     0.000 C 
BRANCH  16  17
ATOM     17  C   UNL     1      89.298  50.214  92.803  1.00  0.00    -0.000 C 
BRANCH  17  18
ATOM     18  C   UNL     1      90.061  50.688  94.052  1.00  0.00    -0.000 C 
BRANCH  18  19
ATOM     19  C   UNL     1      89.154  51.422  95.052  1.00  0.00    -0.003 C 
ATOM     20  C   UNL     1      87.669  51.279  94.723  1.00  0.00     0.004 C 
ENDBRANCH  18  19
ENDBRANCH  17  18
ENDBRANCH  16  17
ENDBRANCH  15  16
ENDBRANCH  14  15
ENDBRANCH  13  14
ENDBRANCH   2  13
TORSDOF 15
ENDMDL
MODEL 4
REMARK VINA RESULT:    -1.239      3.639      8.929
REMARK INTER + INTRA:          -3.350
REMARK INTER:                  -2.599
REMARK INTRA:                  -0.751
REMARK UNBOUND:                -1.025
REMARK SMILES CCCCCCCCC=CCCCCCCCC(=O)[O-]
REMARK SMILES IDX 10 1 9 2 11 3 12 4 13 5 14 6 15 7 16 8 17 9 18 10 19 11
REMARK SMILES IDX 20 12 8 13 7 14 6 15 5 16 4 17 3 18 2 19 1 20
REMARK H PARENT
REMARK Flexibility Score: inf
ROOT
ATOM      1  C   UNL     1      88.285  52.251  88.506  1.00  0.00    -0.031 C 
ATOM      2  C   UNL     1      89.441  51.747  88.963  1.00  0.00    -0.031 C 
ENDROOT
BRANCH   1   3
ATOM      3  C   UNL     1      87.910  53.694  88.723  1.00  0.00     0.027 C 
BRANCH   3   4
ATOM      4  C   UNL     1      86.404  53.924  88.525  1.00  0.00     0.004 C 
BRANCH   4   5
ATOM      5  C   UNL     1      85.998  55.407  88.402  1.00  0.00     0.000 C 
BRANCH   5   6
ATOM      6  C   UNL     1      86.043  56.205  89.718  1.00  0.00     0.000 C 
BRANCH   6   7
ATOM      7  C   UNL     1      85.730  57.707  89.581  1.00  0.00     0.000 C 
BRANCH   7   8
ATOM      8  C   UNL     1      84.417  58.002  88.825  1.00  0.00     0.006 C 
BRANCH   8   9
ATOM      9  C   UNL     1      84.394  59.408  88.213  1.00  0.00     0.053 C 
BRANCH   9  10
ATOM     10  C   UNL     1      84.877  60.419  89.204  1.00  0.00     0.041 C 
ATOM     11  O   UNL     1      84.222  60.637  90.257  1.00  0.00    -0.550 OA
ATOM     12  O   UNL     1      86.026  61.155  88.943  1.00  0.00    -0.550 OA
ENDBRANCH   9  10
ENDBRANCH   8   9
ENDBRANCH   7   8
ENDBRANCH   6   7
ENDBRANCH   5   6
ENDBRANCH   4   5
ENDBRANCH   3   4
ENDBRANCH   1   3
BRANCH   2  13
ATOM     13  C   UNL     1      89.817  50.306  88.747  1.00  0.00     0.027 C 
BRANCH  13  14
ATOM     14  C   UNL     1      89.426  49.434  89.950  1.00  0.00     0.004 C 
BRANCH  14  15
ATOM     15  C   UNL     1      90.114  49.834  91.271  1.00  0.00     0.000 C 
BRANCH  15  16
ATOM     16  C   UNL     1      89.158  50.231  92.414  1.00  0.00     0.000 C 
BRANCH  16  17
ATOM     17  C   UNL     1      89.842  50.729  93.700  1.00  0.00    -0.000 C 
BRANCH  17  18
ATOM     18  C   UNL     1      90.125  52.241  93.678  1.00  0.00    -0.000 C 
BRANCH  18  19
ATOM     19  C   UNL     1      89.920  52.898  95.052  1.00  0.00    -0.003 C 
ATOM     20  C   UNL     1      90.050  51.908  96.209  1.00  0.00     0.004 C 
ENDBRANCH  18  19
ENDBRANCH  17  18
ENDBRANCH  16  17
ENDBRANCH  15  16
ENDBRANCH  14  15
ENDBRANCH  13  14
ENDBRANCH   2  13
TORSDOF 15
ENDMDL
MODEL 5
REMARK VINA RESULT:    -0.811      3.798      8.993
REMARK INTER + INTRA:          -2.547
REMARK INTER:                  -3.667
REMARK INTRA:                   1.120
REMARK UNBOUND:                -1.025
REMARK SMILES CCCCCCCCC=CCCCCCCCC(=O)[O-]
REMARK SMILES IDX 10 1 9 2 11 3 12 4 13 5 14 6 15 7 16 8 17 9 18 10 19 11
REMARK SMILES IDX 20 12 8 13 7 14 6 15 5 16 4 17 3 18 2 19 1 20
REMARK H PARENT
REMARK Flexibility Score: inf
ROOT
ATOM      1  C   UNL     1      87.706  53.183  88.881  1.00  0.00    -0.031 C 
ATOM      2  C   UNL     1      88.985  52.810  89.034  1.00  0.00    -0.031 C 
ENDROOT
BRANCH   1   3
ATOM      3  C   UNL     1      87.308  54.634  88.803  1.00  0.00     0.027 C 
BRANCH   3   4
ATOM      4  C   UNL     1      85.820  54.796  88.460  1.00  0.00     0.004 C 
BRANCH   4   5
ATOM      5  C   UNL     1      85.255  56.206  88.726  1.00  0.00     0.000 C 
BRANCH   5   6
ATOM      6  C   UNL     1      86.027  57.031  89.771  1.00  0.00     0.000 C 
BRANCH   6   7
ATOM      7  C   UNL     1      85.218  58.157  90.442  1.00  0.00     0.000 C 
BRANCH   7   8
ATOM      8  C   UNL     1      84.750  59.254  89.461  1.00  0.00     0.006 C 
BRANCH   8   9
ATOM      9  C   UNL     1      85.006  58.880  87.996  1.00  0.00     0.053 C 
BRANCH   9  10
ATOM     10  C   UNL     1      83.713  58.635  87.285  1.00  0.00     0.041 C 
ATOM     11  O   UNL     1      83.455  59.239  86.211  1.00  0.00    -0.550 OA
ATOM     12  O   UNL     1      82.770  57.774  87.834  1.00  0.00    -0.550 OA
ENDBRANCH   9  10
ENDBRANCH   8   9
ENDBRANCH   7   8
ENDBRANCH   6   7
ENDBRANCH   5   6
ENDBRANCH   4   5
ENDBRANCH   3   4
ENDBRANCH   1   3
BRANCH   2  13
ATOM     13  C   UNL     1      89.384  51.361  89.113  1.00  0.00     0.027 C 
BRANCH  13  14
ATOM     14  C   UNL     1      89.732  50.949  90.551  1.00  0.00     0.004 C 
BRANCH  14  15
ATOM     15  C   UNL     1      90.125  52.125  91.469  1.00  0.00     0.000 C 
BRANCH  15  16
ATOM     16  C   UNL     1      90.004  51.844  92.980  1.00  0.00     0.000 C 
BRANCH  16  17
ATOM     17  C   UNL     1      89.431  53.001  93.819  1.00  0.00    -0.000 C 
BRANCH  17  18
ATOM     18  C   UNL     1      89.628  52.798  95.331  1.00  0.00    -0.000 C 
BRANCH  18  19
ATOM     19  C   UNL     1      89.297  51.366  95.780  1.00  0.00    -0.003 C 
ATOM     20  C   UNL     1      88.213  50.711  94.926  1.00  0.00     0.004 C 
ENDBRANCH  18  19
ENDBRANCH  17  18
ENDBRANCH  16  17
ENDBRANCH  15  16
ENDBRANCH  14  15
ENDBRANCH  13  14
ENDBRANCH   2  13
TORSDOF 15
ENDMDL
MODEL 6
REMARK VINA RESULT:    -0.665      1.110      1.769
REMARK INTER + INTRA:          -2.272
REMARK INTER:                  -1.180
REMARK INTRA:                  -1.093
REMARK UNBOUND:                -1.025
REMARK SMILES CCCCCCCCC=CCCCCCCCC(=O)[O-]
REMARK SMILES IDX 10 1 9 2 11 3 12 4 13 5 14 6 15 7 16 8 17 9 18 10 19 11
REMARK SMILES IDX 20 12 8 13 7 14 6 15 5 16 4 17 3 18 2 19 1 20
REMARK H PARENT
REMARK Flexibility Score: inf
ROOT
ATOM      1  C   UNL     1      86.867  54.702  88.944  1.00  0.00    -0.031 C 
ATOM      2  C   UNL     1      85.896  55.363  88.297  1.00  0.00    -0.031 C 
ENDROOT
BRANCH   1   3
ATOM      3  C   UNL     1      87.308  53.326  88.516  1.00  0.00     0.027 C 
BRANCH   3   4
ATOM      4  C   UNL     1      88.675  52.959  89.112  1.00  0.00     0.004 C 
BRANCH   4   5
ATOM      5  C   UNL     1      89.029  51.460  89.017  1.00  0.00     0.000 C 
BRANCH   5   6
ATOM      6  C   UNL     1      90.111  50.983  90.003  1.00  0.00     0.000 C 
BRANCH   6   7
ATOM      7  C   UNL     1      89.762  49.702  90.784  1.00  0.00     0.000 C 
BRANCH   7   8
ATOM      8  C   UNL     1      89.949  49.834  92.310  1.00  0.00     0.006 C 
BRANCH   8   9
ATOM      9  C   UNL     1      90.086  51.293  92.761  1.00  0.00     0.053 C 
BRANCH   9  10
ATOM     10  C   UNL     1      89.357  51.514  94.048  1.00  0.00     0.041 C 
ATOM     11  O   UNL     1      89.899  51.216  95.144  1.00  0.00    -0.550 OA
ATOM     12  O   UNL     1      88.057  52.006  94.035  1.00  0.00    -0.550 OA
ENDBRANCH   9  10
ENDBRANCH   8   9
ENDBRANCH   7   8
ENDBRANCH   6   7
ENDBRANCH   5   6
ENDBRANCH   4   5
ENDBRANCH   3   4
ENDBRANCH   1   3
BRANCH   2  13
ATOM     13  C   UNL     1      85.454  56.737  88.722  1.00  0.00     0.027 C 
BRANCH  13  14
ATOM     14  C   UNL     1      86.222  57.217  89.963  1.00  0.00     0.004 C 
BRANCH  14  15
ATOM     15  C   UNL     1      85.422  58.176  90.870  1.00  0.00     0.000 C 
BRANCH  15  16
ATOM     16  C   UNL     1      84.203  58.844  90.203  1.00  0.00     0.000 C 
BRANCH  16  17
ATOM     17  C   UNL     1      83.887  60.269  90.691  1.00  0.00    -0.000 C 
BRANCH  17  18
ATOM     18  C   UNL     1      84.732  61.343  89.985  1.00  0.00    -0.000 C 
BRANCH  18  19
ATOM     19  C   UNL     1      84.985  61.014  88.506  1.00  0.00    -0.003 C 
ATOM     20  C   UNL     1      86.460  61.116  88.119  1.00  0.00     0.004 C 
ENDBRANCH  18  19
ENDBRANCH  17  18
ENDBRANCH  16  17
ENDBRANCH  15  16
ENDBRANCH  14  15
ENDBRANCH  13  14
ENDBRANCH   2  13
TORSDOF 15
ENDMDL
MODEL 7
REMARK VINA RESULT:    -0.630      1.161      2.213
REMARK INTER + INTRA:          -2.208
REMARK INTER:                  -1.873
REMARK INTRA:                  -0.335
REMARK UNBOUND:                -1.025
REMARK SMILES CCCCCCCCC=CCCCCCCCC(=O)[O-]
REMARK SMILES IDX 10 1 9 2 11 3 12 4 13 5 14 6 15 7 16 8 17 9 18 10 19 11
REMARK SMILES IDX 20 12 8 13 7 14 6 15 5 16 4 17 3 18 2 19 1 20
REMARK H PARENT
REMARK Flexibility Score: inf
ROOT
ATOM      1  C   UNL     1      89.324  51.939  88.753  1.00  0.00    -0.031 C 
ATOM      2  C   UNL     1      88.142  52.526  88.519  1.00  0.00    -0.031 C 
ENDROOT
BRANCH   1   3
ATOM      3  C   UNL     1      89.745  50.689  88.026  1.00  0.00     0.027 C 
BRANCH   3   4
ATOM      4  C   UNL     1      88.757  49.537  88.262  1.00  0.00     0.004 C 
BRANCH   4   5
ATOM      5  C   UNL     1      89.304  48.401  89.152  1.00  0.00     0.000 C 
BRANCH   5   6
ATOM      6  C   UNL     1      90.125  48.866  90.369  1.00  0.00     0.000 C 
BRANCH   6   7
ATOM      7  C   UNL     1      89.474  49.983  91.207  1.00  0.00     0.000 C 
BRANCH   7   8
ATOM      8  C   UNL     1      89.970  50.032  92.668  1.00  0.00     0.006 C 
BRANCH   8   9
ATOM      9  C   UNL     1      90.096  51.465  93.198  1.00  0.00     0.053 C 
BRANCH   9  10
ATOM     10  C   UNL     1      88.902  51.825  94.023  1.00  0.00     0.041 C 
ATOM     11  O   UNL     1      88.239  52.862  93.760  1.00  0.00    -0.550 OA
ATOM     12  O   UNL     1      88.548  51.041  95.115  1.00  0.00    -0.550 OA
ENDBRANCH   9  10
ENDBRANCH   8   9
ENDBRANCH   7   8
ENDBRANCH   6   7
ENDBRANCH   5   6
ENDBRANCH   4   5
ENDBRANCH   3   4
ENDBRANCH   1   3
BRANCH   2  13
ATOM     13  C   UNL     1      87.720  53.776  89.245  1.00  0.00     0.027 C 
BRANCH  13  14
ATOM     14  C   UNL     1      86.410  54.343  88.678  1.00  0.00     0.004 C 
BRANCH  14  15
ATOM     15  C   UNL     1      86.363  55.883  88.613  1.00  0.00     0.000 C 
BRANCH  15  16
ATOM     16  C   UNL     1      85.452  56.555  89.661  1.00  0.00     0.000 C 
BRANCH  16  17
ATOM     17  C   UNL     1      85.935  57.926  90.168  1.00  0.00    -0.000 C 
BRANCH  17  18
ATOM     18  C   UNL     1      84.790  58.937  90.341  1.00  0.00    -0.000 C 
BRANCH  18  19
ATOM     19  C   UNL     1      84.048  59.217  89.024  1.00  0.00    -0.003 C 
ATOM     20  C   UNL     1      84.996  59.458  87.849  1.00  0.00     0.004 C 
ENDBRANCH  18  19
ENDBRANCH  17  18
ENDBRANCH  16  17
ENDBRANCH  15  16
ENDBRANCH  14  15
ENDBRANCH  13  14
ENDBRANCH   2  13
TORSDOF 15
ENDMDL
MODEL 8
REMARK VINA RESULT:    -0.535      3.667      9.265
REMARK INTER + INTRA:          -2.029
REMARK INTER:                  -1.293
REMARK INTRA:                  -0.736
REMARK UNBOUND:                -1.025
REMARK SMILES CCCCCCCCC=CCCCCCCCC(=O)[O-]
REMARK SMILES IDX 10 1 9 2 11 3 12 4 13 5 14 6 15 7 16 8 17 9 18 10 19 11
REMARK SMILES IDX 20 12 8 13 7 14 6 15 5 16 4 17 3 18 2 19 1 20
REMARK H PARENT
REMARK Flexibility Score: inf
ROOT
ATOM      1  C   UNL     1      86.064  54.262  88.302  1.00  0.00    -0.031 C 
ATOM      2  C   UNL     1      87.274  54.008  88.821  1.00  0.00    -0.031 C 
ENDROOT
BRANCH   1   3
ATOM      3  C   UNL     1      85.378  55.588  88.505  1.00  0.00     0.027 C 
BRANCH   3   4
ATOM      4  C   UNL     1      86.277  56.581  89.257  1.00  0.00     0.004 C 
BRANCH   4   5
ATOM      5  C   UNL     1      85.614  57.235  90.487  1.00  0.00     0.000 C 
BRANCH   5   6
ATOM      6  C   UNL     1      85.797  58.761  90.591  1.00  0.00     0.000 C 
BRANCH   6   7
ATOM      7  C   UNL     1      84.562  59.594  90.199  1.00  0.00     0.000 C 
BRANCH   7   8
ATOM      8  C   UNL     1      84.744  60.399  88.895  1.00  0.00     0.006 C 
BRANCH   8   9
ATOM      9  C   UNL     1      85.076  59.506  87.694  1.00  0.00     0.053 C 
BRANCH   9  10
ATOM     10  C   UNL     1      83.843  58.830  87.186  1.00  0.00     0.041 C 
ATOM     11  O   UNL     1      83.365  59.142  86.064  1.00  0.00    -0.550 OA
ATOM     12  O   UNL     1      83.191  57.888  87.974  1.00  0.00    -0.550 OA
ENDBRANCH   9  10
ENDBRANCH   8   9
ENDBRANCH   7   8
ENDBRANCH   6   7
ENDBRANCH   5   6
ENDBRANCH   4   5
ENDBRANCH   3   4
ENDBRANCH   1   3
BRANCH   2  13
ATOM     13  C   UNL     1      87.960  52.684  88.618  1.00  0.00     0.027 C 
BRANCH  13  14
ATOM     14  C   UNL     1      89.257  52.590  89.436  1.00  0.00     0.004 C 
BRANCH  14  15
ATOM     15  C   UNL     1      89.898  51.187  89.446  1.00  0.00     0.000 C 
BRANCH  15  16
ATOM     16  C   UNL     1      90.125  50.581  90.846  1.00  0.00     0.000 C 
BRANCH  16  17
ATOM     17  C   UNL     1      89.971  51.565  92.020  1.00  0.00    -0.000 C 
BRANCH  17  18
ATOM     18  C   UNL     1      89.934  50.862  93.387  1.00  0.00    -0.000 C 
BRANCH  18  19
ATOM     19  C   UNL     1      89.285  51.729  94.478  1.00  0.00    -0.003 C 
ATOM     20  C   UNL     1      88.181  50.996  95.239  1.00  0.00     0.004 C 
ENDBRANCH  18  19
ENDBRANCH  17  18
ENDBRANCH  16  17
ENDBRANCH  15  16
ENDBRANCH  14  15
ENDBRANCH  13  14
ENDBRANCH   2  13
TORSDOF 15
ENDMDL
MODEL 9
REMARK VINA RESULT:    -0.225      3.304      9.002
REMARK INTER + INTRA:          -1.446
REMARK INTER:                  -0.893
REMARK INTRA:                  -0.553
REMARK UNBOUND:                -1.025
REMARK SMILES CCCCCCCCC=CCCCCCCCC(=O)[O-]
REMARK SMILES IDX 10 1 9 2 11 3 12 4 13 5 14 6 15 7 16 8 17 9 18 10 19 11
REMARK SMILES IDX 20 12 8 13 7 14 6 15 5 16 4 17 3 18 2 19 1 20
REMARK H PARENT
REMARK Flexibility Score: inf
ROOT
ATOM      1  C   UNL     1      86.777  54.436  88.593  1.00  0.00    -0.031 C 
ATOM      2  C   UNL     1      87.952  53.895  88.950  1.00  0.00    -0.031 C 
ENDROOT
BRANCH   1   3
ATOM      3  C   UNL     1      86.572  55.928  88.557  1.00  0.00     0.027 C 
BRANCH   3   4
ATOM      4  C   UNL     1      85.262  56.337  89.247  1.00  0.00     0.004 C 
BRANCH   4   5
ATOM      5  C   UNL     1      84.103  56.649  88.279  1.00  0.00     0.000 C 
BRANCH   5   6
ATOM      6  C   UNL     1      83.529  58.073  88.389  1.00  0.00     0.000 C 
BRANCH   6   7
ATOM      7  C   UNL     1      84.284  59.146  87.581  1.00  0.00     0.000 C 
BRANCH   7   8
ATOM      8  C   UNL     1      85.512  59.725  88.314  1.00  0.00     0.006 C 
BRANCH   8   9
ATOM      9  C   UNL     1      85.164  60.950  89.169  1.00  0.00     0.053 C 
BRANCH   9  10
ATOM     10  C   UNL     1      84.454  60.533  90.417  1.00  0.00     0.041 C 
ATOM     11  O   UNL     1      84.680  59.404  90.928  1.00  0.00    -0.550 OA
ATOM     12  O   UNL     1      83.505  61.370  90.991  1.00  0.00    -0.550 OA
ENDBRANCH   9  10
ENDBRANCH   8   9
ENDBRANCH   7   8
ENDBRANCH   6   7
ENDBRANCH   5   6
ENDBRANCH   4   5
ENDBRANCH   3   4
ENDBRANCH   1   3
BRANCH   2  13
ATOM     13  C   UNL     1      88.158  52.404  88.986  1.00  0.00     0.027 C 
BRANCH  13  14
ATOM     14  C   UNL     1      89.598  52.044  89.382  1.00  0.00     0.004 C 
BRANCH  14  15
ATOM     15  C   UNL     1      89.720  50.755  90.220  1.00  0.00     0.000 C 
BRANCH  15  16
ATOM     16  C   UNL     1      90.077  50.970  91.705  1.00  0.00     0.000 C 
BRANCH  16  17
ATOM     17  C   UNL     1      90.123  52.440  92.162  1.00  0.00    -0.000 C 
BRANCH  17  18
ATOM     18  C   UNL     1      89.759  52.615  93.646  1.00  0.00    -0.000 C 
BRANCH  18  19
ATOM     19  C   UNL     1      88.425  51.944  94.009  1.00  0.00    -0.003 C 
ATOM     20  C   UNL     1      88.520  51.072  95.260  1.00  0.00     0.004 C 
ENDBRANCH  18  19
ENDBRANCH  17  18
ENDBRANCH  16  17
ENDBRANCH  15  16
ENDBRANCH  14  15
ENDBRANCH  13  14
ENDBRANCH   2  13
TORSDOF 15
ENDMDL
