MODEL 1
REMARK VINA RESULT:    -4.985      0.000      0.000
REMARK INTER + INTRA:         -15.011
REMARK INTER:                 -11.397
REMARK INTRA:                  -3.614
REMARK UNBOUND:                -3.614
REMARK SMILES CCCCCCCCCCCCCCCCCCCCCCCC(=O)[O-]
REMARK SMILES IDX 13 1 14 2 15 3 16 4 17 5 18 6 19 7 20 8 21 9 22 10 23 11
REMARK SMILES IDX 24 12 25 13 26 14 12 15 11 16 10 17 9 18 8 19 7 20 6 21 5 22
REMARK SMILES IDX 4 23 3 24 2 25 1 26
REMARK H PARENT
REMARK Flexibility Score: inf
ROOT
ATOM      1  C   UNL     1     -10.275 -36.352  45.114  1.00  0.00     0.000 C 
ENDROOT
BRANCH   1   2
ATOM      2  C   UNL     1     -10.630 -35.020  44.429  1.00  0.00     0.000 C 
BRANCH   2   3
ATOM      3  C   UNL     1      -9.753 -34.738  43.190  1.00  0.00     0.000 C 
BRANCH   3   4
ATOM      4  C   UNL     1     -10.243 -33.553  42.334  1.00  0.00     0.000 C 
BRANCH   4   5
ATOM      5  C   UNL     1      -9.520 -33.377  40.986  1.00  0.00     0.000 C 
BRANCH   5   6
ATOM      6  C   UNL     1      -8.039 -32.947  41.084  1.00  0.00     0.000 C 
BRANCH   6   7
ATOM      7  C   UNL     1      -7.747 -31.824  42.095  1.00  0.00     0.000 C 
BRANCH   7   8
ATOM      8  C   UNL     1      -6.962 -32.314  43.323  1.00  0.00     0.000 C 
BRANCH   8   9
ATOM      9  C   UNL     1      -6.870 -31.250  44.428  1.00  0.00     0.000 C 
BRANCH   9  10
ATOM     10  C   UNL     1      -7.185 -31.810  45.824  1.00  0.00     0.006 C 
BRANCH  10  11
ATOM     11  C   UNL     1      -8.605 -32.382  45.876  1.00  0.00     0.053 C 
BRANCH  11  12
ATOM     12  C   UNL     1      -8.907 -32.917  47.240  1.00  0.00     0.041 C 
ATOM     13  O   UNL     1      -8.741 -34.139  47.492  1.00  0.00    -0.550 OA
ATOM     14  O   UNL     1      -9.323 -32.056  48.249  1.00  0.00    -0.550 OA
ENDBRANCH  11  12
ENDBRANCH  10  11
ENDBRANCH   9  10
ENDBRANCH   8   9
ENDBRANCH   7   8
ENDBRANCH   6   7
ENDBRANCH   5   6
ENDBRANCH   4   5
ENDBRANCH   3   4
ENDBRANCH   2   3
ENDBRANCH   1   2
BRANCH   1  15
ATOM     15  C   UNL     1     -10.667 -37.572  44.264  1.00  0.00     0.000 C 
BRANCH  15  16
ATOM     16  C   UNL     1      -9.675 -38.736  44.415  1.00  0.00     0.000 C 
BRANCH  16  17
ATOM     17  C   UNL     1      -8.695 -38.478  45.569  1.00  0.00     0.000 C 
BRANCH  17  18
ATOM     18  C   UNL     1      -8.656 -39.633  46.583  1.00  0.00    -0.000 C 
BRANCH  18  19
ATOM     19  C   UNL     1      -8.774 -39.149  48.039  1.00  0.00    -0.000 C 
BRANCH  19  20
ATOM     20  C   UNL     1      -9.943 -38.174  48.247  1.00  0.00    -0.000 C 
BRANCH  20  21
ATOM     21  C   UNL     1     -11.285 -38.898  48.447  1.00  0.00    -0.000 C 
BRANCH  21  22
ATOM     22  C   UNL     1     -12.374 -38.400  47.481  1.00  0.00    -0.000 C 
BRANCH  22  23
ATOM     23  C   UNL     1     -12.835 -39.487  46.493  1.00  0.00    -0.000 C 
BRANCH  23  24
ATOM     24  C   UNL     1     -12.165 -40.849  46.747  1.00  0.00    -0.000 C 
BRANCH  24  25
ATOM     25  C   UNL     1     -11.716 -41.594  45.476  1.00  0.00    -0.003 C 
ATOM     26  C   UNL     1     -12.497 -41.174  44.230  1.00  0.00     0.004 C 
ENDBRANCH  24  25
ENDBRANCH  23  24
ENDBRANCH  22  23
ENDBRANCH  21  22
ENDBRANCH  20  21
ENDBRANCH  19  20
ENDBRANCH  18  19
ENDBRANCH  17  18
ENDBRANCH  16  17
ENDBRANCH  15  16
ENDBRANCH   1  15
TORSDOF 22
ENDMDL
MODEL 2
REMARK VINA RESULT:    -4.949      1.753      2.859
REMARK INTER + INTRA:         -14.928
REMARK INTER:                 -11.708
REMARK INTRA:                  -3.220
REMARK UNBOUND:                -3.614
REMARK SMILES CCCCCCCCCCCCCCCCCCCCCCCC(=O)[O-]
REMARK SMILES IDX 13 1 14 2 15 3 16 4 17 5 18 6 19 7 20 8 21 9 22 10 23 11
REMARK SMILES IDX 24 12 25 13 26 14 12 15 11 16 10 17 9 18 8 19 7 20 6 21 5 22
REMARK SMILES IDX 4 23 3 24 2 25 1 26
REMARK H PARENT
REMARK Flexibility Score: inf
ROOT
ATOM      1  C   UNL     1      -9.743 -37.351  45.737  1.00  0.00     0.000 C 
ENDROOT
BRANCH   1   2
ATOM      2  C   UNL     1     -10.361 -36.658  44.508  1.00  0.00     0.000 C 
BRANCH   2   3
ATOM      3  C   UNL     1      -9.588 -35.388  44.092  1.00  0.00     0.000 C 
BRANCH   3   4
ATOM      4  C   UNL     1     -10.410 -34.089  44.211  1.00  0.00     0.000 C 
BRANCH   4   5
ATOM      5  C   UNL     1     -10.718 -33.385  42.877  1.00  0.00     0.000 C 
BRANCH   5   6
ATOM      6  C   UNL     1      -9.969 -33.946  41.648  1.00  0.00     0.000 C 
BRANCH   6   7
ATOM      7  C   UNL     1      -9.278 -32.893  40.763  1.00  0.00     0.000 C 
BRANCH   7   8
ATOM      8  C   UNL     1      -7.759 -32.822  40.993  1.00  0.00     0.000 C 
BRANCH   8   9
ATOM      9  C   UNL     1      -7.374 -33.049  42.464  1.00  0.00     0.000 C 
BRANCH   9  10
ATOM     10  C   UNL     1      -7.266 -31.741  43.262  1.00  0.00     0.006 C 
BRANCH  10  11
ATOM     11  C   UNL     1      -7.198 -32.021  44.766  1.00  0.00     0.053 C 
BRANCH  11  12
ATOM     12  C   UNL     1      -5.995 -31.369  45.370  1.00  0.00     0.041 C 
ATOM     13  O   UNL     1      -5.493 -30.346  44.834  1.00  0.00    -0.550 OA
ATOM     14  O   UNL     1      -5.457 -31.861  46.554  1.00  0.00    -0.550 OA
ENDBRANCH  11  12
ENDBRANCH  10  11
ENDBRANCH   9  10
ENDBRANCH   8   9
ENDBRANCH   7   8
ENDBRANCH   6   7
ENDBRANCH   5   6
ENDBRANCH   4   5
ENDBRANCH   3   4
ENDBRANCH   2   3
ENDBRANCH   1   2
BRANCH   1  15
ATOM     15  C   UNL     1      -8.606 -38.314  45.357  1.00  0.00     0.000 C 
BRANCH  15  16
ATOM     16  C   UNL     1      -8.622 -39.601  46.196  1.00  0.00     0.000 C 
BRANCH  16  17
ATOM     17  C   UNL     1      -8.812 -39.284  47.687  1.00  0.00     0.000 C 
BRANCH  17  18
ATOM     18  C   UNL     1      -9.980 -40.063  48.314  1.00  0.00    -0.000 C 
BRANCH  18  19
ATOM     19  C   UNL     1     -11.297 -39.268  48.303  1.00  0.00    -0.000 C 
BRANCH  19  20
ATOM     20  C   UNL     1     -12.235 -39.691  47.161  1.00  0.00    -0.000 C 
BRANCH  20  21
ATOM     21  C   UNL     1     -11.973 -41.131  46.687  1.00  0.00    -0.000 C 
BRANCH  21  22
ATOM     22  C   UNL     1     -12.134 -41.289  45.166  1.00  0.00    -0.000 C 
BRANCH  22  23
ATOM     23  C   UNL     1     -12.253 -39.939  44.436  1.00  0.00    -0.000 C 
BRANCH  23  24
ATOM     24  C   UNL     1     -11.364 -39.857  43.181  1.00  0.00    -0.000 C 
BRANCH  24  25
ATOM     25  C   UNL     1     -10.590 -41.148  42.854  1.00  0.00    -0.003 C 
ATOM     26  C   UNL     1      -9.078 -40.937  42.783  1.00  0.00     0.004 C 
ENDBRANCH  24  25
ENDBRANCH  23  24
ENDBRANCH  22  23
ENDBRANCH  21  22
ENDBRANCH  20  21
ENDBRANCH  19  20
ENDBRANCH  18  19
ENDBRANCH  17  18
ENDBRANCH  16  17
ENDBRANCH  15  16
ENDBRANCH   1  15
TORSDOF 22
ENDMDL
MODEL 3
REMARK VINA RESULT:    -4.948      3.183      7.833
REMARK INTER + INTRA:         -14.926
REMARK INTER:                 -11.388
REMARK INTRA:                  -3.537
REMARK UNBOUND:                -3.614
REMARK SMILES CCCCCCCCCCCCCCCCCCCCCCCC(=O)[O-]
REMARK SMILES IDX 13 1 14 2 15 3 16 4 17 5 18 6 19 7 20 8 21 9 22 10 23 11
REMARK SMILES IDX 24 12 25 13 26 14 12 15 11 16 10 17 9 18 8 19 7 20 6 21 5 22
REMARK SMILES IDX 4 23 3 24 2 25 1 26
REMARK H PARENT
REMARK Flexibility Score: inf
ROOT
ATOM      1  C   UNL     1     -10.176 -39.857  48.703  1.00  0.00     0.000 C 
ENDROOT
BRANCH   1   2
ATOM      2  C   UNL     1     -10.736 -38.433  48.533  1.00  0.00     0.000 C 
BRANCH   2   3
ATOM      3  C   UNL     1     -12.053 -38.406  47.726  1.00  0.00     0.000 C 
BRANCH   3   4
ATOM      4  C   UNL     1     -12.202 -39.576  46.733  1.00  0.00     0.000 C 
BRANCH   4   5
ATOM      5  C   UNL     1     -13.283 -39.384  45.654  1.00  0.00     0.000 C 
BRANCH   5   6
ATOM      6  C   UNL     1     -12.994 -40.072  44.302  1.00  0.00     0.000 C 
BRANCH   6   7
ATOM      7  C   UNL     1     -11.919 -41.174  44.343  1.00  0.00     0.000 C 
BRANCH   7   8
ATOM      8  C   UNL     1     -11.366 -41.521  42.950  1.00  0.00     0.000 C 
BRANCH   8   9
ATOM      9  C   UNL     1      -9.900 -41.980  42.995  1.00  0.00     0.000 C 
BRANCH   9  10
ATOM     10  C   UNL     1      -9.100 -41.543  41.758  1.00  0.00     0.006 C 
BRANCH  10  11
ATOM     11  C   UNL     1      -7.769 -40.903  42.165  1.00  0.00     0.053 C 
BRANCH  11  12
ATOM     12  C   UNL     1      -6.900 -41.897  42.870  1.00  0.00     0.041 C 
ATOM     13  O   UNL     1      -6.814 -43.078  42.443  1.00  0.00    -0.550 OA
ATOM     14  O   UNL     1      -6.144 -41.504  43.968  1.00  0.00    -0.550 OA
ENDBRANCH  11  12
ENDBRANCH  10  11
ENDBRANCH   9  10
ENDBRANCH   8   9
ENDBRANCH   7   8
ENDBRANCH   6   7
ENDBRANCH   5   6
ENDBRANCH   4   5
ENDBRANCH   3   4
ENDBRANCH   2   3
ENDBRANCH   1   2
BRANCH   1  15
ATOM     15  C   UNL     1      -8.769 -40.009  48.101  1.00  0.00     0.000 C 
BRANCH  15  16
ATOM     16  C   UNL     1      -8.419 -38.872  47.129  1.00  0.00     0.000 C 
BRANCH  16  17
ATOM     17  C   UNL     1      -8.401 -39.375  45.677  1.00  0.00     0.000 C 
BRANCH  17  18
ATOM     18  C   UNL     1      -8.591 -38.242  44.655  1.00  0.00    -0.000 C 
BRANCH  18  19
ATOM     19  C   UNL     1     -10.032 -38.160  44.121  1.00  0.00    -0.000 C 
BRANCH  19  20
ATOM     20  C   UNL     1     -10.740 -36.856  44.523  1.00  0.00    -0.000 C 
BRANCH  20  21
ATOM     21  C   UNL     1      -9.787 -35.853  45.197  1.00  0.00    -0.000 C 
BRANCH  21  22
ATOM     22  C   UNL     1     -10.259 -34.397  45.043  1.00  0.00    -0.000 C 
BRANCH  22  23
ATOM     23  C   UNL     1     -10.313 -33.941  43.574  1.00  0.00    -0.000 C 
BRANCH  23  24
ATOM     24  C   UNL     1      -9.052 -34.331  42.781  1.00  0.00    -0.000 C 
BRANCH  24  25
ATOM     25  C   UNL     1      -8.657 -33.341  41.669  1.00  0.00    -0.003 C 
ATOM     26  C   UNL     1      -9.696 -33.251  40.552  1.00  0.00     0.004 C 
ENDBRANCH  24  25
ENDBRANCH  23  24
ENDBRANCH  22  23
ENDBRANCH  21  22
ENDBRANCH  20  21
ENDBRANCH  19  20
ENDBRANCH  18  19
ENDBRANCH  17  18
ENDBRANCH  16  17
ENDBRANCH  15  16
ENDBRANCH   1  15
TORSDOF 22
ENDMDL
MODEL 4
REMARK VINA RESULT:    -4.914      3.168      8.484
REMARK INTER + INTRA:         -14.849
REMARK INTER:                 -12.004
REMARK INTRA:                  -2.845
REMARK UNBOUND:                -3.614
REMARK SMILES CCCCCCCCCCCCCCCCCCCCCCCC(=O)[O-]
REMARK SMILES IDX 13 1 14 2 15 3 16 4 17 5 18 6 19 7 20 8 21 9 22 10 23 11
REMARK SMILES IDX 24 12 25 13 26 14 12 15 11 16 10 17 9 18 8 19 7 20 6 21 5 22
REMARK SMILES IDX 4 23 3 24 2 25 1 26
REMARK H PARENT
REMARK Flexibility Score: inf
ROOT
ATOM      1  C   UNL     1      -8.381 -38.469  48.023  1.00  0.00     0.000 C 
ENDROOT
BRANCH   1   2
ATOM      2  C   UNL     1      -8.887 -39.922  48.041  1.00  0.00     0.000 C 
BRANCH   2   3
ATOM      3  C   UNL     1     -10.286 -40.056  48.682  1.00  0.00     0.000 C 
BRANCH   3   4
ATOM      4  C   UNL     1     -11.322 -40.753  47.778  1.00  0.00     0.000 C 
BRANCH   4   5
ATOM      5  C   UNL     1     -12.254 -39.807  47.000  1.00  0.00     0.000 C 
BRANCH   5   6
ATOM      6  C   UNL     1     -12.155 -39.902  45.462  1.00  0.00     0.000 C 
BRANCH   6   7
ATOM      7  C   UNL     1     -10.874 -40.568  44.927  1.00  0.00     0.000 C 
BRANCH   7   8
ATOM      8  C   UNL     1     -10.592 -40.223  43.455  1.00  0.00     0.000 C 
BRANCH   8   9
ATOM      9  C   UNL     1     -10.927 -41.383  42.503  1.00  0.00     0.000 C 
BRANCH   9  10
ATOM     10  C   UNL     1      -9.742 -41.784  41.611  1.00  0.00     0.006 C 
BRANCH  10  11
ATOM     11  C   UNL     1      -8.650 -42.478  42.432  1.00  0.00     0.053 C 
BRANCH  11  12
ATOM     12  C   UNL     1      -7.361 -41.726  42.335  1.00  0.00     0.041 C 
ATOM     13  O   UNL     1      -7.082 -41.078  41.293  1.00  0.00    -0.550 OA
ATOM     14  O   UNL     1      -6.489 -41.698  43.417  1.00  0.00    -0.550 OA
ENDBRANCH  11  12
ENDBRANCH  10  11
ENDBRANCH   9  10
ENDBRANCH   8   9
ENDBRANCH   7   8
ENDBRANCH   6   7
ENDBRANCH   5   6
ENDBRANCH   4   5
ENDBRANCH   3   4
ENDBRANCH   2   3
ENDBRANCH   1   2
BRANCH   1  15
ATOM     15  C   UNL     1      -9.018 -37.640  46.895  1.00  0.00     0.000 C 
BRANCH  15  16
ATOM     16  C   UNL     1      -9.969 -36.556  47.427  1.00  0.00     0.000 C 
BRANCH  16  17
ATOM     17  C   UNL     1     -10.898 -36.045  46.316  1.00  0.00     0.000 C 
BRANCH  17  18
ATOM     18  C   UNL     1     -10.637 -36.729  44.964  1.00  0.00    -0.000 C 
BRANCH  18  19
ATOM     19  C   UNL     1     -10.174 -35.741  43.878  1.00  0.00    -0.000 C 
BRANCH  19  20
ATOM     20  C   UNL     1     -10.506 -34.281  44.225  1.00  0.00    -0.000 C 
BRANCH  20  21
ATOM     21  C   UNL     1     -10.563 -33.379  42.981  1.00  0.00    -0.000 C 
BRANCH  21  22
ATOM     22  C   UNL     1     -10.089 -34.099  41.707  1.00  0.00    -0.000 C 
BRANCH  22  23
ATOM     23  C   UNL     1      -9.393 -33.153  40.712  1.00  0.00    -0.000 C 
BRANCH  23  24
ATOM     24  C   UNL     1      -8.584 -32.044  41.409  1.00  0.00    -0.000 C 
BRANCH  24  25
ATOM     25  C   UNL     1      -7.294 -32.523  42.100  1.00  0.00    -0.003 C 
ATOM     26  C   UNL     1      -7.271 -32.222  43.598  1.00  0.00     0.004 C 
ENDBRANCH  24  25
ENDBRANCH  23  24
ENDBRANCH  22  23
ENDBRANCH  21  22
ENDBRANCH  20  21
ENDBRANCH  19  20
ENDBRANCH  18  19
ENDBRANCH  17  18
ENDBRANCH  16  17
ENDBRANCH  15  16
ENDBRANCH   1  15
TORSDOF 22
ENDMDL
MODEL 5
REMARK VINA RESULT:    -4.900      3.511      7.825
REMARK INTER + INTRA:         -14.817
REMARK INTER:                 -11.651
REMARK INTRA:                  -3.166
REMARK UNBOUND:                -3.614
REMARK SMILES CCCCCCCCCCCCCCCCCCCCCCCC(=O)[O-]
REMARK SMILES IDX 13 1 14 2 15 3 16 4 17 5 18 6 19 7 20 8 21 9 22 10 23 11
REMARK SMILES IDX 24 12 25 13 26 14 12 15 11 16 10 17 9 18 8 19 7 20 6 21 5 22
REMARK SMILES IDX 4 23 3 24 2 25 1 26
REMARK H PARENT
REMARK Flexibility Score: inf
ROOT
ATOM      1  C   UNL     1     -11.752 -39.796  47.709  1.00  0.00     0.000 C 
ENDROOT
BRANCH   1   2
ATOM      2  C   UNL     1     -12.380 -38.913  46.616  1.00  0.00     0.000 C 
BRANCH   2   3
ATOM      3  C   UNL     1     -12.324 -39.568  45.219  1.00  0.00     0.000 C 
BRANCH   3   4
ATOM      4  C   UNL     1     -12.040 -41.083  45.250  1.00  0.00     0.000 C 
BRANCH   4   5
ATOM      5  C   UNL     1     -10.973 -41.569  44.252  1.00  0.00     0.000 C 
BRANCH   5   6
ATOM      6  C   UNL     1     -10.815 -40.702  42.983  1.00  0.00     0.000 C 
BRANCH   6   7
ATOM      7  C   UNL     1     -10.706 -41.486  41.662  1.00  0.00     0.000 C 
BRANCH   7   8
ATOM      8  C   UNL     1      -9.258 -41.875  41.316  1.00  0.00     0.000 C 
BRANCH   8   9
ATOM      9  C   UNL     1      -8.226 -41.136  42.183  1.00  0.00     0.000 C 
BRANCH   9  10
ATOM     10  C   UNL     1      -7.037 -42.024  42.580  1.00  0.00     0.006 C 
BRANCH  10  11
ATOM     11  C   UNL     1      -6.336 -41.474  43.827  1.00  0.00     0.053 C 
BRANCH  11  12
ATOM     12  C   UNL     1      -5.599 -42.563  44.540  1.00  0.00     0.041 C 
ATOM     13  O   UNL     1      -5.185 -42.383  45.715  1.00  0.00    -0.550 OA
ATOM     14  O   UNL     1      -5.415 -43.796  43.926  1.00  0.00    -0.550 OA
ENDBRANCH  11  12
ENDBRANCH  10  11
ENDBRANCH   9  10
ENDBRANCH   8   9
ENDBRANCH   7   8
ENDBRANCH   6   7
ENDBRANCH   5   6
ENDBRANCH   4   5
ENDBRANCH   3   4
ENDBRANCH   2   3
ENDBRANCH   1   2
BRANCH   1  15
ATOM     15  C   UNL     1     -10.644 -39.067  48.487  1.00  0.00     0.000 C 
BRANCH  15  16
ATOM     16  C   UNL     1      -9.350 -39.892  48.577  1.00  0.00     0.000 C 
BRANCH  16  17
ATOM     17  C   UNL     1      -8.639 -39.950  47.216  1.00  0.00     0.000 C 
BRANCH  17  18
ATOM     18  C   UNL     1      -8.589 -38.582  46.516  1.00  0.00    -0.000 C 
BRANCH  18  19
ATOM     19  C   UNL     1      -8.601 -38.700  44.981  1.00  0.00    -0.000 C 
BRANCH  19  20
ATOM     20  C   UNL     1      -8.938 -37.371  44.288  1.00  0.00    -0.000 C 
BRANCH  20  21
ATOM     21  C   UNL     1     -10.063 -36.602  45.003  1.00  0.00    -0.000 C 
BRANCH  21  22
ATOM     22  C   UNL     1     -10.169 -35.141  44.535  1.00  0.00    -0.000 C 
BRANCH  22  23
ATOM     23  C   UNL     1     -10.270 -35.012  43.004  1.00  0.00    -0.000 C 
BRANCH  23  24
ATOM     24  C   UNL     1     -10.038 -33.573  42.508  1.00  0.00    -0.000 C 
BRANCH  24  25
ATOM     25  C   UNL     1      -9.361 -33.468  41.128  1.00  0.00    -0.003 C 
ATOM     26  C   UNL     1      -7.854 -33.233  41.218  1.00  0.00     0.004 C 
ENDBRANCH  24  25
ENDBRANCH  23  24
ENDBRANCH  22  23
ENDBRANCH  21  22
ENDBRANCH  20  21
ENDBRANCH  19  20
ENDBRANCH  18  19
ENDBRANCH  17  18
ENDBRANCH  16  17
ENDBRANCH  15  16
ENDBRANCH   1  15
TORSDOF 22
ENDMDL
MODEL 6
REMARK VINA RESULT:    -4.867      2.555      5.385
REMARK INTER + INTRA:         -14.742
REMARK INTER:                 -11.642
REMARK INTRA:                  -3.100
REMARK UNBOUND:                -3.614
REMARK SMILES CCCCCCCCCCCCCCCCCCCCCCCC(=O)[O-]
REMARK SMILES IDX 13 1 14 2 15 3 16 4 17 5 18 6 19 7 20 8 21 9 22 10 23 11
REMARK SMILES IDX 24 12 25 13 26 14 12 15 11 16 10 17 9 18 8 19 7 20 6 21 5 22
REMARK SMILES IDX 4 23 3 24 2 25 1 26
REMARK H PARENT
REMARK Flexibility Score: inf
ROOT
ATOM      1  C   UNL     1      -8.253 -41.465  43.000  1.00  0.00     0.000 C 
ENDROOT
BRANCH   1   2
ATOM      2  C   UNL     1      -8.840 -40.237  43.719  1.00  0.00     0.000 C 
BRANCH   2   3
ATOM      3  C   UNL     1      -7.918 -39.709  44.840  1.00  0.00     0.000 C 
BRANCH   3   4
ATOM      4  C   UNL     1      -8.396 -38.385  45.469  1.00  0.00     0.000 C 
BRANCH   4   5
ATOM      5  C   UNL     1      -9.725 -37.840  44.916  1.00  0.00     0.000 C 
BRANCH   5   6
ATOM      6  C   UNL     1     -10.473 -36.860  45.846  1.00  0.00     0.000 C 
BRANCH   6   7
ATOM      7  C   UNL     1     -10.773 -35.477  45.239  1.00  0.00     0.000 C 
BRANCH   7   8
ATOM      8  C   UNL     1     -10.575 -35.438  43.714  1.00  0.00     0.000 C 
BRANCH   8   9
ATOM      9  C   UNL     1     -10.250 -34.028  43.198  1.00  0.00     0.000 C 
BRANCH   9  10
ATOM     10  C   UNL     1      -9.769 -34.023  41.738  1.00  0.00     0.006 C 
BRANCH  10  11
ATOM     11  C   UNL     1      -9.008 -32.733  41.417  1.00  0.00     0.053 C 
BRANCH  11  12
ATOM     12  C   UNL     1      -7.561 -32.874  41.767  1.00  0.00     0.041 C 
ATOM     13  O   UNL     1      -7.125 -32.417  42.857  1.00  0.00    -0.550 OA
ATOM     14  O   UNL     1      -6.702 -33.556  40.914  1.00  0.00    -0.550 OA
ENDBRANCH  11  12
ENDBRANCH  10  11
ENDBRANCH   9  10
ENDBRANCH   8   9
ENDBRANCH   7   8
ENDBRANCH   6   7
ENDBRANCH   5   6
ENDBRANCH   4   5
ENDBRANCH   3   4
ENDBRANCH   2   3
ENDBRANCH   1   2
BRANCH   1  15
ATOM     15  C   UNL     1      -8.587 -41.481  41.499  1.00  0.00     0.000 C 
BRANCH  15  16
ATOM     16  C   UNL     1      -9.630 -42.552  41.141  1.00  0.00     0.000 C 
BRANCH  16  17
ATOM     17  C   UNL     1     -10.973 -41.909  40.764  1.00  0.00     0.000 C 
BRANCH  17  18
ATOM     18  C   UNL     1     -11.803 -41.509  41.995  1.00  0.00    -0.000 C 
BRANCH  18  19
ATOM     19  C   UNL     1     -11.956 -42.657  43.007  1.00  0.00    -0.000 C 
BRANCH  19  20
ATOM     20  C   UNL     1     -12.041 -42.160  44.459  1.00  0.00    -0.000 C 
BRANCH  20  21
ATOM     21  C   UNL     1     -12.340 -40.654  44.549  1.00  0.00    -0.000 C 
BRANCH  21  22
ATOM     22  C   UNL     1     -12.524 -40.175  45.999  1.00  0.00    -0.000 C 
BRANCH  22  23
ATOM     23  C   UNL     1     -11.452 -40.735  46.952  1.00  0.00    -0.000 C 
BRANCH  23  24
ATOM     24  C   UNL     1     -10.965 -39.697  47.980  1.00  0.00    -0.000 C 
BRANCH  24  25
ATOM     25  C   UNL     1     -10.005 -40.251  49.049  1.00  0.00    -0.003 C 
ATOM     26  C   UNL     1      -8.543 -40.240  48.604  1.00  0.00     0.004 C 
ENDBRANCH  24  25
ENDBRANCH  23  24
ENDBRANCH  22  23
ENDBRANCH  21  22
ENDBRANCH  20  21
ENDBRANCH  19  20
ENDBRANCH  18  19
ENDBRANCH  17  18
ENDBRANCH  16  17
ENDBRANCH  15  16
ENDBRANCH   1  15
TORSDOF 22
ENDMDL
MODEL 7
REMARK VINA RESULT:    -4.819      2.984      4.346
REMARK INTER + INTRA:         -14.630
REMARK INTER:                 -12.108
REMARK INTRA:                  -2.522
REMARK UNBOUND:                -3.614
REMARK SMILES CCCCCCCCCCCCCCCCCCCCCCCC(=O)[O-]
REMARK SMILES IDX 13 1 14 2 15 3 16 4 17 5 18 6 19 7 20 8 21 9 22 10 23 11
REMARK SMILES IDX 24 12 25 13 26 14 12 15 11 16 10 17 9 18 8 19 7 20 6 21 5 22
REMARK SMILES IDX 4 23 3 24 2 25 1 26
REMARK H PARENT
REMARK Flexibility Score: inf
ROOT
ATOM      1  C   UNL     1     -10.634 -33.472  43.373  1.00  0.00     0.000 C 
ENDROOT
BRANCH   1   2
ATOM      2  C   UNL     1     -10.063 -33.633  41.953  1.00  0.00     0.000 C 
BRANCH   2   3
ATOM      3  C   UNL     1      -8.605 -34.142  41.954  1.00  0.00     0.000 C 
BRANCH   3   4
ATOM      4  C   UNL     1      -7.595 -33.145  41.351  1.00  0.00     0.000 C 
BRANCH   4   5
ATOM      5  C   UNL     1      -7.984 -31.661  41.482  1.00  0.00     0.000 C 
BRANCH   5   6
ATOM      6  C   UNL     1      -7.295 -30.899  42.636  1.00  0.00     0.000 C 
BRANCH   6   7
ATOM      7  C   UNL     1      -6.867 -31.768  43.832  1.00  0.00     0.000 C 
BRANCH   7   8
ATOM      8  C   UNL     1      -6.047 -30.988  44.874  1.00  0.00     0.000 C 
BRANCH   8   9
ATOM      9  C   UNL     1      -6.063 -29.471  44.621  1.00  0.00     0.000 C 
BRANCH   9  10
ATOM     10  C   UNL     1      -4.793 -28.770  45.128  1.00  0.00     0.006 C 
BRANCH  10  11
ATOM     11  C   UNL     1      -3.558 -29.648  44.907  1.00  0.00     0.053 C 
BRANCH  11  12
ATOM     12  C   UNL     1      -2.319 -28.936  45.351  1.00  0.00     0.041 C 
ATOM     13  O   UNL     1      -2.281 -27.678  45.360  1.00  0.00    -0.550 OA
ATOM     14  O   UNL     1      -1.224 -29.662  45.805  1.00  0.00    -0.550 OA
ENDBRANCH  11  12
ENDBRANCH  10  11
ENDBRANCH   9  10
ENDBRANCH   8   9
ENDBRANCH   7   8
ENDBRANCH   6   7
ENDBRANCH   5   6
ENDBRANCH   4   5
ENDBRANCH   3   4
ENDBRANCH   2   3
ENDBRANCH   1   2
BRANCH   1  15
ATOM     15  C   UNL     1      -9.760 -34.156  44.438  1.00  0.00     0.000 C 
BRANCH  15  16
ATOM     16  C   UNL     1     -10.441 -35.389  45.054  1.00  0.00     0.000 C 
BRANCH  16  17
ATOM     17  C   UNL     1      -9.896 -36.685  44.435  1.00  0.00     0.000 C 
BRANCH  17  18
ATOM     18  C   UNL     1     -11.007 -37.691  44.094  1.00  0.00    -0.000 C 
BRANCH  18  19
ATOM     19  C   UNL     1     -10.518 -39.150  44.131  1.00  0.00    -0.000 C 
BRANCH  19  20
ATOM     20  C   UNL     1     -11.654 -40.148  44.408  1.00  0.00    -0.000 C 
BRANCH  20  21
ATOM     21  C   UNL     1     -12.839 -39.501  45.146  1.00  0.00    -0.000 C 
BRANCH  21  22
ATOM     22  C   UNL     1     -12.781 -39.726  46.667  1.00  0.00    -0.000 C 
BRANCH  22  23
ATOM     23  C   UNL     1     -12.367 -38.461  47.439  1.00  0.00    -0.000 C 
BRANCH  23  24
ATOM     24  C   UNL     1     -10.876 -38.456  47.824  1.00  0.00    -0.000 C 
BRANCH  24  25
ATOM     25  C   UNL     1     -10.273 -39.849  48.085  1.00  0.00    -0.003 C 
ATOM     26  C   UNL     1     -10.563 -40.372  49.491  1.00  0.00     0.004 C 
ENDBRANCH  24  25
ENDBRANCH  23  24
ENDBRANCH  22  23
ENDBRANCH  21  22
ENDBRANCH  20  21
ENDBRANCH  19  20
ENDBRANCH  18  19
ENDBRANCH  17  18
ENDBRANCH  16  17
ENDBRANCH  15  16
ENDBRANCH   1  15
TORSDOF 22
ENDMDL
MODEL 8
REMARK VINA RESULT:    -4.810      1.138      2.490
REMARK INTER + INTRA:         -14.609
REMARK INTER:                 -11.248
REMARK INTRA:                  -3.361
REMARK UNBOUND:                -3.614
REMARK SMILES CCCCCCCCCCCCCCCCCCCCCCCC(=O)[O-]
REMARK SMILES IDX 13 1 14 2 15 3 16 4 17 5 18 6 19 7 20 8 21 9 22 10 23 11
REMARK SMILES IDX 24 12 25 13 26 14 12 15 11 16 10 17 9 18 8 19 7 20 6 21 5 22
REMARK SMILES IDX 4 23 3 24 2 25 1 26
REMARK H PARENT
REMARK Flexibility Score: inf
ROOT
ATOM      1  C   UNL     1     -10.356 -36.038  44.407  1.00  0.00     0.000 C 
ENDROOT
BRANCH   1   2
ATOM      2  C   UNL     1     -10.004 -34.548  44.567  1.00  0.00     0.000 C 
BRANCH   2   3
ATOM      3  C   UNL     1     -10.424 -33.705  43.344  1.00  0.00     0.000 C 
BRANCH   3   4
ATOM      4  C   UNL     1      -9.960 -34.288  41.994  1.00  0.00     0.000 C 
BRANCH   4   5
ATOM      5  C   UNL     1      -9.456 -33.252  40.972  1.00  0.00     0.000 C 
BRANCH   5   6
ATOM      6  C   UNL     1      -8.031 -32.715  41.228  1.00  0.00     0.000 C 
BRANCH   6   7
ATOM      7  C   UNL     1      -7.944 -31.212  41.553  1.00  0.00     0.000 C 
BRANCH   7   8
ATOM      8  C   UNL     1      -7.172 -30.925  42.852  1.00  0.00     0.000 C 
BRANCH   8   9
ATOM      9  C   UNL     1      -7.125 -32.142  43.790  1.00  0.00     0.000 C 
BRANCH   9  10
ATOM     10  C   UNL     1      -6.896 -31.753  45.259  1.00  0.00     0.006 C 
BRANCH  10  11
ATOM     11  C   UNL     1      -8.211 -31.781  46.044  1.00  0.00     0.053 C 
BRANCH  11  12
ATOM     12  C   UNL     1      -8.075 -32.628  47.269  1.00  0.00     0.041 C 
ATOM     13  O   UNL     1      -9.100 -33.071  47.850  1.00  0.00    -0.550 OA
ATOM     14  O   UNL     1      -6.813 -32.973  47.740  1.00  0.00    -0.550 OA
ENDBRANCH  11  12
ENDBRANCH  10  11
ENDBRANCH   9  10
ENDBRANCH   8   9
ENDBRANCH   7   8
ENDBRANCH   6   7
ENDBRANCH   5   6
ENDBRANCH   4   5
ENDBRANCH   3   4
ENDBRANCH   2   3
ENDBRANCH   1   2
BRANCH   1  15
ATOM     15  C   UNL     1     -11.047 -36.615  45.654  1.00  0.00     0.000 C 
BRANCH  15  16
ATOM     16  C   UNL     1     -10.231 -36.389  46.936  1.00  0.00     0.000 C 
BRANCH  16  17
ATOM     17  C   UNL     1     -11.054 -36.745  48.183  1.00  0.00     0.000 C 
BRANCH  17  18
ATOM     18  C   UNL     1     -11.962 -37.966  47.965  1.00  0.00    -0.000 C 
BRANCH  18  19
ATOM     19  C   UNL     1     -11.326 -39.275  48.466  1.00  0.00    -0.000 C 
BRANCH  19  20
ATOM     20  C   UNL     1     -11.420 -40.412  47.436  1.00  0.00    -0.000 C 
BRANCH  20  21
ATOM     21  C   UNL     1     -12.338 -40.059  46.253  1.00  0.00    -0.000 C 
BRANCH  21  22
ATOM     22  C   UNL     1     -11.936 -40.784  44.957  1.00  0.00    -0.000 C 
BRANCH  22  23
ATOM     23  C   UNL     1     -11.213 -39.862  43.959  1.00  0.00    -0.000 C 
BRANCH  23  24
ATOM     24  C   UNL     1      -9.757 -40.290  43.695  1.00  0.00    -0.000 C 
BRANCH  24  25
ATOM     25  C   UNL     1      -8.693 -39.291  44.186  1.00  0.00    -0.003 C 
ATOM     26  C   UNL     1      -8.409 -39.408  45.683  1.00  0.00     0.004 C 
ENDBRANCH  24  25
ENDBRANCH  23  24
ENDBRANCH  22  23
ENDBRANCH  21  22
ENDBRANCH  20  21
ENDBRANCH  19  20
ENDBRANCH  18  19
ENDBRANCH  17  18
ENDBRANCH  16  17
ENDBRANCH  15  16
ENDBRANCH   1  15
TORSDOF 22
ENDMDL
MODEL 9
REMARK VINA RESULT:    -4.751      1.385      2.807
REMARK INTER + INTRA:         -14.475
REMARK INTER:                 -11.466
REMARK INTRA:                  -3.009
REMARK UNBOUND:                -3.614
REMARK SMILES CCCCCCCCCCCCCCCCCCCCCCCC(=O)[O-]
REMARK SMILES IDX 13 1 14 2 15 3 16 4 17 5 18 6 19 7 20 8 21 9 22 10 23 11
REMARK SMILES IDX 24 12 25 13 26 14 12 15 11 16 10 17 9 18 8 19 7 20 6 21 5 22
REMARK SMILES IDX 4 23 3 24 2 25 1 26
REMARK H PARENT
REMARK Flexibility Score: inf
ROOT
ATOM      1  C   UNL     1     -11.368 -36.291  46.576  1.00  0.00     0.000 C 
ENDROOT
BRANCH   1   2
ATOM      2  C   UNL     1     -10.159 -35.730  45.807  1.00  0.00     0.000 C 
BRANCH   2   3
ATOM      3  C   UNL     1     -10.275 -35.945  44.282  1.00  0.00     0.000 C 
BRANCH   3   4
ATOM      4  C   UNL     1      -9.475 -34.926  43.445  1.00  0.00     0.000 C 
BRANCH   4   5
ATOM      5  C   UNL     1     -10.328 -33.952  42.612  1.00  0.00     0.000 C 
BRANCH   5   6
ATOM      6  C   UNL     1      -9.707 -33.519  41.265  1.00  0.00     0.000 C 
BRANCH   6   7
ATOM      7  C   UNL     1      -8.237 -33.067  41.335  1.00  0.00     0.000 C 
BRANCH   7   8
ATOM      8  C   UNL     1      -8.083 -31.537  41.365  1.00  0.00     0.000 C 
BRANCH   8   9
ATOM      9  C   UNL     1      -7.367 -31.041  42.632  1.00  0.00     0.000 C 
BRANCH   9  10
ATOM     10  C   UNL     1      -7.018 -32.179  43.603  1.00  0.00     0.006 C 
BRANCH  10  11
ATOM     11  C   UNL     1      -6.658 -31.626  44.986  1.00  0.00     0.053 C 
BRANCH  11  12
ATOM     12  C   UNL     1      -7.555 -32.204  46.034  1.00  0.00     0.041 C 
ATOM     13  O   UNL     1      -8.769 -32.420  45.780  1.00  0.00    -0.550 OA
ATOM     14  O   UNL     1      -7.039 -32.555  47.276  1.00  0.00    -0.550 OA
ENDBRANCH  11  12
ENDBRANCH  10  11
ENDBRANCH   9  10
ENDBRANCH   8   9
ENDBRANCH   7   8
ENDBRANCH   6   7
ENDBRANCH   5   6
ENDBRANCH   4   5
ENDBRANCH   3   4
ENDBRANCH   2   3
ENDBRANCH   1   2
BRANCH   1  15
ATOM     15  C   UNL     1     -11.094 -36.422  48.084  1.00  0.00     0.000 C 
BRANCH  15  16
ATOM     16  C   UNL     1     -11.682 -37.712  48.678  1.00  0.00     0.000 C 
BRANCH  16  17
ATOM     17  C   UNL     1     -11.819 -38.800  47.602  1.00  0.00     0.000 C 
BRANCH  17  18
ATOM     18  C   UNL     1     -10.949 -40.033  47.893  1.00  0.00    -0.000 C 
BRANCH  18  19
ATOM     19  C   UNL     1      -9.684 -39.690  48.699  1.00  0.00    -0.000 C 
BRANCH  19  20
ATOM     20  C   UNL     1      -8.541 -39.167  47.814  1.00  0.00    -0.000 C 
BRANCH  20  21
ATOM     21  C   UNL     1      -8.413 -39.948  46.494  1.00  0.00    -0.000 C 
BRANCH  21  22
ATOM     22  C   UNL     1      -8.760 -39.090  45.265  1.00  0.00    -0.000 C 
BRANCH  22  23
ATOM     23  C   UNL     1      -8.827 -39.912  43.966  1.00  0.00    -0.000 C 
BRANCH  23  24
ATOM     24  C   UNL     1     -10.270 -40.163  43.491  1.00  0.00    -0.000 C 
BRANCH  24  25
ATOM     25  C   UNL     1     -11.315 -39.182  44.054  1.00  0.00    -0.003 C 
ATOM     26  C   UNL     1     -12.562 -39.068  43.178  1.00  0.00     0.004 C 
ENDBRANCH  24  25
ENDBRANCH  23  24
ENDBRANCH  22  23
ENDBRANCH  21  22
ENDBRANCH  20  21
ENDBRANCH  19  20
ENDBRANCH  18  19
ENDBRANCH  17  18
ENDBRANCH  16  17
ENDBRANCH  15  16
ENDBRANCH   1  15
TORSDOF 22
ENDMDL
