MODEL 1
REMARK VINA RESULT:    -4.241      0.000      0.000
REMARK INTER + INTRA:          -9.820
REMARK INTER:                  -7.959
REMARK INTRA:                  -1.860
REMARK UNBOUND:                -1.860
REMARK SMILES O=C([O-])CCCCCCCCCCCCCCC(=O)[O-]
REMARK SMILES IDX 10 1 9 2 8 3 7 4 6 5 5 6 4 7 2 8 1 9 3 10 11 11 12 12 13 13
REMARK SMILES IDX 14 14 15 15 16 16 17 17 18 18 19 19 20 20
REMARK H PARENT
REMARK Flexibility Score: inf
ROOT
ATOM      1  C   UNL     1      31.771  76.974  12.704  1.00  0.00     0.000 C 
ENDROOT
BRANCH   1   2
ATOM      2  C   UNL     1      30.727  77.163  13.818  1.00  0.00     0.000 C 
BRANCH   2   3
ATOM      3  C   UNL     1      29.870  78.423  13.614  1.00  0.00     0.000 C 
BRANCH   3   4
ATOM      4  C   UNL     1      29.371  79.026  14.940  1.00  0.00     0.000 C 
BRANCH   4   5
ATOM      5  C   UNL     1      29.876  80.451  15.243  1.00  0.00     0.000 C 
BRANCH   5   6
ATOM      6  C   UNL     1      31.272  80.787  14.682  1.00  0.00     0.006 C 
BRANCH   6   7
ATOM      7  C   UNL     1      32.416  80.633  15.697  1.00  0.00     0.053 C 
BRANCH   7   8
ATOM      8  C   UNL     1      32.531  81.825  16.596  1.00  0.00     0.041 C 
ATOM      9  O   UNL     1      33.076  82.881  16.181  1.00  0.00    -0.550 OA
ATOM     10  O   UNL     1      32.066  81.759  17.903  1.00  0.00    -0.550 OA
ENDBRANCH   7   8
ENDBRANCH   6   7
ENDBRANCH   5   6
ENDBRANCH   4   5
ENDBRANCH   3   4
ENDBRANCH   2   3
ENDBRANCH   1   2
BRANCH   1  11
ATOM     11  C   UNL     1      32.772  78.139  12.631  1.00  0.00     0.000 C 
BRANCH  11  12
ATOM     12  C   UNL     1      32.718  78.890  11.288  1.00  0.00     0.000 C 
BRANCH  12  13
ATOM     13  C   UNL     1      31.553  78.488  10.361  1.00  0.00     0.000 C 
BRANCH  13  14
ATOM     14  C   UNL     1      31.971  78.014   8.955  1.00  0.00     0.000 C 
BRANCH  14  15
ATOM     15  C   UNL     1      32.845  76.744   8.928  1.00  0.00     0.000 C 
BRANCH  15  16
ATOM     16  C   UNL     1      34.307  76.972   8.504  1.00  0.00     0.006 C 
BRANCH  16  17
ATOM     17  C   UNL     1      35.276  75.968   9.140  1.00  0.00     0.053 C 
BRANCH  17  18
ATOM     18  C   UNL     1      35.289  76.125  10.628  1.00  0.00     0.041 C 
ATOM     19  O   UNL     1      35.857  77.117  11.156  1.00  0.00    -0.550 OA
ATOM     20  O   UNL     1      34.631  75.202  11.430  1.00  0.00    -0.550 OA
ENDBRANCH  17  18
ENDBRANCH  16  17
ENDBRANCH  15  16
ENDBRANCH  14  15
ENDBRANCH  13  14
ENDBRANCH  12  13
ENDBRANCH  11  12
ENDBRANCH   1  11
TORSDOF 15
ENDMDL
MODEL 2
REMARK VINA RESULT:    -4.154      2.357      3.539
REMARK INTER + INTRA:          -9.657
REMARK INTER:                  -7.443
REMARK INTRA:                  -2.215
REMARK UNBOUND:                -1.860
REMARK SMILES O=C([O-])CCCCCCCCCCCCCCC(=O)[O-]
REMARK SMILES IDX 10 1 9 2 8 3 7 4 6 5 5 6 4 7 2 8 1 9 3 10 11 11 12 12 13 13
REMARK SMILES IDX 14 14 15 15 16 16 17 17 18 18 19 19 20 20
REMARK H PARENT
REMARK Flexibility Score: inf
ROOT
ATOM      1  C   UNL     1      34.821  77.259  11.397  1.00  0.00     0.000 C 
ENDROOT
BRANCH   1   2
ATOM      2  C   UNL     1      34.169  78.043  10.245  1.00  0.00     0.000 C 
BRANCH   2   3
ATOM      3  C   UNL     1      32.677  78.320  10.492  1.00  0.00     0.000 C 
BRANCH   3   4
ATOM      4  C   UNL     1      32.420  79.084  11.803  1.00  0.00     0.000 C 
BRANCH   4   5
ATOM      5  C   UNL     1      31.600  78.315  12.859  1.00  0.00     0.000 C 
BRANCH   5   6
ATOM      6  C   UNL     1      32.420  77.717  14.019  1.00  0.00     0.006 C 
BRANCH   6   7
ATOM      7  C   UNL     1      33.150  78.758  14.883  1.00  0.00     0.053 C 
BRANCH   7   8
ATOM      8  C   UNL     1      32.194  79.639  15.626  1.00  0.00     0.041 C 
ATOM      9  O   UNL     1      32.096  80.858  15.331  1.00  0.00    -0.550 OA
ATOM     10  O   UNL     1      31.435  79.120  16.667  1.00  0.00    -0.550 OA
ENDBRANCH   7   8
ENDBRANCH   6   7
ENDBRANCH   5   6
ENDBRANCH   4   5
ENDBRANCH   3   4
ENDBRANCH   2   3
ENDBRANCH   1   2
BRANCH   1  11
ATOM     11  C   UNL     1      34.873  75.746  11.124  1.00  0.00     0.000 C 
BRANCH  11  12
ATOM     12  C   UNL     1      33.743  74.974  11.829  1.00  0.00     0.000 C 
BRANCH  12  13
ATOM     13  C   UNL     1      32.491  74.716  10.967  1.00  0.00     0.000 C 
BRANCH  13  14
ATOM     14  C   UNL     1      32.771  74.150   9.561  1.00  0.00     0.000 C 
BRANCH  14  15
ATOM     15  C   UNL     1      32.508  75.129   8.399  1.00  0.00     0.000 C 
BRANCH  15  16
ATOM     16  C   UNL     1      33.476  74.998   7.210  1.00  0.00     0.006 C 
BRANCH  16  17
ATOM     17  C   UNL     1      34.693  75.924   7.326  1.00  0.00     0.053 C 
BRANCH  17  18
ATOM     18  C   UNL     1      35.956  75.123   7.357  1.00  0.00     0.041 C 
ATOM     19  O   UNL     1      36.727  75.191   8.351  1.00  0.00    -0.550 OA
ATOM     20  O   UNL     1      36.260  74.264   6.309  1.00  0.00    -0.550 OA
ENDBRANCH  17  18
ENDBRANCH  16  17
ENDBRANCH  15  16
ENDBRANCH  14  15
ENDBRANCH  13  14
ENDBRANCH  12  13
ENDBRANCH  11  12
ENDBRANCH   1  11
TORSDOF 15
ENDMDL
MODEL 3
REMARK VINA RESULT:    -4.150      2.646      6.919
REMARK INTER + INTRA:          -9.649
REMARK INTER:                  -7.523
REMARK INTRA:                  -2.125
REMARK UNBOUND:                -1.860
REMARK SMILES O=C([O-])CCCCCCCCCCCCCCC(=O)[O-]
REMARK SMILES IDX 10 1 9 2 8 3 7 4 6 5 5 6 4 7 2 8 1 9 3 10 11 11 12 12 13 13
REMARK SMILES IDX 14 14 15 15 16 16 17 17 18 18 19 19 20 20
REMARK H PARENT
REMARK Flexibility Score: inf
ROOT
ATOM      1  C   UNL     1      35.919  75.117   7.545  1.00  0.00     0.000 C 
ENDROOT
BRANCH   1   2
ATOM      2  C   UNL     1      34.601  75.901   7.436  1.00  0.00     0.000 C 
BRANCH   2   3
ATOM      3  C   UNL     1      33.573  75.203   6.530  1.00  0.00     0.000 C 
BRANCH   3   4
ATOM      4  C   UNL     1      32.163  75.164   7.147  1.00  0.00     0.000 C 
BRANCH   4   5
ATOM      5  C   UNL     1      32.012  75.913   8.486  1.00  0.00     0.000 C 
BRANCH   5   6
ATOM      6  C   UNL     1      31.577  75.041   9.680  1.00  0.00     0.006 C 
BRANCH   6   7
ATOM      7  C   UNL     1      32.673  74.104  10.214  1.00  0.00     0.053 C 
BRANCH   7   8
ATOM      8  C   UNL     1      32.773  74.152  11.707  1.00  0.00     0.041 C 
ATOM      9  O   UNL     1      33.850  73.841  12.279  1.00  0.00    -0.550 OA
ATOM     10  O   UNL     1      31.668  74.510  12.468  1.00  0.00    -0.550 OA
ENDBRANCH   7   8
ENDBRANCH   6   7
ENDBRANCH   5   6
ENDBRANCH   4   5
ENDBRANCH   3   4
ENDBRANCH   2   3
ENDBRANCH   1   2
BRANCH   1  11
ATOM     11  C   UNL     1      36.705  75.461   8.822  1.00  0.00     0.000 C 
BRANCH  11  12
ATOM     12  C   UNL     1      35.790  75.731  10.031  1.00  0.00     0.000 C 
BRANCH  12  13
ATOM     13  C   UNL     1      36.190  76.943  10.895  1.00  0.00     0.000 C 
BRANCH  13  14
ATOM     14  C   UNL     1      35.013  77.714  11.526  1.00  0.00     0.000 C 
BRANCH  14  15
ATOM     15  C   UNL     1      33.968  78.242  10.522  1.00  0.00     0.000 C 
BRANCH  15  16
ATOM     16  C   UNL     1      32.753  78.941  11.159  1.00  0.00     0.006 C 
BRANCH  16  17
ATOM     17  C   UNL     1      31.844  77.974  11.927  1.00  0.00     0.053 C 
BRANCH  17  18
ATOM     18  C   UNL     1      31.389  78.595  13.210  1.00  0.00     0.041 C 
ATOM     19  O   UNL     1      32.174  79.319  13.878  1.00  0.00    -0.550 OA
ATOM     20  O   UNL     1      30.083  78.414  13.645  1.00  0.00    -0.550 OA
ENDBRANCH  17  18
ENDBRANCH  16  17
ENDBRANCH  15  16
ENDBRANCH  14  15
ENDBRANCH  13  14
ENDBRANCH  12  13
ENDBRANCH  11  12
ENDBRANCH   1  11
TORSDOF 15
ENDMDL
MODEL 4
REMARK VINA RESULT:    -4.107      2.050      3.821
REMARK INTER + INTRA:          -9.569
REMARK INTER:                  -7.343
REMARK INTRA:                  -2.226
REMARK UNBOUND:                -1.860
REMARK SMILES O=C([O-])CCCCCCCCCCCCCCC(=O)[O-]
REMARK SMILES IDX 10 1 9 2 8 3 7 4 6 5 5 6 4 7 2 8 1 9 3 10 11 11 12 12 13 13
REMARK SMILES IDX 14 14 15 15 16 16 17 17 18 18 19 19 20 20
REMARK H PARENT
REMARK Flexibility Score: inf
ROOT
ATOM      1  C   UNL     1      32.091  77.728   8.694  1.00  0.00     0.000 C 
ENDROOT
BRANCH   1   2
ATOM      2  C   UNL     1      31.561  78.446   9.946  1.00  0.00     0.000 C 
BRANCH   2   3
ATOM      3  C   UNL     1      32.673  78.754  10.963  1.00  0.00     0.000 C 
BRANCH   3   4
ATOM      4  C   UNL     1      32.142  78.904  12.400  1.00  0.00     0.000 C 
BRANCH   4   5
ATOM      5  C   UNL     1      33.086  78.386  13.504  1.00  0.00     0.000 C 
BRANCH   5   6
ATOM      6  C   UNL     1      32.384  77.767  14.729  1.00  0.00     0.006 C 
BRANCH   6   7
ATOM      7  C   UNL     1      31.396  78.708  15.437  1.00  0.00     0.053 C 
BRANCH   7   8
ATOM      8  C   UNL     1      32.093  79.662  16.357  1.00  0.00     0.041 C 
ATOM      9  O   UNL     1      32.138  79.430  17.593  1.00  0.00    -0.550 OA
ATOM     10  O   UNL     1      32.665  80.823  15.854  1.00  0.00    -0.550 OA
ENDBRANCH   7   8
ENDBRANCH   6   7
ENDBRANCH   5   6
ENDBRANCH   4   5
ENDBRANCH   3   4
ENDBRANCH   2   3
ENDBRANCH   1   2
BRANCH   1  11
ATOM     11  C   UNL     1      33.626  77.760   8.602  1.00  0.00     0.000 C 
BRANCH  11  12
ATOM     12  C   UNL     1      34.213  76.479   7.981  1.00  0.00     0.000 C 
BRANCH  12  13
ATOM     13  C   UNL     1      35.267  75.758   8.845  1.00  0.00     0.000 C 
BRANCH  13  14
ATOM     14  C   UNL     1      35.735  76.536  10.091  1.00  0.00     0.000 C 
BRANCH  14  15
ATOM     15  C   UNL     1      35.024  76.153  11.404  1.00  0.00     0.000 C 
BRANCH  15  16
ATOM     16  C   UNL     1      34.234  74.834  11.353  1.00  0.00     0.006 C 
BRANCH  16  17
ATOM     17  C   UNL     1      32.987  74.850  12.246  1.00  0.00     0.053 C 
BRANCH  17  18
ATOM     18  C   UNL     1      31.756  75.042  11.418  1.00  0.00     0.041 C 
ATOM     19  O   UNL     1      30.764  75.658  11.890  1.00  0.00    -0.550 OA
ATOM     20  O   UNL     1      31.721  74.583  10.108  1.00  0.00    -0.550 OA
ENDBRANCH  17  18
ENDBRANCH  16  17
ENDBRANCH  15  16
ENDBRANCH  14  15
ENDBRANCH  13  14
ENDBRANCH  12  13
ENDBRANCH  11  12
ENDBRANCH   1  11
TORSDOF 15
ENDMDL
MODEL 5
REMARK VINA RESULT:    -4.096      2.277      7.215
REMARK INTER + INTRA:          -9.548
REMARK INTER:                  -7.128
REMARK INTRA:                  -2.420
REMARK UNBOUND:                -1.860
REMARK SMILES O=C([O-])CCCCCCCCCCCCCCC(=O)[O-]
REMARK SMILES IDX 10 1 9 2 8 3 7 4 6 5 5 6 4 7 2 8 1 9 3 10 11 11 12 12 13 13
REMARK SMILES IDX 14 14 15 15 16 16 17 17 18 18 19 19 20 20
REMARK H PARENT
REMARK Flexibility Score: inf
ROOT
ATOM      1  C   UNL     1      31.688  74.566  10.132  1.00  0.00     0.000 C 
ENDROOT
BRANCH   1   2
ATOM      2  C   UNL     1      31.694  74.430  11.664  1.00  0.00     0.000 C 
BRANCH   2   3
ATOM      3  C   UNL     1      33.000  74.941  12.295  1.00  0.00     0.000 C 
BRANCH   3   4
ATOM      4  C   UNL     1      34.195  74.879  11.327  1.00  0.00     0.000 C 
BRANCH   4   5
ATOM      5  C   UNL     1      34.933  76.216  11.110  1.00  0.00     0.000 C 
BRANCH   5   6
ATOM      6  C   UNL     1      35.693  76.337   9.775  1.00  0.00     0.006 C 
BRANCH   6   7
ATOM      7  C   UNL     1      35.056  75.562   8.610  1.00  0.00     0.053 C 
BRANCH   7   8
ATOM      8  C   UNL     1      36.072  75.144   7.593  1.00  0.00     0.041 C 
ATOM      9  O   UNL     1      35.734  74.980   6.391  1.00  0.00    -0.550 OA
ATOM     10  O   UNL     1      37.385  74.906   7.977  1.00  0.00    -0.550 OA
ENDBRANCH   7   8
ENDBRANCH   6   7
ENDBRANCH   5   6
ENDBRANCH   4   5
ENDBRANCH   3   4
ENDBRANCH   2   3
ENDBRANCH   1   2
BRANCH   1  11
ATOM     11  C   UNL     1      30.813  75.735   9.649  1.00  0.00     0.000 C 
BRANCH  11  12
ATOM     12  C   UNL     1      31.558  76.681   8.690  1.00  0.00     0.000 C 
BRANCH  12  13
ATOM     13  C   UNL     1      31.915  78.060   9.279  1.00  0.00     0.000 C 
BRANCH  13  14
ATOM     14  C   UNL     1      31.555  78.249  10.766  1.00  0.00     0.000 C 
BRANCH  14  15
ATOM     15  C   UNL     1      32.605  79.009  11.601  1.00  0.00     0.000 C 
BRANCH  15  16
ATOM     16  C   UNL     1      32.808  78.474  13.030  1.00  0.00     0.006 C 
BRANCH  16  17
ATOM     17  C   UNL     1      31.535  78.549  13.882  1.00  0.00     0.053 C 
BRANCH  17  18
ATOM     18  C   UNL     1      31.610  79.703  14.830  1.00  0.00     0.041 C 
ATOM     19  O   UNL     1      31.358  80.871  14.431  1.00  0.00    -0.550 OA
ATOM     20  O   UNL     1      31.910  79.484  16.168  1.00  0.00    -0.550 OA
ENDBRANCH  17  18
ENDBRANCH  16  17
ENDBRANCH  15  16
ENDBRANCH  14  15
ENDBRANCH  13  14
ENDBRANCH  12  13
ENDBRANCH  11  12
ENDBRANCH   1  11
TORSDOF 15
ENDMDL
MODEL 6
REMARK VINA RESULT:    -4.093      1.885      7.846
REMARK INTER + INTRA:          -9.542
REMARK INTER:                  -8.109
REMARK INTRA:                  -1.433
REMARK UNBOUND:                -1.860
REMARK SMILES O=C([O-])CCCCCCCCCCCCCCC(=O)[O-]
REMARK SMILES IDX 10 1 9 2 8 3 7 4 6 5 5 6 4 7 2 8 1 9 3 10 11 11 12 12 13 13
REMARK SMILES IDX 14 14 15 15 16 16 17 17 18 18 19 19 20 20
REMARK H PARENT
REMARK Flexibility Score: inf
ROOT
ATOM      1  C   UNL     1      35.388  77.697  11.585  1.00  0.00     0.000 C 
ENDROOT
BRANCH   1   2
ATOM      2  C   UNL     1      36.505  76.983  10.805  1.00  0.00     0.000 C 
BRANCH   2   3
ATOM      3  C   UNL     1      36.026  75.675  10.155  1.00  0.00     0.000 C 
BRANCH   3   4
ATOM      4  C   UNL     1      36.584  75.476   8.734  1.00  0.00     0.000 C 
BRANCH   4   5
ATOM      5  C   UNL     1      35.521  75.268   7.636  1.00  0.00     0.000 C 
BRANCH   5   6
ATOM      6  C   UNL     1      34.301  76.207   7.718  1.00  0.00     0.006 C 
BRANCH   6   7
ATOM      7  C   UNL     1      32.957  75.529   7.404  1.00  0.00     0.053 C 
BRANCH   7   8
ATOM      8  C   UNL     1      32.210  75.162   8.649  1.00  0.00     0.041 C 
ATOM      9  O   UNL     1      32.828  74.703   9.645  1.00  0.00    -0.550 OA
ATOM     10  O   UNL     1      30.829  75.296   8.698  1.00  0.00    -0.550 OA
ENDBRANCH   7   8
ENDBRANCH   6   7
ENDBRANCH   5   6
ENDBRANCH   4   5
ENDBRANCH   3   4
ENDBRANCH   2   3
ENDBRANCH   1   2
BRANCH   1  11
ATOM     11  C   UNL     1      34.266  78.212  10.667  1.00  0.00     0.000 C 
BRANCH  11  12
ATOM     12  C   UNL     1      32.860  77.899  11.209  1.00  0.00     0.000 C 
BRANCH  12  13
ATOM     13  C   UNL     1      32.334  78.886  12.270  1.00  0.00     0.000 C 
BRANCH  13  14
ATOM     14  C   UNL     1      31.514  78.245  13.408  1.00  0.00     0.000 C 
BRANCH  14  15
ATOM     15  C   UNL     1      32.308  77.948  14.696  1.00  0.00     0.000 C 
BRANCH  15  16
ATOM     16  C   UNL     1      33.176  79.111  15.206  1.00  0.00     0.006 C 
BRANCH  16  17
ATOM     17  C   UNL     1      32.462  79.974  16.254  1.00  0.00     0.053 C 
BRANCH  17  18
ATOM     18  C   UNL     1      32.216  81.349  15.718  1.00  0.00     0.041 C 
ATOM     19  O   UNL     1      32.883  82.327  16.149  1.00  0.00    -0.550 OA
ATOM     20  O   UNL     1      31.285  81.545  14.707  1.00  0.00    -0.550 OA
ENDBRANCH  17  18
ENDBRANCH  16  17
ENDBRANCH  15  16
ENDBRANCH  14  15
ENDBRANCH  13  14
ENDBRANCH  12  13
ENDBRANCH  11  12
ENDBRANCH   1  11
TORSDOF 15
ENDMDL
MODEL 7
REMARK VINA RESULT:    -4.072      1.700      2.831
REMARK INTER + INTRA:          -9.504
REMARK INTER:                  -7.577
REMARK INTRA:                  -1.926
REMARK UNBOUND:                -1.860
REMARK SMILES O=C([O-])CCCCCCCCCCCCCCC(=O)[O-]
REMARK SMILES IDX 10 1 9 2 8 3 7 4 6 5 5 6 4 7 2 8 1 9 3 10 11 11 12 12 13 13
REMARK SMILES IDX 14 14 15 15 16 16 17 17 18 18 19 19 20 20
REMARK H PARENT
REMARK Flexibility Score: inf
ROOT
ATOM      1  C   UNL     1      31.964  78.468  10.014  1.00  0.00     0.000 C 
ENDROOT
BRANCH   1   2
ATOM      2  C   UNL     1      32.963  78.707  11.158  1.00  0.00     0.000 C 
BRANCH   2   3
ATOM      3  C   UNL     1      32.273  78.810  12.529  1.00  0.00     0.000 C 
BRANCH   3   4
ATOM      4  C   UNL     1      33.015  78.031  13.630  1.00  0.00     0.000 C 
BRANCH   4   5
ATOM      5  C   UNL     1      33.306  78.830  14.916  1.00  0.00     0.000 C 
BRANCH   5   6
ATOM      6  C   UNL     1      32.244  79.883  15.290  1.00  0.00     0.006 C 
BRANCH   6   7
ATOM      7  C   UNL     1      32.141  80.173  16.796  1.00  0.00     0.053 C 
BRANCH   7   8
ATOM      8  C   UNL     1      32.236  81.639  17.091  1.00  0.00     0.041 C 
ATOM      9  O   UNL     1      33.043  82.362  16.450  1.00  0.00    -0.550 OA
ATOM     10  O   UNL     1      31.458  82.199  18.095  1.00  0.00    -0.550 OA
ENDBRANCH   7   8
ENDBRANCH   6   7
ENDBRANCH   5   6
ENDBRANCH   4   5
ENDBRANCH   3   4
ENDBRANCH   2   3
ENDBRANCH   1   2
BRANCH   1  11
ATOM     11  C   UNL     1      30.693  77.740  10.484  1.00  0.00     0.000 C 
BRANCH  11  12
ATOM     12  C   UNL     1      30.758  76.219  10.256  1.00  0.00     0.000 C 
BRANCH  12  13
ATOM     13  C   UNL     1      30.471  75.358  11.503  1.00  0.00     0.000 C 
BRANCH  13  14
ATOM     14  C   UNL     1      31.721  74.900  12.281  1.00  0.00     0.000 C 
BRANCH  14  15
ATOM     15  C   UNL     1      32.872  74.362  11.408  1.00  0.00     0.000 C 
BRANCH  15  16
ATOM     16  C   UNL     1      34.203  75.123  11.549  1.00  0.00     0.006 C 
BRANCH  16  17
ATOM     17  C   UNL     1      34.706  75.696  10.218  1.00  0.00     0.053 C 
BRANCH  17  18
ATOM     18  C   UNL     1      36.096  76.228  10.372  1.00  0.00     0.041 C 
ATOM     19  O   UNL     1      37.040  75.742   9.695  1.00  0.00    -0.550 OA
ATOM     20  O   UNL     1      36.341  77.295  11.226  1.00  0.00    -0.550 OA
ENDBRANCH  17  18
ENDBRANCH  16  17
ENDBRANCH  15  16
ENDBRANCH  14  15
ENDBRANCH  13  14
ENDBRANCH  12  13
ENDBRANCH  11  12
ENDBRANCH   1  11
TORSDOF 15
ENDMDL
MODEL 8
REMARK VINA RESULT:    -4.061      1.729      7.457
REMARK INTER + INTRA:          -9.483
REMARK INTER:                  -8.016
REMARK INTRA:                  -1.467
REMARK UNBOUND:                -1.860
REMARK SMILES O=C([O-])CCCCCCCCCCCCCCC(=O)[O-]
REMARK SMILES IDX 10 1 9 2 8 3 7 4 6 5 5 6 4 7 2 8 1 9 3 10 11 11 12 12 13 13
REMARK SMILES IDX 14 14 15 15 16 16 17 17 18 18 19 19 20 20
REMARK H PARENT
REMARK Flexibility Score: inf
ROOT
ATOM      1  C   UNL     1      32.991  78.067  13.445  1.00  0.00     0.000 C 
ENDROOT
BRANCH   1   2
ATOM      2  C   UNL     1      32.052  78.901  12.558  1.00  0.00     0.000 C 
BRANCH   2   3
ATOM      3  C   UNL     1      32.546  78.998  11.105  1.00  0.00     0.000 C 
BRANCH   3   4
ATOM      4  C   UNL     1      31.649  78.232  10.116  1.00  0.00     0.000 C 
BRANCH   4   5
ATOM      5  C   UNL     1      32.401  77.360   9.090  1.00  0.00     0.000 C 
BRANCH   5   6
ATOM      6  C   UNL     1      33.893  77.701   8.907  1.00  0.00     0.006 C 
BRANCH   6   7
ATOM      7  C   UNL     1      34.851  76.539   9.216  1.00  0.00     0.053 C 
BRANCH   7   8
ATOM      8  C   UNL     1      35.096  76.392  10.686  1.00  0.00     0.041 C 
ATOM      9  O   UNL     1      35.843  77.207  11.288  1.00  0.00    -0.550 OA
ATOM     10  O   UNL     1      34.527  75.335  11.385  1.00  0.00    -0.550 OA
ENDBRANCH   7   8
ENDBRANCH   6   7
ENDBRANCH   5   6
ENDBRANCH   4   5
ENDBRANCH   3   4
ENDBRANCH   2   3
ENDBRANCH   1   2
BRANCH   1  11
ATOM     11  C   UNL     1      32.619  78.148  14.935  1.00  0.00     0.000 C 
BRANCH  11  12
ATOM     12  C   UNL     1      31.111  77.962  15.185  1.00  0.00     0.000 C 
BRANCH  12  13
ATOM     13  C   UNL     1      30.750  77.234  16.495  1.00  0.00     0.000 C 
BRANCH  13  14
ATOM     14  C   UNL     1      31.599  77.631  17.719  1.00  0.00     0.000 C 
BRANCH  14  15
ATOM     15  C   UNL     1      31.125  78.898  18.458  1.00  0.00     0.000 C 
BRANCH  15  16
ATOM     16  C   UNL     1      31.945  80.167  18.162  1.00  0.00     0.006 C 
BRANCH  16  17
ATOM     17  C   UNL     1      31.158  81.212  17.362  1.00  0.00     0.053 C 
BRANCH  17  18
ATOM     18  C   UNL     1      31.982  81.727  16.225  1.00  0.00     0.041 C 
ATOM     19  O   UNL     1      31.599  81.559  15.036  1.00  0.00    -0.550 OA
ATOM     20  O   UNL     1      33.149  82.435  16.477  1.00  0.00    -0.550 OA
ENDBRANCH  17  18
ENDBRANCH  16  17
ENDBRANCH  15  16
ENDBRANCH  14  15
ENDBRANCH  13  14
ENDBRANCH  12  13
ENDBRANCH  11  12
ENDBRANCH   1  11
TORSDOF 15
ENDMDL
MODEL 9
REMARK VINA RESULT:    -3.986      2.470      3.864
REMARK INTER + INTRA:          -9.341
REMARK INTER:                  -7.008
REMARK INTRA:                  -2.333
REMARK UNBOUND:                -1.860
REMARK SMILES O=C([O-])CCCCCCCCCCCCCCC(=O)[O-]
REMARK SMILES IDX 10 1 9 2 8 3 7 4 6 5 5 6 4 7 2 8 1 9 3 10 11 11 12 12 13 13
REMARK SMILES IDX 14 14 15 15 16 16 17 17 18 18 19 19 20 20
REMARK H PARENT
REMARK Flexibility Score: inf
ROOT
ATOM      1  C   UNL     1      32.119  78.092   9.989  1.00  0.00     0.000 C 
ENDROOT
BRANCH   1   2
ATOM      2  C   UNL     1      32.113  78.739  11.384  1.00  0.00     0.000 C 
BRANCH   2   3
ATOM      3  C   UNL     1      31.109  78.071  12.338  1.00  0.00     0.000 C 
BRANCH   3   4
ATOM      4  C   UNL     1      31.689  77.833  13.744  1.00  0.00     0.000 C 
BRANCH   4   5
ATOM      5  C   UNL     1      33.158  78.267  13.929  1.00  0.00     0.000 C 
BRANCH   5   6
ATOM      6  C   UNL     1      33.494  78.875  15.305  1.00  0.00     0.006 C 
BRANCH   6   7
ATOM      7  C   UNL     1      32.280  79.433  16.065  1.00  0.00     0.053 C 
BRANCH   7   8
ATOM      8  C   UNL     1      32.179  80.922  15.942  1.00  0.00     0.041 C 
ATOM      9  O   UNL     1      31.601  81.438  14.950  1.00  0.00    -0.550 OA
ATOM     10  O   UNL     1      32.750  81.741  16.907  1.00  0.00    -0.550 OA
ENDBRANCH   7   8
ENDBRANCH   6   7
ENDBRANCH   5   6
ENDBRANCH   4   5
ENDBRANCH   3   4
ENDBRANCH   2   3
ENDBRANCH   1   2
BRANCH   1  11
ATOM     11  C   UNL     1      33.542  77.794   9.485  1.00  0.00     0.000 C 
BRANCH  11  12
ATOM     12  C   UNL     1      34.625  78.121  10.529  1.00  0.00     0.000 C 
BRANCH  12  13
ATOM     13  C   UNL     1      35.362  76.898  11.111  1.00  0.00     0.000 C 
BRANCH  13  14
ATOM     14  C   UNL     1      34.720  75.534  10.787  1.00  0.00     0.000 C 
BRANCH  14  15
ATOM     15  C   UNL     1      33.786  74.977  11.880  1.00  0.00     0.000 C 
BRANCH  15  16
ATOM     16  C   UNL     1      32.397  74.537  11.383  1.00  0.00     0.006 C 
BRANCH  16  17
ATOM     17  C   UNL     1      31.496  74.020  12.511  1.00  0.00     0.053 C 
BRANCH  17  18
ATOM     18  C   UNL     1      30.079  73.924  12.044  1.00  0.00     0.041 C 
ATOM     19  O   UNL     1      29.453  72.834  12.135  1.00  0.00    -0.550 OA
ATOM     20  O   UNL     1      29.431  75.049  11.552  1.00  0.00    -0.550 OA
ENDBRANCH  17  18
ENDBRANCH  16  17
ENDBRANCH  15  16
ENDBRANCH  14  15
ENDBRANCH  13  14
ENDBRANCH  12  13
ENDBRANCH  11  12
ENDBRANCH   1  11
TORSDOF 15
ENDMDL
