MODEL 1
REMARK VINA RESULT:    -6.548      0.000      0.000
REMARK INTER + INTRA:          -7.980
REMARK INTER:                  -7.697
REMARK INTRA:                  -0.283
REMARK UNBOUND:                -0.283
REMARK SMILES O=c1cc(-c2ccc(O)c(O)c2)oc2cc(O)cc(O)c12
REMARK SMILES IDX 4 1 3 2 2 3 1 4 21 5 19 6 18 7 16 8 15 9 14 10 13 11 5 12
REMARK SMILES IDX 6 13 7 14 8 15 12 16 10 17 9 18 11 20 20 22 17 24
REMARK H PARENT 9 19 11 21 20 23 17 25
REMARK Flexibility Score: inf
ROOT
ATOM      1  C   UNL     1     134.957 136.305 142.890  1.00  0.00     0.138 A 
ATOM      2  C   UNL     1     135.047 137.502 143.615  1.00  0.00     0.100 A 
ATOM      3  C   UNL     1     136.297 138.080 143.840  1.00  0.00     0.197 A 
ATOM      4  O   UNL     1     136.351 139.120 144.548  1.00  0.00    -0.289 OA
ATOM      5  C   UNL     1     137.459 137.473 143.309  1.00  0.00     0.107 A 
ATOM      6  C   UNL     1     138.781 137.994 143.440  1.00  0.00     0.134 A 
ATOM      7  C   UNL     1     139.868 137.244 142.971  1.00  0.00     0.093 A 
ATOM      8  C   UNL     1     139.676 136.024 142.325  1.00  0.00     0.123 A 
ATOM      9  C   UNL     1     138.384 135.531 142.143  1.00  0.00     0.094 A 
ATOM     10  C   UNL     1     137.282 136.238 142.629  1.00  0.00     0.146 A 
ATOM     11  O   UNL     1     136.068 135.727 142.448  1.00  0.00    -0.456 OA
ENDROOT
BRANCH   1  12
ATOM     12  C   UNL     1     133.653 135.649 142.620  1.00  0.00     0.021 A 
ATOM     13  C   UNL     1     132.751 135.342 143.656  1.00  0.00     0.016 A 
ATOM     14  C   UNL     1     131.526 134.733 143.371  1.00  0.00     0.051 A 
ATOM     15  C   UNL     1     131.176 134.428 142.050  1.00  0.00     0.157 A 
ATOM     16  C   UNL     1     133.289 135.352 141.295  1.00  0.00     0.062 A 
ATOM     17  C   UNL     1     132.063 134.741 141.007  1.00  0.00     0.158 A 
BRANCH  15  18
ATOM     18  O   UNL     1     129.954 133.819 141.770  1.00  0.00    -0.504 OA
ATOM     19  H   UNL     1     129.701 132.926 142.177  1.00  0.00     0.293 HD
ENDBRANCH  15  18
BRANCH  17  20
ATOM     20  O   UNL     1     131.743 134.453 139.680  1.00  0.00    -0.504 OA
ATOM     21  H   UNL     1     132.055 135.035 138.913  1.00  0.00     0.293 HD
ENDBRANCH  17  20
ENDBRANCH   1  12
BRANCH   6  22
ATOM     22  O   UNL     1     139.077 139.242 143.995  1.00  0.00    -0.507 OA
ATOM     23  H   UNL     1     138.868 139.516 144.942  1.00  0.00     0.293 HD
ENDBRANCH   6  22
BRANCH   8  24
ATOM     24  O   UNL     1     140.780 135.313 141.858  1.00  0.00    -0.508 OA
ATOM     25  H   UNL     1     140.674 134.496 141.268  1.00  0.00     0.293 HD
ENDBRANCH   8  24
TORSDOF 5
ENDMDL
MODEL 2
REMARK VINA RESULT:    -6.337      2.398      3.604
REMARK INTER + INTRA:          -7.731
REMARK INTER:                  -7.437
REMARK INTRA:                  -0.295
REMARK UNBOUND:                -0.283
REMARK SMILES O=c1cc(-c2ccc(O)c(O)c2)oc2cc(O)cc(O)c12
REMARK SMILES IDX 4 1 3 2 2 3 1 4 21 5 19 6 18 7 16 8 15 9 14 10 13 11 5 12
REMARK SMILES IDX 6 13 7 14 8 15 12 16 10 17 9 18 11 20 20 22 17 24
REMARK H PARENT 9 19 11 21 20 23 17 25
REMARK Flexibility Score: inf
ROOT
ATOM      1  C   UNL     1     134.196 137.455 142.844  1.00  0.00     0.138 A 
ATOM      2  C   UNL     1     135.224 137.124 143.738  1.00  0.00     0.100 A 
ATOM      3  C   UNL     1     136.257 138.034 143.970  1.00  0.00     0.197 A 
ATOM      4  O   UNL     1     137.197 137.683 144.730  1.00  0.00    -0.289 OA
ATOM      5  C   UNL     1     136.242 139.294 143.326  1.00  0.00     0.107 A 
ATOM      6  C   UNL     1     137.219 140.315 143.518  1.00  0.00     0.134 A 
ATOM      7  C   UNL     1     137.164 141.478 142.738  1.00  0.00     0.093 A 
ATOM      8  C   UNL     1     136.136 141.681 141.818  1.00  0.00     0.123 A 
ATOM      9  C   UNL     1     135.144 140.711 141.661  1.00  0.00     0.094 A 
ATOM     10  C   UNL     1     135.190 139.527 142.400  1.00  0.00     0.146 A 
ATOM     11  O   UNL     1     134.235 138.622 142.211  1.00  0.00    -0.456 OA
ENDROOT
BRANCH   1  12
ATOM     12  C   UNL     1     133.074 136.525 142.562  1.00  0.00     0.021 A 
ATOM     13  C   UNL     1     132.079 136.831 141.614  1.00  0.00     0.016 A 
ATOM     14  C   UNL     1     131.040 135.931 141.363  1.00  0.00     0.051 A 
ATOM     15  C   UNL     1     130.979 134.710 142.044  1.00  0.00     0.157 A 
ATOM     16  C   UNL     1     133.014 135.290 143.233  1.00  0.00     0.062 A 
ATOM     17  C   UNL     1     131.973 134.388 142.983  1.00  0.00     0.158 A 
BRANCH  15  18
ATOM     18  O   UNL     1     129.940 133.816 141.791  1.00  0.00    -0.504 OA
ATOM     19  H   UNL     1     130.116 132.833 141.618  1.00  0.00     0.293 HD
ENDBRANCH  15  18
BRANCH  17  20
ATOM     20  O   UNL     1     131.943 133.179 143.676  1.00  0.00    -0.504 OA
ATOM     21  H   UNL     1     131.337 132.415 143.403  1.00  0.00     0.293 HD
ENDBRANCH  17  20
ENDBRANCH   1  12
BRANCH   6  22
ATOM     22  O   UNL     1     138.241 140.251 144.470  1.00  0.00    -0.507 OA
ATOM     23  H   UNL     1     138.476 139.432 145.008  1.00  0.00     0.293 HD
ENDBRANCH   6  22
BRANCH   8  24
ATOM     24  O   UNL     1     136.105 142.855 141.070  1.00  0.00    -0.508 OA
ATOM     25  H   UNL     1     136.797 143.048 140.355  1.00  0.00     0.293 HD
ENDBRANCH   8  24
TORSDOF 5
ENDMDL
MODEL 3
REMARK VINA RESULT:    -6.320      2.007      7.119
REMARK INTER + INTRA:          -7.712
REMARK INTER:                  -7.449
REMARK INTRA:                  -0.263
REMARK UNBOUND:                -0.283
REMARK SMILES O=c1cc(-c2ccc(O)c(O)c2)oc2cc(O)cc(O)c12
REMARK SMILES IDX 4 1 3 2 2 3 1 4 21 5 19 6 18 7 16 8 15 9 14 10 13 11 5 12
REMARK SMILES IDX 6 13 7 14 8 15 12 16 10 17 9 18 11 20 20 22 17 24
REMARK H PARENT 9 19 11 21 20 23 17 25
REMARK Flexibility Score: inf
ROOT
ATOM      1  C   UNL     1     136.037 135.795 141.690  1.00  0.00     0.138 A 
ATOM      2  C   UNL     1     135.344 135.025 140.745  1.00  0.00     0.100 A 
ATOM      3  C   UNL     1     133.951 134.967 140.790  1.00  0.00     0.197 A 
ATOM      4  O   UNL     1     133.361 134.219 139.967  1.00  0.00    -0.289 OA
ATOM      5  C   UNL     1     133.247 135.709 141.767  1.00  0.00     0.107 A 
ATOM      6  C   UNL     1     131.826 135.758 141.883  1.00  0.00     0.134 A 
ATOM      7  C   UNL     1     131.244 136.435 142.963  1.00  0.00     0.093 A 
ATOM      8  C   UNL     1     132.028 137.112 143.896  1.00  0.00     0.123 A 
ATOM      9  C   UNL     1     133.417 137.116 143.762  1.00  0.00     0.094 A 
ATOM     10  C   UNL     1     134.029 136.422 142.715  1.00  0.00     0.146 A 
ATOM     11  O   UNL     1     135.355 136.439 142.631  1.00  0.00    -0.456 OA
ENDROOT
BRANCH   1  12
ATOM     12  C   UNL     1     137.519 135.893 141.686  1.00  0.00     0.021 A 
ATOM     13  C   UNL     1     138.317 135.068 142.501  1.00  0.00     0.016 A 
ATOM     14  C   UNL     1     139.710 135.175 142.468  1.00  0.00     0.051 A 
ATOM     15  C   UNL     1     140.330 136.100 141.619  1.00  0.00     0.157 A 
ATOM     16  C   UNL     1     138.149 136.809 140.826  1.00  0.00     0.062 A 
ATOM     17  C   UNL     1     139.544 136.920 140.793  1.00  0.00     0.158 A 
BRANCH  15  18
ATOM     18  O   UNL     1     141.719 136.205 141.592  1.00  0.00    -0.504 OA
ATOM     19  H   UNL     1     142.210 136.529 140.766  1.00  0.00     0.293 HD
ENDBRANCH  15  18
BRANCH  17  20
ATOM     20  O   UNL     1     140.131 137.848 139.934  1.00  0.00    -0.504 OA
ATOM     21  H   UNL     1     140.965 137.637 139.401  1.00  0.00     0.293 HD
ENDBRANCH  17  20
ENDBRANCH   1  12
BRANCH   6  22
ATOM     22  O   UNL     1     130.946 135.186 140.959  1.00  0.00    -0.507 OA
ATOM     23  H   UNL     1     131.179 134.965 140.003  1.00  0.00     0.293 HD
ENDBRANCH   6  22
BRANCH   8  24
ATOM     24  O   UNL     1     131.415 137.787 144.949  1.00  0.00    -0.508 OA
ATOM     25  H   UNL     1     131.885 138.534 145.447  1.00  0.00     0.293 HD
ENDBRANCH   8  24
TORSDOF 5
ENDMDL
MODEL 4
REMARK VINA RESULT:    -6.284      2.407      2.836
REMARK INTER + INTRA:          -7.669
REMARK INTER:                  -7.350
REMARK INTRA:                  -0.318
REMARK UNBOUND:                -0.283
REMARK SMILES O=c1cc(-c2ccc(O)c(O)c2)oc2cc(O)cc(O)c12
REMARK SMILES IDX 4 1 3 2 2 3 1 4 21 5 19 6 18 7 16 8 15 9 14 10 13 11 5 12
REMARK SMILES IDX 6 13 7 14 8 15 12 16 10 17 9 18 11 20 20 22 17 24
REMARK H PARENT 9 19 11 21 20 23 17 25
REMARK Flexibility Score: inf
ROOT
ATOM      1  C   UNL     1     133.976 137.517 142.703  1.00  0.00     0.138 A 
ATOM      2  C   UNL     1     134.032 138.751 142.040  1.00  0.00     0.100 A 
ATOM      3  C   UNL     1     135.081 139.631 142.308  1.00  0.00     0.197 A 
ATOM      4  O   UNL     1     135.069 140.757 141.744  1.00  0.00    -0.289 OA
ATOM      5  C   UNL     1     136.096 139.260 143.220  1.00  0.00     0.107 A 
ATOM      6  C   UNL     1     137.234 140.058 143.539  1.00  0.00     0.134 A 
ATOM      7  C   UNL     1     138.113 139.636 144.545  1.00  0.00     0.093 A 
ATOM      8  C   UNL     1     137.928 138.420 145.200  1.00  0.00     0.123 A 
ATOM      9  C   UNL     1     136.849 137.605 144.858  1.00  0.00     0.094 A 
ATOM     10  C   UNL     1     135.935 138.013 143.882  1.00  0.00     0.146 A 
ATOM     11  O   UNL     1     134.912 137.214 143.595  1.00  0.00    -0.456 OA
ENDROOT
BRANCH   1  12
ATOM     12  C   UNL     1     132.883 136.543 142.455  1.00  0.00     0.021 A 
ATOM     13  C   UNL     1     131.867 136.795 141.515  1.00  0.00     0.016 A 
ATOM     14  C   UNL     1     130.856 135.855 141.295  1.00  0.00     0.051 A 
ATOM     15  C   UNL     1     130.847 134.646 142.002  1.00  0.00     0.157 A 
ATOM     16  C   UNL     1     132.875 135.321 143.151  1.00  0.00     0.062 A 
ATOM     17  C   UNL     1     131.863 134.378 142.933  1.00  0.00     0.158 A 
BRANCH  15  18
ATOM     18  O   UNL     1     129.836 133.712 141.780  1.00  0.00    -0.504 OA
ATOM     19  H   UNL     1     129.952 132.736 142.029  1.00  0.00     0.293 HD
ENDBRANCH  15  18
BRANCH  17  20
ATOM     20  O   UNL     1     131.884 133.183 143.651  1.00  0.00    -0.504 OA
ATOM     21  H   UNL     1     131.063 132.822 144.121  1.00  0.00     0.293 HD
ENDBRANCH  17  20
ENDBRANCH   1  12
BRANCH   6  22
ATOM     22  O   UNL     1     137.559 141.252 142.888  1.00  0.00    -0.507 OA
ATOM     23  H   UNL     1     138.462 141.698 142.920  1.00  0.00     0.293 HD
ENDBRANCH   6  22
BRANCH   8  24
ATOM     24  O   UNL     1     138.831 138.025 146.185  1.00  0.00    -0.508 OA
ATOM     25  H   UNL     1     139.236 138.691 146.832  1.00  0.00     0.293 HD
ENDBRANCH   8  24
TORSDOF 5
ENDMDL
MODEL 5
REMARK VINA RESULT:    -6.279      5.017      7.936
REMARK INTER + INTRA:          -7.663
REMARK INTER:                  -7.364
REMARK INTRA:                  -0.299
REMARK UNBOUND:                -0.283
REMARK SMILES O=c1cc(-c2ccc(O)c(O)c2)oc2cc(O)cc(O)c12
REMARK SMILES IDX 4 1 3 2 2 3 1 4 21 5 19 6 18 7 16 8 15 9 14 10 13 11 5 12
REMARK SMILES IDX 6 13 7 14 8 15 12 16 10 17 9 18 11 20 20 22 17 24
REMARK H PARENT 9 19 11 21 20 23 17 25
REMARK Flexibility Score: inf
ROOT
ATOM      1  C   UNL     1     141.694 137.739 140.052  1.00  0.00     0.138 A 
ATOM      2  C   UNL     1     142.853 137.096 139.593  1.00  0.00     0.100 A 
ATOM      3  C   UNL     1     143.856 137.841 138.973  1.00  0.00     0.197 A 
ATOM      4  O   UNL     1     144.855 137.227 138.517  1.00  0.00    -0.289 OA
ATOM      5  C   UNL     1     143.712 139.242 138.840  1.00  0.00     0.107 A 
ATOM      6  C   UNL     1     144.687 140.108 138.262  1.00  0.00     0.134 A 
ATOM      7  C   UNL     1     144.384 141.464 138.078  1.00  0.00     0.093 A 
ATOM      8  C   UNL     1     143.168 141.994 138.505  1.00  0.00     0.123 A 
ATOM      9  C   UNL     1     142.228 141.167 139.121  1.00  0.00     0.094 A 
ATOM     10  C   UNL     1     142.486 139.804 139.287  1.00  0.00     0.146 A 
ATOM     11  O   UNL     1     141.559 139.047 139.866  1.00  0.00    -0.456 OA
ENDROOT
BRANCH   1  12
ATOM     12  C   UNL     1     140.597 136.995 140.720  1.00  0.00     0.021 A 
ATOM     13  C   UNL     1     140.857 135.967 141.645  1.00  0.00     0.016 A 
ATOM     14  C   UNL     1     139.803 135.290 142.266  1.00  0.00     0.051 A 
ATOM     15  C   UNL     1     138.475 135.632 141.981  1.00  0.00     0.157 A 
ATOM     16  C   UNL     1     139.261 137.342 140.449  1.00  0.00     0.062 A 
ATOM     17  C   UNL     1     138.204 136.664 141.069  1.00  0.00     0.158 A 
BRANCH  15  18
ATOM     18  O   UNL     1     137.428 134.953 142.602  1.00  0.00    -0.504 OA
ATOM     19  H   UNL     1     136.668 135.449 143.053  1.00  0.00     0.293 HD
ENDBRANCH  15  18
BRANCH  17  20
ATOM     20  O   UNL     1     136.894 137.031 140.766  1.00  0.00    -0.504 OA
ATOM     21  H   UNL     1     136.354 136.561 140.049  1.00  0.00     0.293 HD
ENDBRANCH  17  20
ENDBRANCH   1  12
BRANCH   6  22
ATOM     22  O   UNL     1     145.967 139.698 137.878  1.00  0.00    -0.507 OA
ATOM     23  H   UNL     1     146.177 138.831 137.407  1.00  0.00     0.293 HD
ENDBRANCH   6  22
BRANCH   8  24
ATOM     24  O   UNL     1     142.906 143.350 138.319  1.00  0.00    -0.508 OA
ATOM     25  H   UNL     1     142.200 143.834 138.861  1.00  0.00     0.293 HD
ENDBRANCH   8  24
TORSDOF 5
ENDMDL
MODEL 6
REMARK VINA RESULT:    -6.273      2.189      7.218
REMARK INTER + INTRA:          -7.656
REMARK INTER:                  -7.364
REMARK INTRA:                  -0.292
REMARK UNBOUND:                -0.283
REMARK SMILES O=c1cc(-c2ccc(O)c(O)c2)oc2cc(O)cc(O)c12
REMARK SMILES IDX 4 1 3 2 2 3 1 4 21 5 19 6 18 7 16 8 15 9 14 10 13 11 5 12
REMARK SMILES IDX 6 13 7 14 8 15 12 16 10 17 9 18 11 20 20 22 17 24
REMARK H PARENT 9 19 11 21 20 23 17 25
REMARK Flexibility Score: inf
ROOT
ATOM      1  C   UNL     1     135.919 135.959 140.937  1.00  0.00     0.138 A 
ATOM      2  C   UNL     1     135.324 136.396 139.745  1.00  0.00     0.100 A 
ATOM      3  C   UNL     1     133.955 136.213 139.550  1.00  0.00     0.197 A 
ATOM      4  O   UNL     1     133.461 136.559 138.445  1.00  0.00    -0.289 OA
ATOM      5  C   UNL     1     133.173 135.617 140.567  1.00  0.00     0.107 A 
ATOM      6  C   UNL     1     131.762 135.416 140.495  1.00  0.00     0.134 A 
ATOM      7  C   UNL     1     131.113 134.710 141.516  1.00  0.00     0.093 A 
ATOM      8  C   UNL     1     131.811 134.250 142.631  1.00  0.00     0.123 A 
ATOM      9  C   UNL     1     133.182 134.488 142.738  1.00  0.00     0.094 A 
ATOM     10  C   UNL     1     133.865 135.160 141.720  1.00  0.00     0.146 A 
ATOM     11  O   UNL     1     135.173 135.354 141.853  1.00  0.00    -0.456 OA
ENDROOT
BRANCH   1  12
ATOM     12  C   UNL     1     137.371 136.131 141.196  1.00  0.00     0.021 A 
ATOM     13  C   UNL     1     138.039 135.388 142.188  1.00  0.00     0.016 A 
ATOM     14  C   UNL     1     139.409 135.564 142.402  1.00  0.00     0.051 A 
ATOM     15  C   UNL     1     140.136 136.476 141.628  1.00  0.00     0.157 A 
ATOM     16  C   UNL     1     138.111 137.035 140.413  1.00  0.00     0.062 A 
ATOM     17  C   UNL     1     139.483 137.214 140.628  1.00  0.00     0.158 A 
BRANCH  15  18
ATOM     18  O   UNL     1     141.502 136.650 141.847  1.00  0.00    -0.504 OA
ATOM     19  H   UNL     1     142.133 136.890 141.092  1.00  0.00     0.293 HD
ENDBRANCH  15  18
BRANCH  17  20
ATOM     20  O   UNL     1     140.179 138.127 139.837  1.00  0.00    -0.504 OA
ATOM     21  H   UNL     1     140.644 137.854 138.980  1.00  0.00     0.293 HD
ENDBRANCH  17  20
ENDBRANCH   1  12
BRANCH   6  22
ATOM     22  O   UNL     1     130.954 135.908 139.465  1.00  0.00    -0.507 OA
ATOM     23  H   UNL     1     130.995 136.846 139.099  1.00  0.00     0.293 HD
ENDBRANCH   6  22
BRANCH   8  24
ATOM     24  O   UNL     1     131.130 133.564 143.635  1.00  0.00    -0.508 OA
ATOM     25  H   UNL     1     130.584 132.734 143.434  1.00  0.00     0.293 HD
ENDBRANCH   8  24
TORSDOF 5
ENDMDL
MODEL 7
REMARK VINA RESULT:    -6.221      1.298      2.762
REMARK INTER + INTRA:          -7.595
REMARK INTER:                  -7.331
REMARK INTRA:                  -0.264
REMARK UNBOUND:                -0.283
REMARK SMILES O=c1cc(-c2ccc(O)c(O)c2)oc2cc(O)cc(O)c12
REMARK SMILES IDX 4 1 3 2 2 3 1 4 21 5 19 6 18 7 16 8 15 9 14 10 13 11 5 12
REMARK SMILES IDX 6 13 7 14 8 15 12 16 10 17 9 18 11 20 20 22 17 24
REMARK H PARENT 9 19 11 21 20 23 17 25
REMARK Flexibility Score: inf
ROOT
ATOM      1  C   UNL     1     135.104 136.226 142.455  1.00  0.00     0.138 A 
ATOM      2  C   UNL     1     136.285 135.515 142.201  1.00  0.00     0.100 A 
ATOM      3  C   UNL     1     137.519 136.145 142.367  1.00  0.00     0.197 A 
ATOM      4  O   UNL     1     138.559 135.500 142.071  1.00  0.00    -0.289 OA
ATOM      5  C   UNL     1     137.570 137.485 142.819  1.00  0.00     0.107 A 
ATOM      6  C   UNL     1     138.771 138.215 143.062  1.00  0.00     0.134 A 
ATOM      7  C   UNL     1     138.696 139.574 143.397  1.00  0.00     0.093 A 
ATOM      8  C   UNL     1     137.467 140.210 143.554  1.00  0.00     0.123 A 
ATOM      9  C   UNL     1     136.284 139.492 143.372  1.00  0.00     0.094 A 
ATOM     10  C   UNL     1     136.326 138.144 143.004  1.00  0.00     0.146 A 
ATOM     11  O   UNL     1     135.177 137.499 142.826  1.00  0.00    -0.456 OA
ENDROOT
BRANCH   1  12
ATOM     12  C   UNL     1     133.765 135.603 142.296  1.00  0.00     0.021 A 
ATOM     13  C   UNL     1     132.931 135.349 143.402  1.00  0.00     0.016 A 
ATOM     14  C   UNL     1     131.672 134.771 143.220  1.00  0.00     0.051 A 
ATOM     15  C   UNL     1     131.220 134.445 141.936  1.00  0.00     0.157 A 
ATOM     16  C   UNL     1     133.299 135.285 141.008  1.00  0.00     0.062 A 
ATOM     17  C   UNL     1     132.038 134.705 140.825  1.00  0.00     0.158 A 
BRANCH  15  18
ATOM     18  O   UNL     1     129.964 133.867 141.760  1.00  0.00    -0.504 OA
ATOM     19  H   UNL     1     129.112 134.371 141.980  1.00  0.00     0.293 HD
ENDBRANCH  15  18
BRANCH  17  20
ATOM     20  O   UNL     1     131.616 134.395 139.532  1.00  0.00    -0.504 OA
ATOM     21  H   UNL     1     131.920 133.557 139.052  1.00  0.00     0.293 HD
ENDBRANCH  17  20
ENDBRANCH   1  12
BRANCH   6  22
ATOM     22  O   UNL     1     140.050 137.654 143.014  1.00  0.00    -0.507 OA
ATOM     23  H   UNL     1     140.469 137.111 143.753  1.00  0.00     0.293 HD
ENDBRANCH   6  22
BRANCH   8  24
ATOM     24  O   UNL     1     137.430 141.559 143.902  1.00  0.00    -0.508 OA
ATOM     25  H   UNL     1     137.739 141.881 144.812  1.00  0.00     0.293 HD
ENDBRANCH   8  24
TORSDOF 5
ENDMDL
MODEL 8
REMARK VINA RESULT:    -6.205      1.820      7.359
REMARK INTER + INTRA:          -7.576
REMARK INTER:                  -7.259
REMARK INTRA:                  -0.317
REMARK UNBOUND:                -0.283
REMARK SMILES O=c1cc(-c2ccc(O)c(O)c2)oc2cc(O)cc(O)c12
REMARK SMILES IDX 4 1 3 2 2 3 1 4 21 5 19 6 18 7 16 8 15 9 14 10 13 11 5 12
REMARK SMILES IDX 6 13 7 14 8 15 12 16 10 17 9 18 11 20 20 22 17 24
REMARK H PARENT 9 19 11 21 20 23 17 25
REMARK Flexibility Score: inf
ROOT
ATOM      1  C   UNL     1     135.216 136.332 142.342  1.00  0.00     0.138 A 
ATOM      2  C   UNL     1     135.258 135.374 141.319  1.00  0.00     0.100 A 
ATOM      3  C   UNL     1     134.081 135.015 140.661  1.00  0.00     0.197 A 
ATOM      4  O   UNL     1     134.141 134.108 139.791  1.00  0.00    -0.289 OA
ATOM      5  C   UNL     1     132.861 135.642 141.009  1.00  0.00     0.107 A 
ATOM      6  C   UNL     1     131.607 135.385 140.379  1.00  0.00     0.134 A 
ATOM      7  C   UNL     1     130.445 135.981 140.887  1.00  0.00     0.093 A 
ATOM      8  C   UNL     1     130.500 136.868 141.961  1.00  0.00     0.123 A 
ATOM      9  C   UNL     1     131.729 137.168 142.550  1.00  0.00     0.094 A 
ATOM     10  C   UNL     1     132.901 136.564 142.089  1.00  0.00     0.146 A 
ATOM     11  O   UNL     1     134.049 136.866 142.687  1.00  0.00    -0.456 OA
ENDROOT
BRANCH   1  12
ATOM     12  C   UNL     1     136.438 136.751 143.074  1.00  0.00     0.021 A 
ATOM     13  C   UNL     1     137.726 136.407 142.621  1.00  0.00     0.016 A 
ATOM     14  C   UNL     1     138.859 136.825 143.325  1.00  0.00     0.051 A 
ATOM     15  C   UNL     1     138.727 137.599 144.484  1.00  0.00     0.157 A 
ATOM     16  C   UNL     1     136.315 137.541 144.231  1.00  0.00     0.062 A 
ATOM     17  C   UNL     1     137.449 137.959 144.938  1.00  0.00     0.158 A 
BRANCH  15  18
ATOM     18  O   UNL     1     139.860 138.012 145.184  1.00  0.00    -0.504 OA
ATOM     19  H   UNL     1     140.747 138.160 144.717  1.00  0.00     0.293 HD
ENDBRANCH  15  18
BRANCH  17  20
ATOM     20  O   UNL     1     137.284 138.732 146.087  1.00  0.00    -0.504 OA
ATOM     21  H   UNL     1     136.810 138.380 146.910  1.00  0.00     0.293 HD
ENDBRANCH  17  20
ENDBRANCH   1  12
BRANCH   6  22
ATOM     22  O   UNL     1     131.452 134.581 139.246  1.00  0.00    -0.507 OA
ATOM     23  H   UNL     1     131.390 134.924 138.300  1.00  0.00     0.293 HD
ENDBRANCH   6  22
BRANCH   8  24
ATOM     24  O   UNL     1     129.326 137.453 142.430  1.00  0.00    -0.508 OA
ATOM     25  H   UNL     1     129.024 137.341 143.391  1.00  0.00     0.293 HD
ENDBRANCH   8  24
TORSDOF 5
ENDMDL
MODEL 9
REMARK VINA RESULT:    -6.157      5.200      6.430
REMARK INTER + INTRA:          -7.520
REMARK INTER:                  -7.205
REMARK INTRA:                  -0.315
REMARK UNBOUND:                -0.283
REMARK SMILES O=c1cc(-c2ccc(O)c(O)c2)oc2cc(O)cc(O)c12
REMARK SMILES IDX 4 1 3 2 2 3 1 4 21 5 19 6 18 7 16 8 15 9 14 10 13 11 5 12
REMARK SMILES IDX 6 13 7 14 8 15 12 16 10 17 9 18 11 20 20 22 17 24
REMARK H PARENT 9 19 11 21 20 23 17 25
REMARK Flexibility Score: inf
ROOT
ATOM      1  C   UNL     1     131.880 139.604 140.384  1.00  0.00     0.138 A 
ATOM      2  C   UNL     1     133.014 138.849 140.715  1.00  0.00     0.100 A 
ATOM      3  C   UNL     1     134.182 139.498 141.119  1.00  0.00     0.197 A 
ATOM      4  O   UNL     1     135.201 138.796 141.349  1.00  0.00    -0.289 OA
ATOM      5  C   UNL     1     134.203 140.909 141.222  1.00  0.00     0.107 A 
ATOM      6  C   UNL     1     135.323 141.674 141.662  1.00  0.00     0.134 A 
ATOM      7  C   UNL     1     135.265 143.073 141.613  1.00  0.00     0.093 A 
ATOM      8  C   UNL     1     134.109 143.732 141.196  1.00  0.00     0.123 A 
ATOM      9  C   UNL     1     132.988 142.993 140.815  1.00  0.00     0.094 A 
ATOM     10  C   UNL     1     133.027 141.597 140.821  1.00  0.00     0.146 A 
ATOM     11  O   UNL     1     131.943 140.930 140.437  1.00  0.00    -0.456 OA
ENDROOT
BRANCH   1  12
ATOM     12  C   UNL     1     130.613 138.964 139.949  1.00  0.00     0.021 A 
ATOM     13  C   UNL     1     130.359 137.598 140.172  1.00  0.00     0.016 A 
ATOM     14  C   UNL     1     129.152 137.026 139.761  1.00  0.00     0.051 A 
ATOM     15  C   UNL     1     128.176 137.806 139.129  1.00  0.00     0.157 A 
ATOM     16  C   UNL     1     129.622 139.745 139.326  1.00  0.00     0.062 A 
ATOM     17  C   UNL     1     128.413 139.173 138.912  1.00  0.00     0.158 A 
BRANCH  15  18
ATOM     18  O   UNL     1     126.975 137.231 138.719  1.00  0.00    -0.504 OA
ATOM     19  H   UNL     1     126.800 136.238 138.821  1.00  0.00     0.293 HD
ENDBRANCH  15  18
BRANCH  17  20
ATOM     20  O   UNL     1     127.461 139.979 138.289  1.00  0.00    -0.504 OA
ATOM     21  H   UNL     1     127.502 140.990 138.328  1.00  0.00     0.293 HD
ENDBRANCH  17  20
ENDBRANCH   1  12
BRANCH   6  22
ATOM     22  O   UNL     1     136.497 141.117 142.177  1.00  0.00    -0.507 OA
ATOM     23  H   UNL     1     136.877 141.316 143.090  1.00  0.00     0.293 HD
ENDBRANCH   6  22
BRANCH   8  24
ATOM     24  O   UNL     1     134.082 145.125 141.173  1.00  0.00    -0.508 OA
ATOM     25  H   UNL     1     134.164 145.644 140.307  1.00  0.00     0.293 HD
ENDBRANCH   8  24
TORSDOF 5
ENDMDL
