MODEL 1
REMARK VINA RESULT:    -2.628      0.000      0.000
REMARK INTER + INTRA:          -3.203
REMARK INTER:                  -3.089
REMARK INTRA:                  -0.114
REMARK UNBOUND:                -0.114
REMARK SMILES CCCCC(=O)[O-]
REMARK SMILES IDX 4 1 5 2 6 3 7 4 3 5 2 6 1 7
REMARK H PARENT
REMARK Flexibility Score: inf
ROOT
ATOM      1  C   UNL     1      64.820  42.967  15.235  1.00  0.00     0.053 C 
ENDROOT
BRANCH   1   2
ATOM      2  C   UNL     1      64.410  41.812  16.096  1.00  0.00     0.041 C 
ATOM      3  O   UNL     1      64.012  40.740  15.570  1.00  0.00    -0.550 OA
ATOM      4  O   UNL     1      64.436  41.932  17.480  1.00  0.00    -0.550 OA
ENDBRANCH   1   2
BRANCH   1   5
ATOM      5  C   UNL     1      63.626  43.861  14.874  1.00  0.00     0.006 C 
BRANCH   5   6
ATOM      6  C   UNL     1      63.395  44.969  15.912  1.00  0.00    -0.003 C 
ATOM      7  C   UNL     1      62.109  44.730  16.696  1.00  0.00     0.004 C 
ENDBRANCH   5   6
ENDBRANCH   1   5
TORSDOF 3
ENDMDL
MODEL 2
REMARK VINA RESULT:    -2.486     11.400     11.981
REMARK INTER + INTRA:          -3.036
REMARK INTER:                  -3.010
REMARK INTRA:                  -0.026
REMARK UNBOUND:                -0.114
REMARK SMILES CCCCC(=O)[O-]
REMARK SMILES IDX 4 1 5 2 6 3 7 4 3 5 2 6 1 7
REMARK H PARENT
REMARK Flexibility Score: inf
ROOT
ATOM      1  C   UNL     1      56.117  34.740  12.871  1.00  0.00     0.053 C 
ENDROOT
BRANCH   1   2
ATOM      2  C   UNL     1      55.532  35.942  12.197  1.00  0.00     0.041 C 
ATOM      3  O   UNL     1      56.099  36.445  11.192  1.00  0.00    -0.550 OA
ATOM      4  O   UNL     1      54.376  36.528  12.699  1.00  0.00    -0.550 OA
ENDBRANCH   1   2
BRANCH   1   5
ATOM      5  C   UNL     1      57.168  34.049  11.993  1.00  0.00     0.006 C 
BRANCH   5   6
ATOM      6  C   UNL     1      58.238  33.328  12.826  1.00  0.00    -0.003 C 
ATOM      7  C   UNL     1      59.598  33.378  12.136  1.00  0.00     0.004 C 
ENDBRANCH   5   6
ENDBRANCH   1   5
TORSDOF 3
ENDMDL
MODEL 3
REMARK VINA RESULT:    -2.480     16.095     17.159
REMARK INTER + INTRA:          -3.029
REMARK INTER:                  -2.924
REMARK INTRA:                  -0.105
REMARK UNBOUND:                -0.114
REMARK SMILES CCCCC(=O)[O-]
REMARK SMILES IDX 4 1 5 2 6 3 7 4 3 5 2 6 1 7
REMARK H PARENT
REMARK Flexibility Score: inf
ROOT
ATOM      1  C   UNL     1      48.072  43.359  14.970  1.00  0.00     0.053 C 
ENDROOT
BRANCH   1   2
ATOM      2  C   UNL     1      47.615  44.779  15.103  1.00  0.00     0.041 C 
ATOM      3  O   UNL     1      48.380  45.724  14.779  1.00  0.00    -0.550 OA
ATOM      4  O   UNL     1      46.354  45.059  15.618  1.00  0.00    -0.550 OA
ENDBRANCH   1   2
BRANCH   1   5
ATOM      5  C   UNL     1      47.135  42.540  14.072  1.00  0.00     0.006 C 
BRANCH   5   6
ATOM      6  C   UNL     1      46.438  41.408  14.841  1.00  0.00    -0.003 C 
ATOM      7  C   UNL     1      45.019  41.806  15.239  1.00  0.00     0.004 C 
ENDBRANCH   5   6
ENDBRANCH   1   5
TORSDOF 3
ENDMDL
MODEL 4
REMARK VINA RESULT:    -2.480      1.953      3.333
REMARK INTER + INTRA:          -3.028
REMARK INTER:                  -2.918
REMARK INTRA:                  -0.110
REMARK UNBOUND:                -0.114
REMARK SMILES CCCCC(=O)[O-]
REMARK SMILES IDX 4 1 5 2 6 3 7 4 3 5 2 6 1 7
REMARK H PARENT
REMARK Flexibility Score: inf
ROOT
ATOM      1  C   UNL     1      63.595  44.915  15.837  1.00  0.00     0.053 C 
ENDROOT
BRANCH   1   2
ATOM      2  C   UNL     1      62.632  44.595  16.938  1.00  0.00     0.041 C 
ATOM      3  O   UNL     1      63.033  44.021  17.984  1.00  0.00    -0.550 OA
ATOM      4  O   UNL     1      61.284  44.901  16.795  1.00  0.00    -0.550 OA
ENDBRANCH   1   2
BRANCH   1   5
ATOM      5  C   UNL     1      63.689  43.776  14.813  1.00  0.00     0.006 C 
BRANCH   5   6
ATOM      6  C   UNL     1      64.791  42.767  15.167  1.00  0.00    -0.003 C 
ATOM      7  C   UNL     1      64.195  41.436  15.617  1.00  0.00     0.004 C 
ENDBRANCH   5   6
ENDBRANCH   1   5
TORSDOF 3
ENDMDL
MODEL 5
REMARK VINA RESULT:    -2.475     14.792     15.767
REMARK INTER + INTRA:          -3.022
REMARK INTER:                  -3.004
REMARK INTRA:                  -0.019
REMARK UNBOUND:                -0.114
REMARK SMILES CCCCC(=O)[O-]
REMARK SMILES IDX 4 1 5 2 6 3 7 4 3 5 2 6 1 7
REMARK H PARENT
REMARK Flexibility Score: inf
ROOT
ATOM      1  C   UNL     1      48.569  43.406  15.018  1.00  0.00     0.053 C 
ENDROOT
BRANCH   1   2
ATOM      2  C   UNL     1      47.215  43.052  14.484  1.00  0.00     0.041 C 
ATOM      3  O   UNL     1      47.003  41.909  14.000  1.00  0.00    -0.550 OA
ATOM      4  O   UNL     1      46.195  43.997  14.491  1.00  0.00    -0.550 OA
ENDBRANCH   1   2
BRANCH   1   5
ATOM      5  C   UNL     1      48.854  44.908  14.896  1.00  0.00     0.006 C 
BRANCH   5   6
ATOM      6  C   UNL     1      50.325  45.195  14.557  1.00  0.00    -0.003 C 
ATOM      7  C   UNL     1      50.508  46.629  14.070  1.00  0.00     0.004 C 
ENDBRANCH   5   6
ENDBRANCH   1   5
TORSDOF 3
ENDMDL
MODEL 6
REMARK VINA RESULT:    -2.473     16.183     17.241
REMARK INTER + INTRA:          -3.020
REMARK INTER:                  -2.948
REMARK INTRA:                  -0.072
REMARK UNBOUND:                -0.114
REMARK SMILES CCCCC(=O)[O-]
REMARK SMILES IDX 4 1 5 2 6 3 7 4 3 5 2 6 1 7
REMARK H PARENT
REMARK Flexibility Score: inf
ROOT
ATOM      1  C   UNL     1      47.979  43.278  14.905  1.00  0.00     0.053 C 
ENDROOT
BRANCH   1   2
ATOM      2  C   UNL     1      47.487  44.684  15.057  1.00  0.00     0.041 C 
ATOM      3  O   UNL     1      46.297  44.906  15.402  1.00  0.00    -0.550 OA
ATOM      4  O   UNL     1      48.335  45.752  14.785  1.00  0.00    -0.550 OA
ENDBRANCH   1   2
BRANCH   1   5
ATOM      5  C   UNL     1      47.053  42.444  14.009  1.00  0.00     0.006 C 
BRANCH   5   6
ATOM      6  C   UNL     1      46.323  41.344  14.794  1.00  0.00    -0.003 C 
ATOM      7  C   UNL     1      44.933  41.804  15.224  1.00  0.00     0.004 C 
ENDBRANCH   5   6
ENDBRANCH   1   5
TORSDOF 3
ENDMDL
MODEL 7
REMARK VINA RESULT:    -2.431      2.445      3.607
REMARK INTER + INTRA:          -2.972
REMARK INTER:                  -2.869
REMARK INTRA:                  -0.102
REMARK UNBOUND:                -0.114
REMARK SMILES CCCCC(=O)[O-]
REMARK SMILES IDX 4 1 5 2 6 3 7 4 3 5 2 6 1 7
REMARK H PARENT
REMARK Flexibility Score: inf
ROOT
ATOM      1  C   UNL     1      63.086  44.541  16.028  1.00  0.00     0.053 C 
ENDROOT
BRANCH   1   2
ATOM      2  C   UNL     1      63.935  45.691  16.476  1.00  0.00     0.041 C 
ATOM      3  O   UNL     1      63.610  46.871  16.184  1.00  0.00    -0.550 OA
ATOM      4  O   UNL     1      65.104  45.456  17.190  1.00  0.00    -0.550 OA
ENDBRANCH   1   2
BRANCH   1   5
ATOM      5  C   UNL     1      63.632  43.895  14.748  1.00  0.00     0.006 C 
BRANCH   5   6
ATOM      6  C   UNL     1      64.380  42.584  15.034  1.00  0.00    -0.003 C 
ATOM      7  C   UNL     1      63.945  41.981  16.367  1.00  0.00     0.004 C 
ENDBRANCH   5   6
ENDBRANCH   1   5
TORSDOF 3
ENDMDL
MODEL 8
REMARK VINA RESULT:    -2.298     14.137     15.268
REMARK INTER + INTRA:          -2.815
REMARK INTER:                  -2.797
REMARK INTRA:                  -0.018
REMARK UNBOUND:                -0.114
REMARK SMILES CCCCC(=O)[O-]
REMARK SMILES IDX 4 1 5 2 6 3 7 4 3 5 2 6 1 7
REMARK H PARENT
REMARK Flexibility Score: inf
ROOT
ATOM      1  C   UNL     1      49.918  44.910  14.586  1.00  0.00     0.053 C 
ENDROOT
BRANCH   1   2
ATOM      2  C   UNL     1      50.086  46.361  14.254  1.00  0.00     0.041 C 
ATOM      3  O   UNL     1      51.145  46.768  13.707  1.00  0.00    -0.550 OA
ATOM      4  O   UNL     1      49.086  47.270  14.578  1.00  0.00    -0.550 OA
ENDBRANCH   1   2
BRANCH   1   5
ATOM      5  C   UNL     1      48.459  44.566  14.914  1.00  0.00     0.006 C 
BRANCH   5   6
ATOM      6  C   UNL     1      48.251  43.058  15.119  1.00  0.00    -0.003 C 
ATOM      7  C   UNL     1      47.179  42.518  14.178  1.00  0.00     0.004 C 
ENDBRANCH   5   6
ENDBRANCH   1   5
TORSDOF 3
ENDMDL
MODEL 9
REMARK VINA RESULT:    -2.269     14.334     15.323
REMARK INTER + INTRA:          -2.781
REMARK INTER:                  -2.733
REMARK INTRA:                  -0.048
REMARK UNBOUND:                -0.114
REMARK SMILES CCCCC(=O)[O-]
REMARK SMILES IDX 4 1 5 2 6 3 7 4 3 5 2 6 1 7
REMARK H PARENT
REMARK Flexibility Score: inf
ROOT
ATOM      1  C   UNL     1      49.628  47.700  14.354  1.00  0.00     0.053 C 
ENDROOT
BRANCH   1   2
ATOM      2  C   UNL     1      49.763  48.845  13.398  1.00  0.00     0.041 C 
ATOM      3  O   UNL     1      50.700  48.863  12.558  1.00  0.00    -0.550 OA
ATOM      4  O   UNL     1      48.873  49.911  13.458  1.00  0.00    -0.550 OA
ENDBRANCH   1   2
BRANCH   1   5
ATOM      5  C   UNL     1      50.597  46.560  14.017  1.00  0.00     0.006 C 
BRANCH   5   6
ATOM      6  C   UNL     1      50.037  45.186  14.414  1.00  0.00    -0.003 C 
ATOM      7  C   UNL     1      48.610  45.305  14.940  1.00  0.00     0.004 C 
ENDBRANCH   5   6
ENDBRANCH   1   5
TORSDOF 3
ENDMDL
