MODEL 1
REMARK VINA RESULT:    -4.074      0.000      0.000
REMARK INTER + INTRA:          -6.066
REMARK INTER:                  -5.741
REMARK INTRA:                  -0.325
REMARK UNBOUND:                -0.325
REMARK SMILES C=CCCCCCCC(=O)[O-]
REMARK SMILES IDX 6 1 7 2 8 3 9 4 10 5 11 6 5 7 4 8 3 9 2 10 1 11
REMARK H PARENT
REMARK Flexibility Score: inf
ROOT
ATOM      1  C   UNL     1     190.911 249.628 139.441  1.00  0.00     0.000 C 
ENDROOT
BRANCH   1   2
ATOM      2  C   UNL     1     190.892 251.164 139.307  1.00  0.00     0.006 C 
BRANCH   2   3
ATOM      3  C   UNL     1     189.515 251.744 138.935  1.00  0.00     0.053 C 
BRANCH   3   4
ATOM      4  C   UNL     1     188.678 252.051 140.140  1.00  0.00     0.041 C 
ATOM      5  O   UNL     1     189.206 252.101 141.283  1.00  0.00    -0.550 OA
ATOM      6  O   UNL     1     187.308 252.244 140.010  1.00  0.00    -0.550 OA
ENDBRANCH   3   4
ENDBRANCH   2   3
ENDBRANCH   1   2
BRANCH   1   7
ATOM      7  C   UNL     1     191.190 249.096 140.857  1.00  0.00     0.000 C 
BRANCH   7   8
ATOM      8  C   UNL     1     191.702 247.648 140.863  1.00  0.00     0.004 C 
BRANCH   8   9
ATOM      9  C   UNL     1     190.542 246.658 141.020  1.00  0.00     0.027 C 
BRANCH   9  10
ATOM     10  C   UNL     1     190.913 245.295 140.503  1.00  0.00    -0.035 C 
ATOM     11  C   UNL     1     191.862 245.129 139.576  1.00  0.00     0.004 C 
ENDBRANCH   9  10
ENDBRANCH   8   9
ENDBRANCH   7   8
ENDBRANCH   1   7
TORSDOF 7
ENDMDL
MODEL 2
REMARK VINA RESULT:    -4.044      3.418      5.954
REMARK INTER + INTRA:          -6.023
REMARK INTER:                  -5.621
REMARK INTRA:                  -0.403
REMARK UNBOUND:                -0.325
REMARK SMILES C=CCCCCCCC(=O)[O-]
REMARK SMILES IDX 6 1 7 2 8 3 9 4 10 5 11 6 5 7 4 8 3 9 2 10 1 11
REMARK H PARENT
REMARK Flexibility Score: inf
ROOT
ATOM      1  C   UNL     1     191.384 249.150 140.954  1.00  0.00     0.000 C 
ENDROOT
BRANCH   1   2
ATOM      2  C   UNL     1     191.047 248.079 139.897  1.00  0.00     0.006 C 
BRANCH   2   3
ATOM      3  C   UNL     1     190.863 246.663 140.475  1.00  0.00     0.053 C 
BRANCH   3   4
ATOM      4  C   UNL     1     191.796 245.667 139.855  1.00  0.00     0.041 C 
ATOM      5  O   UNL     1     191.928 244.521 140.362  1.00  0.00    -0.550 OA
ATOM      6  O   UNL     1     192.553 246.015 138.743  1.00  0.00    -0.550 OA
ENDBRANCH   3   4
ENDBRANCH   2   3
ENDBRANCH   1   2
BRANCH   1   7
ATOM      7  C   UNL     1     191.289 250.606 140.468  1.00  0.00     0.000 C 
BRANCH   7   8
ATOM      8  C   UNL     1     191.052 250.718 138.955  1.00  0.00     0.004 C 
BRANCH   8   9
ATOM      9  C   UNL     1     189.847 251.619 138.656  1.00  0.00     0.027 C 
BRANCH   9  10
ATOM     10  C   UNL     1     189.019 251.851 139.890  1.00  0.00    -0.035 C 
ATOM     11  C   UNL     1     187.809 252.417 139.829  1.00  0.00     0.004 C 
ENDBRANCH   9  10
ENDBRANCH   8   9
ENDBRANCH   7   8
ENDBRANCH   1   7
TORSDOF 7
ENDMDL
MODEL 3
REMARK VINA RESULT:    -3.968      2.837      5.792
REMARK INTER + INTRA:          -5.916
REMARK INTER:                  -5.480
REMARK INTRA:                  -0.437
REMARK UNBOUND:                -0.325
REMARK SMILES C=CCCCCCCC(=O)[O-]
REMARK SMILES IDX 6 1 7 2 8 3 9 4 10 5 11 6 5 7 4 8 3 9 2 10 1 11
REMARK H PARENT
REMARK Flexibility Score: inf
ROOT
ATOM      1  C   UNL     1     190.852 251.640 140.518  1.00  0.00     0.000 C 
ENDROOT
BRANCH   1   2
ATOM      2  C   UNL     1     191.124 250.124 140.602  1.00  0.00     0.006 C 
BRANCH   2   3
ATOM      3  C   UNL     1     191.080 249.403 139.242  1.00  0.00     0.053 C 
BRANCH   3   4
ATOM      4  C   UNL     1     191.042 247.911 139.386  1.00  0.00     0.041 C 
ATOM      5  O   UNL     1     191.460 247.173 138.455  1.00  0.00    -0.550 OA
ATOM      6  O   UNL     1     190.507 247.333 140.531  1.00  0.00    -0.550 OA
ENDBRANCH   3   4
ENDBRANCH   2   3
ENDBRANCH   1   2
BRANCH   1   7
ATOM      7  C   UNL     1     189.394 252.060 140.769  1.00  0.00     0.000 C 
BRANCH   7   8
ATOM      8  C   UNL     1     188.670 252.504 139.489  1.00  0.00     0.004 C 
BRANCH   8   9
ATOM      9  C   UNL     1     189.588 253.360 138.610  1.00  0.00     0.027 C 
BRANCH   9  10
ATOM     10  C   UNL     1     189.639 252.835 137.200  1.00  0.00    -0.035 C 
ATOM     11  C   UNL     1     189.415 253.626 136.146  1.00  0.00     0.004 C 
ENDBRANCH   9  10
ENDBRANCH   8   9
ENDBRANCH   7   8
ENDBRANCH   1   7
TORSDOF 7
ENDMDL
MODEL 4
REMARK VINA RESULT:    -3.924      3.330      5.983
REMARK INTER + INTRA:          -5.855
REMARK INTER:                  -5.652
REMARK INTRA:                  -0.203
REMARK UNBOUND:                -0.325
REMARK SMILES C=CCCCCCCC(=O)[O-]
REMARK SMILES IDX 6 1 7 2 8 3 9 4 10 5 11 6 5 7 4 8 3 9 2 10 1 11
REMARK H PARENT
REMARK Flexibility Score: inf
ROOT
ATOM      1  C   UNL     1     190.775 249.339 139.803  1.00  0.00     0.000 C 
ENDROOT
BRANCH   1   2
ATOM      2  C   UNL     1     191.434 248.316 140.750  1.00  0.00     0.006 C 
BRANCH   2   3
ATOM      3  C   UNL     1     190.921 246.875 140.570  1.00  0.00     0.053 C 
BRANCH   3   4
ATOM      4  C   UNL     1     191.860 246.030 139.763  1.00  0.00     0.041 C 
ATOM      5  O   UNL     1     192.183 244.880 140.163  1.00  0.00    -0.550 OA
ATOM      6  O   UNL     1     192.413 246.526 138.588  1.00  0.00    -0.550 OA
ENDBRANCH   3   4
ENDBRANCH   2   3
ENDBRANCH   1   2
BRANCH   1   7
ATOM      7  C   UNL     1     191.115 250.812 140.089  1.00  0.00     0.000 C 
BRANCH   7   8
ATOM      8  C   UNL     1     189.894 251.634 140.527  1.00  0.00     0.004 C 
BRANCH   8   9
ATOM      9  C   UNL     1     189.027 252.011 139.320  1.00  0.00     0.027 C 
BRANCH   9  10
ATOM     10  C   UNL     1     189.864 252.195 138.083  1.00  0.00    -0.035 C 
ATOM     11  C   UNL     1     189.480 253.001 137.087  1.00  0.00     0.004 C 
ENDBRANCH   9  10
ENDBRANCH   8   9
ENDBRANCH   7   8
ENDBRANCH   1   7
TORSDOF 7
ENDMDL
MODEL 5
REMARK VINA RESULT:    -3.863      1.695      2.411
REMARK INTER + INTRA:          -5.768
REMARK INTER:                  -5.389
REMARK INTRA:                  -0.380
REMARK UNBOUND:                -0.325
REMARK SMILES C=CCCCCCCC(=O)[O-]
REMARK SMILES IDX 6 1 7 2 8 3 9 4 10 5 11 6 5 7 4 8 3 9 2 10 1 11
REMARK H PARENT
REMARK Flexibility Score: inf
ROOT
ATOM      1  C   UNL     1     190.691 251.793 140.722  1.00  0.00     0.000 C 
ENDROOT
BRANCH   1   2
ATOM      2  C   UNL     1     189.264 252.104 141.216  1.00  0.00     0.006 C 
BRANCH   2   3
ATOM      3  C   UNL     1     188.237 252.297 140.083  1.00  0.00     0.053 C 
BRANCH   3   4
ATOM      4  C   UNL     1     188.460 253.568 139.320  1.00  0.00     0.041 C 
ATOM      5  O   UNL     1     188.020 254.661 139.766  1.00  0.00    -0.550 OA
ATOM      6  O   UNL     1     189.117 253.542 138.096  1.00  0.00    -0.550 OA
ENDBRANCH   3   4
ENDBRANCH   2   3
ENDBRANCH   1   2
BRANCH   1   7
ATOM      7  C   UNL     1     191.066 250.301 140.696  1.00  0.00     0.000 C 
BRANCH   7   8
ATOM      8  C   UNL     1     190.985 249.688 139.291  1.00  0.00     0.004 C 
BRANCH   8   9
ATOM      9  C   UNL     1     191.040 248.157 139.358  1.00  0.00     0.027 C 
BRANCH   9  10
ATOM     10  C   UNL     1     191.175 247.678 140.778  1.00  0.00    -0.035 C 
ATOM     11  C   UNL     1     190.755 246.466 141.154  1.00  0.00     0.004 C 
ENDBRANCH   9  10
ENDBRANCH   8   9
ENDBRANCH   7   8
ENDBRANCH   1   7
TORSDOF 7
ENDMDL
MODEL 6
REMARK VINA RESULT:    -3.851      8.159      9.593
REMARK INTER + INTRA:          -5.752
REMARK INTER:                  -5.041
REMARK INTRA:                  -0.710
REMARK UNBOUND:                -0.325
REMARK SMILES C=CCCCCCCC(=O)[O-]
REMARK SMILES IDX 6 1 7 2 8 3 9 4 10 5 11 6 5 7 4 8 3 9 2 10 1 11
REMARK H PARENT
REMARK Flexibility Score: inf
ROOT
ATOM      1  C   UNL     1     191.954 245.382 134.271  1.00  0.00     0.000 C 
ENDROOT
BRANCH   1   2
ATOM      2  C   UNL     1     190.503 244.872 134.155  1.00  0.00     0.006 C 
BRANCH   2   3
ATOM      3  C   UNL     1     190.382 243.449 133.578  1.00  0.00     0.053 C 
BRANCH   3   4
ATOM      4  C   UNL     1     190.436 242.394 134.642  1.00  0.00     0.041 C 
ATOM      5  O   UNL     1     191.328 241.505 134.609  1.00  0.00    -0.550 OA
ATOM      6  O   UNL     1     189.477 242.365 135.647  1.00  0.00    -0.550 OA
ENDBRANCH   3   4
ENDBRANCH   2   3
ENDBRANCH   1   2
BRANCH   1   7
ATOM      7  C   UNL     1     192.315 246.552 133.340  1.00  0.00     0.000 C 
BRANCH   7   8
ATOM      8  C   UNL     1     192.912 246.091 132.002  1.00  0.00     0.004 C 
BRANCH   8   9
ATOM      9  C   UNL     1     194.084 245.129 132.229  1.00  0.00     0.027 C 
BRANCH   9  10
ATOM     10  C   UNL     1     193.840 243.804 131.559  1.00  0.00    -0.035 C 
ATOM     11  C   UNL     1     193.746 242.669 132.258  1.00  0.00     0.004 C 
ENDBRANCH   9  10
ENDBRANCH   8   9
ENDBRANCH   7   8
ENDBRANCH   1   7
TORSDOF 7
ENDMDL
MODEL 7
REMARK VINA RESULT:    -3.848      8.172     10.412
REMARK INTER + INTRA:          -5.748
REMARK INTER:                  -4.923
REMARK INTRA:                  -0.825
REMARK UNBOUND:                -0.325
REMARK SMILES C=CCCCCCCC(=O)[O-]
REMARK SMILES IDX 6 1 7 2 8 3 9 4 10 5 11 6 5 7 4 8 3 9 2 10 1 11
REMARK H PARENT
REMARK Flexibility Score: inf
ROOT
ATOM      1  C   UNL     1     193.754 243.221 133.405  1.00  0.00     0.000 C 
ENDROOT
BRANCH   1   2
ATOM      2  C   UNL     1     193.718 241.785 133.967  1.00  0.00     0.006 C 
BRANCH   2   3
ATOM      3  C   UNL     1     192.916 241.644 135.274  1.00  0.00     0.053 C 
BRANCH   3   4
ATOM      4  C   UNL     1     191.870 240.573 135.191  1.00  0.00     0.041 C 
ATOM      5  O   UNL     1     190.665 240.843 135.442  1.00  0.00    -0.550 OA
ATOM      6  O   UNL     1     192.229 239.268 134.877  1.00  0.00    -0.550 OA
ENDBRANCH   3   4
ENDBRANCH   2   3
ENDBRANCH   1   2
BRANCH   1   7
ATOM      7  C   UNL     1     192.775 243.499 132.251  1.00  0.00     0.000 C 
BRANCH   7   8
ATOM      8  C   UNL     1     191.650 244.469 132.641  1.00  0.00     0.004 C 
BRANCH   8   9
ATOM      9  C   UNL     1     190.503 243.726 133.335  1.00  0.00     0.027 C 
BRANCH   9  10
ATOM     10  C   UNL     1     190.244 244.283 134.709  1.00  0.00    -0.035 C 
ATOM     11  C   UNL     1     191.088 245.140 135.291  1.00  0.00     0.004 C 
ENDBRANCH   9  10
ENDBRANCH   8   9
ENDBRANCH   7   8
ENDBRANCH   1   7
TORSDOF 7
ENDMDL
MODEL 8
REMARK VINA RESULT:    -3.838      7.601      9.049
REMARK INTER + INTRA:          -5.733
REMARK INTER:                  -4.816
REMARK INTRA:                  -0.917
REMARK UNBOUND:                -0.325
REMARK SMILES C=CCCCCCCC(=O)[O-]
REMARK SMILES IDX 6 1 7 2 8 3 9 4 10 5 11 6 5 7 4 8 3 9 2 10 1 11
REMARK H PARENT
REMARK Flexibility Score: inf
ROOT
ATOM      1  C   UNL     1     190.998 241.303 134.995  1.00  0.00     0.000 C 
ENDROOT
BRANCH   1   2
ATOM      2  C   UNL     1     190.029 242.480 135.227  1.00  0.00     0.006 C 
BRANCH   2   3
ATOM      3  C   UNL     1     190.130 243.594 134.168  1.00  0.00     0.053 C 
BRANCH   3   4
ATOM      4  C   UNL     1     190.833 244.813 134.685  1.00  0.00     0.041 C 
ATOM      5  O   UNL     1     191.036 244.952 135.921  1.00  0.00    -0.550 OA
ATOM      6  O   UNL     1     191.229 245.816 133.809  1.00  0.00    -0.550 OA
ENDBRANCH   3   4
ENDBRANCH   2   3
ENDBRANCH   1   2
BRANCH   1   7
ATOM      7  C   UNL     1     192.225 241.271 135.922  1.00  0.00     0.000 C 
BRANCH   7   8
ATOM      8  C   UNL     1     193.417 242.063 135.366  1.00  0.00     0.004 C 
BRANCH   8   9
ATOM      9  C   UNL     1     193.557 241.851 133.854  1.00  0.00     0.027 C 
BRANCH   9  10
ATOM     10  C   UNL     1     193.760 243.157 133.136  1.00  0.00    -0.035 C 
ATOM     11  C   UNL     1     193.168 243.416 131.965  1.00  0.00     0.004 C 
ENDBRANCH   9  10
ENDBRANCH   8   9
ENDBRANCH   7   8
ENDBRANCH   1   7
TORSDOF 7
ENDMDL
MODEL 9
REMARK VINA RESULT:    -3.818      7.351      8.919
REMARK INTER + INTRA:          -5.706
REMARK INTER:                  -4.928
REMARK INTRA:                  -0.778
REMARK UNBOUND:                -0.325
REMARK SMILES C=CCCCCCCC(=O)[O-]
REMARK SMILES IDX 6 1 7 2 8 3 9 4 10 5 11 6 5 7 4 8 3 9 2 10 1 11
REMARK H PARENT
REMARK Flexibility Score: inf
ROOT
ATOM      1  C   UNL     1     193.869 243.757 133.144  1.00  0.00     0.000 C 
ENDROOT
BRANCH   1   2
ATOM      2  C   UNL     1     194.075 244.983 132.232  1.00  0.00     0.006 C 
BRANCH   2   3
ATOM      3  C   UNL     1     194.453 246.271 132.989  1.00  0.00     0.053 C 
BRANCH   3   4
ATOM      4  C   UNL     1     193.439 247.360 132.806  1.00  0.00     0.041 C 
ATOM      5  O   UNL     1     192.519 247.234 131.955  1.00  0.00    -0.550 OA
ATOM      6  O   UNL     1     193.533 248.533 133.546  1.00  0.00    -0.550 OA
ENDBRANCH   3   4
ENDBRANCH   2   3
ENDBRANCH   1   2
BRANCH   1   7
ATOM      7  C   UNL     1     192.517 243.042 132.987  1.00  0.00     0.000 C 
BRANCH   7   8
ATOM      8  C   UNL     1     191.377 243.994 132.596  1.00  0.00     0.004 C 
BRANCH   8   9
ATOM      9  C   UNL     1     190.435 244.234 133.781  1.00  0.00     0.027 C 
BRANCH   9  10
ATOM     10  C   UNL     1     190.862 245.433 134.584  1.00  0.00    -0.035 C 
ATOM     11  C   UNL     1     191.216 245.330 135.869  1.00  0.00     0.004 C 
ENDBRANCH   9  10
ENDBRANCH   8   9
ENDBRANCH   7   8
ENDBRANCH   1   7
TORSDOF 7
ENDMDL
