MODEL 1
REMARK VINA RESULT:    -3.487      0.000      0.000
REMARK INTER + INTRA:          -4.015
REMARK INTER:                  -3.894
REMARK INTRA:                  -0.121
REMARK UNBOUND:                -0.121
REMARK SMILES CC(=O)c1ccc(O)cc1O
REMARK SMILES IDX 4 1 10 2 9 3 7 4 6 5 5 6 2 7 1 8 3 9 11 10 8 12
REMARK H PARENT 11 11 8 13
REMARK Flexibility Score: inf
ROOT
ATOM      1  C   UNL     1      31.780  25.013  32.396  1.00  0.00     0.059 A 
ATOM      2  C   UNL     1      32.353  24.880  31.108  1.00  0.00     0.130 A 
ATOM      3  C   UNL     1      31.533  24.867  29.970  1.00  0.00     0.093 A 
ATOM      4  C   UNL     1      30.147  24.980  30.092  1.00  0.00     0.119 A 
ATOM      5  C   UNL     1      29.571  25.108  31.360  1.00  0.00     0.047 A 
ATOM      6  C   UNL     1      30.378  25.124  32.500  1.00  0.00     0.019 A 
ENDROOT
BRANCH   1   7
ATOM      7  C   UNL     1      32.628  25.040  33.622  1.00  0.00     0.163 C 
ATOM      8  C   UNL     1      32.028  25.124  34.994  1.00  0.00     0.093 C 
ATOM      9  O   UNL     1      33.884  25.022  33.523  1.00  0.00    -0.294 OA
ENDBRANCH   1   7
BRANCH   2  10
ATOM     10  O   UNL     1      33.735  24.750  30.954  1.00  0.00    -0.507 OA
ATOM     11  H   UNL     1      34.227  25.175  30.177  1.00  0.00     0.293 HD
ENDBRANCH   2  10
BRANCH   4  12
ATOM     12  O   UNL     1      29.352  24.963  28.948  1.00  0.00    -0.508 OA
ATOM     13  H   UNL     1      29.381  25.716  28.272  1.00  0.00     0.293 HD
ENDBRANCH   4  12
TORSDOF 3
ENDMDL
MODEL 2
REMARK VINA RESULT:    -2.973      2.117      4.022
REMARK INTER + INTRA:          -3.442
REMARK INTER:                  -3.321
REMARK INTRA:                  -0.121
REMARK UNBOUND:                -0.121
REMARK SMILES CC(=O)c1ccc(O)cc1O
REMARK SMILES IDX 4 1 10 2 9 3 7 4 6 5 5 6 2 7 1 8 3 9 11 10 8 12
REMARK H PARENT 11 11 8 13
REMARK Flexibility Score: inf
ROOT
ATOM      1  C   UNL     1      33.009  25.078  30.915  1.00  0.00     0.059 A 
ATOM      2  C   UNL     1      34.043  25.079  31.883  1.00  0.00     0.130 A 
ATOM      3  C   UNL     1      33.728  25.093  33.250  1.00  0.00     0.093 A 
ATOM      4  C   UNL     1      32.398  25.109  33.672  1.00  0.00     0.119 A 
ATOM      5  C   UNL     1      31.370  25.111  32.725  1.00  0.00     0.047 A 
ATOM      6  C   UNL     1      31.671  25.096  31.361  1.00  0.00     0.019 A 
ENDROOT
BRANCH   1   7
ATOM      7  C   UNL     1      33.313  25.053  29.456  1.00  0.00     0.163 C 
ATOM      8  C   UNL     1      32.228  25.099  28.422  1.00  0.00     0.093 C 
ATOM      9  O   UNL     1      34.507  24.961  29.060  1.00  0.00    -0.294 OA
ENDBRANCH   1   7
BRANCH   2  10
ATOM     10  O   UNL     1      35.383  25.078  31.491  1.00  0.00    -0.507 OA
ATOM     11  H   UNL     1      35.938  25.925  31.486  1.00  0.00     0.293 HD
ENDBRANCH   2  10
BRANCH   4  12
ATOM     12  O   UNL     1      32.108  25.125  35.035  1.00  0.00    -0.508 OA
ATOM     13  H   UNL     1      32.250  25.956  35.596  1.00  0.00     0.293 HD
ENDBRANCH   4  12
TORSDOF 3
ENDMDL
MODEL 3
REMARK VINA RESULT:    -2.849      2.152      4.899
REMARK INTER + INTRA:          -3.304
REMARK INTER:                  -3.002
REMARK INTRA:                  -0.302
REMARK UNBOUND:                -0.121
REMARK SMILES CC(=O)c1ccc(O)cc1O
REMARK SMILES IDX 4 1 10 2 9 3 7 4 6 5 5 6 2 7 1 8 3 9 11 10 8 12
REMARK H PARENT 11 11 8 13
REMARK Flexibility Score: inf
ROOT
ATOM      1  C   UNL     1      31.652  24.305  29.305  1.00  0.00     0.059 A 
ATOM      2  C   UNL     1      31.759  24.831  30.615  1.00  0.00     0.130 A 
ATOM      3  C   UNL     1      33.023  25.056  31.182  1.00  0.00     0.093 A 
ATOM      4  C   UNL     1      34.185  24.761  30.466  1.00  0.00     0.119 A 
ATOM      5  C   UNL     1      34.089  24.238  29.173  1.00  0.00     0.047 A 
ATOM      6  C   UNL     1      32.836  24.011  28.598  1.00  0.00     0.019 A 
ENDROOT
BRANCH   1   7
ATOM      7  C   UNL     1      30.322  24.065  28.674  1.00  0.00     0.163 C 
ATOM      8  C   UNL     1      30.039  22.827  27.876  1.00  0.00     0.093 C 
ATOM      9  O   UNL     1      29.408  24.927  28.776  1.00  0.00    -0.294 OA
ENDBRANCH   1   7
BRANCH   2  10
ATOM     10  O   UNL     1      30.616  25.123  31.361  1.00  0.00    -0.507 OA
ATOM     11  H   UNL     1      30.028  24.392  31.744  1.00  0.00     0.293 HD
ENDBRANCH   2  10
BRANCH   4  12
ATOM     12  O   UNL     1      35.429  24.991  31.050  1.00  0.00    -0.508 OA
ATOM     13  H   UNL     1      36.247  24.459  30.777  1.00  0.00     0.293 HD
ENDBRANCH   4  12
TORSDOF 3
ENDMDL
MODEL 4
REMARK VINA RESULT:    -2.778      2.332      3.262
REMARK INTER + INTRA:          -3.224
REMARK INTER:                  -3.094
REMARK INTRA:                  -0.129
REMARK UNBOUND:                -0.121
REMARK SMILES CC(=O)c1ccc(O)cc1O
REMARK SMILES IDX 4 1 10 2 9 3 7 4 6 5 5 6 2 7 1 8 3 9 11 10 8 12
REMARK H PARENT 11 11 8 13
REMARK Flexibility Score: inf
ROOT
ATOM      1  C   UNL     1      34.391  24.919  32.501  1.00  0.00     0.059 A 
ATOM      2  C   UNL     1      33.530  25.059  31.386  1.00  0.00     0.130 A 
ATOM      3  C   UNL     1      32.141  25.125  31.573  1.00  0.00     0.093 A 
ATOM      4  C   UNL     1      31.593  25.050  32.855  1.00  0.00     0.119 A 
ATOM      5  C   UNL     1      32.435  24.909  33.962  1.00  0.00     0.047 A 
ATOM      6  C   UNL     1      33.820  24.844  33.788  1.00  0.00     0.019 A 
ENDROOT
BRANCH   1   7
ATOM      7  C   UNL     1      35.872  24.856  32.333  1.00  0.00     0.163 C 
ATOM      8  C   UNL     1      36.785  24.559  33.485  1.00  0.00     0.093 C 
ATOM      9  O   UNL     1      36.391  25.085  31.207  1.00  0.00    -0.294 OA
ENDBRANCH   1   7
BRANCH   2  10
ATOM     10  O   UNL     1      34.047  25.121  30.091  1.00  0.00    -0.507 OA
ATOM     11  H   UNL     1      34.998  24.842  29.882  1.00  0.00     0.293 HD
ENDBRANCH   2  10
BRANCH   4  12
ATOM     12  O   UNL     1      30.211  25.116  33.017  1.00  0.00    -0.508 OA
ATOM     13  H   UNL     1      29.579  24.945  32.244  1.00  0.00     0.293 HD
ENDBRANCH   4  12
TORSDOF 3
ENDMDL
MODEL 5
REMARK VINA RESULT:    -2.744      2.461      4.114
REMARK INTER + INTRA:          -3.186
REMARK INTER:                  -2.887
REMARK INTRA:                  -0.299
REMARK UNBOUND:                -0.121
REMARK SMILES CC(=O)c1ccc(O)cc1O
REMARK SMILES IDX 4 1 10 2 9 3 7 4 6 5 5 6 2 7 1 8 3 9 11 10 8 12
REMARK H PARENT 11 11 8 13
REMARK Flexibility Score: inf
ROOT
ATOM      1  C   UNL     1      31.666  24.543  30.094  1.00  0.00     0.059 A 
ATOM      2  C   UNL     1      31.754  23.600  29.042  1.00  0.00     0.130 A 
ATOM      3  C   UNL     1      33.005  23.252  28.511  1.00  0.00     0.093 A 
ATOM      4  C   UNL     1      34.174  23.832  29.007  1.00  0.00     0.119 A 
ATOM      5  C   UNL     1      34.097  24.767  30.043  1.00  0.00     0.047 A 
ATOM      6  C   UNL     1      32.858  25.120  30.582  1.00  0.00     0.019 A 
ENDROOT
BRANCH   1   7
ATOM      7  C   UNL     1      30.352  24.924  30.685  1.00  0.00     0.163 C 
ATOM      8  C   UNL     1      30.159  25.047  32.167  1.00  0.00     0.093 C 
ATOM      9  O   UNL     1      29.356  25.125  29.938  1.00  0.00    -0.294 OA
ENDBRANCH   1   7
BRANCH   2  10
ATOM     10  O   UNL     1      30.602  23.013  28.515  1.00  0.00    -0.507 OA
ATOM     11  H   UNL     1      30.461  22.010  28.527  1.00  0.00     0.293 HD
ENDBRANCH   2  10
BRANCH   4  12
ATOM     12  O   UNL     1      35.405  23.473  28.463  1.00  0.00    -0.508 OA
ATOM     13  H   UNL     1      35.484  22.731  27.778  1.00  0.00     0.293 HD
ENDBRANCH   4  12
TORSDOF 3
ENDMDL
MODEL 6
REMARK VINA RESULT:    -2.729      1.735      4.345
REMARK INTER + INTRA:          -3.169
REMARK INTER:                  -2.900
REMARK INTRA:                  -0.269
REMARK UNBOUND:                -0.121
REMARK SMILES CC(=O)c1ccc(O)cc1O
REMARK SMILES IDX 4 1 10 2 9 3 7 4 6 5 5 6 2 7 1 8 3 9 11 10 8 12
REMARK H PARENT 11 11 8 13
REMARK Flexibility Score: inf
ROOT
ATOM      1  C   UNL     1      32.597  24.832  30.476  1.00  0.00     0.059 A 
ATOM      2  C   UNL     1      31.285  24.715  30.995  1.00  0.00     0.130 A 
ATOM      3  C   UNL     1      31.063  24.808  32.377  1.00  0.00     0.093 A 
ATOM      4  C   UNL     1      32.129  25.011  33.255  1.00  0.00     0.119 A 
ATOM      5  C   UNL     1      33.429  25.124  32.753  1.00  0.00     0.047 A 
ATOM      6  C   UNL     1      33.662  25.035  31.378  1.00  0.00     0.019 A 
ENDROOT
BRANCH   1   7
ATOM      7  C   UNL     1      32.861  24.748  29.011  1.00  0.00     0.163 C 
ATOM      8  C   UNL     1      34.174  24.264  28.472  1.00  0.00     0.093 C 
ATOM      9  O   UNL     1      31.980  25.116  28.187  1.00  0.00    -0.294 OA
ENDBRANCH   1   7
BRANCH   2  10
ATOM     10  O   UNL     1      30.200  24.497  30.144  1.00  0.00    -0.507 OA
ATOM     11  H   UNL     1      29.742  23.595  30.083  1.00  0.00     0.293 HD
ENDBRANCH   2  10
BRANCH   4  12
ATOM     12  O   UNL     1      31.886  25.097  34.624  1.00  0.00    -0.508 OA
ATOM     13  H   UNL     1      32.549  24.741  35.303  1.00  0.00     0.293 HD
ENDBRANCH   4  12
TORSDOF 3
ENDMDL
MODEL 7
REMARK VINA RESULT:    -2.655      1.815      2.237
REMARK INTER + INTRA:          -3.086
REMARK INTER:                  -2.902
REMARK INTRA:                  -0.184
REMARK UNBOUND:                -0.121
REMARK SMILES CC(=O)c1ccc(O)cc1O
REMARK SMILES IDX 4 1 10 2 9 3 7 4 6 5 5 6 2 7 1 8 3 9 11 10 8 12
REMARK H PARENT 11 11 8 13
REMARK Flexibility Score: inf
ROOT
ATOM      1  C   UNL     1      32.747  24.837  30.432  1.00  0.00     0.059 A 
ATOM      2  C   UNL     1      32.667  24.386  29.092  1.00  0.00     0.130 A 
ATOM      3  C   UNL     1      31.417  24.238  28.472  1.00  0.00     0.093 A 
ATOM      4  C   UNL     1      30.241  24.529  29.167  1.00  0.00     0.119 A 
ATOM      5  C   UNL     1      30.310  24.972  30.491  1.00  0.00     0.047 A 
ATOM      6  C   UNL     1      31.549  25.125  31.118  1.00  0.00     0.019 A 
ENDROOT
BRANCH   1   7
ATOM      7  C   UNL     1      34.062  25.013  31.112  1.00  0.00     0.163 C 
ATOM      8  C   UNL     1      34.170  25.125  32.604  1.00  0.00     0.093 C 
ATOM      9  O   UNL     1      35.120  25.102  30.432  1.00  0.00    -0.294 OA
ENDBRANCH   1   7
BRANCH   2  10
ATOM     10  O   UNL     1      33.824  24.072  28.376  1.00  0.00    -0.507 OA
ATOM     11  H   UNL     1      33.999  24.451  27.453  1.00  0.00     0.293 HD
ENDBRANCH   2  10
BRANCH   4  12
ATOM     12  O   UNL     1      29.011  24.373  28.532  1.00  0.00    -0.508 OA
ATOM     13  H   UNL     1      28.757  24.932  27.726  1.00  0.00     0.293 HD
ENDBRANCH   4  12
TORSDOF 3
ENDMDL
MODEL 8
REMARK VINA RESULT:    -1.989     17.675     19.253
REMARK INTER + INTRA:          -2.343
REMARK INTER:                  -2.073
REMARK INTRA:                  -0.269
REMARK UNBOUND:                -0.121
REMARK SMILES CC(=O)c1ccc(O)cc1O
REMARK SMILES IDX 4 1 10 2 9 3 7 4 6 5 5 6 2 7 1 8 3 9 11 10 8 12
REMARK H PARENT 11 11 8 13
REMARK Flexibility Score: inf
ROOT
ATOM      1  C   UNL     1      19.024  23.839  46.082  1.00  0.00     0.059 A 
ATOM      2  C   UNL     1      19.523  22.953  47.067  1.00  0.00     0.130 A 
ATOM      3  C   UNL     1      20.840  22.476  46.984  1.00  0.00     0.093 A 
ATOM      4  C   UNL     1      21.670  22.864  45.931  1.00  0.00     0.119 A 
ATOM      5  C   UNL     1      21.186  23.736  44.951  1.00  0.00     0.047 A 
ATOM      6  C   UNL     1      19.877  24.218  45.024  1.00  0.00     0.019 A 
ENDROOT
BRANCH   1   7
ATOM      7  C   UNL     1      17.633  24.370  46.150  1.00  0.00     0.163 C 
ATOM      8  C   UNL     1      16.875  24.760  44.916  1.00  0.00     0.093 C 
ATOM      9  O   UNL     1      17.071  24.529  47.267  1.00  0.00    -0.294 OA
ENDBRANCH   1   7
BRANCH   2  10
ATOM     10  O   UNL     1      18.712  22.535  48.124  1.00  0.00    -0.507 OA
ATOM     11  H   UNL     1      18.510  23.139  48.912  1.00  0.00     0.293 HD
ENDBRANCH   2  10
BRANCH   4  12
ATOM     12  O   UNL     1      22.974  22.376  45.867  1.00  0.00    -0.508 OA
ATOM     13  H   UNL     1      23.181  21.471  45.462  1.00  0.00     0.293 HD
ENDBRANCH   4  12
TORSDOF 3
ENDMDL
