MODEL 1
REMARK VINA RESULT:    -3.859      0.000      0.000
REMARK INTER + INTRA:          -4.101
REMARK INTER:                  -4.085
REMARK INTRA:                  -0.016
REMARK UNBOUND:                -0.016
REMARK SMILES O=C([O-])c1cccnc1
REMARK SMILES IDX 4 1 5 2 9 3 6 4 8 5 7 6 2 7 1 8 3 9
REMARK H PARENT
REMARK Flexibility Score: inf
ROOT
ATOM      1  C   UNL     1      10.531  32.387  63.558  1.00  0.00     0.016 A 
ATOM      2  C   UNL     1      11.630  31.947  64.312  1.00  0.00     0.013 A 
ATOM      3  C   UNL     1      10.641  32.396  62.156  1.00  0.00     0.120 A 
ATOM      4  C   UNL     1      12.798  31.530  63.670  1.00  0.00     0.021 A 
ATOM      5  N   UNL     1      11.790  31.985  61.556  1.00  0.00    -0.264 NA
ATOM      6  C   UNL     1      12.860  31.556  62.277  1.00  0.00     0.111 A 
ENDROOT
BRANCH   1   7
ATOM      7  C   UNL     1       9.288  32.831  64.226  1.00  0.00     0.073 C 
ATOM      8  O   UNL     1       8.309  32.048  64.343  1.00  0.00    -0.545 OA
ATOM      9  O   UNL     1       9.185  34.121  64.734  1.00  0.00    -0.545 OA
ENDBRANCH   1   7
TORSDOF 1
ENDMDL
MODEL 2
REMARK VINA RESULT:    -3.762      3.306      3.998
REMARK INTER + INTRA:          -3.998
REMARK INTER:                  -3.982
REMARK INTRA:                  -0.016
REMARK UNBOUND:                -0.016
REMARK SMILES O=C([O-])c1cccnc1
REMARK SMILES IDX 4 1 5 2 9 3 6 4 8 5 7 6 2 7 1 8 3 9
REMARK H PARENT
REMARK Flexibility Score: inf
ROOT
ATOM      1  C   UNL     1      12.378  32.653  61.690  1.00  0.00     0.016 A 
ATOM      2  C   UNL     1      13.049  31.582  62.302  1.00  0.00     0.013 A 
ATOM      3  C   UNL     1      11.440  33.376  62.449  1.00  0.00     0.120 A 
ATOM      4  C   UNL     1      12.779  31.254  63.633  1.00  0.00     0.021 A 
ATOM      5  N   UNL     1      11.197  33.037  63.743  1.00  0.00    -0.264 NA
ATOM      6  C   UNL     1      11.840  32.001  64.344  1.00  0.00     0.111 A 
ENDROOT
BRANCH   1   7
ATOM      7  C   UNL     1      12.654  33.009  60.281  1.00  0.00     0.073 C 
ATOM      8  O   UNL     1      13.482  33.916  60.000  1.00  0.00    -0.545 OA
ATOM      9  O   UNL     1      12.003  32.346  59.248  1.00  0.00    -0.545 OA
ENDBRANCH   1   7
TORSDOF 1
ENDMDL
MODEL 3
REMARK VINA RESULT:    -3.740      3.078      3.730
REMARK INTER + INTRA:          -3.975
REMARK INTER:                  -3.958
REMARK INTRA:                  -0.016
REMARK UNBOUND:                -0.016
REMARK SMILES O=C([O-])c1cccnc1
REMARK SMILES IDX 4 1 5 2 9 3 6 4 8 5 7 6 2 7 1 8 3 9
REMARK H PARENT
REMARK Flexibility Score: inf
ROOT
ATOM      1  C   UNL     1      11.882  32.072  62.331  1.00  0.00     0.016 A 
ATOM      2  C   UNL     1      12.286  31.961  63.671  1.00  0.00     0.013 A 
ATOM      3  C   UNL     1      10.566  32.490  62.061  1.00  0.00     0.120 A 
ATOM      4  C   UNL     1      11.391  32.261  64.700  1.00  0.00     0.021 A 
ATOM      5  N   UNL     1       9.715  32.777  63.082  1.00  0.00    -0.264 NA
ATOM      6  C   UNL     1      10.097  32.672  64.383  1.00  0.00     0.111 A 
ENDROOT
BRANCH   1   7
ATOM      7  C   UNL     1      12.820  31.757  61.232  1.00  0.00     0.073 C 
ATOM      8  O   UNL     1      13.053  30.562  60.911  1.00  0.00    -0.545 OA
ATOM      9  O   UNL     1      13.458  32.778  60.537  1.00  0.00    -0.545 OA
ENDBRANCH   1   7
TORSDOF 1
ENDMDL
MODEL 4
REMARK VINA RESULT:    -3.561      3.346      4.140
REMARK INTER + INTRA:          -3.786
REMARK INTER:                  -3.769
REMARK INTRA:                  -0.017
REMARK UNBOUND:                -0.016
REMARK SMILES O=C([O-])c1cccnc1
REMARK SMILES IDX 4 1 5 2 9 3 6 4 8 5 7 6 2 7 1 8 3 9
REMARK H PARENT
REMARK Flexibility Score: inf
ROOT
ATOM      1  C   UNL     1      12.391  32.609  61.400  1.00  0.00     0.016 A 
ATOM      2  C   UNL     1      11.576  33.310  62.302  1.00  0.00     0.013 A 
ATOM      3  C   UNL     1      13.114  31.499  61.873  1.00  0.00     0.120 A 
ATOM      4  C   UNL     1      11.496  32.903  63.636  1.00  0.00     0.021 A 
ATOM      5  N   UNL     1      13.017  31.124  63.177  1.00  0.00    -0.264 NA
ATOM      6  C   UNL     1      12.231  31.796  64.059  1.00  0.00     0.111 A 
ENDROOT
BRANCH   1   7
ATOM      7  C   UNL     1      12.486  33.029  59.984  1.00  0.00     0.073 C 
ATOM      8  O   UNL     1      13.078  34.095  59.671  1.00  0.00    -0.545 OA
ATOM      9  O   UNL     1      11.920  32.252  58.981  1.00  0.00    -0.545 OA
ENDBRANCH   1   7
TORSDOF 1
ENDMDL
MODEL 5
REMARK VINA RESULT:    -3.529      2.588      3.321
REMARK INTER + INTRA:          -3.752
REMARK INTER:                  -3.728
REMARK INTRA:                  -0.024
REMARK UNBOUND:                -0.016
REMARK SMILES O=C([O-])c1cccnc1
REMARK SMILES IDX 4 1 5 2 9 3 6 4 8 5 7 6 2 7 1 8 3 9
REMARK H PARENT
REMARK Flexibility Score: inf
ROOT
ATOM      1  C   UNL     1      11.893  32.098  62.219  1.00  0.00     0.016 A 
ATOM      2  C   UNL     1      12.648  31.934  61.046  1.00  0.00     0.013 A 
ATOM      3  C   UNL     1      10.588  32.611  62.109  1.00  0.00     0.120 A 
ATOM      4  C   UNL     1      12.102  32.276  59.807  1.00  0.00     0.021 A 
ATOM      5  N   UNL     1      10.080  32.935  60.890  1.00  0.00    -0.264 NA
ATOM      6  C   UNL     1      10.802  32.780  59.749  1.00  0.00     0.111 A 
ENDROOT
BRANCH   1   7
ATOM      7  C   UNL     1      12.461  31.740  63.537  1.00  0.00     0.073 C 
ATOM      8  O   UNL     1      13.534  31.086  63.616  1.00  0.00    -0.545 OA
ATOM      9  O   UNL     1      11.815  32.122  64.707  1.00  0.00    -0.545 OA
ENDBRANCH   1   7
TORSDOF 1
ENDMDL
MODEL 6
REMARK VINA RESULT:    -3.507     12.386     13.129
REMARK INTER + INTRA:          -3.728
REMARK INTER:                  -3.712
REMARK INTRA:                  -0.016
REMARK UNBOUND:                -0.016
REMARK SMILES O=C([O-])c1cccnc1
REMARK SMILES IDX 4 1 5 2 9 3 6 4 8 5 7 6 2 7 1 8 3 9
REMARK H PARENT
REMARK Flexibility Score: inf
ROOT
ATOM      1  C   UNL     1      21.040  30.839  55.836  1.00  0.00     0.016 A 
ATOM      2  C   UNL     1      20.204  30.542  56.924  1.00  0.00     0.013 A 
ATOM      3  C   UNL     1      22.389  30.446  55.900  1.00  0.00     0.120 A 
ATOM      4  C   UNL     1      20.715  29.870  58.036  1.00  0.00     0.021 A 
ATOM      5  N   UNL     1      22.860  29.792  56.995  1.00  0.00    -0.264 NA
ATOM      6  C   UNL     1      22.060  29.500  58.054  1.00  0.00     0.111 A 
ENDROOT
BRANCH   1   7
ATOM      7  C   UNL     1      20.511  31.550  54.651  1.00  0.00     0.073 C 
ATOM      8  O   UNL     1      20.666  32.794  54.528  1.00  0.00    -0.545 OA
ATOM      9  O   UNL     1      19.836  30.853  53.656  1.00  0.00    -0.545 OA
ENDBRANCH   1   7
TORSDOF 1
ENDMDL
MODEL 7
REMARK VINA RESULT:    -3.506     12.111     13.247
REMARK INTER + INTRA:          -3.727
REMARK INTER:                  -3.705
REMARK INTRA:                  -0.023
REMARK UNBOUND:                -0.016
REMARK SMILES O=C([O-])c1cccnc1
REMARK SMILES IDX 4 1 5 2 9 3 6 4 8 5 7 6 2 7 1 8 3 9
REMARK H PARENT
REMARK Flexibility Score: inf
ROOT
ATOM      1  C   UNL     1      22.257  29.890  57.870  1.00  0.00     0.016 A 
ATOM      2  C   UNL     1      20.878  29.840  58.129  1.00  0.00     0.013 A 
ATOM      3  C   UNL     1      22.688  30.397  56.631  1.00  0.00     0.120 A 
ATOM      4  C   UNL     1      19.968  30.285  57.168  1.00  0.00     0.021 A 
ATOM      5  N   UNL     1      21.781  30.825  55.713  1.00  0.00    -0.264 NA
ATOM      6  C   UNL     1      20.443  30.780  55.953  1.00  0.00     0.111 A 
ENDROOT
BRANCH   1   7
ATOM      7  C   UNL     1      23.231  29.421  58.880  1.00  0.00     0.073 C 
ATOM      8  O   UNL     1      24.416  29.149  58.550  1.00  0.00    -0.545 OA
ATOM      9  O   UNL     1      22.851  29.275  60.209  1.00  0.00    -0.545 OA
ENDBRANCH   1   7
TORSDOF 1
ENDMDL
MODEL 8
REMARK VINA RESULT:    -3.393     11.492     12.434
REMARK INTER + INTRA:          -3.607
REMARK INTER:                  -3.591
REMARK INTRA:                  -0.016
REMARK UNBOUND:                -0.016
REMARK SMILES O=C([O-])c1cccnc1
REMARK SMILES IDX 4 1 5 2 9 3 6 4 8 5 7 6 2 7 1 8 3 9
REMARK H PARENT
REMARK Flexibility Score: inf
ROOT
ATOM      1  C   UNL     1      20.223  31.300  56.020  1.00  0.00     0.016 A 
ATOM      2  C   UNL     1      20.614  30.784  54.774  1.00  0.00     0.013 A 
ATOM      3  C   UNL     1      19.220  32.286  56.051  1.00  0.00     0.120 A 
ATOM      4  C   UNL     1      20.012  31.248  53.603  1.00  0.00     0.021 A 
ATOM      5  N   UNL     1      18.649  32.719  54.895  1.00  0.00    -0.264 NA
ATOM      6  C   UNL     1      19.021  32.226  53.684  1.00  0.00     0.111 A 
ENDROOT
BRANCH   1   7
ATOM      7  C   UNL     1      20.853  30.817  57.268  1.00  0.00     0.073 C 
ATOM      8  O   UNL     1      20.373  29.833  57.889  1.00  0.00    -0.545 OA
ATOM      9  O   UNL     1      21.986  31.445  57.772  1.00  0.00    -0.545 OA
ENDBRANCH   1   7
TORSDOF 1
ENDMDL
MODEL 9
REMARK VINA RESULT:    -3.341     11.724     12.738
REMARK INTER + INTRA:          -3.552
REMARK INTER:                  -3.529
REMARK INTRA:                  -0.023
REMARK UNBOUND:                -0.016
REMARK SMILES O=C([O-])c1cccnc1
REMARK SMILES IDX 4 1 5 2 9 3 6 4 8 5 7 6 2 7 1 8 3 9
REMARK H PARENT
REMARK Flexibility Score: inf
ROOT
ATOM      1  C   UNL     1      18.689  32.348  53.753  1.00  0.00     0.016 A 
ATOM      2  C   UNL     1      19.620  31.379  53.346  1.00  0.00     0.013 A 
ATOM      3  C   UNL     1      18.673  32.735  55.105  1.00  0.00     0.120 A 
ATOM      4  C   UNL     1      20.503  30.822  54.274  1.00  0.00     0.021 A 
ATOM      5  N   UNL     1      19.545  32.178  55.988  1.00  0.00    -0.264 NA
ATOM      6  C   UNL     1      20.450  31.239  55.604  1.00  0.00     0.111 A 
ENDROOT
BRANCH   1   7
ATOM      7  C   UNL     1      17.747  32.944  52.781  1.00  0.00     0.073 C 
ATOM      8  O   UNL     1      16.802  33.679  53.172  1.00  0.00    -0.545 OA
ATOM      9  O   UNL     1      17.895  32.702  51.420  1.00  0.00    -0.545 OA
ENDBRANCH   1   7
TORSDOF 1
ENDMDL
