MODEL 1
REMARK VINA RESULT:     1.448      0.000      0.000
REMARK INTER + INTRA:           3.683
REMARK INTER:                   3.649
REMARK INTRA:                   0.034
REMARK UNBOUND:                 0.034
REMARK SMILES CCCCCCCCCCCCCCCCCCCCCCCCCCCC(=O)[O-]
REMARK SMILES IDX 15 1 16 2 17 3 18 4 19 5 20 6 21 7 22 8 23 9 24 10 25 11
REMARK SMILES IDX 26 12 27 13 28 14 29 15 30 16 14 17 13 18 12 19 11 20 10 21
REMARK SMILES IDX 9 22 8 23 7 24 6 25 5 26 4 27 3 28 2 29 1 30
REMARK H PARENT
REMARK Flexibility Score: inf
ROOT
ATOM      1  C   UNL     1       7.996  -3.804   7.524  1.00  0.00     0.000 C 
ENDROOT
BRANCH   1   2
ATOM      2  C   UNL     1       7.660  -5.307   7.538  1.00  0.00     0.000 C 
BRANCH   2   3
ATOM      3  C   UNL     1       7.097  -5.764   8.901  1.00  0.00     0.000 C 
BRANCH   3   4
ATOM      4  C   UNL     1       7.077  -7.292   9.084  1.00  0.00     0.000 C 
BRANCH   4   5
ATOM      5  C   UNL     1       5.773  -7.801   9.719  1.00  0.00     0.000 C 
BRANCH   5   6
ATOM      6  C   UNL     1       5.577  -9.320   9.566  1.00  0.00     0.000 C 
BRANCH   6   7
ATOM      7  C   UNL     1       4.133  -9.820   9.753  1.00  0.00     0.000 C 
BRANCH   7   8
ATOM      8  C   UNL     1       3.312  -9.792   8.452  1.00  0.00     0.000 C 
BRANCH   8   9
ATOM      9  C   UNL     1       3.160  -8.372   7.884  1.00  0.00     0.000 C 
BRANCH   9  10
ATOM     10  C   UNL     1       3.210  -7.296   8.983  1.00  0.00     0.000 C 
BRANCH  10  11
ATOM     11  C   UNL     1       2.996  -5.872   8.439  1.00  0.00     0.000 C 
BRANCH  11  12
ATOM     12  C   UNL     1       1.919  -5.745   7.345  1.00  0.00     0.006 C 
BRANCH  12  13
ATOM     13  C   UNL     1       0.687  -4.957   7.806  1.00  0.00     0.053 C 
BRANCH  13  14
ATOM     14  C   UNL     1      -0.482  -5.248   6.919  1.00  0.00     0.041 C 
ATOM     15  O   UNL     1      -0.874  -4.390   6.085  1.00  0.00    -0.550 OA
ATOM     16  O   UNL     1      -1.116  -6.482   6.986  1.00  0.00    -0.550 OA
ENDBRANCH  13  14
ENDBRANCH  12  13
ENDBRANCH  11  12
ENDBRANCH  10  11
ENDBRANCH   9  10
ENDBRANCH   8   9
ENDBRANCH   7   8
ENDBRANCH   6   7
ENDBRANCH   5   6
ENDBRANCH   4   5
ENDBRANCH   3   4
ENDBRANCH   2   3
ENDBRANCH   1   2
BRANCH   1  17
ATOM     17  C   UNL     1       9.244  -3.471   8.358  1.00  0.00     0.000 C 
BRANCH  17  18
ATOM     18  C   UNL     1       9.074  -2.176   9.170  1.00  0.00     0.000 C 
BRANCH  18  19
ATOM     19  C   UNL     1       8.904  -0.932   8.281  1.00  0.00     0.000 C 
BRANCH  19  20
ATOM     20  C   UNL     1       9.337   0.402   8.925  1.00  0.00     0.000 C 
BRANCH  20  21
ATOM     21  C   UNL     1       8.479   0.871  10.115  1.00  0.00     0.000 C 
BRANCH  21  22
ATOM     22  C   UNL     1       7.991   2.321   9.966  1.00  0.00    -0.000 C 
BRANCH  22  23
ATOM     23  C   UNL     1       9.130   3.351  10.085  1.00  0.00    -0.000 C 
BRANCH  23  24
ATOM     24  C   UNL     1       8.694   4.823   9.965  1.00  0.00    -0.000 C 
BRANCH  24  25
ATOM     25  C   UNL     1       9.883   5.799   9.954  1.00  0.00    -0.000 C 
BRANCH  25  26
ATOM     26  C   UNL     1       9.469   7.226   9.561  1.00  0.00    -0.000 C 
BRANCH  26  27
ATOM     27  C   UNL     1       8.092   7.614  10.121  1.00  0.00    -0.000 C 
BRANCH  27  28
ATOM     28  C   UNL     1       7.804   9.103   9.884  1.00  0.00    -0.000 C 
BRANCH  28  29
ATOM     29  C   UNL     1       6.357   9.361   9.434  1.00  0.00    -0.003 C 
ATOM     30  C   UNL     1       6.172   9.202   7.926  1.00  0.00     0.004 C 
ENDBRANCH  28  29
ENDBRANCH  27  28
ENDBRANCH  26  27
ENDBRANCH  25  26
ENDBRANCH  24  25
ENDBRANCH  23  24
ENDBRANCH  22  23
ENDBRANCH  21  22
ENDBRANCH  20  21
ENDBRANCH  19  20
ENDBRANCH  18  19
ENDBRANCH  17  18
ENDBRANCH   1  17
TORSDOF 26
ENDMDL
MODEL 2
REMARK VINA RESULT:     1.755      4.323     10.458
REMARK INTER + INTRA:           4.456
REMARK INTER:                   1.773
REMARK INTRA:                   2.683
REMARK UNBOUND:                 0.034
REMARK SMILES CCCCCCCCCCCCCCCCCCCCCCCCCCCC(=O)[O-]
REMARK SMILES IDX 15 1 16 2 17 3 18 4 19 5 20 6 21 7 22 8 23 9 24 10 25 11
REMARK SMILES IDX 26 12 27 13 28 14 29 15 30 16 14 17 13 18 12 19 11 20 10 21
REMARK SMILES IDX 9 22 8 23 7 24 6 25 5 26 4 27 3 28 2 29 1 30
REMARK H PARENT
REMARK Flexibility Score: inf
ROOT
ATOM      1  C   UNL     1       5.958  -6.200   6.654  1.00  0.00     0.000 C 
ENDROOT
BRANCH   1   2
ATOM      2  C   UNL     1       5.818  -6.100   8.184  1.00  0.00     0.000 C 
BRANCH   2   3
ATOM      3  C   UNL     1       6.661  -7.167   8.916  1.00  0.00     0.000 C 
BRANCH   3   4
ATOM      4  C   UNL     1       7.448  -6.619  10.120  1.00  0.00     0.000 C 
BRANCH   4   5
ATOM      5  C   UNL     1       7.749  -5.117  10.003  1.00  0.00     0.000 C 
BRANCH   5   6
ATOM      6  C   UNL     1       9.091  -4.821   9.310  1.00  0.00     0.000 C 
BRANCH   6   7
ATOM      7  C   UNL     1       9.393  -5.676   8.065  1.00  0.00     0.000 C 
BRANCH   7   8
ATOM      8  C   UNL     1       8.970  -4.997   6.750  1.00  0.00     0.000 C 
BRANCH   8   9
ATOM      9  C   UNL     1       8.770  -3.481   6.910  1.00  0.00     0.000 C 
BRANCH   9  10
ATOM     10  C   UNL     1       8.162  -3.114   8.275  1.00  0.00     0.000 C 
BRANCH  10  11
ATOM     11  C   UNL     1       8.870  -1.925   8.948  1.00  0.00     0.000 C 
BRANCH  11  12
ATOM     12  C   UNL     1       7.970  -1.048   9.839  1.00  0.00     0.006 C 
BRANCH  12  13
ATOM     13  C   UNL     1       8.557   0.345  10.096  1.00  0.00     0.053 C 
BRANCH  13  14
ATOM     14  C   UNL     1       7.626   1.405   9.598  1.00  0.00     0.041 C 
ATOM     15  O   UNL     1       6.396   1.343   9.859  1.00  0.00    -0.550 OA
ATOM     16  O   UNL     1       8.123   2.485   8.879  1.00  0.00    -0.550 OA
ENDBRANCH  13  14
ENDBRANCH  12  13
ENDBRANCH  11  12
ENDBRANCH  10  11
ENDBRANCH   9  10
ENDBRANCH   8   9
ENDBRANCH   7   8
ENDBRANCH   6   7
ENDBRANCH   5   6
ENDBRANCH   4   5
ENDBRANCH   3   4
ENDBRANCH   2   3
ENDBRANCH   1   2
BRANCH   1  17
ATOM     17  C   UNL     1       6.654  -7.497   6.209  1.00  0.00     0.000 C 
BRANCH  17  18
ATOM     18  C   UNL     1       6.084  -8.042   4.890  1.00  0.00     0.000 C 
BRANCH  18  19
ATOM     19  C   UNL     1       5.738  -9.540   4.962  1.00  0.00     0.000 C 
BRANCH  19  20
ATOM     20  C   UNL     1       5.633 -10.124   6.386  1.00  0.00     0.000 C 
BRANCH  20  21
ATOM     21  C   UNL     1       4.265  -9.953   7.072  1.00  0.00     0.000 C 
BRANCH  21  22
ATOM     22  C   UNL     1       4.382  -9.669   8.579  1.00  0.00    -0.000 C 
BRANCH  22  23
ATOM     23  C   UNL     1       3.050  -9.222   9.209  1.00  0.00    -0.000 C 
BRANCH  23  24
ATOM     24  C   UNL     1       2.610  -7.789   8.856  1.00  0.00    -0.000 C 
BRANCH  24  25
ATOM     25  C   UNL     1       3.464  -6.713   9.550  1.00  0.00    -0.000 C 
BRANCH  25  26
ATOM     26  C   UNL     1       2.829  -5.316   9.467  1.00  0.00    -0.000 C 
BRANCH  26  27
ATOM     27  C   UNL     1       2.256  -5.011   8.075  1.00  0.00    -0.000 C 
BRANCH  27  28
ATOM     28  C   UNL     1       1.224  -6.070   7.663  1.00  0.00    -0.000 C 
BRANCH  28  29
ATOM     29  C   UNL     1      -0.223  -5.596   7.867  1.00  0.00    -0.003 C 
ATOM     30  C   UNL     1      -0.916  -5.237   6.553  1.00  0.00     0.004 C 
ENDBRANCH  28  29
ENDBRANCH  27  28
ENDBRANCH  26  27
ENDBRANCH  25  26
ENDBRANCH  24  25
ENDBRANCH  23  24
ENDBRANCH  22  23
ENDBRANCH  21  22
ENDBRANCH  20  21
ENDBRANCH  19  20
ENDBRANCH  18  19
ENDBRANCH  17  18
ENDBRANCH   1  17
TORSDOF 26
ENDMDL
MODEL 3
REMARK VINA RESULT:     3.130     11.341     16.254
REMARK INTER + INTRA:           7.922
REMARK INTER:                   5.251
REMARK INTRA:                   2.671
REMARK UNBOUND:                 0.034
REMARK SMILES CCCCCCCCCCCCCCCCCCCCCCCCCCCC(=O)[O-]
REMARK SMILES IDX 15 1 16 2 17 3 18 4 19 5 20 6 21 7 22 8 23 9 24 10 25 11
REMARK SMILES IDX 26 12 27 13 28 14 29 15 30 16 14 17 13 18 12 19 11 20 10 21
REMARK SMILES IDX 9 22 8 23 7 24 6 25 5 26 4 27 3 28 2 29 1 30
REMARK H PARENT
REMARK Flexibility Score: inf
ROOT
ATOM      1  C   UNL     1      -2.912   4.606   5.951  1.00  0.00     0.000 C 
ENDROOT
BRANCH   1   2
ATOM      2  C   UNL     1      -2.599   5.808   5.040  1.00  0.00     0.000 C 
BRANCH   2   3
ATOM      3  C   UNL     1      -3.660   6.924   5.166  1.00  0.00     0.000 C 
BRANCH   3   4
ATOM      4  C   UNL     1      -3.079   8.292   5.566  1.00  0.00     0.000 C 
BRANCH   4   5
ATOM      5  C   UNL     1      -1.559   8.252   5.794  1.00  0.00     0.000 C 
BRANCH   5   6
ATOM      6  C   UNL     1      -1.175   8.012   7.265  1.00  0.00     0.000 C 
BRANCH   6   7
ATOM      7  C   UNL     1      -1.243   9.253   8.174  1.00  0.00     0.000 C 
BRANCH   7   8
ATOM      8  C   UNL     1      -0.745   8.981   9.605  1.00  0.00     0.000 C 
BRANCH   8   9
ATOM      9  C   UNL     1       0.369   9.950  10.033  1.00  0.00     0.000 C 
BRANCH   9  10
ATOM     10  C   UNL     1       1.770   9.414   9.692  1.00  0.00     0.000 C 
BRANCH  10  11
ATOM     11  C   UNL     1       2.039   9.354   8.178  1.00  0.00     0.000 C 
BRANCH  11  12
ATOM     12  C   UNL     1       3.229   8.470   7.760  1.00  0.00     0.006 C 
BRANCH  12  13
ATOM     13  C   UNL     1       4.573   9.205   7.831  1.00  0.00     0.053 C 
BRANCH  13  14
ATOM     14  C   UNL     1       5.695   8.279   7.477  1.00  0.00     0.041 C 
ATOM     15  O   UNL     1       5.525   7.377   6.616  1.00  0.00    -0.550 OA
ATOM     16  O   UNL     1       6.940   8.438   8.071  1.00  0.00    -0.550 OA
ENDBRANCH  13  14
ENDBRANCH  12  13
ENDBRANCH  11  12
ENDBRANCH  10  11
ENDBRANCH   9  10
ENDBRANCH   8   9
ENDBRANCH   7   8
ENDBRANCH   6   7
ENDBRANCH   5   6
ENDBRANCH   4   5
ENDBRANCH   3   4
ENDBRANCH   2   3
ENDBRANCH   1   2
BRANCH   1  17
ATOM     17  C   UNL     1      -3.372   5.035   7.354  1.00  0.00     0.000 C 
BRANCH  17  18
ATOM     18  C   UNL     1      -4.093   6.393   7.342  1.00  0.00     0.000 C 
BRANCH  18  19
ATOM     19  C   UNL     1      -3.881   7.193   8.640  1.00  0.00     0.000 C 
BRANCH  19  20
ATOM     20  C   UNL     1      -4.335   6.483   9.932  1.00  0.00     0.000 C 
BRANCH  20  21
ATOM     21  C   UNL     1      -5.824   6.090   9.983  1.00  0.00     0.000 C 
BRANCH  21  22
ATOM     22  C   UNL     1      -6.764   7.307   9.996  1.00  0.00    -0.000 C 
BRANCH  22  23
ATOM     23  C   UNL     1      -8.232   6.932   9.720  1.00  0.00    -0.000 C 
BRANCH  23  24
ATOM     24  C   UNL     1      -9.262   8.018  10.080  1.00  0.00    -0.000 C 
BRANCH  24  25
ATOM     25  C   UNL     1      -8.925   9.388   9.466  1.00  0.00    -0.000 C 
BRANCH  25  26
ATOM     26  C   UNL     1      -7.701  10.043  10.124  1.00  0.00    -0.000 C 
BRANCH  26  27
ATOM     27  C   UNL     1      -6.493  10.119   9.177  1.00  0.00    -0.000 C 
BRANCH  27  28
ATOM     28  C   UNL     1      -6.874   9.645   7.766  1.00  0.00    -0.000 C 
BRANCH  28  29
ATOM     29  C   UNL     1      -5.707   9.753   6.772  1.00  0.00    -0.003 C 
ATOM     30  C   UNL     1      -4.388  10.121   7.450  1.00  0.00     0.004 C 
ENDBRANCH  28  29
ENDBRANCH  27  28
ENDBRANCH  26  27
ENDBRANCH  25  26
ENDBRANCH  24  25
ENDBRANCH  23  24
ENDBRANCH  22  23
ENDBRANCH  21  22
ENDBRANCH  20  21
ENDBRANCH  19  20
ENDBRANCH  18  19
ENDBRANCH  17  18
ENDBRANCH   1  17
TORSDOF 26
ENDMDL
MODEL 4
REMARK VINA RESULT:     3.375      9.734     15.152
REMARK INTER + INTRA:           8.539
REMARK INTER:                   9.600
REMARK INTRA:                  -1.061
REMARK UNBOUND:                 0.034
REMARK SMILES CCCCCCCCCCCCCCCCCCCCCCCCCCCC(=O)[O-]
REMARK SMILES IDX 15 1 16 2 17 3 18 4 19 5 20 6 21 7 22 8 23 9 24 10 25 11
REMARK SMILES IDX 26 12 27 13 28 14 29 15 30 16 14 17 13 18 12 19 11 20 10 21
REMARK SMILES IDX 9 22 8 23 7 24 6 25 5 26 4 27 3 28 2 29 1 30
REMARK H PARENT
REMARK Flexibility Score: inf
ROOT
ATOM      1  C   UNL     1      -3.376  -5.494   1.565  1.00  0.00     0.000 C 
ENDROOT
BRANCH   1   2
ATOM      2  C   UNL     1      -4.091  -6.511   0.657  1.00  0.00     0.000 C 
BRANCH   2   3
ATOM      3  C   UNL     1      -3.690  -6.350  -0.826  1.00  0.00     0.000 C 
BRANCH   3   4
ATOM      4  C   UNL     1      -4.004  -7.582  -1.692  1.00  0.00     0.000 C 
BRANCH   4   5
ATOM      5  C   UNL     1      -2.850  -7.960  -2.634  1.00  0.00     0.000 C 
BRANCH   5   6
ATOM      6  C   UNL     1      -2.583  -9.475  -2.686  1.00  0.00     0.000 C 
BRANCH   6   7
ATOM      7  C   UNL     1      -1.742  -9.955  -3.883  1.00  0.00     0.000 C 
BRANCH   7   8
ATOM      8  C   UNL     1      -1.299  -8.807  -4.808  1.00  0.00     0.000 C 
BRANCH   8   9
ATOM      9  C   UNL     1      -0.541  -9.311  -6.047  1.00  0.00     0.000 C 
BRANCH   9  10
ATOM     10  C   UNL     1      -0.606  -8.313  -7.216  1.00  0.00     0.000 C 
BRANCH  10  11
ATOM     11  C   UNL     1      -1.414  -8.843  -8.414  1.00  0.00     0.000 C 
BRANCH  11  12
ATOM     12  C   UNL     1      -0.795  -8.561  -9.796  1.00  0.00     0.006 C 
BRANCH  12  13
ATOM     13  C   UNL     1       0.493  -7.733  -9.716  1.00  0.00     0.053 C 
BRANCH  13  14
ATOM     14  C   UNL     1       0.182  -6.272  -9.792  1.00  0.00     0.041 C 
ATOM     15  O   UNL     1       1.086  -5.419  -9.590  1.00  0.00    -0.550 OA
ATOM     16  O   UNL     1      -1.099  -5.850 -10.125  1.00  0.00    -0.550 OA
ENDBRANCH  13  14
ENDBRANCH  12  13
ENDBRANCH  11  12
ENDBRANCH  10  11
ENDBRANCH   9  10
ENDBRANCH   8   9
ENDBRANCH   7   8
ENDBRANCH   6   7
ENDBRANCH   5   6
ENDBRANCH   4   5
ENDBRANCH   3   4
ENDBRANCH   2   3
ENDBRANCH   1   2
BRANCH   1  17
ATOM     17  C   UNL     1      -3.916  -5.507   3.004  1.00  0.00     0.000 C 
BRANCH  17  18
ATOM     18  C   UNL     1      -2.945  -6.186   3.985  1.00  0.00     0.000 C 
BRANCH  18  19
ATOM     19  C   UNL     1      -2.612  -5.305   5.202  1.00  0.00     0.000 C 
BRANCH  19  20
ATOM     20  C   UNL     1      -1.544  -5.877   6.157  1.00  0.00     0.000 C 
BRANCH  20  21
ATOM     21  C   UNL     1      -0.538  -4.853   6.713  1.00  0.00     0.000 C 
BRANCH  21  22
ATOM     22  C   UNL     1       0.197  -5.356   7.966  1.00  0.00    -0.000 C 
BRANCH  22  23
ATOM     23  C   UNL     1       1.437  -6.206   7.632  1.00  0.00    -0.000 C 
BRANCH  23  24
ATOM     24  C   UNL     1       2.790  -5.511   7.873  1.00  0.00    -0.000 C 
BRANCH  24  25
ATOM     25  C   UNL     1       3.336  -5.743   9.293  1.00  0.00    -0.000 C 
BRANCH  25  26
ATOM     26  C   UNL     1       4.756  -6.332   9.288  1.00  0.00    -0.000 C 
BRANCH  26  27
ATOM     27  C   UNL     1       4.904  -7.501   8.302  1.00  0.00    -0.000 C 
BRANCH  27  28
ATOM     28  C   UNL     1       5.199  -8.811   9.047  1.00  0.00    -0.000 C 
BRANCH  28  29
ATOM     29  C   UNL     1       4.679 -10.047   8.297  1.00  0.00    -0.003 C 
ATOM     30  C   UNL     1       3.416  -9.757   7.488  1.00  0.00     0.004 C 
ENDBRANCH  28  29
ENDBRANCH  27  28
ENDBRANCH  26  27
ENDBRANCH  25  26
ENDBRANCH  24  25
ENDBRANCH  23  24
ENDBRANCH  22  23
ENDBRANCH  21  22
ENDBRANCH  20  21
ENDBRANCH  19  20
ENDBRANCH  18  19
ENDBRANCH  17  18
ENDBRANCH   1  17
TORSDOF 26
ENDMDL
MODEL 5
REMARK VINA RESULT:     3.706     10.550     17.787
REMARK INTER + INTRA:           9.372
REMARK INTER:                  10.341
REMARK INTRA:                  -0.968
REMARK UNBOUND:                 0.034
REMARK SMILES CCCCCCCCCCCCCCCCCCCCCCCCCCCC(=O)[O-]
REMARK SMILES IDX 15 1 16 2 17 3 18 4 19 5 20 6 21 7 22 8 23 9 24 10 25 11
REMARK SMILES IDX 26 12 27 13 28 14 29 15 30 16 14 17 13 18 12 19 11 20 10 21
REMARK SMILES IDX 9 22 8 23 7 24 6 25 5 26 4 27 3 28 2 29 1 30
REMARK H PARENT
REMARK Flexibility Score: inf
ROOT
ATOM      1  C   UNL     1      -3.372  -6.628  -0.133  1.00  0.00     0.000 C 
ENDROOT
BRANCH   1   2
ATOM      2  C   UNL     1      -3.964  -5.851   1.057  1.00  0.00     0.000 C 
BRANCH   2   3
ATOM      3  C   UNL     1      -3.102  -5.993   2.331  1.00  0.00     0.000 C 
BRANCH   3   4
ATOM      4  C   UNL     1      -3.692  -5.283   3.563  1.00  0.00     0.000 C 
BRANCH   4   5
ATOM      5  C   UNL     1      -3.167  -5.855   4.890  1.00  0.00     0.000 C 
BRANCH   5   6
ATOM      6  C   UNL     1      -1.777  -5.316   5.273  1.00  0.00     0.000 C 
BRANCH   6   7
ATOM      7  C   UNL     1      -1.218  -5.831   6.612  1.00  0.00     0.000 C 
BRANCH   7   8
ATOM      8  C   UNL     1      -0.064  -4.968   7.155  1.00  0.00     0.000 C 
BRANCH   8   9
ATOM      9  C   UNL     1       1.182  -5.802   7.494  1.00  0.00     0.000 C 
BRANCH   9  10
ATOM     10  C   UNL     1       2.105  -5.090   8.499  1.00  0.00     0.000 C 
BRANCH  10  11
ATOM     11  C   UNL     1       3.229  -5.998   9.030  1.00  0.00     0.000 C 
BRANCH  11  12
ATOM     12  C   UNL     1       3.166  -7.461   8.555  1.00  0.00     0.006 C 
BRANCH  12  13
ATOM     13  C   UNL     1       4.426  -7.899   7.797  1.00  0.00     0.053 C 
BRANCH  13  14
ATOM     14  C   UNL     1       4.631  -9.375   7.932  1.00  0.00     0.041 C 
ATOM     15  O   UNL     1       4.718 -10.099   6.906  1.00  0.00    -0.550 OA
ATOM     16  O   UNL     1       4.768  -9.945   9.191  1.00  0.00    -0.550 OA
ENDBRANCH  13  14
ENDBRANCH  12  13
ENDBRANCH  11  12
ENDBRANCH  10  11
ENDBRANCH   9  10
ENDBRANCH   8   9
ENDBRANCH   7   8
ENDBRANCH   6   7
ENDBRANCH   5   6
ENDBRANCH   4   5
ENDBRANCH   3   4
ENDBRANCH   2   3
ENDBRANCH   1   2
BRANCH   1  17
ATOM     17  C   UNL     1      -4.455  -7.284  -1.005  1.00  0.00     0.000 C 
BRANCH  17  18
ATOM     18  C   UNL     1      -3.905  -7.752  -2.363  1.00  0.00     0.000 C 
BRANCH  18  19
ATOM     19  C   UNL     1      -2.369  -7.694  -2.437  1.00  0.00     0.000 C 
BRANCH  19  20
ATOM     20  C   UNL     1      -1.720  -8.684  -3.427  1.00  0.00     0.000 C 
BRANCH  20  21
ATOM     21  C   UNL     1      -1.640  -8.202  -4.888  1.00  0.00     0.000 C 
BRANCH  21  22
ATOM     22  C   UNL     1      -0.878  -9.177  -5.799  1.00  0.00    -0.000 C 
BRANCH  22  23
ATOM     23  C   UNL     1      -0.787  -8.689  -7.256  1.00  0.00    -0.000 C 
BRANCH  23  24
ATOM     24  C   UNL     1      -1.552  -9.546  -8.281  1.00  0.00    -0.000 C 
BRANCH  24  25
ATOM     25  C   UNL     1      -1.811  -8.806  -9.605  1.00  0.00    -0.000 C 
BRANCH  25  26
ATOM     26  C   UNL     1      -3.309  -8.682  -9.926  1.00  0.00    -0.000 C 
BRANCH  26  27
ATOM     27  C   UNL     1      -4.107  -9.923  -9.497  1.00  0.00    -0.000 C 
BRANCH  27  28
ATOM     28  C   UNL     1      -5.526  -9.890 -10.083  1.00  0.00    -0.000 C 
BRANCH  28  29
ATOM     29  C   UNL     1      -6.611 -10.105  -9.016  1.00  0.00    -0.003 C 
ATOM     30  C   UNL     1      -7.648  -8.983  -8.997  1.00  0.00     0.004 C 
ENDBRANCH  28  29
ENDBRANCH  27  28
ENDBRANCH  26  27
ENDBRANCH  25  26
ENDBRANCH  24  25
ENDBRANCH  23  24
ENDBRANCH  22  23
ENDBRANCH  21  22
ENDBRANCH  20  21
ENDBRANCH  19  20
ENDBRANCH  18  19
ENDBRANCH  17  18
ENDBRANCH   1  17
TORSDOF 26
ENDMDL
MODEL 6
REMARK VINA RESULT:     3.794      9.204     16.133
REMARK INTER + INTRA:           9.594
REMARK INTER:                  10.853
REMARK INTRA:                  -1.259
REMARK UNBOUND:                 0.034
REMARK SMILES CCCCCCCCCCCCCCCCCCCCCCCCCCCC(=O)[O-]
REMARK SMILES IDX 15 1 16 2 17 3 18 4 19 5 20 6 21 7 22 8 23 9 24 10 25 11
REMARK SMILES IDX 26 12 27 13 28 14 29 15 30 16 14 17 13 18 12 19 11 20 10 21
REMARK SMILES IDX 9 22 8 23 7 24 6 25 5 26 4 27 3 28 2 29 1 30
REMARK H PARENT
REMARK Flexibility Score: inf
ROOT
ATOM      1  C   UNL     1      -3.814  -5.158   2.096  1.00  0.00     0.000 C 
ENDROOT
BRANCH   1   2
ATOM      2  C   UNL     1      -4.007  -5.463   3.593  1.00  0.00     0.000 C 
BRANCH   2   3
ATOM      3  C   UNL     1      -2.709  -5.977   4.254  1.00  0.00     0.000 C 
BRANCH   3   4
ATOM      4  C   UNL     1      -2.323  -5.220   5.537  1.00  0.00     0.000 C 
BRANCH   4   5
ATOM      5  C   UNL     1      -1.285  -5.972   6.385  1.00  0.00     0.000 C 
BRANCH   5   6
ATOM      6  C   UNL     1      -0.306  -5.035   7.114  1.00  0.00     0.000 C 
BRANCH   6   7
ATOM      7  C   UNL     1       0.871  -5.733   7.820  1.00  0.00     0.000 C 
BRANCH   7   8
ATOM      8  C   UNL     1       2.213  -5.004   7.620  1.00  0.00     0.000 C 
BRANCH   8   9
ATOM      9  C   UNL     1       3.246  -5.370   8.698  1.00  0.00     0.000 C 
BRANCH   9  10
ATOM     10  C   UNL     1       3.144  -6.844   9.127  1.00  0.00     0.000 C 
BRANCH  10  11
ATOM     11  C   UNL     1       4.408  -7.349   9.846  1.00  0.00     0.000 C 
BRANCH  11  12
ATOM     12  C   UNL     1       5.263  -8.346   9.042  1.00  0.00     0.006 C 
BRANCH  12  13
ATOM     13  C   UNL     1       4.804  -8.489   7.586  1.00  0.00     0.053 C 
BRANCH  13  14
ATOM     14  C   UNL     1       5.798  -7.862   6.660  1.00  0.00     0.041 C 
ATOM     15  O   UNL     1       6.398  -8.564   5.804  1.00  0.00    -0.550 OA
ATOM     16  O   UNL     1       6.033  -6.494   6.715  1.00  0.00    -0.550 OA
ENDBRANCH  13  14
ENDBRANCH  12  13
ENDBRANCH  11  12
ENDBRANCH  10  11
ENDBRANCH   9  10
ENDBRANCH   8   9
ENDBRANCH   7   8
ENDBRANCH   6   7
ENDBRANCH   5   6
ENDBRANCH   4   5
ENDBRANCH   3   4
ENDBRANCH   2   3
ENDBRANCH   1   2
BRANCH   1  17
ATOM     17  C   UNL     1      -3.621  -6.431   1.255  1.00  0.00     0.000 C 
BRANCH  17  18
ATOM     18  C   UNL     1      -3.931  -6.199  -0.233  1.00  0.00     0.000 C 
BRANCH  18  19
ATOM     19  C   UNL     1      -4.174  -7.509  -1.003  1.00  0.00     0.000 C 
BRANCH  19  20
ATOM     20  C   UNL     1      -3.654  -7.524  -2.456  1.00  0.00     0.000 C 
BRANCH  20  21
ATOM     21  C   UNL     1      -2.137  -7.742  -2.612  1.00  0.00     0.000 C 
BRANCH  21  22
ATOM     22  C   UNL     1      -1.766  -9.212  -2.867  1.00  0.00    -0.000 C 
BRANCH  22  23
ATOM     23  C   UNL     1      -1.612  -9.540  -4.363  1.00  0.00    -0.000 C 
BRANCH  23  24
ATOM     24  C   UNL     1      -1.049  -8.398  -5.228  1.00  0.00    -0.000 C 
BRANCH  24  25
ATOM     25  C   UNL     1      -1.176  -8.672  -6.736  1.00  0.00    -0.000 C 
BRANCH  25  26
ATOM     26  C   UNL     1       0.128  -9.209  -7.348  1.00  0.00    -0.000 C 
BRANCH  26  27
ATOM     27  C   UNL     1      -0.027  -9.579  -8.831  1.00  0.00    -0.000 C 
BRANCH  27  28
ATOM     28  C   UNL     1      -0.086  -8.318  -9.707  1.00  0.00    -0.000 C 
BRANCH  28  29
ATOM     29  C   UNL     1       0.946  -7.259  -9.289  1.00  0.00    -0.003 C 
ATOM     30  C   UNL     1       0.684  -5.897  -9.928  1.00  0.00     0.004 C 
ENDBRANCH  28  29
ENDBRANCH  27  28
ENDBRANCH  26  27
ENDBRANCH  25  26
ENDBRANCH  24  25
ENDBRANCH  23  24
ENDBRANCH  22  23
ENDBRANCH  21  22
ENDBRANCH  20  21
ENDBRANCH  19  20
ENDBRANCH  18  19
ENDBRANCH  17  18
ENDBRANCH   1  17
TORSDOF 26
ENDMDL
MODEL 7
REMARK VINA RESULT:     3.834      9.788     14.664
REMARK INTER + INTRA:           9.695
REMARK INTER:                  10.669
REMARK INTRA:                  -0.974
REMARK UNBOUND:                 0.034
REMARK SMILES CCCCCCCCCCCCCCCCCCCCCCCCCCCC(=O)[O-]
REMARK SMILES IDX 15 1 16 2 17 3 18 4 19 5 20 6 21 7 22 8 23 9 24 10 25 11
REMARK SMILES IDX 26 12 27 13 28 14 29 15 30 16 14 17 13 18 12 19 11 20 10 21
REMARK SMILES IDX 9 22 8 23 7 24 6 25 5 26 4 27 3 28 2 29 1 30
REMARK H PARENT
REMARK Flexibility Score: inf
ROOT
ATOM      1  C   UNL     1      -3.881  -5.609   2.053  1.00  0.00     0.000 C 
ENDROOT
BRANCH   1   2
ATOM      2  C   UNL     1      -3.402  -6.004   0.644  1.00  0.00     0.000 C 
BRANCH   2   3
ATOM      3  C   UNL     1      -4.319  -7.063  -0.005  1.00  0.00     0.000 C 
BRANCH   3   4
ATOM      4  C   UNL     1      -4.237  -7.098  -1.542  1.00  0.00     0.000 C 
BRANCH   4   5
ATOM      5  C   UNL     1      -2.841  -7.483  -2.057  1.00  0.00     0.000 C 
BRANCH   5   6
ATOM      6  C   UNL     1      -2.843  -8.764  -2.911  1.00  0.00     0.000 C 
BRANCH   6   7
ATOM      7  C   UNL     1      -1.452  -9.307  -3.286  1.00  0.00     0.000 C 
BRANCH   7   8
ATOM      8  C   UNL     1      -1.369  -9.800  -4.742  1.00  0.00     0.000 C 
BRANCH   8   9
ATOM      9  C   UNL     1      -1.069  -8.661  -5.730  1.00  0.00     0.000 C 
BRANCH   9  10
ATOM     10  C   UNL     1      -0.631  -9.186  -7.109  1.00  0.00     0.000 C 
BRANCH  10  11
ATOM     11  C   UNL     1      -1.577  -8.751  -8.244  1.00  0.00     0.000 C 
BRANCH  11  12
ATOM     12  C   UNL     1      -1.009  -8.918  -9.666  1.00  0.00     0.006 C 
BRANCH  12  13
ATOM     13  C   UNL     1       0.195  -9.866  -9.723  1.00  0.00     0.053 C 
BRANCH  13  14
ATOM     14  C   UNL     1       1.459  -9.094  -9.940  1.00  0.00     0.041 C 
ATOM     15  O   UNL     1       1.424  -7.842 -10.065  1.00  0.00    -0.550 OA
ATOM     16  O   UNL     1       2.681  -9.755  -9.964  1.00  0.00    -0.550 OA
ENDBRANCH  13  14
ENDBRANCH  12  13
ENDBRANCH  11  12
ENDBRANCH  10  11
ENDBRANCH   9  10
ENDBRANCH   8   9
ENDBRANCH   7   8
ENDBRANCH   6   7
ENDBRANCH   5   6
ENDBRANCH   4   5
ENDBRANCH   3   4
ENDBRANCH   2   3
ENDBRANCH   1   2
BRANCH   1  17
ATOM     17  C   UNL     1      -2.985  -6.182   3.163  1.00  0.00     0.000 C 
BRANCH  17  18
ATOM     18  C   UNL     1      -3.169  -5.446   4.500  1.00  0.00     0.000 C 
BRANCH  18  19
ATOM     19  C   UNL     1      -2.289  -6.020   5.624  1.00  0.00     0.000 C 
BRANCH  19  20
ATOM     20  C   UNL     1      -1.092  -5.139   6.039  1.00  0.00     0.000 C 
BRANCH  20  21
ATOM     21  C   UNL     1      -0.531  -5.407   7.449  1.00  0.00     0.000 C 
BRANCH  21  22
ATOM     22  C   UNL     1       0.964  -5.764   7.440  1.00  0.00    -0.000 C 
BRANCH  22  23
ATOM     23  C   UNL     1       1.837  -4.707   8.139  1.00  0.00    -0.000 C 
BRANCH  23  24
ATOM     24  C   UNL     1       2.955  -5.271   9.034  1.00  0.00    -0.000 C 
BRANCH  24  25
ATOM     25  C   UNL     1       3.106  -6.797   8.912  1.00  0.00    -0.000 C 
BRANCH  25  26
ATOM     26  C   UNL     1       4.150  -7.202   7.859  1.00  0.00    -0.000 C 
BRANCH  26  27
ATOM     27  C   UNL     1       5.353  -6.246   7.825  1.00  0.00    -0.000 C 
BRANCH  27  28
ATOM     28  C   UNL     1       6.273  -6.481   9.031  1.00  0.00    -0.000 C 
BRANCH  28  29
ATOM     29  C   UNL     1       6.957  -5.192   9.513  1.00  0.00    -0.003 C 
ATOM     30  C   UNL     1       8.391  -5.059   9.002  1.00  0.00     0.004 C 
ENDBRANCH  28  29
ENDBRANCH  27  28
ENDBRANCH  26  27
ENDBRANCH  25  26
ENDBRANCH  24  25
ENDBRANCH  23  24
ENDBRANCH  22  23
ENDBRANCH  21  22
ENDBRANCH  20  21
ENDBRANCH  19  20
ENDBRANCH  18  19
ENDBRANCH  17  18
ENDBRANCH   1  17
TORSDOF 26
ENDMDL
MODEL 8
REMARK VINA RESULT:     4.335      8.400     13.043
REMARK INTER + INTRA:          10.959
REMARK INTER:                  11.989
REMARK INTRA:                  -1.030
REMARK UNBOUND:                 0.034
REMARK SMILES CCCCCCCCCCCCCCCCCCCCCCCCCCCC(=O)[O-]
REMARK SMILES IDX 15 1 16 2 17 3 18 4 19 5 20 6 21 7 22 8 23 9 24 10 25 11
REMARK SMILES IDX 26 12 27 13 28 14 29 15 30 16 14 17 13 18 12 19 11 20 10 21
REMARK SMILES IDX 9 22 8 23 7 24 6 25 5 26 4 27 3 28 2 29 1 30
REMARK H PARENT
REMARK Flexibility Score: inf
ROOT
ATOM      1  C   UNL     1      -3.003  -5.627   4.885  1.00  0.00     0.000 C 
ENDROOT
BRANCH   1   2
ATOM      2  C   UNL     1      -2.991  -6.443   3.578  1.00  0.00     0.000 C 
BRANCH   2   3
ATOM      3  C   UNL     1      -3.374  -5.584   2.353  1.00  0.00     0.000 C 
BRANCH   3   4
ATOM      4  C   UNL     1      -4.100  -6.368   1.246  1.00  0.00     0.000 C 
BRANCH   4   5
ATOM      5  C   UNL     1      -3.392  -6.274  -0.115  1.00  0.00     0.000 C 
BRANCH   5   6
ATOM      6  C   UNL     1      -4.076  -7.111  -1.211  1.00  0.00     0.000 C 
BRANCH   6   7
ATOM      7  C   UNL     1      -3.121  -7.843  -2.172  1.00  0.00     0.000 C 
BRANCH   7   8
ATOM      8  C   UNL     1      -2.255  -6.884  -3.008  1.00  0.00     0.000 C 
BRANCH   8   9
ATOM      9  C   UNL     1      -1.122  -7.612  -3.750  1.00  0.00     0.000 C 
BRANCH   9  10
ATOM     10  C   UNL     1      -1.605  -8.908  -4.423  1.00  0.00     0.000 C 
BRANCH  10  11
ATOM     11  C   UNL     1      -0.755  -9.303  -5.645  1.00  0.00     0.000 C 
BRANCH  11  12
ATOM     12  C   UNL     1      -0.763  -8.287  -6.802  1.00  0.00     0.006 C 
BRANCH  12  13
ATOM     13  C   UNL     1       0.106  -8.723  -7.988  1.00  0.00     0.053 C 
BRANCH  13  14
ATOM     14  C   UNL     1      -0.051  -7.770  -9.131  1.00  0.00     0.041 C 
ATOM     15  O   UNL     1      -1.174  -7.257  -9.379  1.00  0.00    -0.550 OA
ATOM     16  O   UNL     1       1.051  -7.418  -9.899  1.00  0.00    -0.550 OA
ENDBRANCH  13  14
ENDBRANCH  12  13
ENDBRANCH  11  12
ENDBRANCH  10  11
ENDBRANCH   9  10
ENDBRANCH   8   9
ENDBRANCH   7   8
ENDBRANCH   6   7
ENDBRANCH   5   6
ENDBRANCH   4   5
ENDBRANCH   3   4
ENDBRANCH   2   3
ENDBRANCH   1   2
BRANCH   1  17
ATOM     17  C   UNL     1      -1.590  -5.233   5.346  1.00  0.00     0.000 C 
BRANCH  17  18
ATOM     18  C   UNL     1      -1.152  -6.003   6.603  1.00  0.00     0.000 C 
BRANCH  18  19
ATOM     19  C   UNL     1      -0.424  -5.111   7.626  1.00  0.00     0.000 C 
BRANCH  19  20
ATOM     20  C   UNL     1       1.029  -4.744   7.262  1.00  0.00     0.000 C 
BRANCH  20  21
ATOM     21  C   UNL     1       2.091  -5.796   7.635  1.00  0.00     0.000 C 
BRANCH  21  22
ATOM     22  C   UNL     1       3.119  -5.275   8.652  1.00  0.00    -0.000 C 
BRANCH  22  23
ATOM     23  C   UNL     1       3.858  -6.405   9.390  1.00  0.00    -0.000 C 
BRANCH  23  24
ATOM     24  C   UNL     1       5.305  -6.653   8.924  1.00  0.00    -0.000 C 
BRANCH  24  25
ATOM     25  C   UNL     1       5.609  -6.018   7.556  1.00  0.00    -0.000 C 
BRANCH  25  26
ATOM     26  C   UNL     1       7.081  -5.598   7.417  1.00  0.00    -0.000 C 
BRANCH  26  27
ATOM     27  C   UNL     1       7.743  -5.316   8.774  1.00  0.00    -0.000 C 
BRANCH  27  28
ATOM     28  C   UNL     1       8.463  -3.959   8.761  1.00  0.00    -0.000 C 
BRANCH  28  29
ATOM     29  C   UNL     1       8.239  -3.159  10.054  1.00  0.00    -0.003 C 
ATOM     30  C   UNL     1       8.723  -1.714   9.943  1.00  0.00     0.004 C 
ENDBRANCH  28  29
ENDBRANCH  27  28
ENDBRANCH  26  27
ENDBRANCH  25  26
ENDBRANCH  24  25
ENDBRANCH  23  24
ENDBRANCH  22  23
ENDBRANCH  21  22
ENDBRANCH  20  21
ENDBRANCH  19  20
ENDBRANCH  18  19
ENDBRANCH  17  18
ENDBRANCH   1  17
TORSDOF 26
ENDMDL
MODEL 9
REMARK VINA RESULT:     4.360      9.221     13.984
REMARK INTER + INTRA:          11.021
REMARK INTER:                  11.954
REMARK INTRA:                  -0.933
REMARK UNBOUND:                 0.034
REMARK SMILES CCCCCCCCCCCCCCCCCCCCCCCCCCCC(=O)[O-]
REMARK SMILES IDX 15 1 16 2 17 3 18 4 19 5 20 6 21 7 22 8 23 9 24 10 25 11
REMARK SMILES IDX 26 12 27 13 28 14 29 15 30 16 14 17 13 18 12 19 11 20 10 21
REMARK SMILES IDX 9 22 8 23 7 24 6 25 5 26 4 27 3 28 2 29 1 30
REMARK H PARENT
REMARK Flexibility Score: inf
ROOT
ATOM      1  C   UNL     1      -3.449  -6.272   3.235  1.00  0.00     0.000 C 
ENDROOT
BRANCH   1   2
ATOM      2  C   UNL     1      -3.895  -5.626   1.910  1.00  0.00     0.000 C 
BRANCH   2   3
ATOM      3  C   UNL     1      -3.052  -6.115   0.712  1.00  0.00     0.000 C 
BRANCH   3   4
ATOM      4  C   UNL     1      -3.864  -6.305  -0.582  1.00  0.00     0.000 C 
BRANCH   4   5
ATOM      5  C   UNL     1      -3.039  -6.930  -1.718  1.00  0.00     0.000 C 
BRANCH   5   6
ATOM      6  C   UNL     1      -3.369  -8.415  -1.959  1.00  0.00     0.000 C 
BRANCH   6   7
ATOM      7  C   UNL     1      -2.264  -9.229  -2.657  1.00  0.00     0.000 C 
BRANCH   7   8
ATOM      8  C   UNL     1      -1.583  -8.462  -3.806  1.00  0.00     0.000 C 
BRANCH   8   9
ATOM      9  C   UNL     1      -1.413  -9.324  -5.067  1.00  0.00     0.000 C 
BRANCH   9  10
ATOM     10  C   UNL     1      -1.055  -8.482  -6.304  1.00  0.00     0.000 C 
BRANCH  10  11
ATOM     11  C   UNL     1       0.168  -9.023  -7.066  1.00  0.00     0.000 C 
BRANCH  11  12
ATOM     12  C   UNL     1       0.464  -8.326  -8.407  1.00  0.00     0.006 C 
BRANCH  12  13
ATOM     13  C   UNL     1      -0.224  -9.002  -9.599  1.00  0.00     0.053 C 
BRANCH  13  14
ATOM     14  C   UNL     1      -1.644  -8.544  -9.712  1.00  0.00     0.041 C 
ATOM     15  O   UNL     1      -1.946  -7.346  -9.470  1.00  0.00    -0.550 OA
ATOM     16  O   UNL     1      -2.630  -9.432 -10.125  1.00  0.00    -0.550 OA
ENDBRANCH  13  14
ENDBRANCH  12  13
ENDBRANCH  11  12
ENDBRANCH  10  11
ENDBRANCH   9  10
ENDBRANCH   8   9
ENDBRANCH   7   8
ENDBRANCH   6   7
ENDBRANCH   5   6
ENDBRANCH   4   5
ENDBRANCH   3   4
ENDBRANCH   2   3
ENDBRANCH   1   2
BRANCH   1  17
ATOM     17  C   UNL     1      -2.937  -5.239   4.252  1.00  0.00     0.000 C 
BRANCH  17  18
ATOM     18  C   UNL     1      -2.234  -5.898   5.449  1.00  0.00     0.000 C 
BRANCH  18  19
ATOM     19  C   UNL     1      -1.049  -5.070   5.976  1.00  0.00     0.000 C 
BRANCH  19  20
ATOM     20  C   UNL     1      -0.411  -5.589   7.282  1.00  0.00     0.000 C 
BRANCH  20  21
ATOM     21  C   UNL     1       0.980  -5.016   7.612  1.00  0.00     0.000 C 
BRANCH  21  22
ATOM     22  C   UNL     1       1.887  -6.026   8.334  1.00  0.00    -0.000 C 
BRANCH  22  23
ATOM     23  C   UNL     1       2.921  -6.679   7.399  1.00  0.00    -0.000 C 
BRANCH  23  24
ATOM     24  C   UNL     1       4.389  -6.508   7.828  1.00  0.00    -0.000 C 
BRANCH  24  25
ATOM     25  C   UNL     1       4.617  -6.817   9.318  1.00  0.00    -0.000 C 
BRANCH  25  26
ATOM     26  C   UNL     1       6.102  -6.762   9.710  1.00  0.00    -0.000 C 
BRANCH  26  27
ATOM     27  C   UNL     1       6.549  -5.352  10.124  1.00  0.00    -0.000 C 
BRANCH  27  28
ATOM     28  C   UNL     1       8.073  -5.204  10.004  1.00  0.00    -0.000 C 
BRANCH  28  29
ATOM     29  C   UNL     1       8.487  -4.240   8.881  1.00  0.00    -0.003 C 
ATOM     30  C   UNL     1       8.291  -4.840   7.489  1.00  0.00     0.004 C 
ENDBRANCH  28  29
ENDBRANCH  27  28
ENDBRANCH  26  27
ENDBRANCH  25  26
ENDBRANCH  24  25
ENDBRANCH  23  24
ENDBRANCH  22  23
ENDBRANCH  21  22
ENDBRANCH  20  21
ENDBRANCH  19  20
ENDBRANCH  18  19
ENDBRANCH  17  18
ENDBRANCH   1  17
TORSDOF 26
ENDMDL
