MODEL 1
REMARK VINA RESULT:    -4.929      0.000      0.000
REMARK INTER + INTRA:          -5.605
REMARK INTER:                  -5.361
REMARK INTRA:                  -0.244
REMARK UNBOUND:                -0.244
REMARK SMILES O=C([O-])c1ccccc1O
REMARK SMILES IDX 4 1 9 2 5 3 8 4 6 5 7 6 2 7 1 8 3 9 10 10
REMARK H PARENT 10 11
REMARK Flexibility Score: inf
ROOT
ATOM      1  C   UNL     1      25.989   7.610   6.621  1.00  0.00     0.039 A 
ATOM      2  C   UNL     1      26.626   6.481   6.054  1.00  0.00     0.124 A 
ATOM      3  C   UNL     1      26.363   8.019   7.917  1.00  0.00     0.014 A 
ATOM      4  C   UNL     1      27.608   5.792   6.781  1.00  0.00     0.047 A 
ATOM      5  C   UNL     1      27.343   7.324   8.630  1.00  0.00     0.001 A 
ATOM      6  C   UNL     1      27.964   6.213   8.063  1.00  0.00     0.004 A 
ENDROOT
BRANCH   1   7
ATOM      7  C   UNL     1      24.944   8.368   5.886  1.00  0.00     0.075 C 
ATOM      8  O   UNL     1      23.902   7.786   5.480  1.00  0.00    -0.545 OA
ATOM      9  O   UNL     1      25.088   9.727   5.630  1.00  0.00    -0.545 OA
ENDBRANCH   1   7
BRANCH   2  10
ATOM     10  O   UNL     1      26.288   6.038   4.774  1.00  0.00    -0.507 OA
ATOM     11  H   UNL     1      26.910   6.167   3.984  1.00  0.00     0.293 HD
ENDBRANCH   2  10
TORSDOF 2
ENDMDL
MODEL 2
REMARK VINA RESULT:    -4.905      1.213      2.160
REMARK INTER + INTRA:          -5.580
REMARK INTER:                  -5.364
REMARK INTRA:                  -0.215
REMARK UNBOUND:                -0.244
REMARK SMILES O=C([O-])c1ccccc1O
REMARK SMILES IDX 4 1 9 2 5 3 8 4 6 5 7 6 2 7 1 8 3 9 10 10
REMARK H PARENT 10 11
REMARK Flexibility Score: inf
ROOT
ATOM      1  C   UNL     1      26.051   7.348   6.219  1.00  0.00     0.039 A 
ATOM      2  C   UNL     1      26.530   7.343   7.551  1.00  0.00     0.124 A 
ATOM      3  C   UNL     1      26.611   6.444   5.295  1.00  0.00     0.014 A 
ATOM      4  C   UNL     1      27.544   6.449   7.927  1.00  0.00     0.047 A 
ATOM      5  C   UNL     1      27.620   5.559   5.682  1.00  0.00     0.001 A 
ATOM      6  C   UNL     1      28.086   5.562   6.996  1.00  0.00     0.004 A 
ENDROOT
BRANCH   1   7
ATOM      7  C   UNL     1      24.979   8.277   5.779  1.00  0.00     0.075 C 
ATOM      8  O   UNL     1      23.875   7.827   5.370  1.00  0.00    -0.545 OA
ATOM      9  O   UNL     1      25.165   9.654   5.806  1.00  0.00    -0.545 OA
ENDBRANCH   1   7
BRANCH   2  10
ATOM     10  O   UNL     1      26.007   8.220   8.502  1.00  0.00    -0.507 OA
ATOM     11  H   UNL     1      25.383   7.901   9.235  1.00  0.00     0.293 HD
ENDBRANCH   2  10
TORSDOF 2
ENDMDL
MODEL 3
REMARK VINA RESULT:    -4.883      1.004      1.538
REMARK INTER + INTRA:          -5.556
REMARK INTER:                  -5.302
REMARK INTRA:                  -0.254
REMARK UNBOUND:                -0.244
REMARK SMILES O=C([O-])c1ccccc1O
REMARK SMILES IDX 4 1 9 2 5 3 8 4 6 5 7 6 2 7 1 8 3 9 10 10
REMARK H PARENT 10 11
REMARK Flexibility Score: inf
ROOT
ATOM      1  C   UNL     1      26.617   7.045   6.742  1.00  0.00     0.039 A 
ATOM      2  C   UNL     1      27.004   6.149   5.718  1.00  0.00     0.124 A 
ATOM      3  C   UNL     1      27.001   6.765   8.069  1.00  0.00     0.014 A 
ATOM      4  C   UNL     1      27.755   5.006   6.034  1.00  0.00     0.047 A 
ATOM      5  C   UNL     1      27.748   5.623   8.370  1.00  0.00     0.001 A 
ATOM      6  C   UNL     1      28.124   4.746   7.354  1.00  0.00     0.004 A 
ENDROOT
BRANCH   1   7
ATOM      7  C   UNL     1      25.823   8.267   6.451  1.00  0.00     0.075 C 
ATOM      8  O   UNL     1      26.119   9.363   6.998  1.00  0.00    -0.545 OA
ATOM      9  O   UNL     1      24.743   8.231   5.577  1.00  0.00    -0.545 OA
ENDBRANCH   1   7
BRANCH   2  10
ATOM     10  O   UNL     1      26.647   6.384   4.389  1.00  0.00    -0.507 OA
ATOM     11  H   UNL     1      25.750   6.785   4.142  1.00  0.00     0.293 HD
ENDBRANCH   2  10
TORSDOF 2
ENDMDL
MODEL 4
REMARK VINA RESULT:    -4.684      1.826      3.460
REMARK INTER + INTRA:          -5.339
REMARK INTER:                  -5.207
REMARK INTRA:                  -0.132
REMARK UNBOUND:                -0.244
REMARK SMILES O=C([O-])c1ccccc1O
REMARK SMILES IDX 4 1 9 2 5 3 8 4 6 5 7 6 2 7 1 8 3 9 10 10
REMARK H PARENT 10 11
REMARK Flexibility Score: inf
ROOT
ATOM      1  C   UNL     1      26.843   6.604   6.992  1.00  0.00     0.039 A 
ATOM      2  C   UNL     1      26.330   6.890   5.704  1.00  0.00     0.124 A 
ATOM      3  C   UNL     1      26.778   7.603   7.984  1.00  0.00     0.014 A 
ATOM      4  C   UNL     1      25.772   8.149   5.436  1.00  0.00     0.047 A 
ATOM      5  C   UNL     1      26.220   8.853   7.704  1.00  0.00     0.001 A 
ATOM      6  C   UNL     1      25.718   9.125   6.432  1.00  0.00     0.004 A 
ENDROOT
BRANCH   1   7
ATOM      7  C   UNL     1      27.443   5.285   7.319  1.00  0.00     0.075 C 
ATOM      8  O   UNL     1      27.743   5.000   8.509  1.00  0.00    -0.545 OA
ATOM      9  O   UNL     1      27.685   4.340   6.329  1.00  0.00    -0.545 OA
ENDBRANCH   1   7
BRANCH   2  10
ATOM     10  O   UNL     1      26.372   5.932   4.690  1.00  0.00    -0.507 OA
ATOM     11  H   UNL     1      25.691   5.920   3.940  1.00  0.00     0.293 HD
ENDBRANCH   2  10
TORSDOF 2
ENDMDL
MODEL 5
REMARK VINA RESULT:    -4.625      2.598      4.099
REMARK INTER + INTRA:          -5.274
REMARK INTER:                  -5.061
REMARK INTRA:                  -0.213
REMARK UNBOUND:                -0.244
REMARK SMILES O=C([O-])c1ccccc1O
REMARK SMILES IDX 4 1 9 2 5 3 8 4 6 5 7 6 2 7 1 8 3 9 10 10
REMARK H PARENT 10 11
REMARK Flexibility Score: inf
ROOT
ATOM      1  C   UNL     1      27.007   6.628   7.524  1.00  0.00     0.039 A 
ATOM      2  C   UNL     1      26.222   7.799   7.651  1.00  0.00     0.124 A 
ATOM      3  C   UNL     1      27.162   6.051   6.248  1.00  0.00     0.014 A 
ATOM      4  C   UNL     1      25.616   8.361   6.517  1.00  0.00     0.047 A 
ATOM      5  C   UNL     1      26.553   6.621   5.127  1.00  0.00     0.001 A 
ATOM      6  C   UNL     1      25.781   7.774   5.262  1.00  0.00     0.004 A 
ENDROOT
BRANCH   1   7
ATOM      7  C   UNL     1      27.667   6.000   8.698  1.00  0.00     0.075 C 
ATOM      8  O   UNL     1      27.989   4.781   8.669  1.00  0.00    -0.545 OA
ATOM      9  O   UNL     1      27.943   6.733   9.845  1.00  0.00    -0.545 OA
ENDBRANCH   1   7
BRANCH   2  10
ATOM     10  O   UNL     1      26.039   8.405   8.894  1.00  0.00    -0.507 OA
ATOM     11  H   UNL     1      25.425   9.203   9.013  1.00  0.00     0.293 HD
ENDBRANCH   2  10
TORSDOF 2
ENDMDL
MODEL 6
REMARK VINA RESULT:    -4.591     10.509     12.039
REMARK INTER + INTRA:          -5.238
REMARK INTER:                  -4.984
REMARK INTRA:                  -0.254
REMARK UNBOUND:                -0.244
REMARK SMILES O=C([O-])c1ccccc1O
REMARK SMILES IDX 4 1 9 2 5 3 8 4 6 5 7 6 2 7 1 8 3 9 10 10
REMARK H PARENT 10 11
REMARK Flexibility Score: inf
ROOT
ATOM      1  C   UNL     1      20.101  17.068   6.939  1.00  0.00     0.039 A 
ATOM      2  C   UNL     1      19.081  16.842   7.893  1.00  0.00     0.124 A 
ATOM      3  C   UNL     1      20.908  18.216   7.069  1.00  0.00     0.014 A 
ATOM      4  C   UNL     1      18.888  17.754   8.941  1.00  0.00     0.047 A 
ATOM      5  C   UNL     1      20.705  19.117   8.117  1.00  0.00     0.001 A 
ATOM      6  C   UNL     1      19.697  18.886   9.052  1.00  0.00     0.004 A 
ENDROOT
BRANCH   1   7
ATOM      7  C   UNL     1      20.340  16.128   5.813  1.00  0.00     0.075 C 
ATOM      8  O   UNL     1      20.545  16.568   4.650  1.00  0.00    -0.545 OA
ATOM      9  O   UNL     1      20.343  14.753   6.013  1.00  0.00    -0.545 OA
ENDBRANCH   1   7
BRANCH   2  10
ATOM     10  O   UNL     1      18.257  15.719   7.805  1.00  0.00    -0.507 OA
ATOM     11  H   UNL     1      18.607  14.786   7.988  1.00  0.00     0.293 HD
ENDBRANCH   2  10
TORSDOF 2
ENDMDL
MODEL 7
REMARK VINA RESULT:    -4.582     10.628     12.365
REMARK INTER + INTRA:          -5.228
REMARK INTER:                  -4.979
REMARK INTRA:                  -0.249
REMARK UNBOUND:                -0.244
REMARK SMILES O=C([O-])c1ccccc1O
REMARK SMILES IDX 4 1 9 2 5 3 8 4 6 5 7 6 2 7 1 8 3 9 10 10
REMARK H PARENT 10 11
REMARK Flexibility Score: inf
ROOT
ATOM      1  C   UNL     1      19.641  17.085   7.198  1.00  0.00     0.039 A 
ATOM      2  C   UNL     1      20.564  18.114   7.501  1.00  0.00     0.124 A 
ATOM      3  C   UNL     1      18.377  17.103   7.823  1.00  0.00     0.014 A 
ATOM      4  C   UNL     1      20.213  19.125   8.409  1.00  0.00     0.047 A 
ATOM      5  C   UNL     1      18.041  18.115   8.725  1.00  0.00     0.001 A 
ATOM      6  C   UNL     1      18.957  19.124   9.017  1.00  0.00     0.004 A 
ENDROOT
BRANCH   1   7
ATOM      7  C   UNL     1      19.971  15.996   6.243  1.00  0.00     0.075 C 
ATOM      8  O   UNL     1      20.365  16.270   5.078  1.00  0.00    -0.545 OA
ATOM      9  O   UNL     1      19.853  14.660   6.608  1.00  0.00    -0.545 OA
ENDBRANCH   1   7
BRANCH   2  10
ATOM     10  O   UNL     1      21.827  18.138   6.908  1.00  0.00    -0.507 OA
ATOM     11  H   UNL     1      22.486  18.887   7.088  1.00  0.00     0.293 HD
ENDBRANCH   2  10
TORSDOF 2
ENDMDL
MODEL 8
REMARK VINA RESULT:    -4.416      1.820      2.850
REMARK INTER + INTRA:          -5.048
REMARK INTER:                  -4.793
REMARK INTRA:                  -0.255
REMARK UNBOUND:                -0.244
REMARK SMILES O=C([O-])c1ccccc1O
REMARK SMILES IDX 4 1 9 2 5 3 8 4 6 5 7 6 2 7 1 8 3 9 10 10
REMARK H PARENT 10 11
REMARK Flexibility Score: inf
ROOT
ATOM      1  C   UNL     1      26.661   7.961   7.415  1.00  0.00     0.039 A 
ATOM      2  C   UNL     1      26.050   8.089   6.144  1.00  0.00     0.124 A 
ATOM      3  C   UNL     1      27.432   6.812   7.683  1.00  0.00     0.014 A 
ATOM      4  C   UNL     1      26.218   7.081   5.182  1.00  0.00     0.047 A 
ATOM      5  C   UNL     1      27.591   5.816   6.716  1.00  0.00     0.001 A 
ATOM      6  C   UNL     1      26.985   5.951   5.468  1.00  0.00     0.004 A 
ENDROOT
BRANCH   1   7
ATOM      7  C   UNL     1      26.509   9.003   8.462  1.00  0.00     0.075 C 
ATOM      8  O   UNL     1      26.216   8.678   9.644  1.00  0.00    -0.545 OA
ATOM      9  O   UNL     1      26.684  10.350   8.167  1.00  0.00    -0.545 OA
ENDBRANCH   1   7
BRANCH   2  10
ATOM     10  O   UNL     1      25.277   9.207   5.833  1.00  0.00    -0.507 OA
ATOM     11  H   UNL     1      25.168   9.978   6.482  1.00  0.00     0.293 HD
ENDBRANCH   2  10
TORSDOF 2
ENDMDL
MODEL 9
REMARK VINA RESULT:    -4.253     13.217     14.896
REMARK INTER + INTRA:          -4.870
REMARK INTER:                  -4.615
REMARK INTRA:                  -0.255
REMARK UNBOUND:                -0.244
REMARK SMILES O=C([O-])c1ccccc1O
REMARK SMILES IDX 4 1 9 2 5 3 8 4 6 5 7 6 2 7 1 8 3 9 10 10
REMARK H PARENT 10 11
REMARK Flexibility Score: inf
ROOT
ATOM      1  C   UNL     1      17.579  16.875   0.330  1.00  0.00     0.039 A 
ATOM      2  C   UNL     1      17.148  16.515  -0.969  1.00  0.00     0.124 A 
ATOM      3  C   UNL     1      16.612  17.231   1.291  1.00  0.00     0.014 A 
ATOM      4  C   UNL     1      15.779  16.519  -1.278  1.00  0.00     0.047 A 
ATOM      5  C   UNL     1      15.252  17.232   0.970  1.00  0.00     0.001 A 
ATOM      6  C   UNL     1      14.837  16.876  -0.312  1.00  0.00     0.004 A 
ENDROOT
BRANCH   1   7
ATOM      7  C   UNL     1      19.018  16.884   0.701  1.00  0.00     0.075 C 
ATOM      8  O   UNL     1      19.499  17.845   1.359  1.00  0.00    -0.545 OA
ATOM      9  O   UNL     1      19.862  15.843   0.333  1.00  0.00    -0.545 OA
ENDBRANCH   1   7
BRANCH   2  10
ATOM     10  O   UNL     1      18.068  16.156  -1.953  1.00  0.00    -0.507 OA
ATOM     11  H   UNL     1      18.021  16.536  -2.892  1.00  0.00     0.293 HD
ENDBRANCH   2  10
TORSDOF 2
ENDMDL
