MODEL 1
REMARK VINA RESULT:    -3.719      0.000      0.000
REMARK INTER + INTRA:         -15.646
REMARK INTER:                  -9.806
REMARK INTRA:                  -5.840
REMARK UNBOUND:                -5.840
REMARK SMILES CCCCCCCCCCCCCCCCCCCCCCCCCCCCCC(=O)[O-]
REMARK SMILES IDX 16 1 17 2 18 3 19 4 20 5 21 6 22 7 23 8 24 9 25 10 26 11
REMARK SMILES IDX 27 12 28 13 29 14 30 15 31 16 32 17 15 18 14 19 13 20 12 21
REMARK SMILES IDX 11 22 10 23 9 24 8 25 7 26 6 27 5 28 4 29 3 30 2 31 1 32
REMARK H PARENT
REMARK Flexibility Score: inf
ROOT
ATOM      1  C   UNL     1       1.704 128.243 115.133  1.00  0.00     0.000 C 
ENDROOT
BRANCH   1   2
ATOM      2  C   UNL     1       2.928 127.352 114.838  1.00  0.00     0.000 C 
BRANCH   2   3
ATOM      3  C   UNL     1       4.187 128.097 114.340  1.00  0.00     0.000 C 
BRANCH   3   4
ATOM      4  C   UNL     1       4.130 128.590 112.883  1.00  0.00     0.000 C 
BRANCH   4   5
ATOM      5  C   UNL     1       3.872 130.100 112.720  1.00  0.00     0.000 C 
BRANCH   5   6
ATOM      6  C   UNL     1       3.937 130.891 114.044  1.00  0.00     0.000 C 
BRANCH   6   7
ATOM      7  C   UNL     1       2.857 131.981 114.133  1.00  0.00     0.000 C 
BRANCH   7   8
ATOM      8  C   UNL     1       2.563 132.422 115.579  1.00  0.00     0.000 C 
BRANCH   8   9
ATOM      9  C   UNL     1       1.418 131.661 116.276  1.00  0.00     0.000 C 
BRANCH   9  10
ATOM     10  C   UNL     1       1.848 131.021 117.604  1.00  0.00     0.000 C 
BRANCH  10  11
ATOM     11  C   UNL     1       3.365 131.126 117.805  1.00  0.00     0.000 C 
BRANCH  11  12
ATOM     12  C   UNL     1       4.023 129.739 117.720  1.00  0.00     0.000 C 
BRANCH  12  13
ATOM     13  C   UNL     1       5.490 129.802 117.258  1.00  0.00     0.006 C 
BRANCH  13  14
ATOM     14  C   UNL     1       5.934 131.182 116.745  1.00  0.00     0.053 C 
BRANCH  14  15
ATOM     15  C   UNL     1       6.965 131.078 115.665  1.00  0.00     0.041 C 
ATOM     16  O   UNL     1       7.609 132.098 115.300  1.00  0.00    -0.550 OA
ATOM     17  O   UNL     1       7.213 129.852 115.056  1.00  0.00    -0.550 OA
ENDBRANCH  14  15
ENDBRANCH  13  14
ENDBRANCH  12  13
ENDBRANCH  11  12
ENDBRANCH  10  11
ENDBRANCH   9  10
ENDBRANCH   8   9
ENDBRANCH   7   8
ENDBRANCH   6   7
ENDBRANCH   5   6
ENDBRANCH   4   5
ENDBRANCH   3   4
ENDBRANCH   2   3
ENDBRANCH   1   2
BRANCH   1  18
ATOM     18  C   UNL     1       0.605 128.196 114.046  1.00  0.00     0.000 C 
BRANCH  18  19
ATOM     19  C   UNL     1       0.222 129.584 113.500  1.00  0.00     0.000 C 
BRANCH  19  20
ATOM     20  C   UNL     1       0.224 129.690 111.963  1.00  0.00     0.000 C 
BRANCH  20  21
ATOM     21  C   UNL     1       0.430 128.357 111.213  1.00  0.00     0.000 C 
BRANCH  21  22
ATOM     22  C   UNL     1       1.630 128.328 110.250  1.00  0.00     0.000 C 
BRANCH  22  23
ATOM     23  C   UNL     1       2.350 126.969 110.235  1.00  0.00     0.000 C 
BRANCH  23  24
ATOM     24  C   UNL     1       1.916 126.062 111.397  1.00  0.00    -0.000 C 
BRANCH  24  25
ATOM     25  C   UNL     1       2.730 124.757 111.461  1.00  0.00    -0.000 C 
BRANCH  25  26
ATOM     26  C   UNL     1       3.170 124.406 112.896  1.00  0.00    -0.000 C 
BRANCH  26  27
ATOM     27  C   UNL     1       4.680 124.126 113.044  1.00  0.00    -0.000 C 
BRANCH  27  28
ATOM     28  C   UNL     1       5.219 123.033 112.100  1.00  0.00    -0.000 C 
BRANCH  28  29
ATOM     29  C   UNL     1       6.329 123.555 111.166  1.00  0.00    -0.000 C 
BRANCH  29  30
ATOM     30  C   UNL     1       6.297 125.084 110.978  1.00  0.00    -0.000 C 
BRANCH  30  31
ATOM     31  C   UNL     1       7.687 125.747 110.944  1.00  0.00    -0.003 C 
ATOM     32  C   UNL     1       8.726 124.940 110.166  1.00  0.00     0.004 C 
ENDBRANCH  30  31
ENDBRANCH  29  30
ENDBRANCH  28  29
ENDBRANCH  27  28
ENDBRANCH  26  27
ENDBRANCH  25  26
ENDBRANCH  24  25
ENDBRANCH  23  24
ENDBRANCH  22  23
ENDBRANCH  21  22
ENDBRANCH  20  21
ENDBRANCH  19  20
ENDBRANCH  18  19
ENDBRANCH   1  18
TORSDOF 28
ENDMDL
MODEL 2
REMARK VINA RESULT:    -3.669      2.785      6.964
REMARK INTER + INTRA:         -15.514
REMARK INTER:                  -8.749
REMARK INTRA:                  -6.765
REMARK UNBOUND:                -5.840
REMARK SMILES CCCCCCCCCCCCCCCCCCCCCCCCCCCCCC(=O)[O-]
REMARK SMILES IDX 16 1 17 2 18 3 19 4 20 5 21 6 22 7 23 8 24 9 25 10 26 11
REMARK SMILES IDX 27 12 28 13 29 14 30 15 31 16 32 17 15 18 14 19 13 20 12 21
REMARK SMILES IDX 11 22 10 23 9 24 8 25 7 26 6 27 5 28 4 29 3 30 2 31 1 32
REMARK H PARENT
REMARK Flexibility Score: inf
ROOT
ATOM      1  C   UNL     1       3.886 122.438 113.332  1.00  0.00     0.000 C 
ENDROOT
BRANCH   1   2
ATOM      2  C   UNL     1       4.704 123.255 114.351  1.00  0.00     0.000 C 
BRANCH   2   3
ATOM      3  C   UNL     1       4.461 124.781 114.328  1.00  0.00     0.000 C 
BRANCH   3   4
ATOM      4  C   UNL     1       5.690 125.651 114.644  1.00  0.00     0.000 C 
BRANCH   4   5
ATOM      5  C   UNL     1       5.484 127.164 114.439  1.00  0.00     0.000 C 
BRANCH   5   6
ATOM      6  C   UNL     1       5.204 127.562 112.973  1.00  0.00     0.000 C 
BRANCH   6   7
ATOM      7  C   UNL     1       4.249 128.761 112.861  1.00  0.00     0.000 C 
BRANCH   7   8
ATOM      8  C   UNL     1       2.955 128.430 112.094  1.00  0.00     0.000 C 
BRANCH   8   9
ATOM      9  C   UNL     1       2.490 126.965 112.192  1.00  0.00     0.000 C 
BRANCH   9  10
ATOM     10  C   UNL     1       2.252 126.319 110.819  1.00  0.00     0.000 C 
BRANCH  10  11
ATOM     11  C   UNL     1       3.090 125.045 110.652  1.00  0.00     0.000 C 
BRANCH  11  12
ATOM     12  C   UNL     1       4.523 125.391 110.217  1.00  0.00     0.000 C 
BRANCH  12  13
ATOM     13  C   UNL     1       5.581 124.484 110.871  1.00  0.00     0.006 C 
BRANCH  13  14
ATOM     14  C   UNL     1       6.988 125.101 110.941  1.00  0.00     0.053 C 
BRANCH  14  15
ATOM     15  C   UNL     1       7.962 124.209 111.645  1.00  0.00     0.041 C 
ATOM     16  O   UNL     1       9.193 124.476 111.632  1.00  0.00    -0.550 OA
ATOM     17  O   UNL     1       7.509 123.075 112.314  1.00  0.00    -0.550 OA
ENDBRANCH  14  15
ENDBRANCH  13  14
ENDBRANCH  12  13
ENDBRANCH  11  12
ENDBRANCH  10  11
ENDBRANCH   9  10
ENDBRANCH   8   9
ENDBRANCH   7   8
ENDBRANCH   6   7
ENDBRANCH   5   6
ENDBRANCH   4   5
ENDBRANCH   3   4
ENDBRANCH   2   3
ENDBRANCH   1   2
BRANCH   1  18
ATOM     18  C   UNL     1       2.892 121.438 113.968  1.00  0.00     0.000 C 
BRANCH  18  19
ATOM     19  C   UNL     1       1.438 121.944 113.984  1.00  0.00     0.000 C 
BRANCH  19  20
ATOM     20  C   UNL     1       1.230 123.319 113.320  1.00  0.00     0.000 C 
BRANCH  20  21
ATOM     21  C   UNL     1       0.638 124.409 114.238  1.00  0.00     0.000 C 
BRANCH  21  22
ATOM     22  C   UNL     1       1.045 124.308 115.719  1.00  0.00     0.000 C 
BRANCH  22  23
ATOM     23  C   UNL     1       1.032 125.669 116.435  1.00  0.00     0.000 C 
BRANCH  23  24
ATOM     24  C   UNL     1       1.656 126.786 115.585  1.00  0.00    -0.000 C 
BRANCH  24  25
ATOM     25  C   UNL     1       0.778 128.049 115.535  1.00  0.00    -0.000 C 
BRANCH  25  26
ATOM     26  C   UNL     1       1.487 129.284 116.126  1.00  0.00    -0.000 C 
BRANCH  26  27
ATOM     27  C   UNL     1       3.027 129.195 116.115  1.00  0.00    -0.000 C 
BRANCH  27  28
ATOM     28  C   UNL     1       3.681 129.312 117.506  1.00  0.00    -0.000 C 
BRANCH  28  29
ATOM     29  C   UNL     1       2.768 128.790 118.633  1.00  0.00    -0.000 C 
BRANCH  29  30
ATOM     30  C   UNL     1       3.011 127.308 118.977  1.00  0.00    -0.000 C 
BRANCH  30  31
ATOM     31  C   UNL     1       4.364 126.757 118.486  1.00  0.00    -0.003 C 
ATOM     32  C   UNL     1       4.318 125.273 118.121  1.00  0.00     0.004 C 
ENDBRANCH  30  31
ENDBRANCH  29  30
ENDBRANCH  28  29
ENDBRANCH  27  28
ENDBRANCH  26  27
ENDBRANCH  25  26
ENDBRANCH  24  25
ENDBRANCH  23  24
ENDBRANCH  22  23
ENDBRANCH  21  22
ENDBRANCH  20  21
ENDBRANCH  19  20
ENDBRANCH  18  19
ENDBRANCH   1  18
TORSDOF 28
ENDMDL
MODEL 3
REMARK VINA RESULT:    -3.648      2.016      4.042
REMARK INTER + INTRA:         -15.459
REMARK INTER:                 -10.927
REMARK INTRA:                  -4.532
REMARK UNBOUND:                -5.840
REMARK SMILES CCCCCCCCCCCCCCCCCCCCCCCCCCCCCC(=O)[O-]
REMARK SMILES IDX 16 1 17 2 18 3 19 4 20 5 21 6 22 7 23 8 24 9 25 10 26 11
REMARK SMILES IDX 27 12 28 13 29 14 30 15 31 16 32 17 15 18 14 19 13 20 12 21
REMARK SMILES IDX 11 22 10 23 9 24 8 25 7 26 6 27 5 28 4 29 3 30 2 31 1 32
REMARK H PARENT
REMARK Flexibility Score: inf
ROOT
ATOM      1  C   UNL     1       2.277 126.110 113.944  1.00  0.00     0.000 C 
ENDROOT
BRANCH   1   2
ATOM      2  C   UNL     1       2.024 125.391 112.604  1.00  0.00     0.000 C 
BRANCH   2   3
ATOM      3  C   UNL     1       2.755 125.987 111.381  1.00  0.00     0.000 C 
BRANCH   3   4
ATOM      4  C   UNL     1       3.398 127.368 111.603  1.00  0.00     0.000 C 
BRANCH   4   5
ATOM      5  C   UNL     1       2.632 128.549 110.977  1.00  0.00     0.000 C 
BRANCH   5   6
ATOM      6  C   UNL     1       1.336 128.134 110.247  1.00  0.00     0.000 C 
BRANCH   6   7
ATOM      7  C   UNL     1       0.071 128.607 110.981  1.00  0.00     0.000 C 
BRANCH   7   8
ATOM      8  C   UNL     1       0.325 129.810 111.907  1.00  0.00     0.000 C 
BRANCH   8   9
ATOM      9  C   UNL     1      -0.207 129.655 113.345  1.00  0.00     0.000 C 
BRANCH   9  10
ATOM     10  C   UNL     1       0.907 129.692 114.402  1.00  0.00     0.000 C 
BRANCH  10  11
ATOM     11  C   UNL     1       2.053 130.613 113.966  1.00  0.00     0.000 C 
BRANCH  11  12
ATOM     12  C   UNL     1       3.406 130.061 114.445  1.00  0.00     0.000 C 
BRANCH  12  13
ATOM     13  C   UNL     1       4.600 130.905 113.962  1.00  0.00     0.006 C 
BRANCH  13  14
ATOM     14  C   UNL     1       5.839 130.082 113.572  1.00  0.00     0.053 C 
BRANCH  14  15
ATOM     15  C   UNL     1       7.079 130.572 114.252  1.00  0.00     0.041 C 
ATOM     16  O   UNL     1       8.131 130.773 113.589  1.00  0.00    -0.550 OA
ATOM     17  O   UNL     1       7.074 130.803 115.624  1.00  0.00    -0.550 OA
ENDBRANCH  14  15
ENDBRANCH  13  14
ENDBRANCH  12  13
ENDBRANCH  11  12
ENDBRANCH  10  11
ENDBRANCH   9  10
ENDBRANCH   8   9
ENDBRANCH   7   8
ENDBRANCH   6   7
ENDBRANCH   5   6
ENDBRANCH   4   5
ENDBRANCH   3   4
ENDBRANCH   2   3
ENDBRANCH   1   2
BRANCH   1  18
ATOM     18  C   UNL     1       1.023 126.249 114.839  1.00  0.00     0.000 C 
BRANCH  18  19
ATOM     19  C   UNL     1       0.079 125.035 114.766  1.00  0.00     0.000 C 
BRANCH  19  20
ATOM     20  C   UNL     1       0.223 124.040 115.934  1.00  0.00     0.000 C 
BRANCH  20  21
ATOM     21  C   UNL     1       1.665 123.570 116.221  1.00  0.00     0.000 C 
BRANCH  21  22
ATOM     22  C   UNL     1       1.991 122.141 115.753  1.00  0.00     0.000 C 
BRANCH  22  23
ATOM     23  C   UNL     1       2.003 122.003 114.221  1.00  0.00     0.000 C 
BRANCH  23  24
ATOM     24  C   UNL     1       3.375 121.569 113.682  1.00  0.00    -0.000 C 
BRANCH  24  25
ATOM     25  C   UNL     1       4.540 122.234 114.435  1.00  0.00    -0.000 C 
BRANCH  25  26
ATOM     26  C   UNL     1       5.064 123.495 113.719  1.00  0.00    -0.000 C 
BRANCH  26  27
ATOM     27  C   UNL     1       5.100 123.379 112.181  1.00  0.00    -0.000 C 
BRANCH  27  28
ATOM     28  C   UNL     1       6.517 123.396 111.574  1.00  0.00    -0.000 C 
BRANCH  28  29
ATOM     29  C   UNL     1       6.937 124.799 111.092  1.00  0.00    -0.000 C 
BRANCH  29  30
ATOM     30  C   UNL     1       6.645 125.041 109.599  1.00  0.00    -0.000 C 
BRANCH  30  31
ATOM     31  C   UNL     1       7.775 124.594 108.651  1.00  0.00    -0.003 C 
ATOM     32  C   UNL     1       7.510 124.938 107.186  1.00  0.00     0.004 C 
ENDBRANCH  30  31
ENDBRANCH  29  30
ENDBRANCH  28  29
ENDBRANCH  27  28
ENDBRANCH  26  27
ENDBRANCH  25  26
ENDBRANCH  24  25
ENDBRANCH  23  24
ENDBRANCH  22  23
ENDBRANCH  21  22
ENDBRANCH  20  21
ENDBRANCH  19  20
ENDBRANCH  18  19
ENDBRANCH   1  18
TORSDOF 28
ENDMDL
MODEL 4
REMARK VINA RESULT:    -3.621      2.137      5.688
REMARK INTER + INTRA:         -15.389
REMARK INTER:                  -9.970
REMARK INTRA:                  -5.419
REMARK UNBOUND:                -5.840
REMARK SMILES CCCCCCCCCCCCCCCCCCCCCCCCCCCCCC(=O)[O-]
REMARK SMILES IDX 16 1 17 2 18 3 19 4 20 5 21 6 22 7 23 8 24 9 25 10 26 11
REMARK SMILES IDX 27 12 28 13 29 14 30 15 31 16 32 17 15 18 14 19 13 20 12 21
REMARK SMILES IDX 11 22 10 23 9 24 8 25 7 26 6 27 5 28 4 29 3 30 2 31 1 32
REMARK H PARENT
REMARK Flexibility Score: inf
ROOT
ATOM      1  C   UNL     1       4.812 125.628 109.909  1.00  0.00     0.000 C 
ENDROOT
BRANCH   1   2
ATOM      2  C   UNL     1       3.614 124.920 110.572  1.00  0.00     0.000 C 
BRANCH   2   3
ATOM      3  C   UNL     1       2.401 125.823 110.889  1.00  0.00     0.000 C 
BRANCH   3   4
ATOM      4  C   UNL     1       2.492 127.265 110.358  1.00  0.00     0.000 C 
BRANCH   4   5
ATOM      5  C   UNL     1       1.137 127.929 110.047  1.00  0.00     0.000 C 
BRANCH   5   6
ATOM      6  C   UNL     1       0.582 128.785 111.206  1.00  0.00     0.000 C 
BRANCH   6   7
ATOM      7  C   UNL     1       1.695 129.462 112.022  1.00  0.00     0.000 C 
BRANCH   7   8
ATOM      8  C   UNL     1       1.531 129.270 113.541  1.00  0.00     0.000 C 
BRANCH   8   9
ATOM      9  C   UNL     1       1.691 127.820 114.039  1.00  0.00     0.000 C 
BRANCH   9  10
ATOM     10  C   UNL     1       3.151 127.342 114.024  1.00  0.00     0.000 C 
BRANCH  10  11
ATOM     11  C   UNL     1       3.835 127.607 115.371  1.00  0.00     0.000 C 
BRANCH  11  12
ATOM     12  C   UNL     1       5.265 128.129 115.161  1.00  0.00     0.000 C 
BRANCH  12  13
ATOM     13  C   UNL     1       5.523 128.600 113.718  1.00  0.00     0.006 C 
BRANCH  13  14
ATOM     14  C   UNL     1       5.715 130.119 113.574  1.00  0.00     0.053 C 
BRANCH  14  15
ATOM     15  C   UNL     1       7.124 130.539 113.857  1.00  0.00     0.041 C 
ATOM     16  O   UNL     1       7.987 130.527 112.939  1.00  0.00    -0.550 OA
ATOM     17  O   UNL     1       7.486 130.941 115.139  1.00  0.00    -0.550 OA
ENDBRANCH  14  15
ENDBRANCH  13  14
ENDBRANCH  12  13
ENDBRANCH  11  12
ENDBRANCH  10  11
ENDBRANCH   9  10
ENDBRANCH   8   9
ENDBRANCH   7   8
ENDBRANCH   6   7
ENDBRANCH   5   6
ENDBRANCH   4   5
ENDBRANCH   3   4
ENDBRANCH   2   3
ENDBRANCH   1   2
BRANCH   1  18
ATOM     18  C   UNL     1       6.131 124.822 109.949  1.00  0.00     0.000 C 
BRANCH  18  19
ATOM     19  C   UNL     1       7.228 125.481 110.806  1.00  0.00     0.000 C 
BRANCH  19  20
ATOM     20  C   UNL     1       8.164 124.488 111.522  1.00  0.00     0.000 C 
BRANCH  20  21
ATOM     21  C   UNL     1       7.713 124.064 112.936  1.00  0.00     0.000 C 
BRANCH  21  22
ATOM     22  C   UNL     1       6.571 124.903 113.537  1.00  0.00     0.000 C 
BRANCH  22  23
ATOM     23  C   UNL     1       6.230 124.498 114.981  1.00  0.00     0.000 C 
BRANCH  23  24
ATOM     24  C   UNL     1       4.765 124.063 115.138  1.00  0.00    -0.000 C 
BRANCH  24  25
ATOM     25  C   UNL     1       4.094 123.760 113.786  1.00  0.00    -0.000 C 
BRANCH  25  26
ATOM     26  C   UNL     1       3.649 122.288 113.665  1.00  0.00    -0.000 C 
BRANCH  26  27
ATOM     27  C   UNL     1       2.180 122.036 114.064  1.00  0.00    -0.000 C 
BRANCH  27  28
ATOM     28  C   UNL     1       1.190 123.099 113.548  1.00  0.00    -0.000 C 
BRANCH  28  29
ATOM     29  C   UNL     1       0.021 123.340 114.524  1.00  0.00    -0.000 C 
BRANCH  29  30
ATOM     30  C   UNL     1      -0.034 124.783 115.063  1.00  0.00    -0.000 C 
BRANCH  30  31
ATOM     31  C   UNL     1       0.846 125.030 116.303  1.00  0.00    -0.003 C 
ATOM     32  C   UNL     1       1.045 123.784 117.165  1.00  0.00     0.004 C 
ENDBRANCH  30  31
ENDBRANCH  29  30
ENDBRANCH  28  29
ENDBRANCH  27  28
ENDBRANCH  26  27
ENDBRANCH  25  26
ENDBRANCH  24  25
ENDBRANCH  23  24
ENDBRANCH  22  23
ENDBRANCH  21  22
ENDBRANCH  20  21
ENDBRANCH  19  20
ENDBRANCH  18  19
ENDBRANCH   1  18
TORSDOF 28
ENDMDL
MODEL 5
REMARK VINA RESULT:    -3.601      1.712      4.577
REMARK INTER + INTRA:         -15.336
REMARK INTER:                  -9.654
REMARK INTRA:                  -5.682
REMARK UNBOUND:                -5.840
REMARK SMILES CCCCCCCCCCCCCCCCCCCCCCCCCCCCCC(=O)[O-]
REMARK SMILES IDX 16 1 17 2 18 3 19 4 20 5 21 6 22 7 23 8 24 9 25 10 26 11
REMARK SMILES IDX 27 12 28 13 29 14 30 15 31 16 32 17 15 18 14 19 13 20 12 21
REMARK SMILES IDX 11 22 10 23 9 24 8 25 7 26 6 27 5 28 4 29 3 30 2 31 1 32
REMARK H PARENT
REMARK Flexibility Score: inf
ROOT
ATOM      1  C   UNL     1       2.824 125.289 111.462  1.00  0.00     0.000 C 
ENDROOT
BRANCH   1   2
ATOM      2  C   UNL     1       1.913 126.512 111.236  1.00  0.00     0.000 C 
BRANCH   2   3
ATOM      3  C   UNL     1       2.373 127.488 110.129  1.00  0.00     0.000 C 
BRANCH   3   4
ATOM      4  C   UNL     1       2.191 128.983 110.448  1.00  0.00     0.000 C 
BRANCH   4   5
ATOM      5  C   UNL     1       2.388 129.359 111.928  1.00  0.00     0.000 C 
BRANCH   5   6
ATOM      6  C   UNL     1       1.139 129.988 112.584  1.00  0.00     0.000 C 
BRANCH   6   7
ATOM      7  C   UNL     1       0.459 129.040 113.584  1.00  0.00     0.000 C 
BRANCH   7   8
ATOM      8  C   UNL     1      -0.069 129.764 114.837  1.00  0.00     0.000 C 
BRANCH   8   9
ATOM      9  C   UNL     1       0.688 131.051 115.218  1.00  0.00     0.000 C 
BRANCH   9  10
ATOM     10  C   UNL     1       2.004 130.773 115.959  1.00  0.00     0.000 C 
BRANCH  10  11
ATOM     11  C   UNL     1       3.188 131.455 115.260  1.00  0.00     0.000 C 
BRANCH  11  12
ATOM     12  C   UNL     1       4.457 130.596 115.379  1.00  0.00     0.000 C 
BRANCH  12  13
ATOM     13  C   UNL     1       5.572 131.288 116.185  1.00  0.00     0.006 C 
BRANCH  13  14
ATOM     14  C   UNL     1       6.725 131.836 115.327  1.00  0.00     0.053 C 
BRANCH  14  15
ATOM     15  C   UNL     1       7.529 130.742 114.697  1.00  0.00     0.041 C 
ATOM     16  O   UNL     1       7.901 129.751 115.381  1.00  0.00    -0.550 OA
ATOM     17  O   UNL     1       7.873 130.819 113.351  1.00  0.00    -0.550 OA
ENDBRANCH  14  15
ENDBRANCH  13  14
ENDBRANCH  12  13
ENDBRANCH  11  12
ENDBRANCH  10  11
ENDBRANCH   9  10
ENDBRANCH   8   9
ENDBRANCH   7   8
ENDBRANCH   6   7
ENDBRANCH   5   6
ENDBRANCH   4   5
ENDBRANCH   3   4
ENDBRANCH   2   3
ENDBRANCH   1   2
BRANCH   1  18
ATOM     18  C   UNL     1       3.993 125.171 110.457  1.00  0.00     0.000 C 
BRANCH  18  19
ATOM     19  C   UNL     1       5.294 124.640 111.087  1.00  0.00     0.000 C 
BRANCH  19  20
ATOM     20  C   UNL     1       5.133 123.329 111.879  1.00  0.00     0.000 C 
BRANCH  20  21
ATOM     21  C   UNL     1       5.496 123.417 113.377  1.00  0.00     0.000 C 
BRANCH  21  22
ATOM     22  C   UNL     1       4.506 122.724 114.330  1.00  0.00     0.000 C 
BRANCH  22  23
ATOM     23  C   UNL     1       3.429 121.914 113.587  1.00  0.00     0.000 C 
BRANCH  23  24
ATOM     24  C   UNL     1       2.189 121.652 114.455  1.00  0.00    -0.000 C 
BRANCH  24  25
ATOM     25  C   UNL     1       0.933 122.356 113.915  1.00  0.00    -0.000 C 
BRANCH  25  26
ATOM     26  C   UNL     1       0.419 123.458 114.864  1.00  0.00    -0.000 C 
BRANCH  26  27
ATOM     27  C   UNL     1       0.443 124.876 114.258  1.00  0.00    -0.000 C 
BRANCH  27  28
ATOM     28  C   UNL     1       1.168 125.926 115.124  1.00  0.00    -0.000 C 
BRANCH  28  29
ATOM     29  C   UNL     1       2.702 125.789 115.055  1.00  0.00    -0.000 C 
BRANCH  29  30
ATOM     30  C   UNL     1       3.417 127.113 114.719  1.00  0.00    -0.000 C 
BRANCH  30  31
ATOM     31  C   UNL     1       4.912 126.958 114.383  1.00  0.00    -0.003 C 
ATOM     32  C   UNL     1       5.333 127.717 113.125  1.00  0.00     0.004 C 
ENDBRANCH  30  31
ENDBRANCH  29  30
ENDBRANCH  28  29
ENDBRANCH  27  28
ENDBRANCH  26  27
ENDBRANCH  25  26
ENDBRANCH  24  25
ENDBRANCH  23  24
ENDBRANCH  22  23
ENDBRANCH  21  22
ENDBRANCH  20  21
ENDBRANCH  19  20
ENDBRANCH  18  19
ENDBRANCH   1  18
TORSDOF 28
ENDMDL
MODEL 6
REMARK VINA RESULT:    -3.591      2.635      6.609
REMARK INTER + INTRA:         -15.308
REMARK INTER:                  -9.183
REMARK INTRA:                  -6.125
REMARK UNBOUND:                -5.840
REMARK SMILES CCCCCCCCCCCCCCCCCCCCCCCCCCCCCC(=O)[O-]
REMARK SMILES IDX 16 1 17 2 18 3 19 4 20 5 21 6 22 7 23 8 24 9 25 10 26 11
REMARK SMILES IDX 27 12 28 13 29 14 30 15 31 16 32 17 15 18 14 19 13 20 12 21
REMARK SMILES IDX 11 22 10 23 9 24 8 25 7 26 6 27 5 28 4 29 3 30 2 31 1 32
REMARK H PARENT
REMARK Flexibility Score: inf
ROOT
ATOM      1  C   UNL     1       5.478 123.529 111.406  1.00  0.00     0.000 C 
ENDROOT
BRANCH   1   2
ATOM      2  C   UNL     1       5.262 123.159 112.887  1.00  0.00     0.000 C 
BRANCH   2   3
ATOM      3  C   UNL     1       3.945 122.413 113.199  1.00  0.00     0.000 C 
BRANCH   3   4
ATOM      4  C   UNL     1       3.660 122.173 114.693  1.00  0.00     0.000 C 
BRANCH   4   5
ATOM      5  C   UNL     1       2.223 122.504 115.139  1.00  0.00     0.000 C 
BRANCH   5   6
ATOM      6  C   UNL     1       1.192 122.482 113.990  1.00  0.00     0.000 C 
BRANCH   6   7
ATOM      7  C   UNL     1       0.744 123.892 113.574  1.00  0.00     0.000 C 
BRANCH   7   8
ATOM      8  C   UNL     1       0.759 124.898 114.740  1.00  0.00     0.000 C 
BRANCH   8   9
ATOM      9  C   UNL     1       1.144 126.340 114.357  1.00  0.00     0.000 C 
BRANCH   9  10
ATOM     10  C   UNL     1       2.408 126.833 115.078  1.00  0.00     0.000 C 
BRANCH  10  11
ATOM     11  C   UNL     1       3.661 126.128 114.543  1.00  0.00     0.000 C 
BRANCH  11  12
ATOM     12  C   UNL     1       4.510 125.577 115.699  1.00  0.00     0.000 C 
BRANCH  12  13
ATOM     13  C   UNL     1       6.011 125.516 115.362  1.00  0.00     0.006 C 
BRANCH  13  14
ATOM     14  C   UNL     1       6.852 124.702 116.360  1.00  0.00     0.053 C 
BRANCH  14  15
ATOM     15  C   UNL     1       7.313 123.401 115.780  1.00  0.00     0.041 C 
ATOM     16  O   UNL     1       6.849 122.312 116.214  1.00  0.00    -0.550 OA
ATOM     17  O   UNL     1       8.262 123.390 114.763  1.00  0.00    -0.550 OA
ENDBRANCH  14  15
ENDBRANCH  13  14
ENDBRANCH  12  13
ENDBRANCH  11  12
ENDBRANCH  10  11
ENDBRANCH   9  10
ENDBRANCH   8   9
ENDBRANCH   7   8
ENDBRANCH   6   7
ENDBRANCH   5   6
ENDBRANCH   4   5
ENDBRANCH   3   4
ENDBRANCH   2   3
ENDBRANCH   1   2
BRANCH   1  18
ATOM     18  C   UNL     1       5.235 125.022 111.081  1.00  0.00     0.000 C 
BRANCH  18  19
ATOM     19  C   UNL     1       3.976 125.267 110.229  1.00  0.00     0.000 C 
BRANCH  19  20
ATOM     20  C   UNL     1       2.665 125.353 111.034  1.00  0.00     0.000 C 
BRANCH  20  21
ATOM     21  C   UNL     1       1.868 126.663 110.855  1.00  0.00     0.000 C 
BRANCH  21  22
ATOM     22  C   UNL     1       2.526 127.706 109.935  1.00  0.00     0.000 C 
BRANCH  22  23
ATOM     23  C   UNL     1       2.626 129.097 110.585  1.00  0.00     0.000 C 
BRANCH  23  24
ATOM     24  C   UNL     1       2.599 129.029 112.120  1.00  0.00    -0.000 C 
BRANCH  24  25
ATOM     25  C   UNL     1       3.938 129.450 112.751  1.00  0.00    -0.000 C 
BRANCH  25  26
ATOM     26  C   UNL     1       3.817 130.738 113.591  1.00  0.00    -0.000 C 
BRANCH  26  27
ATOM     27  C   UNL     1       2.398 131.006 114.134  1.00  0.00    -0.000 C 
BRANCH  27  28
ATOM     28  C   UNL     1       2.248 130.793 115.654  1.00  0.00    -0.000 C 
BRANCH  28  29
ATOM     29  C   UNL     1       3.607 130.716 116.376  1.00  0.00    -0.000 C 
BRANCH  29  30
ATOM     30  C   UNL     1       3.866 129.351 117.042  1.00  0.00    -0.000 C 
BRANCH  30  31
ATOM     31  C   UNL     1       5.353 128.956 117.124  1.00  0.00    -0.003 C 
ATOM     32  C   UNL     1       6.105 129.147 115.807  1.00  0.00     0.004 C 
ENDBRANCH  30  31
ENDBRANCH  29  30
ENDBRANCH  28  29
ENDBRANCH  27  28
ENDBRANCH  26  27
ENDBRANCH  25  26
ENDBRANCH  24  25
ENDBRANCH  23  24
ENDBRANCH  22  23
ENDBRANCH  21  22
ENDBRANCH  20  21
ENDBRANCH  19  20
ENDBRANCH  18  19
ENDBRANCH   1  18
TORSDOF 28
ENDMDL
MODEL 7
REMARK VINA RESULT:    -3.581      2.754      5.986
REMARK INTER + INTRA:         -15.282
REMARK INTER:                  -9.412
REMARK INTRA:                  -5.871
REMARK UNBOUND:                -5.840
REMARK SMILES CCCCCCCCCCCCCCCCCCCCCCCCCCCCCC(=O)[O-]
REMARK SMILES IDX 16 1 17 2 18 3 19 4 20 5 21 6 22 7 23 8 24 9 25 10 26 11
REMARK SMILES IDX 27 12 28 13 29 14 30 15 31 16 32 17 15 18 14 19 13 20 12 21
REMARK SMILES IDX 11 22 10 23 9 24 8 25 7 26 6 27 5 28 4 29 3 30 2 31 1 32
REMARK H PARENT
REMARK Flexibility Score: inf
ROOT
ATOM      1  C   UNL     1       4.200 128.961 112.816  1.00  0.00     0.000 C 
ENDROOT
BRANCH   1   2
ATOM      2  C   UNL     1       4.454 130.429 113.211  1.00  0.00     0.000 C 
BRANCH   2   3
ATOM      3  C   UNL     1       3.407 131.052 114.161  1.00  0.00     0.000 C 
BRANCH   3   4
ATOM      4  C   UNL     1       2.087 130.271 114.294  1.00  0.00     0.000 C 
BRANCH   4   5
ATOM      5  C   UNL     1       0.843 131.004 113.756  1.00  0.00     0.000 C 
BRANCH   5   6
ATOM      6  C   UNL     1       0.103 130.238 112.638  1.00  0.00     0.000 C 
BRANCH   6   7
ATOM      7  C   UNL     1       0.586 128.786 112.500  1.00  0.00     0.000 C 
BRANCH   7   8
ATOM      8  C   UNL     1       0.656 128.309 111.037  1.00  0.00     0.000 C 
BRANCH   8   9
ATOM      9  C   UNL     1       1.678 127.190 110.760  1.00  0.00     0.000 C 
BRANCH   9  10
ATOM     10  C   UNL     1       1.783 126.178 111.911  1.00  0.00     0.000 C 
BRANCH  10  11
ATOM     11  C   UNL     1       2.536 124.916 111.473  1.00  0.00     0.000 C 
BRANCH  11  12
ATOM     12  C   UNL     1       3.854 125.285 110.774  1.00  0.00     0.000 C 
BRANCH  12  13
ATOM     13  C   UNL     1       5.083 124.637 111.439  1.00  0.00     0.006 C 
BRANCH  13  14
ATOM     14  C   UNL     1       6.424 125.289 111.061  1.00  0.00     0.053 C 
BRANCH  14  15
ATOM     15  C   UNL     1       7.537 124.290 110.990  1.00  0.00     0.041 C 
ATOM     16  O   UNL     1       8.699 124.606 111.362  1.00  0.00    -0.550 OA
ATOM     17  O   UNL     1       7.292 123.009 110.507  1.00  0.00    -0.550 OA
ENDBRANCH  14  15
ENDBRANCH  13  14
ENDBRANCH  12  13
ENDBRANCH  11  12
ENDBRANCH  10  11
ENDBRANCH   9  10
ENDBRANCH   8   9
ENDBRANCH   7   8
ENDBRANCH   6   7
ENDBRANCH   5   6
ENDBRANCH   4   5
ENDBRANCH   3   4
ENDBRANCH   2   3
ENDBRANCH   1   2
BRANCH   1  18
ATOM     18  C   UNL     1       5.329 127.986 113.226  1.00  0.00     0.000 C 
BRANCH  18  19
ATOM     19  C   UNL     1       5.129 127.366 114.622  1.00  0.00     0.000 C 
BRANCH  19  20
ATOM     20  C   UNL     1       4.328 126.050 114.629  1.00  0.00     0.000 C 
BRANCH  20  21
ATOM     21  C   UNL     1       3.219 125.961 115.698  1.00  0.00     0.000 C 
BRANCH  21  22
ATOM     22  C   UNL     1       2.203 127.117 115.682  1.00  0.00     0.000 C 
BRANCH  22  23
ATOM     23  C   UNL     1       0.747 126.630 115.574  1.00  0.00     0.000 C 
BRANCH  23  24
ATOM     24  C   UNL     1       0.609 125.127 115.862  1.00  0.00    -0.000 C 
BRANCH  24  25
ATOM     25  C   UNL     1      -0.328 124.421 114.866  1.00  0.00    -0.000 C 
BRANCH  25  26
ATOM     26  C   UNL     1       0.406 123.370 114.008  1.00  0.00    -0.000 C 
BRANCH  26  27
ATOM     27  C   UNL     1       1.485 122.574 114.771  1.00  0.00    -0.000 C 
BRANCH  27  28
ATOM     28  C   UNL     1       2.141 121.445 113.951  1.00  0.00    -0.000 C 
BRANCH  28  29
ATOM     29  C   UNL     1       3.588 121.156 114.397  1.00  0.00    -0.000 C 
BRANCH  29  30
ATOM     30  C   UNL     1       4.501 122.396 114.345  1.00  0.00    -0.000 C 
BRANCH  30  31
ATOM     31  C   UNL     1       5.267 122.674 115.652  1.00  0.00    -0.003 C 
ATOM     32  C   UNL     1       4.393 122.575 116.902  1.00  0.00     0.004 C 
ENDBRANCH  30  31
ENDBRANCH  29  30
ENDBRANCH  28  29
ENDBRANCH  27  28
ENDBRANCH  26  27
ENDBRANCH  25  26
ENDBRANCH  24  25
ENDBRANCH  23  24
ENDBRANCH  22  23
ENDBRANCH  21  22
ENDBRANCH  20  21
ENDBRANCH  19  20
ENDBRANCH  18  19
ENDBRANCH   1  18
TORSDOF 28
ENDMDL
MODEL 8
REMARK VINA RESULT:    -3.574      2.468      6.454
REMARK INTER + INTRA:         -15.265
REMARK INTER:                  -8.909
REMARK INTRA:                  -6.355
REMARK UNBOUND:                -5.840
REMARK SMILES CCCCCCCCCCCCCCCCCCCCCCCCCCCCCC(=O)[O-]
REMARK SMILES IDX 16 1 17 2 18 3 19 4 20 5 21 6 22 7 23 8 24 9 25 10 26 11
REMARK SMILES IDX 27 12 28 13 29 14 30 15 31 16 32 17 15 18 14 19 13 20 12 21
REMARK SMILES IDX 11 22 10 23 9 24 8 25 7 26 6 27 5 28 4 29 3 30 2 31 1 32
REMARK H PARENT
REMARK Flexibility Score: inf
ROOT
ATOM      1  C   UNL     1       2.596 128.647 110.273  1.00  0.00     0.000 C 
ENDROOT
BRANCH   1   2
ATOM      2  C   UNL     1       2.247 127.177 109.965  1.00  0.00     0.000 C 
BRANCH   2   3
ATOM      3  C   UNL     1       3.250 126.130 110.497  1.00  0.00     0.000 C 
BRANCH   3   4
ATOM      4  C   UNL     1       2.624 124.840 111.057  1.00  0.00     0.000 C 
BRANCH   4   5
ATOM      5  C   UNL     1       3.548 124.016 111.975  1.00  0.00     0.000 C 
BRANCH   5   6
ATOM      6  C   UNL     1       2.919 123.669 113.342  1.00  0.00     0.000 C 
BRANCH   6   7
ATOM      7  C   UNL     1       1.830 124.669 113.761  1.00  0.00     0.000 C 
BRANCH   7   8
ATOM      8  C   UNL     1       2.320 125.693 114.803  1.00  0.00     0.000 C 
BRANCH   8   9
ATOM      9  C   UNL     1       3.632 125.321 115.520  1.00  0.00     0.000 C 
BRANCH   9  10
ATOM     10  C   UNL     1       4.801 126.243 115.142  1.00  0.00     0.000 C 
BRANCH  10  11
ATOM     11  C   UNL     1       4.424 127.167 113.977  1.00  0.00     0.000 C 
BRANCH  11  12
ATOM     12  C   UNL     1       5.503 127.130 112.883  1.00  0.00     0.000 C 
BRANCH  12  13
ATOM     13  C   UNL     1       6.323 125.827 112.898  1.00  0.00     0.006 C 
BRANCH  13  14
ATOM     14  C   UNL     1       7.006 125.494 111.560  1.00  0.00     0.053 C 
BRANCH  14  15
ATOM     15  C   UNL     1       8.034 124.415 111.704  1.00  0.00     0.041 C 
ATOM     16  O   UNL     1       9.163 124.536 111.159  1.00  0.00    -0.550 OA
ATOM     17  O   UNL     1       7.742 123.270 112.439  1.00  0.00    -0.550 OA
ENDBRANCH  14  15
ENDBRANCH  13  14
ENDBRANCH  12  13
ENDBRANCH  11  12
ENDBRANCH  10  11
ENDBRANCH   9  10
ENDBRANCH   8   9
ENDBRANCH   7   8
ENDBRANCH   6   7
ENDBRANCH   5   6
ENDBRANCH   4   5
ENDBRANCH   3   4
ENDBRANCH   2   3
ENDBRANCH   1   2
BRANCH   1  18
ATOM     18  C   UNL     1       2.232 129.100 111.706  1.00  0.00     0.000 C 
BRANCH  18  19
ATOM     19  C   UNL     1       1.062 128.311 112.322  1.00  0.00     0.000 C 
BRANCH  19  20
ATOM     20  C   UNL     1       0.679 128.743 113.751  1.00  0.00     0.000 C 
BRANCH  20  21
ATOM     21  C   UNL     1       1.535 129.883 114.343  1.00  0.00     0.000 C 
BRANCH  21  22
ATOM     22  C   UNL     1       2.332 129.512 115.607  1.00  0.00     0.000 C 
BRANCH  22  23
ATOM     23  C   UNL     1       1.767 130.163 116.881  1.00  0.00     0.000 C 
BRANCH  23  24
ATOM     24  C   UNL     1       1.492 129.138 117.991  1.00  0.00    -0.000 C 
BRANCH  24  25
ATOM     25  C   UNL     1       2.350 127.868 117.845  1.00  0.00    -0.000 C 
BRANCH  25  26
ATOM     26  C   UNL     1       3.596 127.890 118.754  1.00  0.00    -0.000 C 
BRANCH  26  27
ATOM     27  C   UNL     1       4.883 128.367 118.050  1.00  0.00    -0.000 C 
BRANCH  27  28
ATOM     28  C   UNL     1       5.321 129.796 118.426  1.00  0.00    -0.000 C 
BRANCH  28  29
ATOM     29  C   UNL     1       5.427 130.723 117.199  1.00  0.00    -0.000 C 
BRANCH  29  30
ATOM     30  C   UNL     1       6.001 130.020 115.953  1.00  0.00    -0.000 C 
BRANCH  30  31
ATOM     31  C   UNL     1       5.717 130.750 114.626  1.00  0.00    -0.003 C 
ATOM     32  C   UNL     1       6.789 130.515 113.562  1.00  0.00     0.004 C 
ENDBRANCH  30  31
ENDBRANCH  29  30
ENDBRANCH  28  29
ENDBRANCH  27  28
ENDBRANCH  26  27
ENDBRANCH  25  26
ENDBRANCH  24  25
ENDBRANCH  23  24
ENDBRANCH  22  23
ENDBRANCH  21  22
ENDBRANCH  20  21
ENDBRANCH  19  20
ENDBRANCH  18  19
ENDBRANCH   1  18
TORSDOF 28
ENDMDL
MODEL 9
REMARK VINA RESULT:    -3.518      2.688      5.131
REMARK INTER + INTRA:         -15.116
REMARK INTER:                  -9.423
REMARK INTRA:                  -5.693
REMARK UNBOUND:                -5.840
REMARK SMILES CCCCCCCCCCCCCCCCCCCCCCCCCCCCCC(=O)[O-]
REMARK SMILES IDX 16 1 17 2 18 3 19 4 20 5 21 6 22 7 23 8 24 9 25 10 26 11
REMARK SMILES IDX 27 12 28 13 29 14 30 15 31 16 32 17 15 18 14 19 13 20 12 21
REMARK SMILES IDX 11 22 10 23 9 24 8 25 7 26 6 27 5 28 4 29 3 30 2 31 1 32
REMARK H PARENT
REMARK Flexibility Score: inf
ROOT
ATOM      1  C   UNL     1       1.985 126.749 110.782  1.00  0.00     0.000 C 
ENDROOT
BRANCH   1   2
ATOM      2  C   UNL     1       1.253 127.238 112.047  1.00  0.00     0.000 C 
BRANCH   2   3
ATOM      3  C   UNL     1       2.041 128.235 112.927  1.00  0.00     0.000 C 
BRANCH   3   4
ATOM      4  C   UNL     1       3.178 128.990 112.214  1.00  0.00     0.000 C 
BRANCH   4   5
ATOM      5  C   UNL     1       3.880 130.062 113.070  1.00  0.00     0.000 C 
BRANCH   5   6
ATOM      6  C   UNL     1       5.395 129.821 113.253  1.00  0.00     0.000 C 
BRANCH   6   7
ATOM      7  C   UNL     1       5.750 129.368 114.678  1.00  0.00     0.000 C 
BRANCH   7   8
ATOM      8  C   UNL     1       6.724 130.326 115.390  1.00  0.00     0.000 C 
BRANCH   8   9
ATOM      9  C   UNL     1       6.096 131.198 116.493  1.00  0.00     0.000 C 
BRANCH   9  10
ATOM     10  C   UNL     1       5.291 132.381 115.934  1.00  0.00     0.000 C 
BRANCH  10  11
ATOM     11  C   UNL     1       4.072 132.687 116.814  1.00  0.00     0.000 C 
BRANCH  11  12
ATOM     12  C   UNL     1       3.460 131.390 117.365  1.00  0.00     0.000 C 
BRANCH  12  13
ATOM     13  C   UNL     1       2.306 130.857 116.495  1.00  0.00     0.006 C 
BRANCH  13  14
ATOM     14  C   UNL     1       2.227 129.323 116.419  1.00  0.00     0.053 C 
BRANCH  14  15
ATOM     15  C   UNL     1       0.841 128.816 116.673  1.00  0.00     0.041 C 
ATOM     16  O   UNL     1       0.376 128.798 117.844  1.00  0.00    -0.550 OA
ATOM     17  O   UNL     1       0.064 128.357 115.614  1.00  0.00    -0.550 OA
ENDBRANCH  14  15
ENDBRANCH  13  14
ENDBRANCH  12  13
ENDBRANCH  11  12
ENDBRANCH  10  11
ENDBRANCH   9  10
ENDBRANCH   8   9
ENDBRANCH   7   8
ENDBRANCH   6   7
ENDBRANCH   5   6
ENDBRANCH   4   5
ENDBRANCH   3   4
ENDBRANCH   2   3
ENDBRANCH   1   2
BRANCH   1  18
ATOM     18  C   UNL     1       2.653 125.362 110.929  1.00  0.00     0.000 C 
BRANCH  18  19
ATOM     19  C   UNL     1       4.031 125.268 110.249  1.00  0.00     0.000 C 
BRANCH  19  20
ATOM     20  C   UNL     1       5.206 125.018 111.214  1.00  0.00     0.000 C 
BRANCH  20  21
ATOM     21  C   UNL     1       5.592 126.219 112.104  1.00  0.00     0.000 C 
BRANCH  21  22
ATOM     22  C   UNL     1       5.656 125.920 113.612  1.00  0.00     0.000 C 
BRANCH  22  23
ATOM     23  C   UNL     1       4.276 125.611 114.218  1.00  0.00     0.000 C 
BRANCH  23  24
ATOM     24  C   UNL     1       4.298 124.374 115.129  1.00  0.00    -0.000 C 
BRANCH  24  25
ATOM     25  C   UNL     1       5.008 123.175 114.474  1.00  0.00    -0.000 C 
BRANCH  25  26
ATOM     26  C   UNL     1       4.117 122.451 113.445  1.00  0.00    -0.000 C 
BRANCH  26  27
ATOM     27  C   UNL     1       3.406 121.197 113.997  1.00  0.00    -0.000 C 
BRANCH  27  28
ATOM     28  C   UNL     1       1.866 121.267 113.950  1.00  0.00    -0.000 C 
BRANCH  28  29
ATOM     29  C   UNL     1       1.304 122.451 114.761  1.00  0.00    -0.000 C 
BRANCH  29  30
ATOM     30  C   UNL     1       0.667 123.543 113.880  1.00  0.00    -0.000 C 
BRANCH  30  31
ATOM     31  C   UNL     1       0.558 124.922 114.560  1.00  0.00    -0.003 C 
ATOM     32  C   UNL     1       0.648 124.856 116.084  1.00  0.00     0.004 C 
ENDBRANCH  30  31
ENDBRANCH  29  30
ENDBRANCH  28  29
ENDBRANCH  27  28
ENDBRANCH  26  27
ENDBRANCH  25  26
ENDBRANCH  24  25
ENDBRANCH  23  24
ENDBRANCH  22  23
ENDBRANCH  21  22
ENDBRANCH  20  21
ENDBRANCH  19  20
ENDBRANCH  18  19
ENDBRANCH   1  18
TORSDOF 28
ENDMDL
