MODEL 1
REMARK VINA RESULT:    -4.497      0.000      0.000
REMARK INTER + INTRA:          -9.160
REMARK INTER:                  -8.177
REMARK INTRA:                  -0.982
REMARK UNBOUND:                -0.982
REMARK SMILES CCCCCCCCCCCCCCCC(=O)[O-]
REMARK SMILES IDX 9 1 10 2 11 3 12 4 13 5 14 6 15 7 16 8 17 9 18 10 8 11 7 12
REMARK SMILES IDX 6 13 5 14 4 15 3 16 2 17 1 18
REMARK H PARENT
REMARK Flexibility Score: inf
ROOT
ATOM      1  C   UNL     1      -5.929  -4.241   0.972  1.00  0.00     0.000 C 
ENDROOT
BRANCH   1   2
ATOM      2  C   UNL     1      -4.476  -4.272   1.471  1.00  0.00     0.000 C 
BRANCH   2   3
ATOM      3  C   UNL     1      -4.055  -2.963   2.162  1.00  0.00     0.000 C 
BRANCH   3   4
ATOM      4  C   UNL     1      -2.971  -2.153   1.421  1.00  0.00     0.000 C 
BRANCH   4   5
ATOM      5  C   UNL     1      -1.563  -2.782   1.431  1.00  0.00     0.000 C 
BRANCH   5   6
ATOM      6  C   UNL     1      -0.698  -2.461   0.196  1.00  0.00     0.006 C 
BRANCH   6   7
ATOM      7  C   UNL     1      -1.094  -3.232  -1.074  1.00  0.00     0.053 C 
BRANCH   7   8
ATOM      8  C   UNL     1      -0.983  -4.714  -0.887  1.00  0.00     0.041 C 
ATOM      9  O   UNL     1       0.117  -5.231  -0.562  1.00  0.00    -0.550 OA
ATOM     10  O   UNL     1      -2.105  -5.520  -1.041  1.00  0.00    -0.550 OA
ENDBRANCH   7   8
ENDBRANCH   6   7
ENDBRANCH   5   6
ENDBRANCH   4   5
ENDBRANCH   3   4
ENDBRANCH   2   3
ENDBRANCH   1   2
BRANCH   1  11
ATOM     11  C   UNL     1      -6.343  -5.604   0.405  1.00  0.00     0.000 C 
BRANCH  11  12
ATOM     12  C   UNL     1      -7.674  -5.502  -0.356  1.00  0.00    -0.000 C 
BRANCH  12  13
ATOM     13  C   UNL     1      -7.995  -4.065  -0.797  1.00  0.00    -0.000 C 
BRANCH  13  14
ATOM     14  C   UNL     1      -9.504  -3.786  -0.857  1.00  0.00    -0.000 C 
BRANCH  14  15
ATOM     15  C   UNL     1     -10.266  -4.666   0.146  1.00  0.00    -0.000 C 
BRANCH  15  16
ATOM     16  C   UNL     1     -11.734  -4.895  -0.274  1.00  0.00    -0.000 C 
BRANCH  16  17
ATOM     17  C   UNL     1     -12.054  -4.393  -1.692  1.00  0.00    -0.003 C 
ATOM     18  C   UNL     1     -12.124  -5.518  -2.724  1.00  0.00     0.004 C 
ENDBRANCH  16  17
ENDBRANCH  15  16
ENDBRANCH  14  15
ENDBRANCH  13  14
ENDBRANCH  12  13
ENDBRANCH  11  12
ENDBRANCH   1  11
TORSDOF 14
ENDMDL
MODEL 2
REMARK VINA RESULT:    -4.455      3.667      8.005
REMARK INTER + INTRA:          -9.083
REMARK INTER:                  -7.242
REMARK INTRA:                  -1.840
REMARK UNBOUND:                -0.982
REMARK SMILES CCCCCCCCCCCCCCCC(=O)[O-]
REMARK SMILES IDX 9 1 10 2 11 3 12 4 13 5 14 6 15 7 16 8 17 9 18 10 8 11 7 12
REMARK SMILES IDX 6 13 5 14 4 15 3 16 2 17 1 18
REMARK H PARENT
REMARK Flexibility Score: inf
ROOT
ATOM      1  C   UNL     1      -4.409  -6.985   0.090  1.00  0.00     0.000 C 
ENDROOT
BRANCH   1   2
ATOM      2  C   UNL     1      -5.796  -6.474  -0.328  1.00  0.00     0.000 C 
BRANCH   2   3
ATOM      3  C   UNL     1      -6.814  -6.495   0.826  1.00  0.00     0.000 C 
BRANCH   3   4
ATOM      4  C   UNL     1      -7.656  -5.212   0.975  1.00  0.00     0.000 C 
BRANCH   4   5
ATOM      5  C   UNL     1      -7.296  -4.075  -0.003  1.00  0.00     0.000 C 
BRANCH   5   6
ATOM      6  C   UNL     1      -8.480  -3.522  -0.821  1.00  0.00     0.006 C 
BRANCH   6   7
ATOM      7  C   UNL     1      -9.411  -4.599  -1.400  1.00  0.00     0.053 C 
BRANCH   7   8
ATOM      8  C   UNL     1     -10.824  -4.430  -0.931  1.00  0.00     0.041 C 
ATOM      9  O   UNL     1     -11.068  -4.251   0.291  1.00  0.00    -0.550 OA
ATOM     10  O   UNL     1     -11.867  -4.438  -1.848  1.00  0.00    -0.550 OA
ENDBRANCH   7   8
ENDBRANCH   6   7
ENDBRANCH   5   6
ENDBRANCH   4   5
ENDBRANCH   3   4
ENDBRANCH   2   3
ENDBRANCH   1   2
BRANCH   1  11
ATOM     11  C   UNL     1      -3.404  -5.831   0.183  1.00  0.00     0.000 C 
BRANCH  11  12
ATOM     12  C   UNL     1      -3.124  -5.464   1.649  1.00  0.00    -0.000 C 
BRANCH  12  13
ATOM     13  C   UNL     1      -4.049  -4.351   2.167  1.00  0.00    -0.000 C 
BRANCH  13  14
ATOM     14  C   UNL     1      -3.888  -3.036   1.391  1.00  0.00    -0.000 C 
BRANCH  14  15
ATOM     15  C   UNL     1      -2.487  -2.442   1.600  1.00  0.00    -0.000 C 
BRANCH  15  16
ATOM     16  C   UNL     1      -1.705  -2.305   0.275  1.00  0.00    -0.000 C 
BRANCH  16  17
ATOM     17  C   UNL     1      -0.195  -2.552   0.423  1.00  0.00    -0.003 C 
ATOM     18  C   UNL     1       0.132  -3.754   1.308  1.00  0.00     0.004 C 
ENDBRANCH  16  17
ENDBRANCH  15  16
ENDBRANCH  14  15
ENDBRANCH  13  14
ENDBRANCH  12  13
ENDBRANCH  11  12
ENDBRANCH   1  11
TORSDOF 14
ENDMDL
MODEL 3
REMARK VINA RESULT:    -4.452      3.369      8.459
REMARK INTER + INTRA:          -9.078
REMARK INTER:                  -8.087
REMARK INTRA:                  -0.991
REMARK UNBOUND:                -0.982
REMARK SMILES CCCCCCCCCCCCCCCC(=O)[O-]
REMARK SMILES IDX 9 1 10 2 11 3 12 4 13 5 14 6 15 7 16 8 17 9 18 10 8 11 7 12
REMARK SMILES IDX 6 13 5 14 4 15 3 16 2 17 1 18
REMARK H PARENT
REMARK Flexibility Score: inf
ROOT
ATOM      1  C   UNL     1      -5.052  -5.110   2.026  1.00  0.00     0.000 C 
ENDROOT
BRANCH   1   2
ATOM      2  C   UNL     1      -6.387  -5.476   1.360  1.00  0.00     0.000 C 
BRANCH   2   3
ATOM      3  C   UNL     1      -6.937  -4.349   0.467  1.00  0.00     0.000 C 
BRANCH   3   4
ATOM      4  C   UNL     1      -7.990  -4.794  -0.569  1.00  0.00     0.000 C 
BRANCH   4   5
ATOM      5  C   UNL     1      -9.102  -3.765  -0.854  1.00  0.00     0.000 C 
BRANCH   5   6
ATOM      6  C   UNL     1     -10.528  -4.348  -0.913  1.00  0.00     0.006 C 
BRANCH   6   7
ATOM      7  C   UNL     1     -11.196  -4.530   0.459  1.00  0.00     0.053 C 
BRANCH   7   8
ATOM      8  C   UNL     1     -11.217  -5.966   0.887  1.00  0.00     0.041 C 
ATOM      9  O   UNL     1     -12.125  -6.736   0.477  1.00  0.00    -0.550 OA
ATOM     10  O   UNL     1     -10.214  -6.462   1.710  1.00  0.00    -0.550 OA
ENDBRANCH   7   8
ENDBRANCH   6   7
ENDBRANCH   5   6
ENDBRANCH   4   5
ENDBRANCH   3   4
ENDBRANCH   2   3
ENDBRANCH   1   2
BRANCH   1  11
ATOM     11  C   UNL     1      -4.253  -4.134   1.154  1.00  0.00     0.000 C 
BRANCH  11  12
ATOM     12  C   UNL     1      -4.053  -2.792   1.874  1.00  0.00    -0.000 C 
BRANCH  12  13
ATOM     13  C   UNL     1      -2.753  -2.084   1.458  1.00  0.00    -0.000 C 
BRANCH  13  14
ATOM     14  C   UNL     1      -1.529  -3.010   1.518  1.00  0.00    -0.000 C 
BRANCH  14  15
ATOM     15  C   UNL     1      -0.495  -2.624   0.450  1.00  0.00    -0.000 C 
BRANCH  15  16
ATOM     16  C   UNL     1      -0.995  -2.914  -0.982  1.00  0.00    -0.000 C 
BRANCH  16  17
ATOM     17  C   UNL     1      -1.240  -4.406  -1.258  1.00  0.00    -0.003 C 
ATOM     18  C   UNL     1      -0.118  -5.304  -0.736  1.00  0.00     0.004 C 
ENDBRANCH  16  17
ENDBRANCH  15  16
ENDBRANCH  14  15
ENDBRANCH  13  14
ENDBRANCH  12  13
ENDBRANCH  11  12
ENDBRANCH   1  11
TORSDOF 14
ENDMDL
MODEL 4
REMARK VINA RESULT:    -4.414      2.989      7.977
REMARK INTER + INTRA:          -9.009
REMARK INTER:                  -7.722
REMARK INTRA:                  -1.287
REMARK UNBOUND:                -0.982
REMARK SMILES CCCCCCCCCCCCCCCC(=O)[O-]
REMARK SMILES IDX 9 1 10 2 11 3 12 4 13 5 14 6 15 7 16 8 17 9 18 10 8 11 7 12
REMARK SMILES IDX 6 13 5 14 4 15 3 16 2 17 1 18
REMARK H PARENT
REMARK Flexibility Score: inf
ROOT
ATOM      1  C   UNL     1      -6.477  -5.772   1.473  1.00  0.00     0.000 C 
ENDROOT
BRANCH   1   2
ATOM      2  C   UNL     1      -7.801  -5.236   0.910  1.00  0.00     0.000 C 
BRANCH   2   3
ATOM      3  C   UNL     1      -7.599  -4.125  -0.136  1.00  0.00     0.000 C 
BRANCH   3   4
ATOM      4  C   UNL     1      -8.854  -3.768  -0.958  1.00  0.00     0.000 C 
BRANCH   4   5
ATOM      5  C   UNL     1     -10.192  -4.218  -0.338  1.00  0.00     0.000 C 
BRANCH   5   6
ATOM      6  C   UNL     1     -10.953  -5.292  -1.142  1.00  0.00     0.006 C 
BRANCH   6   7
ATOM      7  C   UNL     1     -10.447  -5.486  -2.580  1.00  0.00     0.053 C 
BRANCH   7   8
ATOM      8  C   UNL     1      -9.783  -6.816  -2.766  1.00  0.00     0.041 C 
ATOM      9  O   UNL     1      -9.178  -7.362  -1.806  1.00  0.00    -0.550 OA
ATOM     10  O   UNL     1      -9.861  -7.468  -3.991  1.00  0.00    -0.550 OA
ENDBRANCH   7   8
ENDBRANCH   6   7
ENDBRANCH   5   6
ENDBRANCH   4   5
ENDBRANCH   3   4
ENDBRANCH   2   3
ENDBRANCH   1   2
BRANCH   1  11
ATOM     11  C   UNL     1      -5.280  -5.196   0.706  1.00  0.00     0.000 C 
BRANCH  11  12
ATOM     12  C   UNL     1      -4.343  -4.424   1.648  1.00  0.00    -0.000 C 
BRANCH  12  13
ATOM     13  C   UNL     1      -4.610  -2.910   1.638  1.00  0.00    -0.000 C 
BRANCH  13  14
ATOM     14  C   UNL     1      -3.318  -2.081   1.632  1.00  0.00    -0.000 C 
BRANCH  14  15
ATOM     15  C   UNL     1      -2.085  -2.985   1.487  1.00  0.00    -0.000 C 
BRANCH  15  16
ATOM     16  C   UNL     1      -0.974  -2.328   0.638  1.00  0.00    -0.000 C 
BRANCH  16  17
ATOM     17  C   UNL     1      -0.933  -2.828  -0.815  1.00  0.00    -0.003 C 
ATOM     18  C   UNL     1      -1.246  -4.318  -0.945  1.00  0.00     0.004 C 
ENDBRANCH  16  17
ENDBRANCH  15  16
ENDBRANCH  14  15
ENDBRANCH  13  14
ENDBRANCH  12  13
ENDBRANCH  11  12
ENDBRANCH   1  11
TORSDOF 14
ENDMDL
MODEL 5
REMARK VINA RESULT:    -4.360      1.405      2.160
REMARK INTER + INTRA:          -8.911
REMARK INTER:                  -7.552
REMARK INTRA:                  -1.359
REMARK UNBOUND:                -0.982
REMARK SMILES CCCCCCCCCCCCCCCC(=O)[O-]
REMARK SMILES IDX 9 1 10 2 11 3 12 4 13 5 14 6 15 7 16 8 17 9 18 10 8 11 7 12
REMARK SMILES IDX 6 13 5 14 4 15 3 16 2 17 1 18
REMARK H PARENT
REMARK Flexibility Score: inf
ROOT
ATOM      1  C   UNL     1      -6.910  -5.064   1.138  1.00  0.00     0.000 C 
ENDROOT
BRANCH   1   2
ATOM      2  C   UNL     1      -5.529  -5.468   1.675  1.00  0.00     0.000 C 
BRANCH   2   3
ATOM      3  C   UNL     1      -4.402  -4.544   1.181  1.00  0.00     0.000 C 
BRANCH   3   4
ATOM      4  C   UNL     1      -4.565  -3.057   1.558  1.00  0.00     0.000 C 
BRANCH   4   5
ATOM      5  C   UNL     1      -3.257  -2.241   1.585  1.00  0.00     0.000 C 
BRANCH   5   6
ATOM      6  C   UNL     1      -1.967  -3.083   1.657  1.00  0.00     0.006 C 
BRANCH   6   7
ATOM      7  C   UNL     1      -0.845  -2.607   0.721  1.00  0.00     0.053 C 
BRANCH   7   8
ATOM      8  C   UNL     1      -1.007  -3.146  -0.667  1.00  0.00     0.041 C 
ATOM      9  O   UNL     1      -1.022  -4.389  -0.866  1.00  0.00    -0.550 OA
ATOM     10  O   UNL     1      -1.173  -2.276  -1.737  1.00  0.00    -0.550 OA
ENDBRANCH   7   8
ENDBRANCH   6   7
ENDBRANCH   5   6
ENDBRANCH   4   5
ENDBRANCH   3   4
ENDBRANCH   2   3
ENDBRANCH   1   2
BRANCH   1  11
ATOM     11  C   UNL     1      -7.234  -5.812  -0.161  1.00  0.00     0.000 C 
BRANCH  11  12
ATOM     12  C   UNL     1      -7.638  -4.832  -1.273  1.00  0.00    -0.000 C 
BRANCH  12  13
ATOM     13  C   UNL     1      -8.614  -3.750  -0.784  1.00  0.00    -0.000 C 
BRANCH  13  14
ATOM     14  C   UNL     1     -10.085  -4.142  -0.990  1.00  0.00    -0.000 C 
BRANCH  14  15
ATOM     15  C   UNL     1     -10.752  -4.494   0.348  1.00  0.00    -0.000 C 
BRANCH  15  16
ATOM     16  C   UNL     1     -11.782  -5.636   0.206  1.00  0.00    -0.000 C 
BRANCH  16  17
ATOM     17  C   UNL     1     -11.628  -6.739   1.267  1.00  0.00    -0.003 C 
ATOM     18  C   UNL     1     -10.228  -6.793   1.876  1.00  0.00     0.004 C 
ENDBRANCH  16  17
ENDBRANCH  15  16
ENDBRANCH  14  15
ENDBRANCH  13  14
ENDBRANCH  12  13
ENDBRANCH  11  12
ENDBRANCH   1  11
TORSDOF 14
ENDMDL
MODEL 6
REMARK VINA RESULT:    -4.343      1.337      2.144
REMARK INTER + INTRA:          -8.880
REMARK INTER:                  -7.973
REMARK INTRA:                  -0.907
REMARK UNBOUND:                -0.982
REMARK SMILES CCCCCCCCCCCCCCCC(=O)[O-]
REMARK SMILES IDX 9 1 10 2 11 3 12 4 13 5 14 6 15 7 16 8 17 9 18 10 8 11 7 12
REMARK SMILES IDX 6 13 5 14 4 15 3 16 2 17 1 18
REMARK H PARENT
REMARK Flexibility Score: inf
ROOT
ATOM      1  C   UNL     1      -5.055  -2.888   1.508  1.00  0.00     0.000 C 
ENDROOT
BRANCH   1   2
ATOM      2  C   UNL     1      -3.774  -2.151   1.926  1.00  0.00     0.000 C 
BRANCH   2   3
ATOM      3  C   UNL     1      -2.494  -2.923   1.559  1.00  0.00     0.000 C 
BRANCH   3   4
ATOM      4  C   UNL     1      -1.570  -2.211   0.549  1.00  0.00     0.000 C 
BRANCH   4   5
ATOM      5  C   UNL     1      -0.096  -2.663   0.580  1.00  0.00     0.000 C 
BRANCH   5   6
ATOM      6  C   UNL     1       0.191  -3.883   1.478  1.00  0.00     0.006 C 
BRANCH   6   7
ATOM      7  C   UNL     1       0.995  -5.000   0.793  1.00  0.00     0.053 C 
BRANCH   7   8
ATOM      8  C   UNL     1       0.187  -5.716  -0.246  1.00  0.00     0.041 C 
ATOM      9  O   UNL     1       0.739  -6.149  -1.290  1.00  0.00    -0.550 OA
ATOM     10  O   UNL     1      -1.171  -5.933  -0.044  1.00  0.00    -0.550 OA
ENDBRANCH   7   8
ENDBRANCH   6   7
ENDBRANCH   5   6
ENDBRANCH   4   5
ENDBRANCH   3   4
ENDBRANCH   2   3
ENDBRANCH   1   2
BRANCH   1  11
ATOM     11  C   UNL     1      -4.838  -4.406   1.503  1.00  0.00     0.000 C 
BRANCH  11  12
ATOM     12  C   UNL     1      -5.935  -5.116   0.695  1.00  0.00    -0.000 C 
BRANCH  12  13
ATOM     13  C   UNL     1      -7.126  -4.196   0.377  1.00  0.00    -0.000 C 
BRANCH  13  14
ATOM     14  C   UNL     1      -8.284  -4.940  -0.304  1.00  0.00    -0.000 C 
BRANCH  14  15
ATOM     15  C   UNL     1      -9.369  -3.958  -0.770  1.00  0.00    -0.000 C 
BRANCH  15  16
ATOM     16  C   UNL     1     -10.762  -4.316  -0.208  1.00  0.00    -0.000 C 
BRANCH  16  17
ATOM     17  C   UNL     1     -10.855  -5.748   0.342  1.00  0.00    -0.003 C 
ATOM     18  C   UNL     1     -11.721  -5.853   1.596  1.00  0.00     0.004 C 
ENDBRANCH  16  17
ENDBRANCH  15  16
ENDBRANCH  14  15
ENDBRANCH  13  14
ENDBRANCH  12  13
ENDBRANCH  11  12
ENDBRANCH   1  11
TORSDOF 14
ENDMDL
MODEL 7
REMARK VINA RESULT:    -4.335      3.730      9.244
REMARK INTER + INTRA:          -8.865
REMARK INTER:                  -8.132
REMARK INTRA:                  -0.733
REMARK UNBOUND:                -0.982
REMARK SMILES CCCCCCCCCCCCCCCC(=O)[O-]
REMARK SMILES IDX 9 1 10 2 11 3 12 4 13 5 14 6 15 7 16 8 17 9 18 10 8 11 7 12
REMARK SMILES IDX 6 13 5 14 4 15 3 16 2 17 1 18
REMARK H PARENT
REMARK Flexibility Score: inf
ROOT
ATOM      1  C   UNL     1      -5.084  -2.712   1.500  1.00  0.00     0.000 C 
ENDROOT
BRANCH   1   2
ATOM      2  C   UNL     1      -5.087  -4.236   1.315  1.00  0.00     0.000 C 
BRANCH   2   3
ATOM      3  C   UNL     1      -6.504  -4.816   1.158  1.00  0.00     0.000 C 
BRANCH   3   4
ATOM      4  C   UNL     1      -7.072  -4.771  -0.276  1.00  0.00     0.000 C 
BRANCH   4   5
ATOM      5  C   UNL     1      -8.070  -3.627  -0.548  1.00  0.00     0.000 C 
BRANCH   5   6
ATOM      6  C   UNL     1      -9.523  -4.078  -0.798  1.00  0.00     0.006 C 
BRANCH   6   7
ATOM      7  C   UNL     1     -10.157  -4.851   0.369  1.00  0.00     0.053 C 
BRANCH   7   8
ATOM      8  C   UNL     1     -11.206  -5.813  -0.099  1.00  0.00     0.041 C 
ATOM      9  O   UNL     1     -11.440  -5.946  -1.329  1.00  0.00    -0.550 OA
ATOM     10  O   UNL     1     -11.902  -6.587   0.822  1.00  0.00    -0.550 OA
ENDBRANCH   7   8
ENDBRANCH   6   7
ENDBRANCH   5   6
ENDBRANCH   4   5
ENDBRANCH   3   4
ENDBRANCH   2   3
ENDBRANCH   1   2
BRANCH   1  11
ATOM     11  C   UNL     1      -3.678  -2.203   1.840  1.00  0.00     0.000 C 
BRANCH  11  12
ATOM     12  C   UNL     1      -2.603  -3.050   1.140  1.00  0.00    -0.000 C 
BRANCH  12  13
ATOM     13  C   UNL     1      -1.547  -2.192   0.424  1.00  0.00    -0.000 C 
BRANCH  13  14
ATOM     14  C   UNL     1      -0.113  -2.669   0.695  1.00  0.00    -0.000 C 
BRANCH  14  15
ATOM     15  C   UNL     1      -0.030  -4.203   0.668  1.00  0.00    -0.000 C 
BRANCH  15  16
ATOM     16  C   UNL     1       0.932  -4.756   1.742  1.00  0.00    -0.000 C 
BRANCH  16  17
ATOM     17  C   UNL     1       2.284  -4.026   1.793  1.00  0.00    -0.003 C 
ATOM     18  C   UNL     1       3.457  -4.908   1.369  1.00  0.00     0.004 C 
ENDBRANCH  16  17
ENDBRANCH  15  16
ENDBRANCH  14  15
ENDBRANCH  13  14
ENDBRANCH  12  13
ENDBRANCH  11  12
ENDBRANCH   1  11
TORSDOF 14
ENDMDL
MODEL 8
REMARK VINA RESULT:    -4.333      3.393      7.534
REMARK INTER + INTRA:          -8.861
REMARK INTER:                  -7.228
REMARK INTRA:                  -1.633
REMARK UNBOUND:                -0.982
REMARK SMILES CCCCCCCCCCCCCCCC(=O)[O-]
REMARK SMILES IDX 9 1 10 2 11 3 12 4 13 5 14 6 15 7 16 8 17 9 18 10 8 11 7 12
REMARK SMILES IDX 6 13 5 14 4 15 3 16 2 17 1 18
REMARK H PARENT
REMARK Flexibility Score: inf
ROOT
ATOM      1  C   UNL     1      -2.569  -6.227  -0.417  1.00  0.00     0.000 C 
ENDROOT
BRANCH   1   2
ATOM      2  C   UNL     1      -4.098  -6.293  -0.549  1.00  0.00     0.000 C 
BRANCH   2   3
ATOM      3  C   UNL     1      -4.797  -6.659   0.773  1.00  0.00     0.000 C 
BRANCH   3   4
ATOM      4  C   UNL     1      -5.918  -5.693   1.206  1.00  0.00     0.000 C 
BRANCH   4   5
ATOM      5  C   UNL     1      -6.944  -5.346   0.109  1.00  0.00     0.000 C 
BRANCH   5   6
ATOM      6  C   UNL     1      -7.470  -3.897   0.144  1.00  0.00     0.006 C 
BRANCH   6   7
ATOM      7  C   UNL     1      -8.424  -3.540  -1.007  1.00  0.00     0.053 C 
BRANCH   7   8
ATOM      8  C   UNL     1      -9.707  -4.309  -0.931  1.00  0.00     0.041 C 
ATOM      9  O   UNL     1     -10.131  -4.936  -1.937  1.00  0.00    -0.550 OA
ATOM     10  O   UNL     1     -10.418  -4.361   0.262  1.00  0.00    -0.550 OA
ENDBRANCH   7   8
ENDBRANCH   6   7
ENDBRANCH   5   6
ENDBRANCH   4   5
ENDBRANCH   3   4
ENDBRANCH   2   3
ENDBRANCH   1   2
BRANCH   1  11
ATOM     11  C   UNL     1      -1.908  -6.030  -1.786  1.00  0.00     0.000 C 
BRANCH  11  12
ATOM     12  C   UNL     1      -1.257  -4.642  -1.888  1.00  0.00    -0.000 C 
BRANCH  12  13
ATOM     13  C   UNL     1      -0.738  -4.131  -0.534  1.00  0.00    -0.000 C 
BRANCH  13  14
ATOM     14  C   UNL     1      -0.806  -2.602  -0.412  1.00  0.00    -0.000 C 
BRANCH  14  15
ATOM     15  C   UNL     1      -1.722  -2.183   0.748  1.00  0.00    -0.000 C 
BRANCH  15  16
ATOM     16  C   UNL     1      -1.961  -3.335   1.749  1.00  0.00    -0.000 C 
BRANCH  16  17
ATOM     17  C   UNL     1      -3.414  -3.429   2.244  1.00  0.00    -0.003 C 
ATOM     18  C   UNL     1      -4.273  -2.242   1.808  1.00  0.00     0.004 C 
ENDBRANCH  16  17
ENDBRANCH  15  16
ENDBRANCH  14  15
ENDBRANCH  13  14
ENDBRANCH  12  13
ENDBRANCH  11  12
ENDBRANCH   1  11
TORSDOF 14
ENDMDL
MODEL 9
REMARK VINA RESULT:    -4.279      3.237      8.714
REMARK INTER + INTRA:          -8.763
REMARK INTER:                  -7.784
REMARK INTRA:                  -0.979
REMARK UNBOUND:                -0.982
REMARK SMILES CCCCCCCCCCCCCCCC(=O)[O-]
REMARK SMILES IDX 9 1 10 2 11 3 12 4 13 5 14 6 15 7 16 8 17 9 18 10 8 11 7 12
REMARK SMILES IDX 6 13 5 14 4 15 3 16 2 17 1 18
REMARK H PARENT
REMARK Flexibility Score: inf
ROOT
ATOM      1  C   UNL     1      -6.333  -4.033   0.774  1.00  0.00     0.000 C 
ENDROOT
BRANCH   1   2
ATOM      2  C   UNL     1      -7.248  -4.790  -0.201  1.00  0.00     0.000 C 
BRANCH   2   3
ATOM      3  C   UNL     1      -8.415  -3.928  -0.714  1.00  0.00     0.000 C 
BRANCH   3   4
ATOM      4  C   UNL     1      -9.432  -4.673  -1.604  1.00  0.00     0.000 C 
BRANCH   4   5
ATOM      5  C   UNL     1     -10.880  -4.686  -1.072  1.00  0.00     0.000 C 
BRANCH   5   6
ATOM      6  C   UNL     1     -11.017  -4.457   0.447  1.00  0.00     0.006 C 
BRANCH   6   7
ATOM      7  C   UNL     1     -11.737  -5.588   1.197  1.00  0.00     0.053 C 
BRANCH   7   8
ATOM      8  C   UNL     1     -10.814  -6.723   1.521  1.00  0.00     0.041 C 
ATOM      9  O   UNL     1      -9.587  -6.510   1.702  1.00  0.00    -0.550 OA
ATOM     10  O   UNL     1     -11.316  -8.012   1.656  1.00  0.00    -0.550 OA
ENDBRANCH   7   8
ENDBRANCH   6   7
ENDBRANCH   5   6
ENDBRANCH   4   5
ENDBRANCH   3   4
ENDBRANCH   2   3
ENDBRANCH   1   2
BRANCH   1  11
ATOM     11  C   UNL     1      -5.388  -4.998   1.500  1.00  0.00     0.000 C 
BRANCH  11  12
ATOM     12  C   UNL     1      -4.129  -4.268   1.994  1.00  0.00    -0.000 C 
BRANCH  12  13
ATOM     13  C   UNL     1      -4.138  -2.771   1.644  1.00  0.00    -0.000 C 
BRANCH  13  14
ATOM     14  C   UNL     1      -2.726  -2.201   1.445  1.00  0.00    -0.000 C 
BRANCH  14  15
ATOM     15  C   UNL     1      -1.962  -2.987   0.370  1.00  0.00    -0.000 C 
BRANCH  15  16
ATOM     16  C   UNL     1      -0.497  -2.518   0.232  1.00  0.00    -0.000 C 
BRANCH  16  17
ATOM     17  C   UNL     1       0.483  -3.290   1.131  1.00  0.00    -0.003 C 
ATOM     18  C   UNL     1      -0.118  -4.568   1.715  1.00  0.00     0.004 C 
ENDBRANCH  16  17
ENDBRANCH  15  16
ENDBRANCH  14  15
ENDBRANCH  13  14
ENDBRANCH  12  13
ENDBRANCH  11  12
ENDBRANCH   1  11
TORSDOF 14
ENDMDL
