MODEL 1
REMARK VINA RESULT:    -4.946      0.000      0.000
REMARK INTER + INTRA:          -5.337
REMARK INTER:                  -5.236
REMARK INTRA:                  -0.101
REMARK UNBOUND:                -0.101
REMARK SMILES C=C(C)[C@H]1CC=C(C)C(=O)C1
REMARK SMILES IDX 8 1 7 2 6 3 5 4 4 5 11 6 9 7 10 8 2 9 1 10 3 11
REMARK H PARENT
REMARK Flexibility Score: inf
ROOT
ATOM      1  C   UNL     1      35.613  39.016  83.990  1.00  0.00     0.048 C 
ATOM      2  C   UNL     1      34.372  39.836  84.203  1.00  0.00    -0.012 C 
ATOM      3  C   UNL     1      33.827  39.918  85.429  1.00  0.00    -0.019 C 
ATOM      4  C   UNL     1      32.575  40.712  85.695  1.00  0.00     0.036 C 
ATOM      5  C   UNL     1      32.489  41.940  84.769  1.00  0.00     0.025 C 
ATOM      6  C   UNL     1      32.604  41.508  83.296  1.00  0.00     0.089 C 
ATOM      7  C   UNL     1      33.823  40.651  83.090  1.00  0.00     0.158 C 
ATOM      8  O   UNL     1      34.354  40.603  81.948  1.00  0.00    -0.295 OA
ENDROOT
BRANCH   5   9
ATOM      9  C   UNL     1      31.227  42.749  85.022  1.00  0.00    -0.077 C 
ATOM     10  C   UNL     1      30.615  43.425  84.031  1.00  0.00     0.008 C 
ATOM     11  C   UNL     1      30.659  42.783  86.417  1.00  0.00     0.039 C 
ENDBRANCH   5   9
TORSDOF 1
ENDMDL
MODEL 2
REMARK VINA RESULT:    -4.792      2.158      4.741
REMARK INTER + INTRA:          -5.173
REMARK INTER:                  -5.076
REMARK INTRA:                  -0.098
REMARK UNBOUND:                -0.101
REMARK SMILES C=C(C)[C@H]1CC=C(C)C(=O)C1
REMARK SMILES IDX 8 1 7 2 6 3 5 4 4 5 11 6 9 7 10 8 2 9 1 10 3 11
REMARK H PARENT
REMARK Flexibility Score: inf
ROOT
ATOM      1  C   UNL     1      31.038  42.516  86.318  1.00  0.00     0.048 C 
ATOM      2  C   UNL     1      32.317  41.806  85.970  1.00  0.00    -0.012 C 
ATOM      3  C   UNL     1      32.273  40.567  85.450  1.00  0.00    -0.019 C 
ATOM      4  C   UNL     1      33.523  39.803  85.100  1.00  0.00     0.036 C 
ATOM      5  C   UNL     1      34.643  40.755  84.639  1.00  0.00     0.025 C 
ATOM      6  C   UNL     1      34.899  41.836  85.705  1.00  0.00     0.089 C 
ATOM      7  C   UNL     1      33.614  42.518  86.085  1.00  0.00     0.158 C 
ATOM      8  O   UNL     1      33.654  43.693  86.540  1.00  0.00    -0.295 OA
ENDROOT
BRANCH   5   9
ATOM      9  C   UNL     1      35.915  40.000  84.287  1.00  0.00    -0.077 C 
ATOM     10  C   UNL     1      35.882  38.713  83.894  1.00  0.00     0.008 C 
ATOM     11  C   UNL     1      37.234  40.723  84.381  1.00  0.00     0.039 C 
ENDBRANCH   5   9
TORSDOF 1
ENDMDL
MODEL 3
REMARK VINA RESULT:    -4.792      1.605      2.424
REMARK INTER + INTRA:          -5.173
REMARK INTER:                  -5.074
REMARK INTRA:                  -0.099
REMARK UNBOUND:                -0.101
REMARK SMILES C=C(C)[C@H]1CC=C(C)C(=O)C1
REMARK SMILES IDX 8 1 7 2 6 3 5 4 4 5 11 6 9 7 10 8 2 9 1 10 3 11
REMARK H PARENT
REMARK Flexibility Score: inf
ROOT
ATOM      1  C   UNL     1      35.915  38.775  83.933  1.00  0.00     0.048 C 
ATOM      2  C   UNL     1      34.929  39.910  83.943  1.00  0.00    -0.012 C 
ATOM      3  C   UNL     1      34.347  40.301  82.796  1.00  0.00    -0.019 C 
ATOM      4  C   UNL     1      33.366  41.443  82.747  1.00  0.00     0.036 C 
ATOM      5  C   UNL     1      32.553  41.531  84.053  1.00  0.00     0.025 C 
ATOM      6  C   UNL     1      33.495  41.624  85.266  1.00  0.00     0.089 C 
ATOM      7  C   UNL     1      34.509  40.514  85.233  1.00  0.00     0.158 C 
ATOM      8  O   UNL     1      35.029  40.125  86.313  1.00  0.00    -0.295 OA
ENDROOT
BRANCH   5   9
ATOM      9  C   UNL     1      31.561  42.683  84.021  1.00  0.00    -0.077 C 
ATOM     10  C   UNL     1      30.662  42.864  85.006  1.00  0.00     0.008 C 
ATOM     11  C   UNL     1      31.600  43.637  82.855  1.00  0.00     0.039 C 
ENDBRANCH   5   9
TORSDOF 1
ENDMDL
MODEL 4
REMARK VINA RESULT:    -4.781      1.489      1.585
REMARK INTER + INTRA:          -5.162
REMARK INTER:                  -5.068
REMARK INTRA:                  -0.094
REMARK UNBOUND:                -0.101
REMARK SMILES C=C(C)[C@H]1CC=C(C)C(=O)C1
REMARK SMILES IDX 8 1 7 2 6 3 5 4 4 5 11 6 9 7 10 8 2 9 1 10 3 11
REMARK H PARENT
REMARK Flexibility Score: inf
ROOT
ATOM      1  C   UNL     1      36.960  39.444  84.373  1.00  0.00     0.048 C 
ATOM      2  C   UNL     1      35.603  40.081  84.485  1.00  0.00    -0.012 C 
ATOM      3  C   UNL     1      34.585  39.394  85.032  1.00  0.00    -0.019 C 
ATOM      4  C   UNL     1      33.202  39.977  85.153  1.00  0.00     0.036 C 
ATOM      5  C   UNL     1      33.260  41.502  85.368  1.00  0.00     0.025 C 
ATOM      6  C   UNL     1      34.078  42.169  84.249  1.00  0.00     0.089 C 
ATOM      7  C   UNL     1      35.420  41.504  84.107  1.00  0.00     0.158 C 
ATOM      8  O   UNL     1      36.382  42.161  83.626  1.00  0.00    -0.295 OA
ENDROOT
BRANCH   5   9
ATOM      9  C   UNL     1      31.870  42.107  85.488  1.00  0.00    -0.077 C 
ATOM     10  C   UNL     1      31.142  42.416  84.399  1.00  0.00     0.008 C 
ATOM     11  C   UNL     1      31.308  42.358  86.863  1.00  0.00     0.039 C 
ENDBRANCH   5   9
TORSDOF 1
ENDMDL
MODEL 5
REMARK VINA RESULT:    -4.758      1.802      4.817
REMARK INTER + INTRA:          -5.138
REMARK INTER:                  -5.044
REMARK INTRA:                  -0.094
REMARK UNBOUND:                -0.101
REMARK SMILES C=C(C)[C@H]1CC=C(C)C(=O)C1
REMARK SMILES IDX 8 1 7 2 6 3 5 4 4 5 11 6 9 7 10 8 2 9 1 10 3 11
REMARK H PARENT
REMARK Flexibility Score: inf
ROOT
ATOM      1  C   UNL     1      30.889  42.324  84.027  1.00  0.00     0.048 C 
ATOM      2  C   UNL     1      32.099  41.434  83.950  1.00  0.00    -0.012 C 
ATOM      3  C   UNL     1      32.860  41.435  82.842  1.00  0.00    -0.019 C 
ATOM      4  C   UNL     1      34.073  40.552  82.706  1.00  0.00     0.036 C 
ATOM      5  C   UNL     1      34.758  40.336  84.069  1.00  0.00     0.025 C 
ATOM      6  C   UNL     1      33.749  39.788  85.094  1.00  0.00     0.089 C 
ATOM      7  C   UNL     1      32.520  40.653  85.140  1.00  0.00     0.158 C 
ATOM      8  O   UNL     1      31.826  40.678  86.192  1.00  0.00    -0.295 OA
ENDROOT
BRANCH   5   9
ATOM      9  C   UNL     1      35.981  39.442  83.948  1.00  0.00    -0.077 C 
ATOM     10  C   UNL     1      35.878  38.160  83.552  1.00  0.00     0.008 C 
ATOM     11  C   UNL     1      37.333  40.019  84.281  1.00  0.00     0.039 C 
ENDBRANCH   5   9
TORSDOF 1
ENDMDL
MODEL 6
REMARK VINA RESULT:    -4.628      2.011      4.739
REMARK INTER + INTRA:          -5.000
REMARK INTER:                  -4.903
REMARK INTRA:                  -0.097
REMARK UNBOUND:                -0.101
REMARK SMILES C=C(C)[C@H]1CC=C(C)C(=O)C1
REMARK SMILES IDX 8 1 7 2 6 3 5 4 4 5 11 6 9 7 10 8 2 9 1 10 3 11
REMARK H PARENT
REMARK Flexibility Score: inf
ROOT
ATOM      1  C   UNL     1      31.610  43.641  82.918  1.00  0.00     0.048 C 
ATOM      2  C   UNL     1      32.812  42.754  83.085  1.00  0.00    -0.012 C 
ATOM      3  C   UNL     1      34.042  43.242  82.843  1.00  0.00    -0.019 C 
ATOM      4  C   UNL     1      35.278  42.393  82.978  1.00  0.00     0.036 C 
ATOM      5  C   UNL     1      35.110  41.342  84.092  1.00  0.00     0.025 C 
ATOM      6  C   UNL     1      33.848  40.498  83.846  1.00  0.00     0.089 C 
ATOM      7  C   UNL     1      32.652  41.385  83.635  1.00  0.00     0.158 C 
ATOM      8  O   UNL     1      31.502  40.937  83.896  1.00  0.00    -0.295 OA
ENDROOT
BRANCH   5   9
ATOM      9  C   UNL     1      36.350  40.473  84.238  1.00  0.00    -0.077 C 
ATOM     10  C   UNL     1      37.576  41.013  84.361  1.00  0.00     0.008 C 
ATOM     11  C   UNL     1      36.184  38.975  84.246  1.00  0.00     0.039 C 
ENDBRANCH   5   9
TORSDOF 1
ENDMDL
MODEL 7
REMARK VINA RESULT:    -4.622      7.841     10.095
REMARK INTER + INTRA:          -4.993
REMARK INTER:                  -4.897
REMARK INTRA:                  -0.096
REMARK UNBOUND:                -0.101
REMARK SMILES C=C(C)[C@H]1CC=C(C)C(=O)C1
REMARK SMILES IDX 8 1 7 2 6 3 5 4 4 5 11 6 9 7 10 8 2 9 1 10 3 11
REMARK H PARENT
REMARK Flexibility Score: inf
ROOT
ATOM      1  C   UNL     1      21.243  41.754  87.688  1.00  0.00     0.048 C 
ATOM      2  C   UNL     1      22.254  42.365  86.759  1.00  0.00    -0.012 C 
ATOM      3  C   UNL     1      22.716  43.606  86.996  1.00  0.00    -0.019 C 
ATOM      4  C   UNL     1      23.716  44.272  86.089  1.00  0.00     0.036 C 
ATOM      5  C   UNL     1      24.673  43.238  85.465  1.00  0.00     0.025 C 
ATOM      6  C   UNL     1      23.875  42.137  84.744  1.00  0.00     0.089 C 
ATOM      7  C   UNL     1      22.833  41.555  85.658  1.00  0.00     0.158 C 
ATOM      8  O   UNL     1      22.427  40.379  85.456  1.00  0.00    -0.295 OA
ENDROOT
BRANCH   5   9
ATOM      9  C   UNL     1      25.687  43.895  84.542  1.00  0.00    -0.077 C 
ATOM     10  C   UNL     1      25.558  43.840  83.203  1.00  0.00     0.008 C 
ATOM     11  C   UNL     1      26.856  44.623  85.155  1.00  0.00     0.039 C 
ENDBRANCH   5   9
TORSDOF 1
ENDMDL
MODEL 8
REMARK VINA RESULT:    -4.550      2.022      2.667
REMARK INTER + INTRA:          -4.917
REMARK INTER:                  -4.822
REMARK INTRA:                  -0.095
REMARK UNBOUND:                -0.101
REMARK SMILES C=C(C)[C@H]1CC=C(C)C(=O)C1
REMARK SMILES IDX 8 1 7 2 6 3 5 4 4 5 11 6 9 7 10 8 2 9 1 10 3 11
REMARK H PARENT
REMARK Flexibility Score: inf
ROOT
ATOM      1  C   UNL     1      38.125  40.275  84.363  1.00  0.00     0.048 C 
ATOM      2  C   UNL     1      36.686  40.706  84.313  1.00  0.00    -0.012 C 
ATOM      3  C   UNL     1      36.370  42.003  84.471  1.00  0.00    -0.019 C 
ATOM      4  C   UNL     1      34.944  42.487  84.447  1.00  0.00     0.036 C 
ATOM      5  C   UNL     1      34.085  41.631  83.496  1.00  0.00     0.025 C 
ATOM      6  C   UNL     1      34.189  40.143  83.874  1.00  0.00     0.089 C 
ATOM      7  C   UNL     1      35.630  39.721  83.967  1.00  0.00     0.158 C 
ATOM      8  O   UNL     1      35.928  38.511  83.783  1.00  0.00    -0.295 OA
ENDROOT
BRANCH   5   9
ATOM      9  C   UNL     1      32.640  42.104  83.464  1.00  0.00    -0.077 C 
ATOM     10  C   UNL     1      32.302  43.298  82.944  1.00  0.00     0.008 C 
ATOM     11  C   UNL     1      31.573  41.202  84.030  1.00  0.00     0.039 C 
ENDBRANCH   5   9
TORSDOF 1
ENDMDL
MODEL 9
REMARK VINA RESULT:    -4.457      3.111      3.633
REMARK INTER + INTRA:          -4.819
REMARK INTER:                  -4.718
REMARK INTRA:                  -0.101
REMARK UNBOUND:                -0.101
REMARK SMILES C=C(C)[C@H]1CC=C(C)C(=O)C1
REMARK SMILES IDX 8 1 7 2 6 3 5 4 4 5 11 6 9 7 10 8 2 9 1 10 3 11
REMARK H PARENT
REMARK Flexibility Score: inf
ROOT
ATOM      1  C   UNL     1      37.982  43.503  86.457  1.00  0.00     0.048 C 
ATOM      2  C   UNL     1      36.864  42.676  85.884  1.00  0.00    -0.012 C 
ATOM      3  C   UNL     1      35.895  42.210  86.692  1.00  0.00    -0.019 C 
ATOM      4  C   UNL     1      34.763  41.364  86.174  1.00  0.00     0.036 C 
ATOM      5  C   UNL     1      34.392  41.756  84.731  1.00  0.00     0.025 C 
ATOM      6  C   UNL     1      35.632  41.690  83.822  1.00  0.00     0.089 C 
ATOM      7  C   UNL     1      36.765  42.481  84.416  1.00  0.00     0.158 C 
ATOM      8  O   UNL     1      37.654  42.948  83.653  1.00  0.00    -0.295 OA
ENDROOT
BRANCH   5   9
ATOM      9  C   UNL     1      33.252  40.907  84.192  1.00  0.00    -0.077 C 
ATOM     10  C   UNL     1      32.967  40.867  82.877  1.00  0.00     0.008 C 
ATOM     11  C   UNL     1      32.435  40.095  85.163  1.00  0.00     0.039 C 
ENDBRANCH   5   9
TORSDOF 1
ENDMDL
