MODEL 1
REMARK VINA RESULT:    -4.548      0.000      0.000
REMARK INTER + INTRA:          -6.648
REMARK INTER:                  -6.143
REMARK INTRA:                  -0.506
REMARK UNBOUND:                -0.506
REMARK SMILES O=C[C@@H](O)[C@@H](O)[C@H](O)CO
REMARK SMILES IDX 7 1 9 2 10 3 5 5 3 6 2 7 1 8 4 9 6 11 8 13
REMARK H PARENT 10 4 4 10 6 12 8 14
REMARK Flexibility Score: inf
ROOT
ATOM      1  C   UNL     1     176.510 177.261 163.565  1.00  0.00     0.171 C 
ENDROOT
BRANCH   1   2
ATOM      2  C   UNL     1     177.098 178.402 164.415  1.00  0.00     0.190 C 
BRANCH   2   3
ATOM      3  O   UNL     1     177.458 179.485 163.601  1.00  0.00    -0.394 OA
ATOM      4  H   UNL     1     177.843 179.106 162.769  1.00  0.00     0.210 HD
ENDBRANCH   2   3
ENDBRANCH   1   2
BRANCH   1   5
ATOM      5  C   UNL     1     174.997 177.466 163.272  1.00  0.00     0.181 C 
BRANCH   5   6
ATOM      6  C   UNL     1     174.087 176.286 163.702  1.00  0.00     0.209 C 
BRANCH   6   7
ATOM      7  C   UNL     1     173.036 176.692 164.703  1.00  0.00     0.258 C 
ATOM      8  O   UNL     1     172.149 177.475 164.399  1.00  0.00    -0.300 OA
ENDBRANCH   6   7
BRANCH   6   9
ATOM      9  O   UNL     1     173.473 175.735 162.565  1.00  0.00    -0.383 OA
ATOM     10  H   UNL     1     173.302 176.485 161.937  1.00  0.00     0.211 HD
ENDBRANCH   6   9
ENDBRANCH   5   6
BRANCH   5  11
ATOM     11  O   UNL     1     174.539 178.672 163.832  1.00  0.00    -0.387 OA
ATOM     12  H   UNL     1     173.745 178.469 164.390  1.00  0.00     0.211 HD
ENDBRANCH   5  11
ENDBRANCH   1   5
BRANCH   1  13
ATOM     13  O   UNL     1     176.667 176.043 164.248  1.00  0.00    -0.388 OA
ATOM     14  H   UNL     1     176.815 176.261 165.206  1.00  0.00     0.211 HD
ENDBRANCH   1  13
TORSDOF 8
ENDMDL
MODEL 2
REMARK VINA RESULT:    -4.276      1.363      4.189
REMARK INTER + INTRA:          -6.282
REMARK INTER:                  -6.282
REMARK INTRA:                   0.001
REMARK UNBOUND:                -0.506
REMARK SMILES O=C[C@@H](O)[C@@H](O)[C@H](O)CO
REMARK SMILES IDX 7 1 9 2 10 3 5 5 3 6 2 7 1 8 4 9 6 11 8 13
REMARK H PARENT 10 4 4 10 6 12 8 14
REMARK Flexibility Score: inf
ROOT
ATOM      1  C   UNL     1     172.594 176.507 164.070  1.00  0.00     0.171 C 
ENDROOT
BRANCH   1   2
ATOM      2  C   UNL     1     173.087 175.212 163.396  1.00  0.00     0.190 C 
BRANCH   2   3
ATOM      3  O   UNL     1     172.053 174.268 163.330  1.00  0.00    -0.394 OA
ATOM      4  H   UNL     1     171.673 174.192 164.243  1.00  0.00     0.210 HD
ENDBRANCH   2   3
ENDBRANCH   1   2
BRANCH   1   5
ATOM      5  C   UNL     1     173.754 177.504 164.345  1.00  0.00     0.181 C 
BRANCH   5   6
ATOM      6  C   UNL     1     175.057 177.218 163.555  1.00  0.00     0.209 C 
BRANCH   6   7
ATOM      7  C   UNL     1     175.768 178.474 163.120  1.00  0.00     0.258 C 
ATOM      8  O   UNL     1     176.749 178.880 163.723  1.00  0.00    -0.300 OA
ENDBRANCH   6   7
BRANCH   6   9
ATOM      9  O   UNL     1     175.916 176.436 164.345  1.00  0.00    -0.383 OA
ATOM     10  H   UNL     1     175.444 175.580 164.525  1.00  0.00     0.211 HD
ENDBRANCH   6   9
ENDBRANCH   5   6
BRANCH   5  11
ATOM     11  O   UNL     1     173.332 178.830 164.136  1.00  0.00    -0.387 OA
ATOM     12  H   UNL     1     172.357 178.816 163.952  1.00  0.00     0.211 HD
ENDBRANCH   5  11
ENDBRANCH   1   5
BRANCH   1  13
ATOM     13  O   UNL     1     171.983 176.190 165.295  1.00  0.00    -0.388 OA
ATOM     14  H   UNL     1     171.115 175.756 165.087  1.00  0.00     0.211 HD
ENDBRANCH   1  13
TORSDOF 8
ENDMDL
MODEL 3
REMARK VINA RESULT:    -4.273      9.193     10.406
REMARK INTER + INTRA:          -6.277
REMARK INTER:                  -5.554
REMARK INTRA:                  -0.724
REMARK UNBOUND:                -0.506
REMARK SMILES O=C[C@@H](O)[C@@H](O)[C@H](O)CO
REMARK SMILES IDX 7 1 9 2 10 3 5 5 3 6 2 7 1 8 4 9 6 11 8 13
REMARK H PARENT 10 4 4 10 6 12 8 14
REMARK Flexibility Score: inf
ROOT
ATOM      1  C   UNL     1     173.346 181.270 155.637  1.00  0.00     0.171 C 
ENDROOT
BRANCH   1   2
ATOM      2  C   UNL     1     171.937 181.741 155.228  1.00  0.00     0.190 C 
BRANCH   2   3
ATOM      3  O   UNL     1     171.963 182.314 153.950  1.00  0.00    -0.394 OA
ATOM      4  H   UNL     1     172.555 181.747 153.390  1.00  0.00     0.210 HD
ENDBRANCH   2   3
ENDBRANCH   1   2
BRANCH   1   5
ATOM      5  C   UNL     1     174.388 182.422 155.587  1.00  0.00     0.181 C 
BRANCH   5   6
ATOM      6  C   UNL     1     175.678 182.165 156.408  1.00  0.00     0.209 C 
BRANCH   6   7
ATOM      7  C   UNL     1     176.857 181.792 155.546  1.00  0.00     0.258 C 
ATOM      8  O   UNL     1     176.824 180.802 154.832  1.00  0.00    -0.300 OA
ENDBRANCH   6   7
BRANCH   6   9
ATOM      9  O   UNL     1     175.984 183.310 157.162  1.00  0.00    -0.383 OA
ATOM     10  H   UNL     1     176.873 183.155 157.577  1.00  0.00     0.211 HD
ENDBRANCH   6   9
ENDBRANCH   5   6
BRANCH   5  11
ATOM     11  O   UNL     1     174.707 182.749 154.257  1.00  0.00    -0.387 OA
ATOM     12  H   UNL     1     174.509 183.712 154.122  1.00  0.00     0.211 HD
ENDBRANCH   5  11
ENDBRANCH   1   5
BRANCH   1  13
ATOM     13  O   UNL     1     173.768 180.253 154.763  1.00  0.00    -0.388 OA
ATOM     14  H   UNL     1     172.999 180.034 154.174  1.00  0.00     0.211 HD
ENDBRANCH   1  13
TORSDOF 8
ENDMDL
MODEL 4
REMARK VINA RESULT:    -4.217      1.379      4.239
REMARK INTER + INTRA:          -6.202
REMARK INTER:                  -5.638
REMARK INTRA:                  -0.563
REMARK UNBOUND:                -0.506
REMARK SMILES O=C[C@@H](O)[C@@H](O)[C@H](O)CO
REMARK SMILES IDX 7 1 9 2 10 3 5 5 3 6 2 7 1 8 4 9 6 11 8 13
REMARK H PARENT 10 4 4 10 6 12 8 14
REMARK Flexibility Score: inf
ROOT
ATOM      1  C   UNL     1     173.250 177.532 163.788  1.00  0.00     0.171 C 
ENDROOT
BRANCH   1   2
ATOM      2  C   UNL     1     172.692 176.612 164.890  1.00  0.00     0.190 C 
BRANCH   2   3
ATOM      3  O   UNL     1     172.224 175.412 164.337  1.00  0.00    -0.394 OA
ATOM      4  H   UNL     1     172.060 174.791 165.093  1.00  0.00     0.210 HD
ENDBRANCH   2   3
ENDBRANCH   1   2
BRANCH   1   5
ATOM      5  C   UNL     1     174.761 177.279 163.520  1.00  0.00     0.181 C 
BRANCH   5   6
ATOM      6  C   UNL     1     175.686 178.484 163.833  1.00  0.00     0.209 C 
BRANCH   6   7
ATOM      7  C   UNL     1     176.966 178.078 164.517  1.00  0.00     0.258 C 
ATOM      8  O   UNL     1     177.676 177.201 164.049  1.00  0.00    -0.300 OA
ENDBRANCH   6   7
BRANCH   6   9
ATOM      9  O   UNL     1     175.979 179.165 162.640  1.00  0.00    -0.383 OA
ATOM     10  H   UNL     1     175.135 179.212 162.118  1.00  0.00     0.211 HD
ENDBRANCH   6   9
ENDBRANCH   5   6
BRANCH   5  11
ATOM     11  O   UNL     1     175.202 176.128 164.199  1.00  0.00    -0.387 OA
ATOM     12  H   UNL     1     174.523 175.417 164.069  1.00  0.00     0.211 HD
ENDBRANCH   5  11
ENDBRANCH   1   5
BRANCH   1  13
ATOM     13  O   UNL     1     173.089 178.873 164.176  1.00  0.00    -0.388 OA
ATOM     14  H   UNL     1     172.182 178.957 164.574  1.00  0.00     0.211 HD
ENDBRANCH   1  13
TORSDOF 8
ENDMDL
MODEL 5
REMARK VINA RESULT:    -4.060      6.852      7.629
REMARK INTER + INTRA:          -5.989
REMARK INTER:                  -5.520
REMARK INTRA:                  -0.470
REMARK UNBOUND:                -0.506
REMARK SMILES O=C[C@@H](O)[C@@H](O)[C@H](O)CO
REMARK SMILES IDX 7 1 9 2 10 3 5 5 3 6 2 7 1 8 4 9 6 11 8 13
REMARK H PARENT 10 4 4 10 6 12 8 14
REMARK Flexibility Score: inf
ROOT
ATOM      1  C   UNL     1     172.845 184.047 162.687  1.00  0.00     0.171 C 
ENDROOT
BRANCH   1   2
ATOM      2  C   UNL     1     174.056 183.290 163.264  1.00  0.00     0.190 C 
BRANCH   2   3
ATOM      3  O   UNL     1     174.967 182.973 162.247  1.00  0.00    -0.394 OA
ATOM      4  H   UNL     1     175.520 182.219 162.579  1.00  0.00     0.210 HD
ENDBRANCH   2   3
ENDBRANCH   1   2
BRANCH   1   5
ATOM      5  C   UNL     1     172.528 183.623 161.226  1.00  0.00     0.181 C 
BRANCH   5   6
ATOM      6  C   UNL     1     171.022 183.410 160.925  1.00  0.00     0.209 C 
BRANCH   6   7
ATOM      7  C   UNL     1     170.663 183.706 159.491  1.00  0.00     0.258 C 
ATOM      8  O   UNL     1     171.258 183.167 158.571  1.00  0.00    -0.300 OA
ENDBRANCH   6   7
BRANCH   6   9
ATOM      9  O   UNL     1     170.670 182.087 161.239  1.00  0.00    -0.383 OA
ATOM     10  H   UNL     1     170.872 181.535 160.439  1.00  0.00     0.211 HD
ENDBRANCH   6   9
ENDBRANCH   5   6
BRANCH   5  11
ATOM     11  O   UNL     1     173.091 184.531 160.310  1.00  0.00    -0.387 OA
ATOM     12  H   UNL     1     173.332 184.028 159.489  1.00  0.00     0.211 HD
ENDBRANCH   5  11
ENDBRANCH   1   5
BRANCH   1  13
ATOM     13  O   UNL     1     173.111 185.427 162.700  1.00  0.00    -0.388 OA
ATOM     14  H   UNL     1     172.731 185.808 161.864  1.00  0.00     0.211 HD
ENDBRANCH   1  13
TORSDOF 8
ENDMDL
MODEL 6
REMARK VINA RESULT:    -4.007      9.138     10.056
REMARK INTER + INTRA:          -5.918
REMARK INTER:                  -5.212
REMARK INTRA:                  -0.705
REMARK UNBOUND:                -0.506
REMARK SMILES O=C[C@@H](O)[C@@H](O)[C@H](O)CO
REMARK SMILES IDX 7 1 9 2 10 3 5 5 3 6 2 7 1 8 4 9 6 11 8 13
REMARK H PARENT 10 4 4 10 6 12 8 14
REMARK Flexibility Score: inf
ROOT
ATOM      1  C   UNL     1     175.562 173.541 155.143  1.00  0.00     0.171 C 
ENDROOT
BRANCH   1   2
ATOM      2  C   UNL     1     176.918 173.102 154.561  1.00  0.00     0.190 C 
BRANCH   2   3
ATOM      3  O   UNL     1     176.729 172.296 153.429  1.00  0.00    -0.394 OA
ATOM      4  H   UNL     1     177.575 171.798 153.285  1.00  0.00     0.210 HD
ENDBRANCH   2   3
ENDBRANCH   1   2
BRANCH   1   5
ATOM      5  C   UNL     1     174.642 172.331 155.469  1.00  0.00     0.181 C 
BRANCH   5   6
ATOM      6  C   UNL     1     173.461 172.651 156.421  1.00  0.00     0.209 C 
BRANCH   6   7
ATOM      7  C   UNL     1     172.158 172.854 155.691  1.00  0.00     0.258 C 
ATOM      8  O   UNL     1     172.014 173.781 154.909  1.00  0.00    -0.300 OA
ENDBRANCH   6   7
BRANCH   6   9
ATOM      9  O   UNL     1     173.325 171.613 157.357  1.00  0.00    -0.383 OA
ATOM     10  H   UNL     1     173.250 172.037 158.252  1.00  0.00     0.211 HD
ENDBRANCH   6   9
ENDBRANCH   5   6
BRANCH   5  11
ATOM     11  O   UNL     1     174.174 171.728 154.287  1.00  0.00    -0.387 OA
ATOM     12  H   UNL     1     173.432 171.115 154.529  1.00  0.00     0.211 HD
ENDBRANCH   5  11
ENDBRANCH   1   5
BRANCH   1  13
ATOM     13  O   UNL     1     174.900 174.361 154.213  1.00  0.00    -0.388 OA
ATOM     14  H   UNL     1     175.581 174.967 153.819  1.00  0.00     0.211 HD
ENDBRANCH   1  13
TORSDOF 8
ENDMDL
MODEL 7
REMARK VINA RESULT:    -3.991      8.128      9.261
REMARK INTER + INTRA:          -5.896
REMARK INTER:                  -5.382
REMARK INTRA:                  -0.514
REMARK UNBOUND:                -0.506
REMARK SMILES O=C[C@@H](O)[C@@H](O)[C@H](O)CO
REMARK SMILES IDX 7 1 9 2 10 3 5 5 3 6 2 7 1 8 4 9 6 11 8 13
REMARK H PARENT 10 4 4 10 6 12 8 14
REMARK Flexibility Score: inf
ROOT
ATOM      1  C   UNL     1     175.492 175.620 156.330  1.00  0.00     0.171 C 
ENDROOT
BRANCH   1   2
ATOM      2  C   UNL     1     174.625 176.879 156.521  1.00  0.00     0.190 C 
BRANCH   2   3
ATOM      3  O   UNL     1     174.631 177.280 157.863  1.00  0.00    -0.394 OA
ATOM      4  H   UNL     1     174.219 178.183 157.897  1.00  0.00     0.210 HD
ENDBRANCH   2   3
ENDBRANCH   1   2
BRANCH   1   5
ATOM      5  C   UNL     1     175.480 175.115 154.860  1.00  0.00     0.181 C 
BRANCH   5   6
ATOM      6  C   UNL     1     176.724 174.285 154.449  1.00  0.00     0.209 C 
BRANCH   6   7
ATOM      7  C   UNL     1     176.501 172.799 154.563  1.00  0.00     0.258 C 
ATOM      8  O   UNL     1     176.130 172.299 155.614  1.00  0.00    -0.300 OA
ENDBRANCH   6   7
BRANCH   6   9
ATOM      9  O   UNL     1     177.084 174.612 153.131  1.00  0.00    -0.383 OA
ATOM     10  H   UNL     1     176.257 174.912 152.671  1.00  0.00     0.211 HD
ENDBRANCH   6   9
ENDBRANCH   5   6
BRANCH   5  11
ATOM     11  O   UNL     1     174.298 174.402 154.587  1.00  0.00    -0.387 OA
ATOM     12  H   UNL     1     174.242 174.267 153.606  1.00  0.00     0.211 HD
ENDBRANCH   5  11
ENDBRANCH   1   5
BRANCH   1  13
ATOM     13  O   UNL     1     175.006 174.591 157.155  1.00  0.00    -0.388 OA
ATOM     14  H   UNL     1     174.078 174.392 156.861  1.00  0.00     0.211 HD
ENDBRANCH   1  13
TORSDOF 8
ENDMDL
MODEL 8
REMARK VINA RESULT:    -3.925      8.998     10.315
REMARK INTER + INTRA:          -5.807
REMARK INTER:                  -5.159
REMARK INTRA:                  -0.648
REMARK UNBOUND:                -0.506
REMARK SMILES O=C[C@@H](O)[C@@H](O)[C@H](O)CO
REMARK SMILES IDX 7 1 9 2 10 3 5 5 3 6 2 7 1 8 4 9 6 11 8 13
REMARK H PARENT 10 4 4 10 6 12 8 14
REMARK Flexibility Score: inf
ROOT
ATOM      1  C   UNL     1     173.193 172.524 156.495  1.00  0.00     0.171 C 
ENDROOT
BRANCH   1   2
ATOM      2  C   UNL     1     171.974 171.594 156.350  1.00  0.00     0.190 C 
BRANCH   2   3
ATOM      3  O   UNL     1     172.310 170.284 156.717  1.00  0.00    -0.394 OA
ATOM      4  H   UNL     1     172.408 170.276 157.704  1.00  0.00     0.210 HD
ENDBRANCH   2   3
ENDBRANCH   1   2
BRANCH   1   5
ATOM      5  C   UNL     1     173.897 172.787 155.134  1.00  0.00     0.181 C 
BRANCH   5   6
ATOM      6  C   UNL     1     175.093 173.771 155.202  1.00  0.00     0.209 C 
BRANCH   6   7
ATOM      7  C   UNL     1     176.429 173.078 155.133  1.00  0.00     0.258 C 
ATOM      8  O   UNL     1     176.808 172.355 156.042  1.00  0.00    -0.300 OA
ENDBRANCH   6   7
BRANCH   6   9
ATOM      9  O   UNL     1     174.986 174.702 154.155  1.00  0.00    -0.383 OA
ATOM     10  H   UNL     1     175.899 174.823 153.781  1.00  0.00     0.211 HD
ENDBRANCH   6   9
ENDBRANCH   5   6
BRANCH   5  11
ATOM     11  O   UNL     1     174.288 171.576 154.534  1.00  0.00    -0.387 OA
ATOM     12  H   UNL     1     173.568 171.295 153.913  1.00  0.00     0.211 HD
ENDBRANCH   5  11
ENDBRANCH   1   5
BRANCH   1  13
ATOM     13  O   UNL     1     174.124 171.939 157.370  1.00  0.00    -0.388 OA
ATOM     14  H   UNL     1     174.572 171.204 156.873  1.00  0.00     0.211 HD
ENDBRANCH   1  13
TORSDOF 8
ENDMDL
MODEL 9
REMARK VINA RESULT:    -3.883      7.027      8.058
REMARK INTER + INTRA:          -5.750
REMARK INTER:                  -5.185
REMARK INTRA:                  -0.565
REMARK UNBOUND:                -0.506
REMARK SMILES O=C[C@@H](O)[C@@H](O)[C@H](O)CO
REMARK SMILES IDX 7 1 9 2 10 3 5 5 3 6 2 7 1 8 4 9 6 11 8 13
REMARK H PARENT 10 4 4 10 6 12 8 14
REMARK Flexibility Score: inf
ROOT
ATOM      1  C   UNL     1     175.402 175.954 156.198  1.00  0.00     0.171 C 
ENDROOT
BRANCH   1   2
ATOM      2  C   UNL     1     174.305 176.898 156.724  1.00  0.00     0.190 C 
BRANCH   2   3
ATOM      3  O   UNL     1     174.618 177.345 158.015  1.00  0.00    -0.394 OA
ATOM      4  H   UNL     1     174.645 178.336 157.979  1.00  0.00     0.210 HD
ENDBRANCH   2   3
ENDBRANCH   1   2
BRANCH   1   5
ATOM      5  C   UNL     1     174.838 174.559 155.806  1.00  0.00     0.181 C 
BRANCH   5   6
ATOM      6  C   UNL     1     173.868 173.937 156.843  1.00  0.00     0.209 C 
BRANCH   6   7
ATOM      7  C   UNL     1     173.052 172.803 156.276  1.00  0.00     0.258 C 
ATOM      8  O   UNL     1     171.993 173.016 155.707  1.00  0.00    -0.300 OA
ENDBRANCH   6   7
BRANCH   6   9
ATOM      9  O   UNL     1     174.601 173.486 157.953  1.00  0.00    -0.383 OA
ATOM     10  H   UNL     1     173.953 173.356 158.695  1.00  0.00     0.211 HD
ENDBRANCH   6   9
ENDBRANCH   5   6
BRANCH   5  11
ATOM     11  O   UNL     1     174.240 174.603 154.534  1.00  0.00    -0.387 OA
ATOM     12  H   UNL     1     174.958 174.737 153.862  1.00  0.00     0.211 HD
ENDBRANCH   5  11
ENDBRANCH   1   5
BRANCH   1  13
ATOM     13  O   UNL     1     176.377 175.773 157.194  1.00  0.00    -0.388 OA
ATOM     14  H   UNL     1     175.897 175.633 158.053  1.00  0.00     0.211 HD
ENDBRANCH   1  13
TORSDOF 8
ENDMDL
