MODEL 1
REMARK VINA RESULT:    -3.817      0.000      0.000
REMARK INTER + INTRA:         -12.691
REMARK INTER:                  -9.620
REMARK INTRA:                  -3.071
REMARK UNBOUND:                -3.071
REMARK SMILES CCCCCCCCCCCCCCCCCCCCCCCCCCCC(=O)[O-]
REMARK SMILES IDX 15 1 16 2 17 3 18 4 19 5 20 6 21 7 22 8 23 9 24 10 25 11
REMARK SMILES IDX 26 12 27 13 28 14 29 15 30 16 14 17 13 18 12 19 11 20 10 21
REMARK SMILES IDX 9 22 8 23 7 24 6 25 5 26 4 27 3 28 2 29 1 30
REMARK H PARENT
REMARK Flexibility Score: inf
ROOT
ATOM      1  C   UNL     1      -0.811   6.615 -54.151  1.00  0.00     0.000 C 
ENDROOT
BRANCH   1   2
ATOM      2  C   UNL     1       0.212   5.492 -53.918  1.00  0.00     0.000 C 
BRANCH   2   3
ATOM      3  C   UNL     1       0.136   4.899 -52.498  1.00  0.00     0.000 C 
BRANCH   3   4
ATOM      4  C   UNL     1      -1.266   4.931 -51.855  1.00  0.00     0.000 C 
BRANCH   4   5
ATOM      5  C   UNL     1      -1.286   5.204 -50.337  1.00  0.00     0.000 C 
BRANCH   5   6
ATOM      6  C   UNL     1      -0.038   5.916 -49.786  1.00  0.00     0.000 C 
BRANCH   6   7
ATOM      7  C   UNL     1       0.522   5.239 -48.523  1.00  0.00     0.000 C 
BRANCH   7   8
ATOM      8  C   UNL     1      -0.434   5.335 -47.324  1.00  0.00     0.000 C 
BRANCH   8   9
ATOM      9  C   UNL     1      -1.045   6.740 -47.161  1.00  0.00     0.000 C 
BRANCH   9  10
ATOM     10  C   UNL     1      -1.712   6.933 -45.782  1.00  0.00     0.000 C 
BRANCH  10  11
ATOM     11  C   UNL     1      -3.199   6.540 -45.745  1.00  0.00     0.000 C 
BRANCH  11  12
ATOM     12  C   UNL     1      -4.097   7.505 -46.530  1.00  0.00     0.006 C 
BRANCH  12  13
ATOM     13  C   UNL     1      -4.581   6.868 -47.837  1.00  0.00     0.053 C 
BRANCH  13  14
ATOM     14  C   UNL     1      -5.925   7.398 -48.225  1.00  0.00     0.041 C 
ATOM     15  O   UNL     1      -6.089   8.634 -48.417  1.00  0.00    -0.550 OA
ATOM     16  O   UNL     1      -7.005   6.533 -48.354  1.00  0.00    -0.550 OA
ENDBRANCH  13  14
ENDBRANCH  12  13
ENDBRANCH  11  12
ENDBRANCH  10  11
ENDBRANCH   9  10
ENDBRANCH   8   9
ENDBRANCH   7   8
ENDBRANCH   6   7
ENDBRANCH   5   6
ENDBRANCH   4   5
ENDBRANCH   3   4
ENDBRANCH   2   3
ENDBRANCH   1   2
BRANCH   1  17
ATOM     17  C   UNL     1      -1.196   6.704 -55.635  1.00  0.00     0.000 C 
BRANCH  17  18
ATOM     18  C   UNL     1      -0.739   5.477 -56.444  1.00  0.00     0.000 C 
BRANCH  18  19
ATOM     19  C   UNL     1      -0.186   5.795 -57.850  1.00  0.00     0.000 C 
BRANCH  19  20
ATOM     20  C   UNL     1      -1.010   6.814 -58.663  1.00  0.00     0.000 C 
BRANCH  20  21
ATOM     21  C   UNL     1      -1.961   6.199 -59.707  1.00  0.00     0.000 C 
BRANCH  21  22
ATOM     22  C   UNL     1      -2.974   5.183 -59.146  1.00  0.00    -0.000 C 
BRANCH  22  23
ATOM     23  C   UNL     1      -4.404   5.423 -59.652  1.00  0.00    -0.000 C 
BRANCH  23  24
ATOM     24  C   UNL     1      -5.436   4.876 -58.655  1.00  0.00    -0.000 C 
BRANCH  24  25
ATOM     25  C   UNL     1      -5.123   5.267 -57.203  1.00  0.00    -0.000 C 
BRANCH  25  26
ATOM     26  C   UNL     1      -5.579   6.694 -56.864  1.00  0.00    -0.000 C 
BRANCH  26  27
ATOM     27  C   UNL     1      -4.460   7.470 -56.151  1.00  0.00    -0.000 C 
BRANCH  27  28
ATOM     28  C   UNL     1      -4.008   8.713 -56.931  1.00  0.00    -0.000 C 
BRANCH  28  29
ATOM     29  C   UNL     1      -4.695   8.837 -58.300  1.00  0.00    -0.003 C 
ATOM     30  C   UNL     1      -3.743   9.413 -59.343  1.00  0.00     0.004 C 
ENDBRANCH  28  29
ENDBRANCH  27  28
ENDBRANCH  26  27
ENDBRANCH  25  26
ENDBRANCH  24  25
ENDBRANCH  23  24
ENDBRANCH  22  23
ENDBRANCH  21  22
ENDBRANCH  20  21
ENDBRANCH  19  20
ENDBRANCH  18  19
ENDBRANCH  17  18
ENDBRANCH   1  17
TORSDOF 26
ENDMDL
MODEL 2
REMARK VINA RESULT:    -3.525      2.054      5.186
REMARK INTER + INTRA:         -11.955
REMARK INTER:                  -9.749
REMARK INTRA:                  -2.206
REMARK UNBOUND:                -3.071
REMARK SMILES CCCCCCCCCCCCCCCCCCCCCCCCCCCC(=O)[O-]
REMARK SMILES IDX 15 1 16 2 17 3 18 4 19 5 20 6 21 7 22 8 23 9 24 10 25 11
REMARK SMILES IDX 26 12 27 13 28 14 29 15 30 16 14 17 13 18 12 19 11 20 10 21
REMARK SMILES IDX 9 22 8 23 7 24 6 25 5 26 4 27 3 28 2 29 1 30
REMARK H PARENT
REMARK Flexibility Score: inf
ROOT
ATOM      1  C   UNL     1       0.322   6.375 -47.867  1.00  0.00     0.000 C 
ENDROOT
BRANCH   1   2
ATOM      2  C   UNL     1      -0.420   6.835 -46.603  1.00  0.00     0.000 C 
BRANCH   2   3
ATOM      3  C   UNL     1       0.512   7.488 -45.566  1.00  0.00     0.000 C 
BRANCH   3   4
ATOM      4  C   UNL     1       1.025   8.893 -45.947  1.00  0.00     0.000 C 
BRANCH   4   5
ATOM      5  C   UNL     1       0.429  10.055 -45.126  1.00  0.00     0.000 C 
BRANCH   5   6
ATOM      6  C   UNL     1      -0.131  11.222 -45.959  1.00  0.00     0.000 C 
BRANCH   6   7
ATOM      7  C   UNL     1      -1.608  11.519 -45.644  1.00  0.00     0.000 C 
BRANCH   7   8
ATOM      8  C   UNL     1      -2.516  10.296 -45.845  1.00  0.00     0.000 C 
BRANCH   8   9
ATOM      9  C   UNL     1      -3.689  10.576 -46.804  1.00  0.00     0.000 C 
BRANCH   9  10
ATOM     10  C   UNL     1      -4.516   9.307 -47.104  1.00  0.00     0.000 C 
BRANCH  10  11
ATOM     11  C   UNL     1      -3.813   7.995 -46.711  1.00  0.00     0.000 C 
BRANCH  11  12
ATOM     12  C   UNL     1      -4.104   6.843 -47.681  1.00  0.00     0.006 C 
BRANCH  12  13
ATOM     13  C   UNL     1      -5.522   6.949 -48.254  1.00  0.00     0.053 C 
BRANCH  13  14
ATOM     14  C   UNL     1      -6.475   6.090 -47.485  1.00  0.00     0.041 C 
ATOM     15  O   UNL     1      -6.219   5.765 -46.294  1.00  0.00    -0.550 OA
ATOM     16  O   UNL     1      -7.639   5.628 -48.088  1.00  0.00    -0.550 OA
ENDBRANCH  13  14
ENDBRANCH  12  13
ENDBRANCH  11  12
ENDBRANCH  10  11
ENDBRANCH   9  10
ENDBRANCH   8   9
ENDBRANCH   7   8
ENDBRANCH   6   7
ENDBRANCH   5   6
ENDBRANCH   4   5
ENDBRANCH   3   4
ENDBRANCH   2   3
ENDBRANCH   1   2
BRANCH   1  17
ATOM     17  C   UNL     1      -0.267   5.060 -48.400  1.00  0.00     0.000 C 
BRANCH  17  18
ATOM     18  C   UNL     1      -1.219   5.274 -49.591  1.00  0.00     0.000 C 
BRANCH  18  19
ATOM     19  C   UNL     1      -0.601   4.992 -50.977  1.00  0.00     0.000 C 
BRANCH  19  20
ATOM     20  C   UNL     1      -1.352   5.620 -52.169  1.00  0.00     0.000 C 
BRANCH  20  21
ATOM     21  C   UNL     1      -0.490   6.514 -53.083  1.00  0.00     0.000 C 
BRANCH  21  22
ATOM     22  C   UNL     1       0.221   5.776 -54.232  1.00  0.00    -0.000 C 
BRANCH  22  23
ATOM     23  C   UNL     1      -0.155   6.322 -55.617  1.00  0.00    -0.000 C 
BRANCH  23  24
ATOM     24  C   UNL     1      -1.301   5.508 -56.235  1.00  0.00    -0.000 C 
BRANCH  24  25
ATOM     25  C   UNL     1      -2.679   6.136 -55.975  1.00  0.00    -0.000 C 
BRANCH  25  26
ATOM     26  C   UNL     1      -2.755   7.602 -56.428  1.00  0.00    -0.000 C 
BRANCH  26  27
ATOM     27  C   UNL     1      -4.200   8.121 -56.359  1.00  0.00    -0.000 C 
BRANCH  27  28
ATOM     28  C   UNL     1      -4.647   8.812 -57.656  1.00  0.00    -0.000 C 
BRANCH  28  29
ATOM     29  C   UNL     1      -5.419   7.871 -58.593  1.00  0.00    -0.003 C 
ATOM     30  C   UNL     1      -4.493   7.251 -59.634  1.00  0.00     0.004 C 
ENDBRANCH  28  29
ENDBRANCH  27  28
ENDBRANCH  26  27
ENDBRANCH  25  26
ENDBRANCH  24  25
ENDBRANCH  23  24
ENDBRANCH  22  23
ENDBRANCH  21  22
ENDBRANCH  20  21
ENDBRANCH  19  20
ENDBRANCH  18  19
ENDBRANCH  17  18
ENDBRANCH   1  17
TORSDOF 26
ENDMDL
MODEL 3
REMARK VINA RESULT:    -3.422      3.231     10.231
REMARK INTER + INTRA:         -11.695
REMARK INTER:                  -8.993
REMARK INTRA:                  -2.701
REMARK UNBOUND:                -3.071
REMARK SMILES CCCCCCCCCCCCCCCCCCCCCCCCCCCC(=O)[O-]
REMARK SMILES IDX 15 1 16 2 17 3 18 4 19 5 20 6 21 7 22 8 23 9 24 10 25 11
REMARK SMILES IDX 26 12 27 13 28 14 29 15 30 16 14 17 13 18 12 19 11 20 10 21
REMARK SMILES IDX 9 22 8 23 7 24 6 25 5 26 4 27 3 28 2 29 1 30
REMARK H PARENT
REMARK Flexibility Score: inf
ROOT
ATOM      1  C   UNL     1      -1.228   6.480 -53.984  1.00  0.00     0.000 C 
ENDROOT
BRANCH   1   2
ATOM      2  C   UNL     1      -1.616   5.051 -54.394  1.00  0.00     0.000 C 
BRANCH   2   3
ATOM      3  C   UNL     1      -3.133   4.875 -54.589  1.00  0.00     0.000 C 
BRANCH   3   4
ATOM      4  C   UNL     1      -3.605   4.881 -56.058  1.00  0.00     0.000 C 
BRANCH   4   5
ATOM      5  C   UNL     1      -4.360   6.151 -56.500  1.00  0.00     0.000 C 
BRANCH   5   6
ATOM      6  C   UNL     1      -3.638   7.477 -56.201  1.00  0.00     0.000 C 
BRANCH   6   7
ATOM      7  C   UNL     1      -3.995   8.587 -57.205  1.00  0.00     0.000 C 
BRANCH   7   8
ATOM      8  C   UNL     1      -5.490   8.605 -57.562  1.00  0.00     0.000 C 
BRANCH   8   9
ATOM      9  C   UNL     1      -5.788   7.925 -58.912  1.00  0.00     0.000 C 
BRANCH   9  10
ATOM     10  C   UNL     1      -4.504   7.626 -59.714  1.00  0.00     0.000 C 
BRANCH  10  11
ATOM     11  C   UNL     1      -4.236   6.126 -59.931  1.00  0.00     0.000 C 
BRANCH  11  12
ATOM     12  C   UNL     1      -2.789   5.826 -60.341  1.00  0.00     0.006 C 
BRANCH  12  13
ATOM     13  C   UNL     1      -1.985   5.271 -59.159  1.00  0.00     0.053 C 
BRANCH  13  14
ATOM     14  C   UNL     1      -1.138   6.338 -58.540  1.00  0.00     0.041 C 
ATOM     15  O   UNL     1      -0.466   6.093 -57.502  1.00  0.00    -0.550 OA
ATOM     16  O   UNL     1      -1.105   7.611 -59.097  1.00  0.00    -0.550 OA
ENDBRANCH  13  14
ENDBRANCH  12  13
ENDBRANCH  11  12
ENDBRANCH  10  11
ENDBRANCH   9  10
ENDBRANCH   8   9
ENDBRANCH   7   8
ENDBRANCH   6   7
ENDBRANCH   5   6
ENDBRANCH   4   5
ENDBRANCH   3   4
ENDBRANCH   2   3
ENDBRANCH   1   2
BRANCH   1  17
ATOM     17  C   UNL     1      -0.008   6.470 -53.051  1.00  0.00     0.000 C 
BRANCH  17  18
ATOM     18  C   UNL     1       0.267   5.082 -52.445  1.00  0.00     0.000 C 
BRANCH  18  19
ATOM     19  C   UNL     1      -0.280   4.875 -51.017  1.00  0.00     0.000 C 
BRANCH  19  20
ATOM     20  C   UNL     1      -1.693   5.441 -50.768  1.00  0.00     0.000 C 
BRANCH  20  21
ATOM     21  C   UNL     1      -2.239   5.227 -49.343  1.00  0.00     0.000 C 
BRANCH  21  22
ATOM     22  C   UNL     1      -1.427   5.905 -48.226  1.00  0.00    -0.000 C 
BRANCH  22  23
ATOM     23  C   UNL     1      -1.747   5.348 -46.831  1.00  0.00    -0.000 C 
BRANCH  23  24
ATOM     24  C   UNL     1      -2.403   6.421 -45.949  1.00  0.00    -0.000 C 
BRANCH  24  25
ATOM     25  C   UNL     1      -1.959   7.844 -46.320  1.00  0.00    -0.000 C 
BRANCH  25  26
ATOM     26  C   UNL     1      -2.651   8.919 -45.469  1.00  0.00    -0.000 C 
BRANCH  26  27
ATOM     27  C   UNL     1      -4.166   8.927 -45.723  1.00  0.00    -0.000 C 
BRANCH  27  28
ATOM     28  C   UNL     1      -4.521   9.196 -47.193  1.00  0.00    -0.000 C 
BRANCH  28  29
ATOM     29  C   UNL     1      -5.743   8.394 -47.665  1.00  0.00    -0.003 C 
ATOM     30  C   UNL     1      -5.325   7.044 -48.241  1.00  0.00     0.004 C 
ENDBRANCH  28  29
ENDBRANCH  27  28
ENDBRANCH  26  27
ENDBRANCH  25  26
ENDBRANCH  24  25
ENDBRANCH  23  24
ENDBRANCH  22  23
ENDBRANCH  21  22
ENDBRANCH  20  21
ENDBRANCH  19  20
ENDBRANCH  18  19
ENDBRANCH  17  18
ENDBRANCH   1  17
TORSDOF 26
ENDMDL
MODEL 4
REMARK VINA RESULT:    -3.023      2.714      3.944
REMARK INTER + INTRA:         -10.690
REMARK INTER:                  -8.432
REMARK INTRA:                  -2.259
REMARK UNBOUND:                -3.071
REMARK SMILES CCCCCCCCCCCCCCCCCCCCCCCCCCCC(=O)[O-]
REMARK SMILES IDX 15 1 16 2 17 3 18 4 19 5 20 6 21 7 22 8 23 9 24 10 25 11
REMARK SMILES IDX 26 12 27 13 28 14 29 15 30 16 14 17 13 18 12 19 11 20 10 21
REMARK SMILES IDX 9 22 8 23 7 24 6 25 5 26 4 27 3 28 2 29 1 30
REMARK H PARENT
REMARK Flexibility Score: inf
ROOT
ATOM      1  C   UNL     1      -2.008   4.875 -53.827  1.00  0.00     0.000 C 
ENDROOT
BRANCH   1   2
ATOM      2  C   UNL     1      -0.500   4.875 -53.532  1.00  0.00     0.000 C 
BRANCH   2   3
ATOM      3  C   UNL     1      -0.184   4.880 -52.025  1.00  0.00     0.000 C 
BRANCH   3   4
ATOM      4  C   UNL     1      -1.132   5.743 -51.165  1.00  0.00     0.000 C 
BRANCH   4   5
ATOM      5  C   UNL     1      -2.484   5.088 -50.819  1.00  0.00     0.000 C 
BRANCH   5   6
ATOM      6  C   UNL     1      -2.863   5.124 -49.327  1.00  0.00     0.000 C 
BRANCH   6   7
ATOM      7  C   UNL     1      -4.211   5.821 -49.075  1.00  0.00     0.000 C 
BRANCH   7   8
ATOM      8  C   UNL     1      -4.449   6.133 -47.589  1.00  0.00     0.000 C 
BRANCH   8   9
ATOM      9  C   UNL     1      -3.858   7.491 -47.163  1.00  0.00     0.000 C 
BRANCH   9  10
ATOM     10  C   UNL     1      -3.500   7.529 -45.662  1.00  0.00     0.000 C 
BRANCH  10  11
ATOM     11  C   UNL     1      -2.090   7.001 -45.341  1.00  0.00     0.000 C 
BRANCH  11  12
ATOM     12  C   UNL     1      -0.978   7.782 -46.051  1.00  0.00     0.006 C 
BRANCH  12  13
ATOM     13  C   UNL     1       0.036   6.832 -46.698  1.00  0.00     0.053 C 
BRANCH  13  14
ATOM     14  C   UNL     1       1.266   6.708 -45.854  1.00  0.00     0.041 C 
ATOM     15  O   UNL     1       1.758   5.573 -45.611  1.00  0.00    -0.550 OA
ATOM     16  O   UNL     1       1.860   7.845 -45.317  1.00  0.00    -0.550 OA
ENDBRANCH  13  14
ENDBRANCH  12  13
ENDBRANCH  11  12
ENDBRANCH  10  11
ENDBRANCH   9  10
ENDBRANCH   8   9
ENDBRANCH   7   8
ENDBRANCH   6   7
ENDBRANCH   5   6
ENDBRANCH   4   5
ENDBRANCH   3   4
ENDBRANCH   2   3
ENDBRANCH   1   2
BRANCH   1  17
ATOM     17  C   UNL     1      -2.272   5.055 -55.329  1.00  0.00     0.000 C 
BRANCH  17  18
ATOM     18  C   UNL     1      -2.486   6.528 -55.724  1.00  0.00     0.000 C 
BRANCH  18  19
ATOM     19  C   UNL     1      -1.334   7.158 -56.536  1.00  0.00     0.000 C 
BRANCH  19  20
ATOM     20  C   UNL     1      -0.587   6.188 -57.475  1.00  0.00     0.000 C 
BRANCH  20  21
ATOM     21  C   UNL     1      -1.014   6.255 -58.954  1.00  0.00     0.000 C 
BRANCH  21  22
ATOM     22  C   UNL     1      -2.217   5.367 -59.325  1.00  0.00    -0.000 C 
BRANCH  22  23
ATOM     23  C   UNL     1      -3.023   5.918 -60.510  1.00  0.00    -0.000 C 
BRANCH  23  24
ATOM     24  C   UNL     1      -4.488   6.152 -60.114  1.00  0.00    -0.000 C 
BRANCH  24  25
ATOM     25  C   UNL     1      -4.669   7.387 -59.218  1.00  0.00    -0.000 C 
BRANCH  25  26
ATOM     26  C   UNL     1      -5.397   7.062 -57.905  1.00  0.00    -0.000 C 
BRANCH  26  27
ATOM     27  C   UNL     1      -5.500   5.543 -57.698  1.00  0.00    -0.000 C 
BRANCH  27  28
ATOM     28  C   UNL     1      -6.855   5.113 -57.117  1.00  0.00    -0.000 C 
BRANCH  28  29
ATOM     29  C   UNL     1      -8.037   5.862 -57.750  1.00  0.00    -0.003 C 
ATOM     30  C   UNL     1      -9.316   5.034 -57.678  1.00  0.00     0.004 C 
ENDBRANCH  28  29
ENDBRANCH  27  28
ENDBRANCH  26  27
ENDBRANCH  25  26
ENDBRANCH  24  25
ENDBRANCH  23  24
ENDBRANCH  22  23
ENDBRANCH  21  22
ENDBRANCH  20  21
ENDBRANCH  19  20
ENDBRANCH  18  19
ENDBRANCH  17  18
ENDBRANCH   1  17
TORSDOF 26
ENDMDL
MODEL 5
REMARK VINA RESULT:    -2.819     14.446     17.953
REMARK INTER + INTRA:         -10.175
REMARK INTER:                  -8.370
REMARK INTRA:                  -1.806
REMARK UNBOUND:                -3.071
REMARK SMILES CCCCCCCCCCCCCCCCCCCCCCCCCCCC(=O)[O-]
REMARK SMILES IDX 15 1 16 2 17 3 18 4 19 5 20 6 21 7 22 8 23 9 24 10 25 11
REMARK SMILES IDX 26 12 27 13 28 14 29 15 30 16 14 17 13 18 12 19 11 20 10 21
REMARK SMILES IDX 9 22 8 23 7 24 6 25 5 26 4 27 3 28 2 29 1 30
REMARK H PARENT
REMARK Flexibility Score: inf
ROOT
ATOM      1  C   UNL     1      -5.559  17.770 -64.270  1.00  0.00     0.000 C 
ENDROOT
BRANCH   1   2
ATOM      2  C   UNL     1      -6.909  17.859 -64.998  1.00  0.00     0.000 C 
BRANCH   2   3
ATOM      3  C   UNL     1      -7.968  18.645 -64.202  1.00  0.00     0.000 C 
BRANCH   3   4
ATOM      4  C   UNL     1      -9.164  17.805 -63.708  1.00  0.00     0.000 C 
BRANCH   4   5
ATOM      5  C   UNL     1      -8.793  16.526 -62.930  1.00  0.00     0.000 C 
BRANCH   5   6
ATOM      6  C   UNL     1      -8.509  16.733 -61.432  1.00  0.00     0.000 C 
BRANCH   6   7
ATOM      7  C   UNL     1      -7.230  16.016 -60.966  1.00  0.00     0.000 C 
BRANCH   7   8
ATOM      8  C   UNL     1      -5.972  16.884 -61.128  1.00  0.00     0.000 C 
BRANCH   8   9
ATOM      9  C   UNL     1      -5.584  17.620 -59.831  1.00  0.00     0.000 C 
BRANCH   9  10
ATOM     10  C   UNL     1      -4.648  18.819 -60.095  1.00  0.00     0.000 C 
BRANCH  10  11
ATOM     11  C   UNL     1      -3.166  18.433 -60.249  1.00  0.00     0.000 C 
BRANCH  11  12
ATOM     12  C   UNL     1      -2.600  18.759 -61.637  1.00  0.00     0.006 C 
BRANCH  12  13
ATOM     13  C   UNL     1      -1.126  18.348 -61.741  1.00  0.00     0.053 C 
BRANCH  13  14
ATOM     14  C   UNL     1      -0.555  18.740 -63.068  1.00  0.00     0.041 C 
ATOM     15  O   UNL     1      -0.676  19.922 -63.488  1.00  0.00    -0.550 OA
ATOM     16  O   UNL     1       0.094  17.794 -63.854  1.00  0.00    -0.550 OA
ENDBRANCH  13  14
ENDBRANCH  12  13
ENDBRANCH  11  12
ENDBRANCH  10  11
ENDBRANCH   9  10
ENDBRANCH   8   9
ENDBRANCH   7   8
ENDBRANCH   6   7
ENDBRANCH   5   6
ENDBRANCH   4   5
ENDBRANCH   3   4
ENDBRANCH   2   3
ENDBRANCH   1   2
BRANCH   1  17
ATOM     17  C   UNL     1      -4.785  19.091 -64.388  1.00  0.00     0.000 C 
BRANCH  17  18
ATOM     18  C   UNL     1      -5.635  20.229 -64.983  1.00  0.00     0.000 C 
BRANCH  18  19
ATOM     19  C   UNL     1      -6.085  21.303 -63.970  1.00  0.00     0.000 C 
BRANCH  19  20
ATOM     20  C   UNL     1      -5.473  21.171 -62.561  1.00  0.00     0.000 C 
BRANCH  20  21
ATOM     21  C   UNL     1      -6.005  22.178 -61.522  1.00  0.00     0.000 C 
BRANCH  21  22
ATOM     22  C   UNL     1      -6.156  23.622 -62.034  1.00  0.00    -0.000 C 
BRANCH  22  23
ATOM     23  C   UNL     1      -6.078  24.666 -60.910  1.00  0.00    -0.000 C 
BRANCH  23  24
ATOM     24  C   UNL     1      -4.623  24.899 -60.478  1.00  0.00    -0.000 C 
BRANCH  24  25
ATOM     25  C   UNL     1      -4.268  24.166 -59.175  1.00  0.00    -0.000 C 
BRANCH  25  26
ATOM     26  C   UNL     1      -4.097  25.124 -57.986  1.00  0.00    -0.000 C 
BRANCH  26  27
ATOM     27  C   UNL     1      -4.866  24.613 -56.757  1.00  0.00    -0.000 C 
BRANCH  27  28
ATOM     28  C   UNL     1      -3.988  23.779 -55.812  1.00  0.00    -0.000 C 
BRANCH  28  29
ATOM     29  C   UNL     1      -4.399  22.300 -55.773  1.00  0.00    -0.003 C 
ATOM     30  C   UNL     1      -4.947  21.845 -57.122  1.00  0.00     0.004 C 
ENDBRANCH  28  29
ENDBRANCH  27  28
ENDBRANCH  26  27
ENDBRANCH  25  26
ENDBRANCH  24  25
ENDBRANCH  23  24
ENDBRANCH  22  23
ENDBRANCH  21  22
ENDBRANCH  20  21
ENDBRANCH  19  20
ENDBRANCH  18  19
ENDBRANCH  17  18
ENDBRANCH   1  17
TORSDOF 26
ENDMDL
MODEL 6
REMARK VINA RESULT:    -2.597      1.586      2.281
REMARK INTER + INTRA:          -9.617
REMARK INTER:                  -7.538
REMARK INTRA:                  -2.079
REMARK UNBOUND:                -3.071
REMARK SMILES CCCCCCCCCCCCCCCCCCCCCCCCCCCC(=O)[O-]
REMARK SMILES IDX 15 1 16 2 17 3 18 4 19 5 20 6 21 7 22 8 23 9 24 10 25 11
REMARK SMILES IDX 26 12 27 13 28 14 29 15 30 16 14 17 13 18 12 19 11 20 10 21
REMARK SMILES IDX 9 22 8 23 7 24 6 25 5 26 4 27 3 28 2 29 1 30
REMARK H PARENT
REMARK Flexibility Score: inf
ROOT
ATOM      1  C   UNL     1      -0.821   6.973 -55.378  1.00  0.00     0.000 C 
ENDROOT
BRANCH   1   2
ATOM      2  C   UNL     1       0.289   5.942 -55.124  1.00  0.00     0.000 C 
BRANCH   2   3
ATOM      3  C   UNL     1       0.012   5.054 -53.897  1.00  0.00     0.000 C 
BRANCH   3   4
ATOM      4  C   UNL     1      -1.463   5.011 -53.446  1.00  0.00     0.000 C 
BRANCH   4   5
ATOM      5  C   UNL     1      -1.695   5.222 -51.936  1.00  0.00     0.000 C 
BRANCH   5   6
ATOM      6  C   UNL     1      -0.466   5.712 -51.149  1.00  0.00     0.000 C 
BRANCH   6   7
ATOM      7  C   UNL     1      -0.481   5.255 -49.680  1.00  0.00     0.000 C 
BRANCH   7   8
ATOM      8  C   UNL     1      -1.901   5.168 -49.100  1.00  0.00     0.000 C 
BRANCH   8   9
ATOM      9  C   UNL     1      -2.168   6.231 -48.016  1.00  0.00     0.000 C 
BRANCH   9  10
ATOM     10  C   UNL     1      -3.493   5.981 -47.265  1.00  0.00     0.000 C 
BRANCH  10  11
ATOM     11  C   UNL     1      -4.748   6.128 -48.144  1.00  0.00     0.000 C 
BRANCH  11  12
ATOM     12  C   UNL     1      -5.926   5.273 -47.659  1.00  0.00     0.006 C 
BRANCH  12  13
ATOM     13  C   UNL     1      -7.247   6.044 -47.766  1.00  0.00     0.053 C 
BRANCH  13  14
ATOM     14  C   UNL     1      -8.258   5.509 -46.801  1.00  0.00     0.041 C 
ATOM     15  O   UNL     1      -9.440   5.288 -47.177  1.00  0.00    -0.550 OA
ATOM     16  O   UNL     1      -7.901   5.272 -45.479  1.00  0.00    -0.550 OA
ENDBRANCH  13  14
ENDBRANCH  12  13
ENDBRANCH  11  12
ENDBRANCH  10  11
ENDBRANCH   9  10
ENDBRANCH   8   9
ENDBRANCH   7   8
ENDBRANCH   6   7
ENDBRANCH   5   6
ENDBRANCH   4   5
ENDBRANCH   3   4
ENDBRANCH   2   3
ENDBRANCH   1   2
BRANCH   1  17
ATOM     17  C   UNL     1      -1.626   6.611 -56.635  1.00  0.00     0.000 C 
BRANCH  17  18
ATOM     18  C   UNL     1      -1.451   5.139 -57.052  1.00  0.00     0.000 C 
BRANCH  18  19
ATOM     19  C   UNL     1      -1.557   4.876 -58.569  1.00  0.00     0.000 C 
BRANCH  19  20
ATOM     20  C   UNL     1      -2.410   5.894 -59.353  1.00  0.00     0.000 C 
BRANCH  20  21
ATOM     21  C   UNL     1      -3.879   5.482 -59.570  1.00  0.00     0.000 C 
BRANCH  21  22
ATOM     22  C   UNL     1      -4.575   4.876 -58.338  1.00  0.00    -0.000 C 
BRANCH  22  23
ATOM     23  C   UNL     1      -5.927   5.536 -58.030  1.00  0.00    -0.000 C 
BRANCH  23  24
ATOM     24  C   UNL     1      -5.899   6.232 -56.661  1.00  0.00    -0.000 C 
BRANCH  24  25
ATOM     25  C   UNL     1      -4.630   7.071 -56.450  1.00  0.00    -0.000 C 
BRANCH  25  26
ATOM     26  C   UNL     1      -4.874   8.574 -56.655  1.00  0.00    -0.000 C 
BRANCH  26  27
ATOM     27  C   UNL     1      -4.938   8.918 -58.152  1.00  0.00    -0.000 C 
BRANCH  27  28
ATOM     28  C   UNL     1      -3.977  10.049 -58.544  1.00  0.00    -0.000 C 
BRANCH  28  29
ATOM     29  C   UNL     1      -2.966   9.622 -59.619  1.00  0.00    -0.003 C 
ATOM     30  C   UNL     1      -1.714   9.019 -58.988  1.00  0.00     0.004 C 
ENDBRANCH  28  29
ENDBRANCH  27  28
ENDBRANCH  26  27
ENDBRANCH  25  26
ENDBRANCH  24  25
ENDBRANCH  23  24
ENDBRANCH  22  23
ENDBRANCH  21  22
ENDBRANCH  20  21
ENDBRANCH  19  20
ENDBRANCH  18  19
ENDBRANCH  17  18
ENDBRANCH   1  17
TORSDOF 26
ENDMDL
