MODEL 1
REMARK VINA RESULT:    -3.014      0.000      0.000
REMARK INTER + INTRA:          -3.584
REMARK INTER:                  -3.543
REMARK INTRA:                  -0.041
REMARK UNBOUND:                -0.041
REMARK SMILES O=C([O-])CCC(=O)[O-]
REMARK SMILES IDX 4 1 2 2 1 3 3 4 5 5 6 6 7 7 8 8
REMARK H PARENT
REMARK Flexibility Score: inf
ROOT
ATOM      1  C   UNL     1      23.720  -8.408   8.102  1.00  0.00     0.059 C 
ENDROOT
BRANCH   1   2
ATOM      2  C   UNL     1      23.797  -7.163   7.273  1.00  0.00     0.042 C 
ATOM      3  O   UNL     1      23.110  -6.153   7.580  1.00  0.00    -0.550 OA
ATOM      4  O   UNL     1      24.594  -7.132   6.136  1.00  0.00    -0.550 OA
ENDBRANCH   1   2
BRANCH   1   5
ATOM      5  C   UNL     1      24.816  -9.408   7.721  1.00  0.00     0.059 C 
BRANCH   5   6
ATOM      6  C   UNL     1      24.417 -10.814   8.048  1.00  0.00     0.042 C 
ATOM      7  O   UNL     1      25.175 -11.774   7.749  1.00  0.00    -0.550 OA
ATOM      8  O   UNL     1      23.190 -11.067   8.647  1.00  0.00    -0.550 OA
ENDBRANCH   5   6
ENDBRANCH   1   5
TORSDOF 3
ENDMDL
MODEL 2
REMARK VINA RESULT:    -2.999      0.105      4.374
REMARK INTER + INTRA:          -3.566
REMARK INTER:                  -3.526
REMARK INTRA:                  -0.040
REMARK UNBOUND:                -0.041
REMARK SMILES O=C([O-])CCC(=O)[O-]
REMARK SMILES IDX 4 1 2 2 1 3 3 4 5 5 6 6 7 7 8 8
REMARK H PARENT
REMARK Flexibility Score: inf
ROOT
ATOM      1  C   UNL     1      24.773  -9.391   7.702  1.00  0.00     0.059 C 
ENDROOT
BRANCH   1   2
ATOM      2  C   UNL     1      24.362 -10.770   8.114  1.00  0.00     0.042 C 
ATOM      3  O   UNL     1      25.072 -11.763   7.805  1.00  0.00    -0.550 OA
ATOM      4  O   UNL     1      23.172 -10.965   8.805  1.00  0.00    -0.550 OA
ENDBRANCH   1   2
BRANCH   1   5
ATOM      5  C   UNL     1      23.719  -8.349   8.087  1.00  0.00     0.059 C 
BRANCH   5   6
ATOM      6  C   UNL     1      23.807  -7.128   7.222  1.00  0.00     0.042 C 
ATOM      7  O   UNL     1      23.087  -6.125   7.466  1.00  0.00    -0.550 OA
ATOM      8  O   UNL     1      24.656  -7.117   6.123  1.00  0.00    -0.550 OA
ENDBRANCH   5   6
ENDBRANCH   1   5
TORSDOF 3
ENDMDL
MODEL 3
REMARK VINA RESULT:    -2.993      0.204      4.103
REMARK INTER + INTRA:          -3.559
REMARK INTER:                  -3.515
REMARK INTRA:                  -0.044
REMARK UNBOUND:                -0.041
REMARK SMILES O=C([O-])CCC(=O)[O-]
REMARK SMILES IDX 4 1 2 2 1 3 3 4 5 5 6 6 7 7 8 8
REMARK H PARENT
REMARK Flexibility Score: inf
ROOT
ATOM      1  C   UNL     1      24.738  -9.375   7.688  1.00  0.00     0.059 C 
ENDROOT
BRANCH   1   2
ATOM      2  C   UNL     1      24.346 -10.785   8.005  1.00  0.00     0.042 C 
ATOM      3  O   UNL     1      23.331 -11.016   8.715  1.00  0.00    -0.550 OA
ATOM      4  O   UNL     1      25.124 -11.843   7.553  1.00  0.00    -0.550 OA
ENDBRANCH   1   2
BRANCH   1   5
ATOM      5  C   UNL     1      23.685  -8.374   8.171  1.00  0.00     0.059 C 
BRANCH   5   6
ATOM      6  C   UNL     1      23.751  -7.089   7.402  1.00  0.00     0.042 C 
ATOM      7  O   UNL     1      24.421  -7.021   6.338  1.00  0.00    -0.550 OA
ATOM      8  O   UNL     1      23.105  -5.958   7.883  1.00  0.00    -0.550 OA
ENDBRANCH   5   6
ENDBRANCH   1   5
TORSDOF 3
ENDMDL
MODEL 4
REMARK VINA RESULT:    -2.992      5.765      6.579
REMARK INTER + INTRA:          -3.558
REMARK INTER:                  -3.371
REMARK INTRA:                  -0.186
REMARK UNBOUND:                -0.041
REMARK SMILES O=C([O-])CCC(=O)[O-]
REMARK SMILES IDX 4 1 2 2 1 3 3 4 5 5 6 6 7 7 8 8
REMARK H PARENT
REMARK Flexibility Score: inf
ROOT
ATOM      1  C   UNL     1      21.892 -14.439   5.857  1.00  0.00     0.059 C 
ENDROOT
BRANCH   1   2
ATOM      2  C   UNL     1      23.360 -14.652   6.065  1.00  0.00     0.042 C 
ATOM      3  O   UNL     1      24.129 -13.666   6.218  1.00  0.00    -0.550 OA
ATOM      4  O   UNL     1      23.886 -15.937   6.050  1.00  0.00    -0.550 OA
ENDBRANCH   1   2
BRANCH   1   5
ATOM      5  C   UNL     1      21.063 -15.127   6.945  1.00  0.00     0.059 C 
BRANCH   5   6
ATOM      6  C   UNL     1      21.395 -14.601   8.308  1.00  0.00     0.042 C 
ATOM      7  O   UNL     1      21.731 -15.392   9.228  1.00  0.00    -0.550 OA
ATOM      8  O   UNL     1      21.294 -13.241   8.571  1.00  0.00    -0.550 OA
ENDBRANCH   5   6
ENDBRANCH   1   5
TORSDOF 3
ENDMDL
MODEL 5
REMARK VINA RESULT:    -2.987      5.795      6.692
REMARK INTER + INTRA:          -3.552
REMARK INTER:                  -3.363
REMARK INTRA:                  -0.188
REMARK UNBOUND:                -0.041
REMARK SMILES O=C([O-])CCC(=O)[O-]
REMARK SMILES IDX 4 1 2 2 1 3 3 4 5 5 6 6 7 7 8 8
REMARK H PARENT
REMARK Flexibility Score: inf
ROOT
ATOM      1  C   UNL     1      21.062 -15.133   6.892  1.00  0.00     0.059 C 
ENDROOT
BRANCH   1   2
ATOM      2  C   UNL     1      21.425 -14.653   8.263  1.00  0.00     0.042 C 
ATOM      3  O   UNL     1      21.773 -15.474   9.152  1.00  0.00    -0.550 OA
ATOM      4  O   UNL     1      21.341 -13.301   8.572  1.00  0.00    -0.550 OA
ENDBRANCH   1   2
BRANCH   1   5
ATOM      5  C   UNL     1      21.908 -14.451   5.813  1.00  0.00     0.059 C 
BRANCH   5   6
ATOM      6  C   UNL     1      23.372 -14.675   6.035  1.00  0.00     0.042 C 
ATOM      7  O   UNL     1      24.151 -13.695   6.171  1.00  0.00    -0.550 OA
ATOM      8  O   UNL     1      23.882 -15.967   6.052  1.00  0.00    -0.550 OA
ENDBRANCH   5   6
ENDBRANCH   1   5
TORSDOF 3
ENDMDL
MODEL 6
REMARK VINA RESULT:    -2.976      1.250      1.810
REMARK INTER + INTRA:          -3.539
REMARK INTER:                  -3.500
REMARK INTRA:                  -0.040
REMARK UNBOUND:                -0.041
REMARK SMILES O=C([O-])CCC(=O)[O-]
REMARK SMILES IDX 4 1 2 2 1 3 3 4 5 5 6 6 7 7 8 8
REMARK H PARENT
REMARK Flexibility Score: inf
ROOT
ATOM      1  C   UNL     1      24.473  -7.391   7.152  1.00  0.00     0.059 C 
ENDROOT
BRANCH   1   2
ATOM      2  C   UNL     1      24.024  -5.974   7.330  1.00  0.00     0.042 C 
ATOM      3  O   UNL     1      23.031  -5.709   8.059  1.00  0.00    -0.550 OA
ATOM      4  O   UNL     1      24.676  -4.947   6.659  1.00  0.00    -0.550 OA
ENDBRANCH   1   2
BRANCH   1   5
ATOM      5  C   UNL     1      23.674  -8.352   8.038  1.00  0.00     0.059 C 
BRANCH   5   6
ATOM      6  C   UNL     1      24.376  -9.665   8.201  1.00  0.00     0.042 C 
ATOM      7  O   UNL     1      23.823 -10.607   8.828  1.00  0.00    -0.550 OA
ATOM      8  O   UNL     1      25.658  -9.834   7.695  1.00  0.00    -0.550 OA
ENDBRANCH   5   6
ENDBRANCH   1   5
TORSDOF 3
ENDMDL
MODEL 7
REMARK VINA RESULT:    -2.869      6.760      7.624
REMARK INTER + INTRA:          -3.413
REMARK INTER:                  -3.230
REMARK INTRA:                  -0.183
REMARK UNBOUND:                -0.041
REMARK SMILES O=C([O-])CCC(=O)[O-]
REMARK SMILES IDX 4 1 2 2 1 3 3 4 5 5 6 6 7 7 8 8
REMARK H PARENT
REMARK Flexibility Score: inf
ROOT
ATOM      1  C   UNL     1      25.236  -2.349  10.351  1.00  0.00     0.059 C 
ENDROOT
BRANCH   1   2
ATOM      2  C   UNL     1      25.523  -2.230   8.885  1.00  0.00     0.042 C 
ATOM      3  O   UNL     1      25.776  -1.106   8.377  1.00  0.00    -0.550 OA
ATOM      4  O   UNL     1      25.470  -3.355   8.073  1.00  0.00    -0.550 OA
ENDBRANCH   1   2
BRANCH   1   5
ATOM      5  C   UNL     1      23.983  -1.562  10.746  1.00  0.00     0.059 C 
BRANCH   5   6
ATOM      6  C   UNL     1      22.767  -2.064  10.027  1.00  0.00     0.042 C 
ATOM      7  O   UNL     1      22.017  -1.260   9.413  1.00  0.00    -0.550 OA
ATOM      8  O   UNL     1      22.442  -3.413  10.071  1.00  0.00    -0.550 OA
ENDBRANCH   5   6
ENDBRANCH   1   5
TORSDOF 3
ENDMDL
MODEL 8
REMARK VINA RESULT:    -2.865      6.767      7.627
REMARK INTER + INTRA:          -3.408
REMARK INTER:                  -3.231
REMARK INTRA:                  -0.177
REMARK UNBOUND:                -0.041
REMARK SMILES O=C([O-])CCC(=O)[O-]
REMARK SMILES IDX 4 1 2 2 1 3 3 4 5 5 6 6 7 7 8 8
REMARK H PARENT
REMARK Flexibility Score: inf
ROOT
ATOM      1  C   UNL     1      23.990  -1.511  10.759  1.00  0.00     0.059 C 
ENDROOT
BRANCH   1   2
ATOM      2  C   UNL     1      22.754  -2.037  10.095  1.00  0.00     0.042 C 
ATOM      3  O   UNL     1      22.013  -1.265   9.431  1.00  0.00    -0.550 OA
ATOM      4  O   UNL     1      22.398  -3.371  10.244  1.00  0.00    -0.550 OA
ENDBRANCH   1   2
BRANCH   1   5
ATOM      5  C   UNL     1      25.222  -2.347  10.401  1.00  0.00     0.059 C 
BRANCH   5   6
ATOM      6  C   UNL     1      25.525  -2.282   8.935  1.00  0.00     0.042 C 
ATOM      7  O   UNL     1      25.464  -3.322   8.228  1.00  0.00    -0.550 OA
ATOM      8  O   UNL     1      25.915  -1.080   8.359  1.00  0.00    -0.550 OA
ENDBRANCH   5   6
ENDBRANCH   1   5
TORSDOF 3
ENDMDL
MODEL 9
REMARK VINA RESULT:    -2.833      6.116      7.272
REMARK INTER + INTRA:          -3.371
REMARK INTER:                  -3.341
REMARK INTRA:                  -0.030
REMARK UNBOUND:                -0.041
REMARK SMILES O=C([O-])CCC(=O)[O-]
REMARK SMILES IDX 4 1 2 2 1 3 3 4 5 5 6 6 7 7 8 8
REMARK H PARENT
REMARK Flexibility Score: inf
ROOT
ATOM      1  C   UNL     1      21.087 -15.067   6.871  1.00  0.00     0.059 C 
ENDROOT
BRANCH   1   2
ATOM      2  C   UNL     1      21.449 -14.682   8.272  1.00  0.00     0.042 C 
ATOM      3  O   UNL     1      21.742 -15.568   9.118  1.00  0.00    -0.550 OA
ATOM      4  O   UNL     1      21.423 -13.347   8.656  1.00  0.00    -0.550 OA
ENDBRANCH   1   2
BRANCH   1   5
ATOM      5  C   UNL     1      22.048 -14.449   5.850  1.00  0.00     0.059 C 
BRANCH   5   6
ATOM      6  C   UNL     1      22.005 -15.178   4.542  1.00  0.00     0.042 C 
ATOM      7  O   UNL     1      21.841 -14.543   3.467  1.00  0.00    -0.550 OA
ATOM      8  O   UNL     1      22.105 -16.563   4.515  1.00  0.00    -0.550 OA
ENDBRANCH   5   6
ENDBRANCH   1   5
TORSDOF 3
ENDMDL
