MODEL 1
REMARK VINA RESULT:    -4.144      0.000      0.000
REMARK INTER + INTRA:         -11.899
REMARK INTER:                  -8.990
REMARK INTRA:                  -2.910
REMARK UNBOUND:                -2.910
REMARK SMILES CCCCCCCCCCCCCCCCCCCCCC(=O)[O-]
REMARK SMILES IDX 12 1 11 2 10 3 9 4 8 5 7 6 6 7 5 8 4 9 3 10 2 11 1 12 13 13
REMARK SMILES IDX 14 14 15 15 16 16 17 17 18 18 19 19 20 20 21 21 22 22 23 23
REMARK SMILES IDX 24 24
REMARK H PARENT
REMARK Flexibility Score: inf
ROOT
ATOM      1  C   UNL     1      17.719  36.728  32.625  1.00  0.00     0.000 C 
ENDROOT
BRANCH   1   2
ATOM      2  C   UNL     1      18.264  37.162  33.997  1.00  0.00     0.000 C 
BRANCH   2   3
ATOM      3  C   UNL     1      17.326  38.130  34.738  1.00  0.00     0.000 C 
BRANCH   3   4
ATOM      4  C   UNL     1      17.829  39.586  34.712  1.00  0.00    -0.000 C 
BRANCH   4   5
ATOM      5  C   UNL     1      17.191  40.474  33.627  1.00  0.00    -0.000 C 
BRANCH   5   6
ATOM      6  C   UNL     1      17.933  40.490  32.276  1.00  0.00    -0.000 C 
BRANCH   6   7
ATOM      7  C   UNL     1      16.999  40.355  31.051  1.00  0.00    -0.000 C 
BRANCH   7   8
ATOM      8  C   UNL     1      17.745  40.122  29.725  1.00  0.00    -0.000 C 
BRANCH   8   9
ATOM      9  C   UNL     1      17.026  40.763  28.524  1.00  0.00    -0.000 C 
BRANCH   9  10
ATOM     10  C   UNL     1      15.821  39.921  28.054  1.00  0.00    -0.000 C 
BRANCH  10  11
ATOM     11  C   UNL     1      14.528  40.737  27.885  1.00  0.00    -0.003 C 
ATOM     12  C   UNL     1      13.788  40.963  29.202  1.00  0.00     0.004 C 
ENDBRANCH  10  11
ENDBRANCH   9  10
ENDBRANCH   8   9
ENDBRANCH   7   8
ENDBRANCH   6   7
ENDBRANCH   5   6
ENDBRANCH   4   5
ENDBRANCH   3   4
ENDBRANCH   2   3
ENDBRANCH   1   2
BRANCH   1  13
ATOM     13  C   UNL     1      18.685  36.925  31.441  1.00  0.00     0.000 C 
BRANCH  13  14
ATOM     14  C   UNL     1      20.162  36.893  31.859  1.00  0.00     0.000 C 
BRANCH  14  15
ATOM     15  C   UNL     1      20.897  38.152  31.371  1.00  0.00     0.000 C 
BRANCH  15  16
ATOM     16  C   UNL     1      21.960  38.641  32.367  1.00  0.00     0.000 C 
BRANCH  16  17
ATOM     17  C   UNL     1      21.397  38.828  33.787  1.00  0.00     0.000 C 
BRANCH  17  18
ATOM     18  C   UNL     1      22.216  38.076  34.850  1.00  0.00     0.000 C 
BRANCH  18  19
ATOM     19  C   UNL     1      21.550  36.760  35.291  1.00  0.00     0.000 C 
BRANCH  19  20
ATOM     20  C   UNL     1      22.169  36.188  36.575  1.00  0.00     0.006 C 
BRANCH  20  21
ATOM     21  C   UNL     1      22.747  37.278  37.488  1.00  0.00     0.053 C 
BRANCH  21  22
ATOM     22  C   UNL     1      21.914  37.421  38.722  1.00  0.00     0.041 C 
ATOM     23  O   UNL     1      22.460  37.672  39.829  1.00  0.00    -0.550 OA
ATOM     24  O   UNL     1      20.540  37.226  38.660  1.00  0.00    -0.550 OA
ENDBRANCH  21  22
ENDBRANCH  20  21
ENDBRANCH  19  20
ENDBRANCH  18  19
ENDBRANCH  17  18
ENDBRANCH  16  17
ENDBRANCH  15  16
ENDBRANCH  14  15
ENDBRANCH  13  14
ENDBRANCH   1  13
TORSDOF 20
ENDMDL
MODEL 2
REMARK VINA RESULT:    -4.129      6.530      9.066
REMARK INTER + INTRA:         -11.866
REMARK INTER:                  -8.039
REMARK INTRA:                  -3.827
REMARK UNBOUND:                -2.910
REMARK SMILES CCCCCCCCCCCCCCCCCCCCCC(=O)[O-]
REMARK SMILES IDX 12 1 11 2 10 3 9 4 8 5 7 6 6 7 5 8 4 9 3 10 2 11 1 12 13 13
REMARK SMILES IDX 14 14 15 15 16 16 17 17 18 18 19 19 20 20 21 21 22 22 23 23
REMARK SMILES IDX 24 24
REMARK H PARENT
REMARK Flexibility Score: inf
ROOT
ATOM      1  C   UNL     1      14.653  40.424  27.269  1.00  0.00     0.000 C 
ENDROOT
BRANCH   1   2
ATOM      2  C   UNL     1      14.382  40.718  28.755  1.00  0.00     0.000 C 
BRANCH   2   3
ATOM      3  C   UNL     1      15.575  40.371  29.663  1.00  0.00     0.000 C 
BRANCH   3   4
ATOM      4  C   UNL     1      16.935  40.641  28.990  1.00  0.00    -0.000 C 
BRANCH   4   5
ATOM      5  C   UNL     1      17.951  39.489  29.099  1.00  0.00    -0.000 C 
BRANCH   5   6
ATOM      6  C   UNL     1      17.363  38.078  28.903  1.00  0.00    -0.000 C 
BRANCH   6   7
ATOM      7  C   UNL     1      18.418  37.009  28.537  1.00  0.00    -0.000 C 
BRANCH   7   8
ATOM      8  C   UNL     1      17.874  35.569  28.555  1.00  0.00    -0.000 C 
BRANCH   8   9
ATOM      9  C   UNL     1      16.481  35.458  27.911  1.00  0.00    -0.000 C 
BRANCH   9  10
ATOM     10  C   UNL     1      16.502  34.603  26.626  1.00  0.00    -0.000 C 
BRANCH  10  11
ATOM     11  C   UNL     1      15.307  34.863  25.693  1.00  0.00    -0.003 C 
ATOM     12  C   UNL     1      15.708  34.967  24.223  1.00  0.00     0.004 C 
ENDBRANCH  10  11
ENDBRANCH   9  10
ENDBRANCH   8   9
ENDBRANCH   7   8
ENDBRANCH   6   7
ENDBRANCH   5   6
ENDBRANCH   4   5
ENDBRANCH   3   4
ENDBRANCH   2   3
ENDBRANCH   1   2
BRANCH   1  13
ATOM     13  C   UNL     1      14.453  38.957  26.841  1.00  0.00     0.000 C 
BRANCH  13  14
ATOM     14  C   UNL     1      15.439  38.508  25.754  1.00  0.00     0.000 C 
BRANCH  14  15
ATOM     15  C   UNL     1      16.400  39.648  25.381  1.00  0.00     0.000 C 
BRANCH  15  16
ATOM     16  C   UNL     1      17.867  39.193  25.326  1.00  0.00     0.000 C 
BRANCH  16  17
ATOM     17  C   UNL     1      18.007  37.670  25.159  1.00  0.00     0.000 C 
BRANCH  17  18
ATOM     18  C   UNL     1      19.381  37.261  24.603  1.00  0.00     0.000 C 
BRANCH  18  19
ATOM     19  C   UNL     1      19.377  35.850  23.986  1.00  0.00     0.000 C 
BRANCH  19  20
ATOM     20  C   UNL     1      19.854  34.774  24.973  1.00  0.00     0.006 C 
BRANCH  20  21
ATOM     21  C   UNL     1      20.866  33.806  24.346  1.00  0.00     0.053 C 
BRANCH  21  22
ATOM     22  C   UNL     1      20.897  32.518  25.107  1.00  0.00     0.041 C 
ATOM     23  O   UNL     1      21.069  31.428  24.500  1.00  0.00    -0.550 OA
ATOM     24  O   UNL     1      20.685  32.517  26.480  1.00  0.00    -0.550 OA
ENDBRANCH  21  22
ENDBRANCH  20  21
ENDBRANCH  19  20
ENDBRANCH  18  19
ENDBRANCH  17  18
ENDBRANCH  16  17
ENDBRANCH  15  16
ENDBRANCH  14  15
ENDBRANCH  13  14
ENDBRANCH   1  13
TORSDOF 20
ENDMDL
MODEL 3
REMARK VINA RESULT:    -4.111      4.098      7.755
REMARK INTER + INTRA:         -11.826
REMARK INTER:                  -8.193
REMARK INTRA:                  -3.634
REMARK UNBOUND:                -2.910
REMARK SMILES CCCCCCCCCCCCCCCCCCCCCC(=O)[O-]
REMARK SMILES IDX 12 1 11 2 10 3 9 4 8 5 7 6 6 7 5 8 4 9 3 10 2 11 1 12 13 13
REMARK SMILES IDX 14 14 15 15 16 16 17 17 18 18 19 19 20 20 21 21 22 22 23 23
REMARK SMILES IDX 24 24
REMARK H PARENT
REMARK Flexibility Score: inf
ROOT
ATOM      1  C   UNL     1      17.429  37.197  33.504  1.00  0.00     0.000 C 
ENDROOT
BRANCH   1   2
ATOM      2  C   UNL     1      18.844  36.592  33.538  1.00  0.00     0.000 C 
BRANCH   2   3
ATOM      3  C   UNL     1      19.676  37.078  34.738  1.00  0.00     0.000 C 
BRANCH   3   4
ATOM      4  C   UNL     1      21.192  36.923  34.514  1.00  0.00    -0.000 C 
BRANCH   4   5
ATOM      5  C   UNL     1      22.049  38.084  35.053  1.00  0.00    -0.000 C 
BRANCH   5   6
ATOM      6  C   UNL     1      21.731  38.514  36.499  1.00  0.00    -0.000 C 
BRANCH   6   7
ATOM      7  C   UNL     1      20.820  39.760  36.592  1.00  0.00    -0.000 C 
BRANCH   7   8
ATOM      8  C   UNL     1      19.636  39.592  37.561  1.00  0.00    -0.000 C 
BRANCH   8   9
ATOM      9  C   UNL     1      19.468  38.139  38.039  1.00  0.00    -0.000 C 
BRANCH   9  10
ATOM     10  C   UNL     1      19.251  38.052  39.565  1.00  0.00    -0.000 C 
BRANCH  10  11
ATOM     11  C   UNL     1      20.253  38.888  40.379  1.00  0.00    -0.003 C 
ATOM     12  C   UNL     1      21.686  38.368  40.277  1.00  0.00     0.004 C 
ENDBRANCH  10  11
ENDBRANCH   9  10
ENDBRANCH   8   9
ENDBRANCH   7   8
ENDBRANCH   6   7
ENDBRANCH   5   6
ENDBRANCH   4   5
ENDBRANCH   3   4
ENDBRANCH   2   3
ENDBRANCH   1   2
BRANCH   1  13
ATOM     13  C   UNL     1      17.084  38.129  34.681  1.00  0.00     0.000 C 
BRANCH  13  14
ATOM     14  C   UNL     1      16.828  39.579  34.246  1.00  0.00     0.000 C 
BRANCH  14  15
ATOM     15  C   UNL     1      18.137  40.383  34.226  1.00  0.00     0.000 C 
BRANCH  15  16
ATOM     16  C   UNL     1      18.683  40.594  32.805  1.00  0.00     0.000 C 
BRANCH  16  17
ATOM     17  C   UNL     1      20.148  40.145  32.662  1.00  0.00     0.000 C 
BRANCH  17  18
ATOM     18  C   UNL     1      20.468  39.616  31.254  1.00  0.00     0.000 C 
BRANCH  18  19
ATOM     19  C   UNL     1      21.286  38.312  31.282  1.00  0.00     0.000 C 
BRANCH  19  20
ATOM     20  C   UNL     1      20.624  37.183  30.476  1.00  0.00     0.006 C 
BRANCH  20  21
ATOM     21  C   UNL     1      19.178  37.511  30.081  1.00  0.00     0.053 C 
BRANCH  21  22
ATOM     22  C   UNL     1      18.869  36.956  28.726  1.00  0.00     0.041 C 
ATOM     23  O   UNL     1      18.296  37.673  27.863  1.00  0.00    -0.550 OA
ATOM     24  O   UNL     1      19.167  35.631  28.434  1.00  0.00    -0.550 OA
ENDBRANCH  21  22
ENDBRANCH  20  21
ENDBRANCH  19  20
ENDBRANCH  18  19
ENDBRANCH  17  18
ENDBRANCH  16  17
ENDBRANCH  15  16
ENDBRANCH  14  15
ENDBRANCH  13  14
ENDBRANCH   1  13
TORSDOF 20
ENDMDL
MODEL 4
REMARK VINA RESULT:    -4.100      3.881      8.241
REMARK INTER + INTRA:         -11.803
REMARK INTER:                  -8.325
REMARK INTRA:                  -3.478
REMARK UNBOUND:                -2.910
REMARK SMILES CCCCCCCCCCCCCCCCCCCCCC(=O)[O-]
REMARK SMILES IDX 12 1 11 2 10 3 9 4 8 5 7 6 6 7 5 8 4 9 3 10 2 11 1 12 13 13
REMARK SMILES IDX 14 14 15 15 16 16 17 17 18 18 19 19 20 20 21 21 22 22 23 23
REMARK SMILES IDX 24 24
REMARK H PARENT
REMARK Flexibility Score: inf
ROOT
ATOM      1  C   UNL     1      16.727  36.604  33.235  1.00  0.00     0.000 C 
ENDROOT
BRANCH   1   2
ATOM      2  C   UNL     1      18.200  36.463  32.811  1.00  0.00     0.000 C 
BRANCH   2   3
ATOM      3  C   UNL     1      18.498  37.114  31.450  1.00  0.00     0.000 C 
BRANCH   3   4
ATOM      4  C   UNL     1      20.001  37.371  31.228  1.00  0.00    -0.000 C 
BRANCH   4   5
ATOM      5  C   UNL     1      20.550  38.639  31.911  1.00  0.00    -0.000 C 
BRANCH   5   6
ATOM      6  C   UNL     1      21.815  38.425  32.765  1.00  0.00    -0.000 C 
BRANCH   6   7
ATOM      7  C   UNL     1      21.536  38.362  34.284  1.00  0.00    -0.000 C 
BRANCH   7   8
ATOM      8  C   UNL     1      21.188  36.951  34.793  1.00  0.00    -0.000 C 
BRANCH   8   9
ATOM      9  C   UNL     1      21.429  36.794  36.305  1.00  0.00    -0.000 C 
BRANCH   9  10
ATOM     10  C   UNL     1      20.882  37.995  37.107  1.00  0.00    -0.000 C 
BRANCH  10  11
ATOM     11  C   UNL     1      20.330  37.612  38.490  1.00  0.00    -0.003 C 
ATOM     12  C   UNL     1      18.899  38.094  38.716  1.00  0.00     0.004 C 
ENDBRANCH  10  11
ENDBRANCH   9  10
ENDBRANCH   8   9
ENDBRANCH   7   8
ENDBRANCH   6   7
ENDBRANCH   5   6
ENDBRANCH   4   5
ENDBRANCH   3   4
ENDBRANCH   2   3
ENDBRANCH   1   2
BRANCH   1  13
ATOM     13  C   UNL     1      16.443  37.714  34.265  1.00  0.00     0.000 C 
BRANCH  13  14
ATOM     14  C   UNL     1      17.679  38.097  35.092  1.00  0.00     0.000 C 
BRANCH  14  15
ATOM     15  C   UNL     1      18.003  39.591  34.934  1.00  0.00     0.000 C 
BRANCH  15  16
ATOM     16  C   UNL     1      17.030  40.311  33.987  1.00  0.00     0.000 C 
BRANCH  16  17
ATOM     17  C   UNL     1      17.725  40.847  32.722  1.00  0.00     0.000 C 
BRANCH  17  18
ATOM     18  C   UNL     1      16.991  40.448  31.431  1.00  0.00     0.000 C 
BRANCH  18  19
ATOM     19  C   UNL     1      17.764  40.846  30.161  1.00  0.00     0.000 C 
BRANCH  19  20
ATOM     20  C   UNL     1      17.281  40.088  28.915  1.00  0.00     0.006 C 
BRANCH  20  21
ATOM     21  C   UNL     1      15.818  40.397  28.568  1.00  0.00     0.053 C 
BRANCH  21  22
ATOM     22  C   UNL     1      15.229  39.285  27.758  1.00  0.00     0.041 C 
ATOM     23  O   UNL     1      14.055  39.380  27.312  1.00  0.00    -0.550 OA
ATOM     24  O   UNL     1      15.957  38.122  27.540  1.00  0.00    -0.550 OA
ENDBRANCH  21  22
ENDBRANCH  20  21
ENDBRANCH  19  20
ENDBRANCH  18  19
ENDBRANCH  17  18
ENDBRANCH  16  17
ENDBRANCH  15  16
ENDBRANCH  14  15
ENDBRANCH  13  14
ENDBRANCH   1  13
TORSDOF 20
ENDMDL
MODEL 5
REMARK VINA RESULT:    -4.094      4.533      8.345
REMARK INTER + INTRA:         -11.790
REMARK INTER:                  -9.218
REMARK INTRA:                  -2.571
REMARK UNBOUND:                -2.910
REMARK SMILES CCCCCCCCCCCCCCCCCCCCCC(=O)[O-]
REMARK SMILES IDX 12 1 11 2 10 3 9 4 8 5 7 6 6 7 5 8 4 9 3 10 2 11 1 12 13 13
REMARK SMILES IDX 14 14 15 15 16 16 17 17 18 18 19 19 20 20 21 21 22 22 23 23
REMARK SMILES IDX 24 24
REMARK H PARENT
REMARK Flexibility Score: inf
ROOT
ATOM      1  C   UNL     1      16.216  40.375  31.404  1.00  0.00     0.000 C 
ENDROOT
BRANCH   1   2
ATOM      2  C   UNL     1      15.047  40.380  32.405  1.00  0.00     0.000 C 
BRANCH   2   3
ATOM      3  C   UNL     1      15.276  39.440  33.601  1.00  0.00     0.000 C 
BRANCH   3   4
ATOM      4  C   UNL     1      16.731  39.461  34.107  1.00  0.00    -0.000 C 
BRANCH   4   5
ATOM      5  C   UNL     1      17.219  38.140  34.731  1.00  0.00    -0.000 C 
BRANCH   5   6
ATOM      6  C   UNL     1      18.539  37.593  34.152  1.00  0.00    -0.000 C 
BRANCH   6   7
ATOM      7  C   UNL     1      18.354  36.354  33.246  1.00  0.00    -0.000 C 
BRANCH   7   8
ATOM      8  C   UNL     1      17.928  36.696  31.806  1.00  0.00    -0.000 C 
BRANCH   8   9
ATOM      9  C   UNL     1      18.909  37.660  31.116  1.00  0.00    -0.000 C 
BRANCH   9  10
ATOM     10  C   UNL     1      19.693  36.973  29.977  1.00  0.00    -0.000 C 
BRANCH  10  11
ATOM     11  C   UNL     1      18.834  36.663  28.739  1.00  0.00    -0.003 C 
ATOM     12  C   UNL     1      18.209  37.910  28.117  1.00  0.00     0.004 C 
ENDBRANCH  10  11
ENDBRANCH   9  10
ENDBRANCH   8   9
ENDBRANCH   7   8
ENDBRANCH   6   7
ENDBRANCH   5   6
ENDBRANCH   4   5
ENDBRANCH   3   4
ENDBRANCH   2   3
ENDBRANCH   1   2
BRANCH   1  13
ATOM     13  C   UNL     1      15.809  40.372  29.918  1.00  0.00     0.000 C 
BRANCH  13  14
ATOM     14  C   UNL     1      14.340  40.763  29.696  1.00  0.00     0.000 C 
BRANCH  14  15
ATOM     15  C   UNL     1      14.010  40.822  28.197  1.00  0.00     0.000 C 
BRANCH  15  16
ATOM     16  C   UNL     1      15.249  41.084  27.326  1.00  0.00     0.000 C 
BRANCH  16  17
ATOM     17  C   UNL     1      15.592  39.893  26.413  1.00  0.00     0.000 C 
BRANCH  17  18
ATOM     18  C   UNL     1      14.506  38.805  26.430  1.00  0.00     0.000 C 
BRANCH  18  19
ATOM     19  C   UNL     1      14.689  37.765  25.309  1.00  0.00     0.000 C 
BRANCH  19  20
ATOM     20  C   UNL     1      14.620  36.321  25.827  1.00  0.00     0.006 C 
BRANCH  20  21
ATOM     21  C   UNL     1      15.146  36.184  27.262  1.00  0.00     0.053 C 
BRANCH  21  22
ATOM     22  C   UNL     1      15.786  34.846  27.458  1.00  0.00     0.041 C 
ATOM     23  O   UNL     1      15.376  34.073  28.364  1.00  0.00    -0.550 OA
ATOM     24  O   UNL     1      16.869  34.472  26.672  1.00  0.00    -0.550 OA
ENDBRANCH  21  22
ENDBRANCH  20  21
ENDBRANCH  19  20
ENDBRANCH  18  19
ENDBRANCH  17  18
ENDBRANCH  16  17
ENDBRANCH  15  16
ENDBRANCH  14  15
ENDBRANCH  13  14
ENDBRANCH   1  13
TORSDOF 20
ENDMDL
MODEL 6
REMARK VINA RESULT:    -4.088      4.126      8.469
REMARK INTER + INTRA:         -11.777
REMARK INTER:                  -8.708
REMARK INTRA:                  -3.070
REMARK UNBOUND:                -2.910
REMARK SMILES CCCCCCCCCCCCCCCCCCCCCC(=O)[O-]
REMARK SMILES IDX 12 1 11 2 10 3 9 4 8 5 7 6 6 7 5 8 4 9 3 10 2 11 1 12 13 13
REMARK SMILES IDX 14 14 15 15 16 16 17 17 18 18 19 19 20 20 21 21 22 22 23 23
REMARK SMILES IDX 24 24
REMARK H PARENT
REMARK Flexibility Score: inf
ROOT
ATOM      1  C   UNL     1      16.811  37.747  34.261  1.00  0.00     0.000 C 
ENDROOT
BRANCH   1   2
ATOM      2  C   UNL     1      17.889  38.112  35.298  1.00  0.00     0.000 C 
BRANCH   2   3
ATOM      3  C   UNL     1      18.521  39.492  35.047  1.00  0.00     0.000 C 
BRANCH   3   4
ATOM      4  C   UNL     1      19.980  39.577  35.533  1.00  0.00    -0.000 C 
BRANCH   4   5
ATOM      5  C   UNL     1      21.037  39.194  34.479  1.00  0.00    -0.000 C 
BRANCH   5   6
ATOM      6  C   UNL     1      22.023  38.091  34.914  1.00  0.00    -0.000 C 
BRANCH   6   7
ATOM      7  C   UNL     1      21.339  36.874  35.577  1.00  0.00    -0.000 C 
BRANCH   7   8
ATOM      8  C   UNL     1      22.046  36.386  36.856  1.00  0.00    -0.000 C 
BRANCH   8   9
ATOM      9  C   UNL     1      21.172  36.555  38.112  1.00  0.00    -0.000 C 
BRANCH   9  10
ATOM     10  C   UNL     1      21.301  37.967  38.722  1.00  0.00    -0.000 C 
BRANCH  10  11
ATOM     11  C   UNL     1      19.950  38.665  38.952  1.00  0.00    -0.003 C 
ATOM     12  C   UNL     1      18.880  37.727  39.508  1.00  0.00     0.004 C 
ENDBRANCH  10  11
ENDBRANCH   9  10
ENDBRANCH   8   9
ENDBRANCH   7   8
ENDBRANCH   6   7
ENDBRANCH   5   6
ENDBRANCH   4   5
ENDBRANCH   3   4
ENDBRANCH   2   3
ENDBRANCH   1   2
BRANCH   1  13
ATOM     13  C   UNL     1      17.335  37.069  32.981  1.00  0.00     0.000 C 
BRANCH  13  14
ATOM     14  C   UNL     1      18.650  36.307  33.198  1.00  0.00     0.000 C 
BRANCH  14  15
ATOM     15  C   UNL     1      19.711  36.744  32.176  1.00  0.00     0.000 C 
BRANCH  15  16
ATOM     16  C   UNL     1      19.295  37.996  31.387  1.00  0.00     0.000 C 
BRANCH  16  17
ATOM     17  C   UNL     1      19.210  37.738  29.872  1.00  0.00     0.000 C 
BRANCH  17  18
ATOM     18  C   UNL     1      18.171  38.634  29.179  1.00  0.00     0.000 C 
BRANCH  18  19
ATOM     19  C   UNL     1      17.271  39.383  30.179  1.00  0.00     0.000 C 
BRANCH  19  20
ATOM     20  C   UNL     1      16.311  40.363  29.487  1.00  0.00     0.006 C 
BRANCH  20  21
ATOM     21  C   UNL     1      16.259  40.165  27.967  1.00  0.00     0.053 C 
BRANCH  21  22
ATOM     22  C   UNL     1      15.013  39.434  27.578  1.00  0.00     0.041 C 
ATOM     23  O   UNL     1      13.921  40.054  27.478  1.00  0.00    -0.550 OA
ATOM     24  O   UNL     1      15.047  38.060  27.376  1.00  0.00    -0.550 OA
ENDBRANCH  21  22
ENDBRANCH  20  21
ENDBRANCH  19  20
ENDBRANCH  18  19
ENDBRANCH  17  18
ENDBRANCH  16  17
ENDBRANCH  15  16
ENDBRANCH  14  15
ENDBRANCH  13  14
ENDBRANCH   1  13
TORSDOF 20
ENDMDL
MODEL 7
REMARK VINA RESULT:    -4.079      4.681      6.663
REMARK INTER + INTRA:         -11.757
REMARK INTER:                  -8.936
REMARK INTRA:                  -2.821
REMARK UNBOUND:                -2.910
REMARK SMILES CCCCCCCCCCCCCCCCCCCCCC(=O)[O-]
REMARK SMILES IDX 12 1 11 2 10 3 9 4 8 5 7 6 6 7 5 8 4 9 3 10 2 11 1 12 13 13
REMARK SMILES IDX 14 14 15 15 16 16 17 17 18 18 19 19 20 20 21 21 22 22 23 23
REMARK SMILES IDX 24 24
REMARK H PARENT
REMARK Flexibility Score: inf
ROOT
ATOM      1  C   UNL     1      16.673  37.731  34.025  1.00  0.00     0.000 C 
ENDROOT
BRANCH   1   2
ATOM      2  C   UNL     1      15.984  39.037  33.590  1.00  0.00     0.000 C 
BRANCH   2   3
ATOM      3  C   UNL     1      16.886  40.273  33.747  1.00  0.00     0.000 C 
BRANCH   3   4
ATOM      4  C   UNL     1      17.202  40.956  32.402  1.00  0.00    -0.000 C 
BRANCH   4   5
ATOM      5  C   UNL     1      17.592  39.995  31.263  1.00  0.00    -0.000 C 
BRANCH   5   6
ATOM      6  C   UNL     1      17.834  40.666  29.897  1.00  0.00    -0.000 C 
BRANCH   6   7
ATOM      7  C   UNL     1      17.076  39.992  28.730  1.00  0.00    -0.000 C 
BRANCH   7   8
ATOM      8  C   UNL     1      16.571  40.982  27.664  1.00  0.00    -0.000 C 
BRANCH   8   9
ATOM      9  C   UNL     1      15.350  40.447  26.896  1.00  0.00    -0.000 C 
BRANCH   9  10
ATOM     10  C   UNL     1      14.217  40.002  27.846  1.00  0.00    -0.000 C 
BRANCH  10  11
ATOM     11  C   UNL     1      13.705  41.125  28.763  1.00  0.00    -0.003 C 
ATOM     12  C   UNL     1      13.747  40.753  30.244  1.00  0.00     0.004 C 
ENDBRANCH  10  11
ENDBRANCH   9  10
ENDBRANCH   8   9
ENDBRANCH   7   8
ENDBRANCH   6   7
ENDBRANCH   5   6
ENDBRANCH   4   5
ENDBRANCH   3   4
ENDBRANCH   2   3
ENDBRANCH   1   2
BRANCH   1  13
ATOM     13  C   UNL     1      18.034  37.908  34.726  1.00  0.00     0.000 C 
BRANCH  13  14
ATOM     14  C   UNL     1      19.140  37.033  34.120  1.00  0.00     0.000 C 
BRANCH  14  15
ATOM     15  C   UNL     1      18.829  36.694  32.653  1.00  0.00     0.000 C 
BRANCH  15  16
ATOM     16  C   UNL     1      20.000  37.010  31.710  1.00  0.00     0.000 C 
BRANCH  16  17
ATOM     17  C   UNL     1      19.583  37.008  30.228  1.00  0.00     0.000 C 
BRANCH  17  18
ATOM     18  C   UNL     1      18.119  36.583  30.029  1.00  0.00     0.000 C 
BRANCH  18  19
ATOM     19  C   UNL     1      17.756  36.380  28.546  1.00  0.00     0.000 C 
BRANCH  19  20
ATOM     20  C   UNL     1      18.894  35.728  27.745  1.00  0.00     0.006 C 
BRANCH  20  21
ATOM     21  C   UNL     1      18.778  35.990  26.237  1.00  0.00     0.053 C 
BRANCH  21  22
ATOM     22  C   UNL     1      19.499  34.928  25.467  1.00  0.00     0.041 C 
ATOM     23  O   UNL     1      19.246  33.712  25.676  1.00  0.00    -0.550 OA
ATOM     24  O   UNL     1      20.485  35.280  24.555  1.00  0.00    -0.550 OA
ENDBRANCH  21  22
ENDBRANCH  20  21
ENDBRANCH  19  20
ENDBRANCH  18  19
ENDBRANCH  17  18
ENDBRANCH  16  17
ENDBRANCH  15  16
ENDBRANCH  14  15
ENDBRANCH  13  14
ENDBRANCH   1  13
TORSDOF 20
ENDMDL
MODEL 8
REMARK VINA RESULT:    -4.050      4.227      8.620
REMARK INTER + INTRA:         -11.696
REMARK INTER:                  -8.130
REMARK INTRA:                  -3.566
REMARK UNBOUND:                -2.910
REMARK SMILES CCCCCCCCCCCCCCCCCCCCCC(=O)[O-]
REMARK SMILES IDX 12 1 11 2 10 3 9 4 8 5 7 6 6 7 5 8 4 9 3 10 2 11 1 12 13 13
REMARK SMILES IDX 14 14 15 15 16 16 17 17 18 18 19 19 20 20 21 21 22 22 23 23
REMARK SMILES IDX 24 24
REMARK H PARENT
REMARK Flexibility Score: inf
ROOT
ATOM      1  C   UNL     1      19.398  36.913  31.142  1.00  0.00     0.000 C 
ENDROOT
BRANCH   1   2
ATOM      2  C   UNL     1      20.856  37.404  31.189  1.00  0.00     0.000 C 
BRANCH   2   3
ATOM      3  C   UNL     1      20.979  38.932  31.059  1.00  0.00     0.000 C 
BRANCH   3   4
ATOM      4  C   UNL     1      20.486  39.679  32.312  1.00  0.00    -0.000 C 
BRANCH   4   5
ATOM      5  C   UNL     1      19.185  40.481  32.119  1.00  0.00    -0.000 C 
BRANCH   5   6
ATOM      6  C   UNL     1      18.204  40.430  33.307  1.00  0.00    -0.000 C 
BRANCH   6   7
ATOM      7  C   UNL     1      17.140  39.314  33.187  1.00  0.00    -0.000 C 
BRANCH   7   8
ATOM      8  C   UNL     1      17.486  38.040  33.978  1.00  0.00    -0.000 C 
BRANCH   8   9
ATOM      9  C   UNL     1      17.789  38.330  35.459  1.00  0.00    -0.000 C 
BRANCH   9  10
ATOM     10  C   UNL     1      19.253  38.005  35.826  1.00  0.00    -0.000 C 
BRANCH  10  11
ATOM     11  C   UNL     1      19.951  37.082  34.813  1.00  0.00    -0.003 C 
ATOM     12  C   UNL     1      21.474  37.121  34.920  1.00  0.00     0.004 C 
ENDBRANCH  10  11
ENDBRANCH   9  10
ENDBRANCH   8   9
ENDBRANCH   7   8
ENDBRANCH   6   7
ENDBRANCH   5   6
ENDBRANCH   4   5
ENDBRANCH   3   4
ENDBRANCH   2   3
ENDBRANCH   1   2
BRANCH   1  13
ATOM     13  C   UNL     1      18.704  37.045  29.772  1.00  0.00     0.000 C 
BRANCH  13  14
ATOM     14  C   UNL     1      17.584  38.095  29.765  1.00  0.00     0.000 C 
BRANCH  14  15
ATOM     15  C   UNL     1      17.867  39.190  28.724  1.00  0.00     0.000 C 
BRANCH  15  16
ATOM     16  C   UNL     1      17.180  40.522  29.063  1.00  0.00     0.000 C 
BRANCH  16  17
ATOM     17  C   UNL     1      15.690  40.349  29.406  1.00  0.00     0.000 C 
BRANCH  17  18
ATOM     18  C   UNL     1      14.766  40.756  28.246  1.00  0.00     0.000 C 
BRANCH  18  19
ATOM     19  C   UNL     1      14.084  39.549  27.578  1.00  0.00     0.000 C 
BRANCH  19  20
ATOM     20  C   UNL     1      14.907  38.976  26.413  1.00  0.00     0.006 C 
BRANCH  20  21
ATOM     21  C   UNL     1      14.223  37.779  25.741  1.00  0.00     0.053 C 
BRANCH  21  22
ATOM     22  C   UNL     1      14.876  36.501  26.163  1.00  0.00     0.041 C 
ATOM     23  O   UNL     1      14.665  35.438  25.520  1.00  0.00    -0.550 OA
ATOM     24  O   UNL     1      15.676  36.471  27.298  1.00  0.00    -0.550 OA
ENDBRANCH  21  22
ENDBRANCH  20  21
ENDBRANCH  19  20
ENDBRANCH  18  19
ENDBRANCH  17  18
ENDBRANCH  16  17
ENDBRANCH  15  16
ENDBRANCH  14  15
ENDBRANCH  13  14
ENDBRANCH   1  13
TORSDOF 20
ENDMDL
MODEL 9
REMARK VINA RESULT:    -4.009      7.692     10.570
REMARK INTER + INTRA:         -11.607
REMARK INTER:                  -7.834
REMARK INTRA:                  -3.773
REMARK UNBOUND:                -2.910
REMARK SMILES CCCCCCCCCCCCCCCCCCCCCC(=O)[O-]
REMARK SMILES IDX 12 1 11 2 10 3 9 4 8 5 7 6 6 7 5 8 4 9 3 10 2 11 1 12 13 13
REMARK SMILES IDX 14 14 15 15 16 16 17 17 18 18 19 19 20 20 21 21 22 22 23 23
REMARK SMILES IDX 24 24
REMARK H PARENT
REMARK Flexibility Score: inf
ROOT
ATOM      1  C   UNL     1      19.752  35.129  25.140  1.00  0.00     0.000 C 
ENDROOT
BRANCH   1   2
ATOM      2  C   UNL     1      18.470  35.841  24.676  1.00  0.00     0.000 C 
BRANCH   2   3
ATOM      3  C   UNL     1      18.620  37.371  24.617  1.00  0.00     0.000 C 
BRANCH   3   4
ATOM      4  C   UNL     1      17.371  38.072  24.050  1.00  0.00    -0.000 C 
BRANCH   4   5
ATOM      5  C   UNL     1      16.663  39.028  25.028  1.00  0.00    -0.000 C 
BRANCH   5   6
ATOM      6  C   UNL     1      15.446  38.430  25.760  1.00  0.00    -0.000 C 
BRANCH   6   7
ATOM      7  C   UNL     1      14.888  37.150  25.097  1.00  0.00    -0.000 C 
BRANCH   7   8
ATOM      8  C   UNL     1      14.947  35.906  26.003  1.00  0.00    -0.000 C 
BRANCH   8   9
ATOM      9  C   UNL     1      15.591  36.202  27.369  1.00  0.00    -0.000 C 
BRANCH   9  10
ATOM     10  C   UNL     1      16.602  35.111  27.782  1.00  0.00    -0.000 C 
BRANCH  10  11
ATOM     11  C   UNL     1      17.899  35.672  28.388  1.00  0.00    -0.003 C 
ATOM     12  C   UNL     1      18.029  37.185  28.226  1.00  0.00     0.004 C 
ENDBRANCH  10  11
ENDBRANCH   9  10
ENDBRANCH   8   9
ENDBRANCH   7   8
ENDBRANCH   6   7
ENDBRANCH   5   6
ENDBRANCH   4   5
ENDBRANCH   3   4
ENDBRANCH   2   3
ENDBRANCH   1   2
BRANCH   1  13
ATOM     13  C   UNL     1      20.683  34.647  24.010  1.00  0.00     0.000 C 
BRANCH  13  14
ATOM     14  C   UNL     1      21.236  33.235  24.248  1.00  0.00     0.000 C 
BRANCH  14  15
ATOM     15  C   UNL     1      20.548  32.573  25.452  1.00  0.00     0.000 C 
BRANCH  15  16
ATOM     16  C   UNL     1      20.040  31.157  25.140  1.00  0.00     0.000 C 
BRANCH  16  17
ATOM     17  C   UNL     1      18.509  31.041  25.252  1.00  0.00     0.000 C 
BRANCH  17  18
ATOM     18  C   UNL     1      17.774  32.020  24.321  1.00  0.00     0.000 C 
BRANCH  18  19
ATOM     19  C   UNL     1      16.565  32.690  24.999  1.00  0.00     0.000 C 
BRANCH  19  20
ATOM     20  C   UNL     1      15.984  31.842  26.141  1.00  0.00     0.006 C 
BRANCH  20  21
ATOM     21  C   UNL     1      14.472  32.037  26.310  1.00  0.00     0.053 C 
BRANCH  21  22
ATOM     22  C   UNL     1      13.803  30.726  26.580  1.00  0.00     0.041 C 
ATOM     23  O   UNL     1      12.940  30.278  25.780  1.00  0.00    -0.550 OA
ATOM     24  O   UNL     1      14.096  30.024  27.742  1.00  0.00    -0.550 OA
ENDBRANCH  21  22
ENDBRANCH  20  21
ENDBRANCH  19  20
ENDBRANCH  18  19
ENDBRANCH  17  18
ENDBRANCH  16  17
ENDBRANCH  15  16
ENDBRANCH  14  15
ENDBRANCH  13  14
ENDBRANCH   1  13
TORSDOF 20
ENDMDL
