MODEL 1
REMARK VINA RESULT:    -3.954      0.000      0.000
REMARK INTER + INTRA:          -4.666
REMARK INTER:                  -4.531
REMARK INTRA:                  -0.134
REMARK UNBOUND:                -0.134
REMARK SMILES O=C([O-])C=Cc1ccc(O)cc1
REMARK SMILES IDX 6 1 7 2 12 3 8 4 11 5 9 6 5 7 4 8 2 9 1 10 3 11 10 12
REMARK H PARENT 10 13
REMARK Flexibility Score: inf
ROOT
ATOM      1  C   UNL     1      13.295  23.662  80.656  1.00  0.00    -0.025 A 
ATOM      2  C   UNL     1      14.636  23.282  80.471  1.00  0.00     0.012 A 
ATOM      3  C   UNL     1      12.276  22.799  80.203  1.00  0.00     0.012 A 
ATOM      4  C   UNL     1      14.954  22.060  79.872  1.00  0.00     0.047 A 
ATOM      5  C   UNL     1      12.599  21.577  79.603  1.00  0.00     0.047 A 
ATOM      6  C   UNL     1      13.938  21.204  79.438  1.00  0.00     0.115 A 
ENDROOT
BRANCH   1   7
ATOM      7  C   UNL     1      13.009  24.973  81.288  1.00  0.00     0.010 C 
ATOM      8  C   UNL     1      12.675  25.121  82.577  1.00  0.00     0.025 C 
BRANCH   8   9
ATOM      9  C   UNL     1      12.410  26.444  83.165  1.00  0.00     0.064 C 
ATOM     10  O   UNL     1      13.270  27.356  83.054  1.00  0.00    -0.545 OA
ATOM     11  O   UNL     1      11.226  26.704  83.844  1.00  0.00    -0.545 OA
ENDBRANCH   8   9
ENDBRANCH   1   7
BRANCH   6  12
ATOM     12  O   UNL     1      14.269  19.989  78.842  1.00  0.00    -0.508 OA
ATOM     13  H   UNL     1      13.741  19.622  78.059  1.00  0.00     0.293 HD
ENDBRANCH   6  12
TORSDOF 3
ENDMDL
MODEL 2
REMARK VINA RESULT:    -3.948     12.919     13.828
REMARK INTER + INTRA:          -4.659
REMARK INTER:                  -4.512
REMARK INTRA:                  -0.147
REMARK UNBOUND:                -0.134
REMARK SMILES O=C([O-])C=Cc1ccc(O)cc1
REMARK SMILES IDX 6 1 7 2 12 3 8 4 11 5 9 6 5 7 4 8 2 9 1 10 3 11 10 12
REMARK H PARENT 10 13
REMARK Flexibility Score: inf
ROOT
ATOM      1  C   UNL     1       3.975  24.583  71.870  1.00  0.00    -0.025 A 
ATOM      2  C   UNL     1       4.318  23.940  70.667  1.00  0.00     0.012 A 
ATOM      3  C   UNL     1       4.714  24.285  73.034  1.00  0.00     0.012 A 
ATOM      4  C   UNL     1       5.387  23.042  70.620  1.00  0.00     0.047 A 
ATOM      5  C   UNL     1       5.782  23.384  72.982  1.00  0.00     0.047 A 
ATOM      6  C   UNL     1       6.123  22.763  71.774  1.00  0.00     0.115 A 
ENDROOT
BRANCH   1   7
ATOM      7  C   UNL     1       2.825  25.521  71.871  1.00  0.00     0.010 C 
ATOM      8  C   UNL     1       1.632  25.235  71.335  1.00  0.00     0.025 C 
BRANCH   8   9
ATOM      9  C   UNL     1       0.515  26.193  71.369  1.00  0.00     0.064 C 
ATOM     10  O   UNL     1       0.703  27.350  71.826  1.00  0.00    -0.545 OA
ATOM     11  O   UNL     1      -0.747  25.841  70.904  1.00  0.00    -0.545 OA
ENDBRANCH   8   9
ENDBRANCH   1   7
BRANCH   6  12
ATOM     12  O   UNL     1       7.186  21.864  71.712  1.00  0.00    -0.508 OA
ATOM     13  H   UNL     1       7.519  21.497  70.828  1.00  0.00     0.293 HD
ENDBRANCH   6  12
TORSDOF 3
ENDMDL
MODEL 3
REMARK VINA RESULT:    -3.864     11.905     12.814
REMARK INTER + INTRA:          -4.563
REMARK INTER:                  -4.429
REMARK INTRA:                  -0.133
REMARK UNBOUND:                -0.134
REMARK SMILES O=C([O-])C=Cc1ccc(O)cc1
REMARK SMILES IDX 6 1 7 2 12 3 8 4 11 5 9 6 5 7 4 8 2 9 1 10 3 11 10 12
REMARK H PARENT 10 13
REMARK Flexibility Score: inf
ROOT
ATOM      1  C   UNL     1       4.928  24.837  72.593  1.00  0.00    -0.025 A 
ATOM      2  C   UNL     1       5.238  23.511  72.942  1.00  0.00     0.012 A 
ATOM      3  C   UNL     1       5.973  25.697  72.194  1.00  0.00     0.012 A 
ATOM      4  C   UNL     1       6.554  23.045  72.871  1.00  0.00     0.047 A 
ATOM      5  C   UNL     1       7.288  25.227  72.126  1.00  0.00     0.047 A 
ATOM      6  C   UNL     1       7.582  23.899  72.461  1.00  0.00     0.115 A 
ENDROOT
BRANCH   1   7
ATOM      7  C   UNL     1       3.518  25.287  72.695  1.00  0.00     0.010 C 
ATOM      8  C   UNL     1       2.658  25.278  71.668  1.00  0.00     0.025 C 
BRANCH   8   9
ATOM      9  C   UNL     1       1.263  25.723  71.817  1.00  0.00     0.064 C 
ATOM     10  O   UNL     1       1.014  26.949  71.959  1.00  0.00    -0.545 OA
ATOM     11  O   UNL     1       0.214  24.811  71.806  1.00  0.00    -0.545 OA
ENDBRANCH   8   9
ENDBRANCH   1   7
BRANCH   6  12
ATOM     12  O   UNL     1       8.889  23.422  72.395  1.00  0.00    -0.508 OA
ATOM     13  H   UNL     1       9.129  22.490  72.712  1.00  0.00     0.293 HD
ENDBRANCH   6  12
TORSDOF 3
ENDMDL
MODEL 4
REMARK VINA RESULT:    -3.829     15.549     16.672
REMARK INTER + INTRA:          -4.523
REMARK INTER:                  -4.383
REMARK INTRA:                  -0.140
REMARK UNBOUND:                -0.134
REMARK SMILES O=C([O-])C=Cc1ccc(O)cc1
REMARK SMILES IDX 6 1 7 2 12 3 8 4 11 5 9 6 5 7 4 8 2 9 1 10 3 11 10 12
REMARK H PARENT 10 13
REMARK Flexibility Score: inf
ROOT
ATOM      1  C   UNL     1       0.440  26.396  71.298  1.00  0.00    -0.025 A 
ATOM      2  C   UNL     1      -0.545  25.409  71.116  1.00  0.00     0.012 A 
ATOM      3  C   UNL     1       0.300  27.628  70.627  1.00  0.00     0.012 A 
ATOM      4  C   UNL     1      -1.656  25.654  70.304  1.00  0.00     0.047 A 
ATOM      5  C   UNL     1      -0.814  27.869  69.816  1.00  0.00     0.047 A 
ATOM      6  C   UNL     1      -1.795  26.883  69.654  1.00  0.00     0.115 A 
ENDROOT
BRANCH   1   7
ATOM      7  C   UNL     1       1.606  26.084  72.162  1.00  0.00     0.010 C 
ATOM      8  C   UNL     1       2.630  25.311  71.777  1.00  0.00     0.025 C 
BRANCH   8   9
ATOM      9  C   UNL     1       3.773  25.037  72.664  1.00  0.00     0.064 C 
ATOM     10  O   UNL     1       3.973  25.773  73.664  1.00  0.00    -0.545 OA
ATOM     11  O   UNL     1       4.637  23.977  72.414  1.00  0.00    -0.545 OA
ENDBRANCH   8   9
ENDBRANCH   1   7
BRANCH   6  12
ATOM     12  O   UNL     1      -2.908  27.113  68.848  1.00  0.00    -0.508 OA
ATOM     13  H   UNL     1      -3.638  27.759  69.125  1.00  0.00     0.293 HD
ENDBRANCH   6  12
TORSDOF 3
ENDMDL
MODEL 5
REMARK VINA RESULT:    -3.715     11.260     13.052
REMARK INTER + INTRA:          -4.393
REMARK INTER:                  -4.239
REMARK INTRA:                  -0.153
REMARK UNBOUND:                -0.134
REMARK SMILES O=C([O-])C=Cc1ccc(O)cc1
REMARK SMILES IDX 6 1 7 2 12 3 8 4 11 5 9 6 5 7 4 8 2 9 1 10 3 11 10 12
REMARK H PARENT 10 13
REMARK Flexibility Score: inf
ROOT
ATOM      1  C   UNL     1       4.880  24.139  71.824  1.00  0.00    -0.025 A 
ATOM      2  C   UNL     1       4.653  24.792  73.049  1.00  0.00     0.012 A 
ATOM      3  C   UNL     1       3.967  24.339  70.768  1.00  0.00     0.012 A 
ATOM      4  C   UNL     1       3.557  25.643  73.209  1.00  0.00     0.047 A 
ATOM      5  C   UNL     1       2.870  25.191  70.934  1.00  0.00     0.047 A 
ATOM      6  C   UNL     1       2.664  25.848  72.153  1.00  0.00     0.115 A 
ENDROOT
BRANCH   1   7
ATOM      7  C   UNL     1       6.053  23.237  71.706  1.00  0.00     0.010 C 
ATOM      8  C   UNL     1       7.070  23.222  72.578  1.00  0.00     0.025 C 
BRANCH   8   9
ATOM      9  C   UNL     1       8.208  22.302  72.428  1.00  0.00     0.064 C 
ATOM     10  O   UNL     1       8.090  21.280  71.704  1.00  0.00    -0.545 OA
ATOM     11  O   UNL     1       9.415  22.542  73.076  1.00  0.00    -0.545 OA
ENDBRANCH   8   9
ENDBRANCH   1   7
BRANCH   6  12
ATOM     12  O   UNL     1       1.575  26.699  72.327  1.00  0.00    -0.508 OA
ATOM     13  H   UNL     1       1.673  27.596  72.789  1.00  0.00     0.293 HD
ENDBRANCH   6  12
TORSDOF 3
ENDMDL
MODEL 6
REMARK VINA RESULT:    -3.698     17.002     18.003
REMARK INTER + INTRA:          -4.372
REMARK INTER:                  -4.233
REMARK INTRA:                  -0.140
REMARK UNBOUND:                -0.134
REMARK SMILES O=C([O-])C=Cc1ccc(O)cc1
REMARK SMILES IDX 6 1 7 2 12 3 8 4 11 5 9 6 5 7 4 8 2 9 1 10 3 11 10 12
REMARK H PARENT 10 13
REMARK Flexibility Score: inf
ROOT
ATOM      1  C   UNL     1       8.945  12.996  68.234  1.00  0.00    -0.025 A 
ATOM      2  C   UNL     1       8.970  14.384  68.008  1.00  0.00     0.012 A 
ATOM      3  C   UNL     1       7.701  12.334  68.256  1.00  0.00     0.012 A 
ATOM      4  C   UNL     1       7.786  15.090  67.784  1.00  0.00     0.047 A 
ATOM      5  C   UNL     1       6.517  13.045  68.033  1.00  0.00     0.047 A 
ATOM      6  C   UNL     1       6.557  14.424  67.793  1.00  0.00     0.115 A 
ENDROOT
BRANCH   1   7
ATOM      7  C   UNL     1      10.229  12.293  68.477  1.00  0.00     0.010 C 
ATOM      8  C   UNL     1      10.354  11.226  69.277  1.00  0.00     0.025 C 
BRANCH   8   9
ATOM      9  C   UNL     1      11.647  10.553  69.480  1.00  0.00     0.064 C 
ATOM     10  O   UNL     1      12.112  10.441  70.644  1.00  0.00    -0.545 OA
ATOM     11  O   UNL     1      12.365  10.040  68.406  1.00  0.00    -0.545 OA
ENDBRANCH   8   9
ENDBRANCH   1   7
BRANCH   6  12
ATOM     12  O   UNL     1       5.383  15.141  67.569  1.00  0.00    -0.508 OA
ATOM     13  H   UNL     1       4.639  15.166  68.256  1.00  0.00     0.293 HD
ENDBRANCH   6  12
TORSDOF 3
ENDMDL
MODEL 7
REMARK VINA RESULT:    -3.695      4.662      6.891
REMARK INTER + INTRA:          -4.369
REMARK INTER:                  -4.230
REMARK INTRA:                  -0.139
REMARK UNBOUND:                -0.134
REMARK SMILES O=C([O-])C=Cc1ccc(O)cc1
REMARK SMILES IDX 6 1 7 2 12 3 8 4 11 5 9 6 5 7 4 8 2 9 1 10 3 11 10 12
REMARK H PARENT 10 13
REMARK Flexibility Score: inf
ROOT
ATOM      1  C   UNL     1      14.354  17.372  79.737  1.00  0.00    -0.025 A 
ATOM      2  C   UNL     1      15.501  16.916  80.411  1.00  0.00     0.012 A 
ATOM      3  C   UNL     1      13.465  16.424  79.189  1.00  0.00     0.012 A 
ATOM      4  C   UNL     1      15.743  15.548  80.558  1.00  0.00     0.047 A 
ATOM      5  C   UNL     1      13.712  15.056  79.338  1.00  0.00     0.047 A 
ATOM      6  C   UNL     1      14.849  14.614  80.025  1.00  0.00     0.115 A 
ENDROOT
BRANCH   1   7
ATOM      7  C   UNL     1      14.147  18.835  79.598  1.00  0.00     0.010 C 
ATOM      8  C   UNL     1      13.789  19.430  78.453  1.00  0.00     0.025 C 
BRANCH   8   9
ATOM      9  C   UNL     1      13.584  20.885  78.364  1.00  0.00     0.064 C 
ATOM     10  O   UNL     1      13.976  21.506  77.342  1.00  0.00    -0.545 OA
ATOM     11  O   UNL     1      12.966  21.587  79.392  1.00  0.00    -0.545 OA
ENDBRANCH   8   9
ENDBRANCH   1   7
BRANCH   6  12
ATOM     12  O   UNL     1      15.103  13.253  80.179  1.00  0.00    -0.508 OA
ATOM     13  H   UNL     1      15.293  12.849  81.089  1.00  0.00     0.293 HD
ENDBRANCH   6  12
TORSDOF 3
ENDMDL
MODEL 8
REMARK VINA RESULT:    -3.674      2.114      6.658
REMARK INTER + INTRA:          -4.345
REMARK INTER:                  -4.211
REMARK INTRA:                  -0.135
REMARK UNBOUND:                -0.134
REMARK SMILES O=C([O-])C=Cc1ccc(O)cc1
REMARK SMILES IDX 6 1 7 2 12 3 8 4 11 5 9 6 5 7 4 8 2 9 1 10 3 11 10 12
REMARK H PARENT 10 13
REMARK Flexibility Score: inf
ROOT
ATOM      1  C   UNL     1      13.637  21.234  79.488  1.00  0.00    -0.025 A 
ATOM      2  C   UNL     1      12.395  21.792  79.841  1.00  0.00     0.012 A 
ATOM      3  C   UNL     1      14.815  21.942  79.804  1.00  0.00     0.012 A 
ATOM      4  C   UNL     1      12.330  23.013  80.517  1.00  0.00     0.047 A 
ATOM      5  C   UNL     1      14.744  23.165  80.480  1.00  0.00     0.047 A 
ATOM      6  C   UNL     1      13.503  23.702  80.841  1.00  0.00     0.115 A 
ENDROOT
BRANCH   1   7
ATOM      7  C   UNL     1      13.653  19.940  78.762  1.00  0.00     0.010 C 
ATOM      8  C   UNL     1      14.006  18.777  79.324  1.00  0.00     0.025 C 
BRANCH   8   9
ATOM      9  C   UNL     1      13.997  17.513  78.568  1.00  0.00     0.064 C 
ATOM     10  O   UNL     1      14.620  17.438  77.478  1.00  0.00    -0.545 OA
ATOM     11  O   UNL     1      13.309  16.401  79.039  1.00  0.00    -0.545 OA
ENDBRANCH   8   9
ENDBRANCH   1   7
BRANCH   6  12
ATOM     12  O   UNL     1      13.423  24.919  81.514  1.00  0.00    -0.508 OA
ATOM     13  H   UNL     1      12.779  25.645  81.221  1.00  0.00     0.293 HD
ENDBRANCH   6  12
TORSDOF 3
ENDMDL
MODEL 9
REMARK VINA RESULT:    -3.613      1.836      2.339
REMARK INTER + INTRA:          -4.275
REMARK INTER:                  -4.134
REMARK INTRA:                  -0.141
REMARK UNBOUND:                -0.134
REMARK SMILES O=C([O-])C=Cc1ccc(O)cc1
REMARK SMILES IDX 6 1 7 2 12 3 8 4 11 5 9 6 5 7 4 8 2 9 1 10 3 11 10 12
REMARK H PARENT 10 13
REMARK Flexibility Score: inf
ROOT
ATOM      1  C   UNL     1      12.698  22.876  79.796  1.00  0.00    -0.025 A 
ATOM      2  C   UNL     1      12.060  23.551  78.740  1.00  0.00     0.012 A 
ATOM      3  C   UNL     1      13.369  21.667  79.523  1.00  0.00     0.012 A 
ATOM      4  C   UNL     1      12.112  23.045  77.438  1.00  0.00     0.047 A 
ATOM      5  C   UNL     1      13.418  21.163  78.220  1.00  0.00     0.047 A 
ATOM      6  C   UNL     1      12.792  21.853  77.173  1.00  0.00     0.115 A 
ENDROOT
BRANCH   1   7
ATOM      7  C   UNL     1      12.605  23.449  81.162  1.00  0.00     0.010 C 
ATOM      8  C   UNL     1      12.953  24.706  81.467  1.00  0.00     0.025 C 
BRANCH   8   9
ATOM      9  C   UNL     1      12.834  25.236  82.835  1.00  0.00     0.064 C 
ATOM     10  O   UNL     1      13.610  24.817  83.733  1.00  0.00    -0.545 OA
ATOM     11  O   UNL     1      11.876  26.191  83.154  1.00  0.00    -0.545 OA
ENDBRANCH   8   9
ENDBRANCH   1   7
BRANCH   6  12
ATOM     12  O   UNL     1      12.836  21.360  75.871  1.00  0.00    -0.508 OA
ATOM     13  H   UNL     1      13.360  20.524  75.638  1.00  0.00     0.293 HD
ENDBRANCH   6  12
TORSDOF 3
ENDMDL
