MODEL 1
REMARK VINA RESULT:    -3.121      0.000      0.000
REMARK INTER + INTRA:          -3.395
REMARK INTER:                  -3.395
REMARK INTRA:                   0.000
REMARK UNBOUND:                 0.000
REMARK SMILES [NH3+]CC(=O)[O-]
REMARK SMILES IDX 2 1 1 2 3 6 4 7 5 8
REMARK H PARENT 1 3 1 4 1 5
REMARK Flexibility Score: inf
ROOT
ATOM      1  C   UNL     1     -13.200  -3.174 -19.198  1.00  0.00     0.312 C 
ENDROOT
BRANCH   1   2
ATOM      2  N   UNL     1     -14.657  -3.069 -19.254  1.00  0.00    -0.353 N 
ATOM      3  H   UNL     1     -14.927  -2.480 -20.075  1.00  0.00     0.344 HD
ATOM      4  H   UNL     1     -15.082  -4.019 -19.366  1.00  0.00     0.344 HD
ATOM      5  H   UNL     1     -15.018  -2.621 -18.381  1.00  0.00     0.344 HD
ENDBRANCH   1   2
BRANCH   1   6
ATOM      6  C   UNL     1     -12.645  -3.539 -20.539  1.00  0.00     0.096 C 
ATOM      7  O   UNL     1     -11.491  -4.035 -20.634  1.00  0.00    -0.544 OA
ATOM      8  O   UNL     1     -13.420  -3.379 -21.680  1.00  0.00    -0.544 OA
ENDBRANCH   1   6
TORSDOF 2
ENDMDL
MODEL 2
REMARK VINA RESULT:    -3.117      2.165      2.301
REMARK INTER + INTRA:          -3.390
REMARK INTER:                  -3.390
REMARK INTRA:                   0.000
REMARK UNBOUND:                 0.000
REMARK SMILES [NH3+]CC(=O)[O-]
REMARK SMILES IDX 2 1 1 2 3 6 4 7 5 8
REMARK H PARENT 1 3 1 4 1 5
REMARK Flexibility Score: inf
ROOT
ATOM      1  C   UNL     1     -11.722  -4.602 -21.002  1.00  0.00     0.312 C 
ENDROOT
BRANCH   1   2
ATOM      2  N   UNL     1     -12.451  -4.304 -19.771  1.00  0.00    -0.353 N 
ATOM      3  H   UNL     1     -12.575  -5.186 -19.224  1.00  0.00     0.344 HD
ATOM      4  H   UNL     1     -11.912  -3.619 -19.191  1.00  0.00     0.344 HD
ATOM      5  H   UNL     1     -13.393  -3.909 -19.997  1.00  0.00     0.344 HD
ENDBRANCH   1   2
BRANCH   1   6
ATOM      6  C   UNL     1     -12.561  -4.289 -22.201  1.00  0.00     0.096 C 
ATOM      7  O   UNL     1     -12.514  -5.030 -23.218  1.00  0.00    -0.544 OA
ATOM      8  O   UNL     1     -13.433  -3.209 -22.178  1.00  0.00    -0.544 OA
ENDBRANCH   1   6
TORSDOF 2
ENDMDL
MODEL 3
REMARK VINA RESULT:    -3.086     18.929     19.241
REMARK INTER + INTRA:          -3.357
REMARK INTER:                  -3.357
REMARK INTRA:                   0.000
REMARK UNBOUND:                 0.000
REMARK SMILES [NH3+]CC(=O)[O-]
REMARK SMILES IDX 2 1 1 2 3 6 4 7 5 8
REMARK H PARENT 1 3 1 4 1 5
REMARK Flexibility Score: inf
ROOT
ATOM      1  C   UNL     1     -16.983  13.528 -13.470  1.00  0.00     0.312 C 
ENDROOT
BRANCH   1   2
ATOM      2  N   UNL     1     -16.802  13.502 -14.920  1.00  0.00    -0.353 N 
ATOM      3  H   UNL     1     -17.087  12.564 -15.284  1.00  0.00     0.344 HD
ATOM      4  H   UNL     1     -17.398  14.235 -15.370  1.00  0.00     0.344 HD
ATOM      5  H   UNL     1     -15.797  13.668 -15.159  1.00  0.00     0.344 HD
ENDBRANCH   1   2
BRANCH   1   6
ATOM      6  C   UNL     1     -18.428  13.699 -13.121  1.00  0.00     0.096 C 
ATOM      7  O   UNL     1     -19.298  13.750 -14.029  1.00  0.00    -0.544 OA
ATOM      8  O   UNL     1     -18.820  13.752 -11.789  1.00  0.00    -0.544 OA
ENDBRANCH   1   6
TORSDOF 2
ENDMDL
MODEL 4
REMARK VINA RESULT:    -3.047     17.594     17.902
REMARK INTER + INTRA:          -3.315
REMARK INTER:                  -3.315
REMARK INTRA:                   0.000
REMARK UNBOUND:                 0.000
REMARK SMILES [NH3+]CC(=O)[O-]
REMARK SMILES IDX 2 1 1 2 3 6 4 7 5 8
REMARK H PARENT 1 3 1 4 1 5
REMARK Flexibility Score: inf
ROOT
ATOM      1  C   UNL     1     -18.350  12.762 -13.920  1.00  0.00     0.312 C 
ENDROOT
BRANCH   1   2
ATOM      2  N   UNL     1     -18.496  11.554 -13.110  1.00  0.00    -0.353 N 
ATOM      3  H   UNL     1     -17.895  10.799 -13.511  1.00  0.00     0.344 HD
ATOM      4  H   UNL     1     -18.193  11.743 -12.127  1.00  0.00     0.344 HD
ATOM      5  H   UNL     1     -19.493  11.236 -13.117  1.00  0.00     0.344 HD
ENDBRANCH   1   2
BRANCH   1   6
ATOM      6  C   UNL     1     -16.912  13.003 -14.255  1.00  0.00     0.096 C 
ATOM      7  O   UNL     1     -16.336  12.296 -15.123  1.00  0.00    -0.544 OA
ATOM      8  O   UNL     1     -16.221  14.042 -13.645  1.00  0.00    -0.544 OA
ENDBRANCH   1   6
TORSDOF 2
ENDMDL
MODEL 5
REMARK VINA RESULT:    -3.041      8.572      9.097
REMARK INTER + INTRA:          -3.308
REMARK INTER:                  -3.308
REMARK INTRA:                   0.000
REMARK UNBOUND:                 0.000
REMARK SMILES [NH3+]CC(=O)[O-]
REMARK SMILES IDX 2 1 1 2 3 6 4 7 5 8
REMARK H PARENT 1 3 1 4 1 5
REMARK Flexibility Score: inf
ROOT
ATOM      1  C   UNL     1     -20.329   1.749 -20.768  1.00  0.00     0.312 C 
ENDROOT
BRANCH   1   2
ATOM      2  N   UNL     1     -19.516   2.063 -21.941  1.00  0.00    -0.353 N 
ATOM      3  H   UNL     1     -19.433   1.209 -22.538  1.00  0.00     0.344 HD
ATOM      4  H   UNL     1     -19.969   2.824 -22.499  1.00  0.00     0.344 HD
ATOM      5  H   UNL     1     -18.559   2.364 -21.644  1.00  0.00     0.344 HD
ENDBRANCH   1   2
BRANCH   1   6
ATOM      6  C   UNL     1     -19.714   2.324 -19.530  1.00  0.00     0.096 C 
ATOM      7  O   UNL     1     -19.982   3.503 -19.178  1.00  0.00    -0.544 OA
ATOM      8  O   UNL     1     -18.885   1.541 -18.737  1.00  0.00    -0.544 OA
ENDBRANCH   1   6
TORSDOF 2
ENDMDL
MODEL 6
REMARK VINA RESULT:    -3.025     17.083     17.428
REMARK INTER + INTRA:          -3.290
REMARK INTER:                  -3.290
REMARK INTRA:                   0.000
REMARK UNBOUND:                 0.000
REMARK SMILES [NH3+]CC(=O)[O-]
REMARK SMILES IDX 2 1 1 2 3 6 4 7 5 8
REMARK H PARENT 1 3 1 4 1 5
REMARK Flexibility Score: inf
ROOT
ATOM      1  C   UNL     1     -16.361  11.906 -15.363  1.00  0.00     0.312 C 
ENDROOT
BRANCH   1   2
ATOM      2  N   UNL     1     -17.311  11.187 -16.210  1.00  0.00    -0.353 N 
ATOM      3  H   UNL     1     -17.513  11.760 -17.060  1.00  0.00     0.344 HD
ATOM      4  H   UNL     1     -16.903  10.270 -16.508  1.00  0.00     0.344 HD
ATOM      5  H   UNL     1     -18.204  11.023 -15.689  1.00  0.00     0.344 HD
ENDBRANCH   1   2
BRANCH   1   6
ATOM      6  C   UNL     1     -17.080  12.685 -14.306  1.00  0.00     0.096 C 
ATOM      7  O   UNL     1     -18.249  12.362 -13.966  1.00  0.00    -0.544 OA
ATOM      8  O   UNL     1     -16.442  13.736 -13.662  1.00  0.00    -0.544 OA
ENDBRANCH   1   6
TORSDOF 2
ENDMDL
MODEL 7
REMARK VINA RESULT:    -3.018     19.013     19.223
REMARK INTER + INTRA:          -3.283
REMARK INTER:                  -3.283
REMARK INTRA:                   0.000
REMARK UNBOUND:                 0.000
REMARK SMILES [NH3+]CC(=O)[O-]
REMARK SMILES IDX 2 1 1 2 3 6 4 7 5 8
REMARK H PARENT 1 3 1 4 1 5
REMARK Flexibility Score: inf
ROOT
ATOM      1  C   UNL     1     -18.937  12.637 -12.292  1.00  0.00     0.312 C 
ENDROOT
BRANCH   1   2
ATOM      2  N   UNL     1     -18.776  13.585 -11.192  1.00  0.00    -0.353 N 
ATOM      3  H   UNL     1     -17.796  13.948 -11.193  1.00  0.00     0.344 HD
ATOM      4  H   UNL     1     -19.435  14.390 -11.312  1.00  0.00     0.344 HD
ATOM      5  H   UNL     1     -18.962  13.111 -10.279  1.00  0.00     0.344 HD
ENDBRANCH   1   2
BRANCH   1   6
ATOM      6  C   UNL     1     -18.801  13.329 -13.612  1.00  0.00     0.096 C 
ATOM      7  O   UNL     1     -19.822  13.751 -14.215  1.00  0.00    -0.544 OA
ATOM      8  O   UNL     1     -17.541  13.554 -14.153  1.00  0.00    -0.544 OA
ENDBRANCH   1   6
TORSDOF 2
ENDMDL
MODEL 8
REMARK VINA RESULT:    -3.005      2.011      2.241
REMARK INTER + INTRA:          -3.269
REMARK INTER:                  -3.269
REMARK INTRA:                   0.000
REMARK UNBOUND:                 0.000
REMARK SMILES [NH3+]CC(=O)[O-]
REMARK SMILES IDX 2 1 1 2 3 6 4 7 5 8
REMARK H PARENT 1 3 1 4 1 5
REMARK Flexibility Score: inf
ROOT
ATOM      1  C   UNL     1     -12.726  -3.983 -21.886  1.00  0.00     0.312 C 
ENDROOT
BRANCH   1   2
ATOM      2  N   UNL     1     -13.554  -2.870 -22.345  1.00  0.00    -0.353 N 
ATOM      3  H   UNL     1     -12.969  -2.005 -22.394  1.00  0.00     0.344 HD
ATOM      4  H   UNL     1     -13.936  -3.074 -23.297  1.00  0.00     0.344 HD
ATOM      5  H   UNL     1     -14.343  -2.709 -21.675  1.00  0.00     0.344 HD
ENDBRANCH   1   2
BRANCH   1   6
ATOM      6  C   UNL     1     -12.130  -3.682 -20.547  1.00  0.00     0.096 C 
ATOM      7  O   UNL     1     -10.886  -3.535 -20.425  1.00  0.00    -0.544 OA
ATOM      8  O   UNL     1     -12.954  -3.515 -19.441  1.00  0.00    -0.544 OA
ENDBRANCH   1   6
TORSDOF 2
ENDMDL
MODEL 9
REMARK VINA RESULT:    -2.966      2.710      3.281
REMARK INTER + INTRA:          -3.226
REMARK INTER:                  -3.226
REMARK INTRA:                   0.000
REMARK UNBOUND:                 0.000
REMARK SMILES [NH3+]CC(=O)[O-]
REMARK SMILES IDX 2 1 1 2 3 6 4 7 5 8
REMARK H PARENT 1 3 1 4 1 5
REMARK Flexibility Score: inf
ROOT
ATOM      1  C   UNL     1     -12.192  -4.997 -22.205  1.00  0.00     0.312 C 
ENDROOT
BRANCH   1   2
ATOM      2  N   UNL     1     -12.175  -4.797 -23.652  1.00  0.00    -0.353 N 
ATOM      3  H   UNL     1     -12.819  -5.486 -24.101  1.00  0.00     0.344 HD
ATOM      4  H   UNL     1     -12.498  -3.829 -23.885  1.00  0.00     0.344 HD
ATOM      5  H   UNL     1     -11.208  -4.945 -24.024  1.00  0.00     0.344 HD
ENDBRANCH   1   2
BRANCH   1   6
ATOM      6  C   UNL     1     -12.727  -3.784 -21.510  1.00  0.00     0.096 C 
ATOM      7  O   UNL     1     -13.682  -3.135 -22.013  1.00  0.00    -0.544 OA
ATOM      8  O   UNL     1     -12.205  -3.398 -20.283  1.00  0.00    -0.544 OA
ENDBRANCH   1   6
TORSDOF 2
ENDMDL
