MODEL 1
REMARK VINA RESULT:    -2.991      0.000      0.000
REMARK INTER + INTRA:          -3.752
REMARK INTER:                  -3.691
REMARK INTRA:                  -0.061
REMARK UNBOUND:                -0.061
REMARK SMILES CCCCCC(=O)[O-]
REMARK SMILES IDX 4 1 5 2 6 3 7 4 8 5 3 6 2 7 1 8
REMARK H PARENT
REMARK Flexibility Score: inf
ROOT
ATOM      1  C   UNL     1       5.488  -0.696  -3.968  1.00  0.00     0.006 C 
ENDROOT
BRANCH   1   2
ATOM      2  C   UNL     1       4.495  -1.739  -4.489  1.00  0.00     0.053 C 
BRANCH   2   3
ATOM      3  C   UNL     1       3.375  -1.929  -3.516  1.00  0.00     0.041 C 
ATOM      4  O   UNL     1       3.550  -1.688  -2.293  1.00  0.00    -0.550 OA
ATOM      5  O   UNL     1       2.122  -2.325  -3.967  1.00  0.00    -0.550 OA
ENDBRANCH   2   3
ENDBRANCH   1   2
BRANCH   1   6
ATOM      6  C   UNL     1       5.610   0.483  -4.945  1.00  0.00     0.000 C 
BRANCH   6   7
ATOM      7  C   UNL     1       6.944   1.231  -4.805  1.00  0.00    -0.003 C 
ATOM      8  C   UNL     1       6.773   2.643  -4.245  1.00  0.00     0.004 C 
ENDBRANCH   6   7
ENDBRANCH   1   6
TORSDOF 4
ENDMDL
MODEL 2
REMARK VINA RESULT:    -2.971      0.079      1.147
REMARK INTER + INTRA:          -3.726
REMARK INTER:                  -3.671
REMARK INTRA:                  -0.055
REMARK UNBOUND:                -0.061
REMARK SMILES CCCCCC(=O)[O-]
REMARK SMILES IDX 4 1 5 2 6 3 7 4 8 5 3 6 2 7 1 8
REMARK H PARENT
REMARK Flexibility Score: inf
ROOT
ATOM      1  C   UNL     1       5.446  -0.666  -3.964  1.00  0.00     0.006 C 
ENDROOT
BRANCH   1   2
ATOM      2  C   UNL     1       4.434  -1.675  -4.514  1.00  0.00     0.053 C 
BRANCH   2   3
ATOM      3  C   UNL     1       3.333  -1.905  -3.527  1.00  0.00     0.041 C 
ATOM      4  O   UNL     1       2.208  -2.314  -3.917  1.00  0.00    -0.550 OA
ATOM      5  O   UNL     1       3.564  -1.715  -2.171  1.00  0.00    -0.550 OA
ENDBRANCH   2   3
ENDBRANCH   1   2
BRANCH   1   6
ATOM      6  C   UNL     1       5.633   0.509  -4.936  1.00  0.00     0.000 C 
BRANCH   6   7
ATOM      7  C   UNL     1       6.965   1.244  -4.724  1.00  0.00    -0.003 C 
ATOM      8  C   UNL     1       6.777   2.678  -4.229  1.00  0.00     0.004 C 
ENDBRANCH   6   7
ENDBRANCH   1   6
TORSDOF 4
ENDMDL
MODEL 3
REMARK VINA RESULT:    -2.934      0.926      1.366
REMARK INTER + INTRA:          -3.681
REMARK INTER:                  -3.570
REMARK INTRA:                  -0.111
REMARK UNBOUND:                -0.061
REMARK SMILES CCCCCC(=O)[O-]
REMARK SMILES IDX 4 1 5 2 6 3 7 4 8 5 3 6 2 7 1 8
REMARK H PARENT
REMARK Flexibility Score: inf
ROOT
ATOM      1  C   UNL     1       4.895  -1.121  -5.116  1.00  0.00     0.006 C 
ENDROOT
BRANCH   1   2
ATOM      2  C   UNL     1       4.662  -2.282  -4.145  1.00  0.00     0.053 C 
BRANCH   2   3
ATOM      3  C   UNL     1       3.405  -2.066  -3.361  1.00  0.00     0.041 C 
ATOM      4  O   UNL     1       3.462  -1.645  -2.176  1.00  0.00    -0.550 OA
ATOM      5  O   UNL     1       2.169  -2.281  -3.957  1.00  0.00    -0.550 OA
ENDBRANCH   2   3
ENDBRANCH   1   2
BRANCH   1   6
ATOM      6  C   UNL     1       5.546   0.072  -4.398  1.00  0.00     0.000 C 
BRANCH   6   7
ATOM      7  C   UNL     1       6.111   1.113  -5.377  1.00  0.00    -0.003 C 
ATOM      8  C   UNL     1       5.727   0.828  -6.829  1.00  0.00     0.004 C 
ENDBRANCH   6   7
ENDBRANCH   1   6
TORSDOF 4
ENDMDL
MODEL 4
REMARK VINA RESULT:    -2.932      6.131      6.449
REMARK INTER + INTRA:          -3.678
REMARK INTER:                  -3.613
REMARK INTRA:                  -0.065
REMARK UNBOUND:                -0.061
REMARK SMILES CCCCCC(=O)[O-]
REMARK SMILES IDX 4 1 5 2 6 3 7 4 8 5 3 6 2 7 1 8
REMARK H PARENT
REMARK Flexibility Score: inf
ROOT
ATOM      1  C   UNL     1       0.200   0.206  -8.735  1.00  0.00     0.006 C 
ENDROOT
BRANCH   1   2
ATOM      2  C   UNL     1      -1.189  -0.106  -8.170  1.00  0.00     0.053 C 
BRANCH   2   3
ATOM      3  C   UNL     1      -1.074  -0.836  -6.869  1.00  0.00     0.041 C 
ATOM      4  O   UNL     1       0.060  -1.107  -6.393  1.00  0.00    -0.550 OA
ATOM      5  O   UNL     1      -2.218  -1.174  -6.158  1.00  0.00    -0.550 OA
ENDBRANCH   2   3
ENDBRANCH   1   2
BRANCH   1   6
ATOM      6  C   UNL     1       0.353   1.708  -9.018  1.00  0.00     0.000 C 
BRANCH   6   7
ATOM      7  C   UNL     1       1.764   2.078  -9.500  1.00  0.00    -0.003 C 
ATOM      8  C   UNL     1       2.019   3.585  -9.477  1.00  0.00     0.004 C 
ENDBRANCH   6   7
ENDBRANCH   1   6
TORSDOF 4
ENDMDL
MODEL 5
REMARK VINA RESULT:    -2.828      6.836      7.579
REMARK INTER + INTRA:          -3.550
REMARK INTER:                  -3.394
REMARK INTRA:                  -0.156
REMARK UNBOUND:                -0.061
REMARK SMILES CCCCCC(=O)[O-]
REMARK SMILES IDX 4 1 5 2 6 3 7 4 8 5 3 6 2 7 1 8
REMARK H PARENT
REMARK Flexibility Score: inf
ROOT
ATOM      1  C   UNL     1      -1.308  -0.089  -8.975  1.00  0.00     0.006 C 
ENDROOT
BRANCH   1   2
ATOM      2  C   UNL     1      -2.429  -0.713  -8.139  1.00  0.00     0.053 C 
BRANCH   2   3
ATOM      3  C   UNL     1      -1.962  -0.959  -6.738  1.00  0.00     0.041 C 
ATOM      4  O   UNL     1      -2.693  -1.589  -5.929  1.00  0.00    -0.550 OA
ATOM      5  O   UNL     1      -0.700  -0.537  -6.342  1.00  0.00    -0.550 OA
ENDBRANCH   2   3
ENDBRANCH   1   2
BRANCH   1   6
ATOM      6  C   UNL     1      -1.744   1.267  -9.553  1.00  0.00     0.000 C 
BRANCH   6   7
ATOM      7  C   UNL     1      -0.670   2.352  -9.387  1.00  0.00    -0.003 C 
ATOM      8  C   UNL     1       0.704   1.776  -9.045  1.00  0.00     0.004 C 
ENDBRANCH   6   7
ENDBRANCH   1   6
TORSDOF 4
ENDMDL
MODEL 6
REMARK VINA RESULT:    -2.659      1.936      2.581
REMARK INTER + INTRA:          -3.341
REMARK INTER:                  -3.093
REMARK INTRA:                  -0.248
REMARK UNBOUND:                -0.061
REMARK SMILES CCCCCC(=O)[O-]
REMARK SMILES IDX 4 1 5 2 6 3 7 4 8 5 3 6 2 7 1 8
REMARK H PARENT
REMARK Flexibility Score: inf
ROOT
ATOM      1  C   UNL     1       4.610  -2.235  -5.786  1.00  0.00     0.006 C 
ENDROOT
BRANCH   1   2
ATOM      2  C   UNL     1       3.121  -2.115  -6.121  1.00  0.00     0.053 C 
BRANCH   2   3
ATOM      3  C   UNL     1       2.288  -2.723  -5.037  1.00  0.00     0.041 C 
ATOM      4  O   UNL     1       2.247  -2.192  -3.896  1.00  0.00    -0.550 OA
ATOM      5  O   UNL     1       1.518  -3.849  -5.300  1.00  0.00    -0.550 OA
ENDBRANCH   2   3
ENDBRANCH   1   2
BRANCH   1   6
ATOM      6  C   UNL     1       5.239  -0.849  -5.579  1.00  0.00     0.000 C 
BRANCH   6   7
ATOM      7  C   UNL     1       5.381  -0.480  -4.094  1.00  0.00    -0.003 C 
ATOM      8  C   UNL     1       5.731  -1.682  -3.217  1.00  0.00     0.004 C 
ENDBRANCH   6   7
ENDBRANCH   1   6
TORSDOF 4
ENDMDL
MODEL 7
REMARK VINA RESULT:    -2.640     10.333     10.804
REMARK INTER + INTRA:          -3.318
REMARK INTER:                  -3.228
REMARK INTRA:                  -0.090
REMARK UNBOUND:                -0.061
REMARK SMILES CCCCCC(=O)[O-]
REMARK SMILES IDX 4 1 5 2 6 3 7 4 8 5 3 6 2 7 1 8
REMARK H PARENT
REMARK Flexibility Score: inf
ROOT
ATOM      1  C   UNL     1      -2.185   7.310   0.736  1.00  0.00     0.006 C 
ENDROOT
BRANCH   1   2
ATOM      2  C   UNL     1      -2.126   5.816   1.068  1.00  0.00     0.053 C 
BRANCH   2   3
ATOM      3  C   UNL     1      -3.480   5.195   0.935  1.00  0.00     0.041 C 
ATOM      4  O   UNL     1      -4.106   4.815   1.960  1.00  0.00    -0.550 OA
ATOM      5  O   UNL     1      -4.074   5.082  -0.315  1.00  0.00    -0.550 OA
ENDBRANCH   2   3
ENDBRANCH   1   2
BRANCH   1   6
ATOM      6  C   UNL     1      -0.806   7.832   0.305  1.00  0.00     0.000 C 
BRANCH   6   7
ATOM      7  C   UNL     1       0.345   7.157   1.065  1.00  0.00    -0.003 C 
ATOM      8  C   UNL     1       1.698   7.815   0.795  1.00  0.00     0.004 C 
ENDBRANCH   6   7
ENDBRANCH   1   6
TORSDOF 4
ENDMDL
MODEL 8
REMARK VINA RESULT:    -2.630      9.628     10.915
REMARK INTER + INTRA:          -3.305
REMARK INTER:                  -3.131
REMARK INTRA:                  -0.174
REMARK UNBOUND:                -0.061
REMARK SMILES CCCCCC(=O)[O-]
REMARK SMILES IDX 4 1 5 2 6 3 7 4 8 5 3 6 2 7 1 8
REMARK H PARENT
REMARK Flexibility Score: inf
ROOT
ATOM      1  C   UNL     1      -4.969  -2.210  -3.557  1.00  0.00     0.006 C 
ENDROOT
BRANCH   1   2
ATOM      2  C   UNL     1      -4.216  -3.499  -3.899  1.00  0.00     0.053 C 
BRANCH   2   3
ATOM      3  C   UNL     1      -3.947  -4.293  -2.659  1.00  0.00     0.041 C 
ATOM      4  O   UNL     1      -4.872  -4.513  -1.835  1.00  0.00    -0.550 OA
ATOM      5  O   UNL     1      -2.686  -4.832  -2.439  1.00  0.00    -0.550 OA
ENDBRANCH   2   3
ENDBRANCH   1   2
BRANCH   1   6
ATOM      6  C   UNL     1      -6.160  -2.002  -4.506  1.00  0.00     0.000 C 
BRANCH   6   7
ATOM      7  C   UNL     1      -7.514  -2.131  -3.792  1.00  0.00    -0.003 C 
ATOM      8  C   UNL     1      -7.445  -1.727  -2.319  1.00  0.00     0.004 C 
ENDBRANCH   6   7
ENDBRANCH   1   6
TORSDOF 4
ENDMDL
MODEL 9
REMARK VINA RESULT:    -2.625      9.315      9.956
REMARK INTER + INTRA:          -3.300
REMARK INTER:                  -3.081
REMARK INTRA:                  -0.219
REMARK UNBOUND:                -0.061
REMARK SMILES CCCCCC(=O)[O-]
REMARK SMILES IDX 4 1 5 2 6 3 7 4 8 5 3 6 2 7 1 8
REMARK H PARENT
REMARK Flexibility Score: inf
ROOT
ATOM      1  C   UNL     1      -4.796  -3.839  -4.634  1.00  0.00     0.006 C 
ENDROOT
BRANCH   1   2
ATOM      2  C   UNL     1      -3.727  -4.850  -4.208  1.00  0.00     0.053 C 
BRANCH   2   3
ATOM      3  C   UNL     1      -3.533  -4.814  -2.725  1.00  0.00     0.041 C 
ATOM      4  O   UNL     1      -2.387  -4.981  -2.232  1.00  0.00    -0.550 OA
ATOM      5  O   UNL     1      -4.610  -4.548  -1.890  1.00  0.00    -0.550 OA
ENDBRANCH   2   3
ENDBRANCH   1   2
BRANCH   1   6
ATOM      6  C   UNL     1      -4.171  -2.464  -4.912  1.00  0.00     0.000 C 
BRANCH   6   7
ATOM      7  C   UNL     1      -5.021  -1.307  -4.364  1.00  0.00    -0.003 C 
ATOM      8  C   UNL     1      -6.181  -1.788  -3.491  1.00  0.00     0.004 C 
ENDBRANCH   6   7
ENDBRANCH   1   6
TORSDOF 4
ENDMDL
