MODEL 1
REMARK VINA RESULT:    -7.407      0.000      0.000
REMARK INTER + INTRA:          -8.982
REMARK INTER:                  -8.706
REMARK INTRA:                  -0.276
REMARK UNBOUND:                -0.276
REMARK SMILES O=c1cc(-c2ccc(O)c(O)c2)oc2cc(O)cc(O)c12
REMARK SMILES IDX 4 1 3 2 2 3 1 4 21 5 19 6 18 7 16 8 15 9 14 10 13 11 5 12
REMARK SMILES IDX 6 13 7 14 8 15 12 16 10 17 9 18 11 20 20 22 17 24
REMARK H PARENT 9 19 11 21 20 23 17 25
REMARK Flexibility Score: inf
ROOT
ATOM      1  C   UNL     1       7.002  -0.571  35.780  1.00  0.00     0.138 A 
ATOM      2  C   UNL     1       5.947   0.143  36.362  1.00  0.00     0.100 A 
ATOM      3  C   UNL     1       4.839  -0.544  36.860  1.00  0.00     0.197 A 
ATOM      4  O   UNL     1       3.934   0.121  37.427  1.00  0.00    -0.289 OA
ATOM      5  C   UNL     1       4.773  -1.954  36.741  1.00  0.00     0.107 A 
ATOM      6  C   UNL     1       3.679  -2.758  37.181  1.00  0.00     0.134 A 
ATOM      7  C   UNL     1       3.770  -4.153  37.098  1.00  0.00     0.093 A 
ATOM      8  C   UNL     1       4.888  -4.770  36.540  1.00  0.00     0.123 A 
ATOM      9  C   UNL     1       5.943  -3.993  36.060  1.00  0.00     0.094 A 
ATOM     10  C   UNL     1       5.897  -2.600  36.160  1.00  0.00     0.146 A 
ATOM     11  O   UNL     1       6.930  -1.897  35.708  1.00  0.00    -0.456 OA
ENDROOT
BRANCH   1  12
ATOM     12  C   UNL     1       8.202   0.108  35.232  1.00  0.00     0.021 A 
ATOM     13  C   UNL     1       8.686  -0.260  33.964  1.00  0.00     0.016 A 
ATOM     14  C   UNL     1       9.818   0.359  33.428  1.00  0.00     0.051 A 
ATOM     15  C   UNL     1      10.491   1.349  34.152  1.00  0.00     0.157 A 
ATOM     16  C   UNL     1       8.893   1.096  35.961  1.00  0.00     0.062 A 
ATOM     17  C   UNL     1      10.030   1.716  35.422  1.00  0.00     0.158 A 
BRANCH  15  18
ATOM     18  O   UNL     1      11.621   1.970  33.620  1.00  0.00    -0.504 OA
ATOM     19  H   UNL     1      11.611   2.946  33.352  1.00  0.00     0.293 HD
ENDBRANCH  15  18
BRANCH  17  20
ATOM     20  O   UNL     1      10.710   2.694  36.146  1.00  0.00    -0.504 OA
ATOM     21  H   UNL     1      11.609   2.507  36.577  1.00  0.00     0.293 HD
ENDBRANCH  17  20
ENDBRANCH   1  12
BRANCH   6  22
ATOM     22  O   UNL     1       2.479  -2.243  37.683  1.00  0.00    -0.507 OA
ATOM     23  H   UNL     1       2.275  -2.097  38.660  1.00  0.00     0.293 HD
ENDBRANCH   6  22
BRANCH   8  24
ATOM     24  O   UNL     1       4.938  -6.161  36.460  1.00  0.00    -0.508 OA
ATOM     25  H   UNL     1       5.029  -6.638  35.570  1.00  0.00     0.293 HD
ENDBRANCH   8  24
TORSDOF 5
ENDMDL
MODEL 2
REMARK VINA RESULT:    -7.170      3.176      6.908
REMARK INTER + INTRA:          -8.704
REMARK INTER:                  -8.390
REMARK INTRA:                  -0.313
REMARK UNBOUND:                -0.276
REMARK SMILES O=c1cc(-c2ccc(O)c(O)c2)oc2cc(O)cc(O)c12
REMARK SMILES IDX 4 1 3 2 2 3 1 4 21 5 19 6 18 7 16 8 15 9 14 10 13 11 5 12
REMARK SMILES IDX 6 13 7 14 8 15 12 16 10 17 9 18 11 20 20 22 17 24
REMARK H PARENT 9 19 11 21 20 23 17 25
REMARK Flexibility Score: inf
ROOT
ATOM      1  C   UNL     1       5.612  -4.408  36.113  1.00  0.00     0.138 A 
ATOM      2  C   UNL     1       6.502  -3.421  35.669  1.00  0.00     0.100 A 
ATOM      3  C   UNL     1       6.235  -2.077  35.937  1.00  0.00     0.197 A 
ATOM      4  O   UNL     1       7.081  -1.221  35.574  1.00  0.00    -0.289 OA
ATOM      5  C   UNL     1       5.049  -1.719  36.625  1.00  0.00     0.107 A 
ATOM      6  C   UNL     1       4.655  -0.381  36.925  1.00  0.00     0.134 A 
ATOM      7  C   UNL     1       3.508  -0.156  37.697  1.00  0.00     0.093 A 
ATOM      8  C   UNL     1       2.711  -1.214  38.129  1.00  0.00     0.123 A 
ATOM      9  C   UNL     1       3.060  -2.525  37.800  1.00  0.00     0.094 A 
ATOM     10  C   UNL     1       4.217  -2.784  37.061  1.00  0.00     0.146 A 
ATOM     11  O   UNL     1       4.522  -4.048  36.783  1.00  0.00    -0.456 OA
ENDROOT
BRANCH   1  12
ATOM     12  C   UNL     1       5.845  -5.850  35.852  1.00  0.00     0.021 A 
ATOM     13  C   UNL     1       6.740  -6.232  34.837  1.00  0.00     0.016 A 
ATOM     14  C   UNL     1       6.973  -7.583  34.566  1.00  0.00     0.051 A 
ATOM     15  C   UNL     1       6.308  -8.574  35.297  1.00  0.00     0.157 A 
ATOM     16  C   UNL     1       5.169  -6.853  36.574  1.00  0.00     0.062 A 
ATOM     17  C   UNL     1       5.402  -8.209  36.301  1.00  0.00     0.158 A 
BRANCH  15  18
ATOM     18  O   UNL     1       6.537  -9.923  35.030  1.00  0.00    -0.504 OA
ATOM     19  H   UNL     1       5.977 -10.651  35.458  1.00  0.00     0.293 HD
ENDBRANCH  15  18
BRANCH  17  20
ATOM     20  O   UNL     1       4.733  -9.199  37.019  1.00  0.00    -0.504 OA
ATOM     21  H   UNL     1       4.050  -8.967  37.731  1.00  0.00     0.293 HD
ENDBRANCH  17  20
ENDBRANCH   1  12
BRANCH   6  22
ATOM     22  O   UNL     1       5.334   0.757  36.475  1.00  0.00    -0.507 OA
ATOM     23  H   UNL     1       5.669   1.503  37.066  1.00  0.00     0.293 HD
ENDBRANCH   6  22
BRANCH   8  24
ATOM     24  O   UNL     1       1.569  -0.952  38.883  1.00  0.00    -0.508 OA
ATOM     25  H   UNL     1       1.502  -1.225  39.857  1.00  0.00     0.293 HD
ENDBRANCH   8  24
TORSDOF 5
ENDMDL
MODEL 3
REMARK VINA RESULT:    -7.105      3.956      6.005
REMARK INTER + INTRA:          -8.627
REMARK INTER:                  -8.310
REMARK INTRA:                  -0.317
REMARK UNBOUND:                -0.276
REMARK SMILES O=c1cc(-c2ccc(O)c(O)c2)oc2cc(O)cc(O)c12
REMARK SMILES IDX 4 1 3 2 2 3 1 4 21 5 19 6 18 7 16 8 15 9 14 10 13 11 5 12
REMARK SMILES IDX 6 13 7 14 8 15 12 16 10 17 9 18 11 20 20 22 17 24
REMARK H PARENT 9 19 11 21 20 23 17 25
REMARK Flexibility Score: inf
ROOT
ATOM      1  C   UNL     1       4.228  -4.017  37.338  1.00  0.00     0.138 A 
ATOM      2  C   UNL     1       3.547  -5.000  38.067  1.00  0.00     0.100 A 
ATOM      3  C   UNL     1       3.859  -6.347  37.871  1.00  0.00     0.197 A 
ATOM      4  O   UNL     1       3.270  -7.201  38.581  1.00  0.00    -0.289 OA
ATOM      5  C   UNL     1       4.835  -6.710  36.911  1.00  0.00     0.107 A 
ATOM      6  C   UNL     1       5.212  -8.051  36.601  1.00  0.00     0.134 A 
ATOM      7  C   UNL     1       6.260  -8.284  35.702  1.00  0.00     0.093 A 
ATOM      8  C   UNL     1       6.906  -7.229  35.060  1.00  0.00     0.123 A 
ATOM      9  C   UNL     1       6.513  -5.914  35.317  1.00  0.00     0.094 A 
ATOM     10  C   UNL     1       5.494  -5.648  36.235  1.00  0.00     0.146 A 
ATOM     11  O   UNL     1       5.162  -4.382  36.465  1.00  0.00    -0.456 OA
ENDROOT
BRANCH   1  12
ATOM     12  C   UNL     1       3.934  -2.571  37.504  1.00  0.00     0.021 A 
ATOM     13  C   UNL     1       2.852  -2.175  38.309  1.00  0.00     0.016 A 
ATOM     14  C   UNL     1       2.548  -0.822  38.477  1.00  0.00     0.051 A 
ATOM     15  C   UNL     1       3.315   0.158  37.835  1.00  0.00     0.157 A 
ATOM     16  C   UNL     1       4.693  -1.580  36.850  1.00  0.00     0.062 A 
ATOM     17  C   UNL     1       4.387  -0.221  37.018  1.00  0.00     0.158 A 
BRANCH  15  18
ATOM     18  O   UNL     1       3.016   1.510  38.001  1.00  0.00    -0.504 OA
ATOM     19  H   UNL     1       3.456   2.223  37.432  1.00  0.00     0.293 HD
ENDBRANCH  15  18
BRANCH  17  20
ATOM     20  O   UNL     1       5.140   0.757  36.372  1.00  0.00    -0.504 OA
ATOM     21  H   UNL     1       6.145   0.819  36.494  1.00  0.00     0.293 HD
ENDBRANCH  17  20
ENDBRANCH   1  12
BRANCH   6  22
ATOM     22  O   UNL     1       4.581  -9.185  37.125  1.00  0.00    -0.507 OA
ATOM     23  H   UNL     1       3.939  -9.183  37.903  1.00  0.00     0.293 HD
ENDBRANCH   6  22
BRANCH   8  24
ATOM     24  O   UNL     1       7.936  -7.498  34.160  1.00  0.00    -0.508 OA
ATOM     25  H   UNL     1       8.907  -7.343  34.404  1.00  0.00     0.293 HD
ENDBRANCH   8  24
TORSDOF 5
ENDMDL
MODEL 4
REMARK VINA RESULT:    -7.081      3.687      7.096
REMARK INTER + INTRA:          -8.600
REMARK INTER:                  -8.303
REMARK INTRA:                  -0.297
REMARK UNBOUND:                -0.276
REMARK SMILES O=c1cc(-c2ccc(O)c(O)c2)oc2cc(O)cc(O)c12
REMARK SMILES IDX 4 1 3 2 2 3 1 4 21 5 19 6 18 7 16 8 15 9 14 10 13 11 5 12
REMARK SMILES IDX 6 13 7 14 8 15 12 16 10 17 9 18 11 20 20 22 17 24
REMARK H PARENT 9 19 11 21 20 23 17 25
REMARK Flexibility Score: inf
ROOT
ATOM      1  C   UNL     1       4.575  -4.907  36.982  1.00  0.00     0.138 A 
ATOM      2  C   UNL     1       3.476  -4.945  37.850  1.00  0.00     0.100 A 
ATOM      3  C   UNL     1       2.904  -3.751  38.293  1.00  0.00     0.197 A 
ATOM      4  O   UNL     1       1.884  -3.818  39.026  1.00  0.00    -0.289 OA
ATOM      5  C   UNL     1       3.460  -2.512  37.890  1.00  0.00     0.107 A 
ATOM      6  C   UNL     1       2.983  -1.232  38.305  1.00  0.00     0.134 A 
ATOM      7  C   UNL     1       3.553  -0.074  37.763  1.00  0.00     0.093 A 
ATOM      8  C   UNL     1       4.619  -0.147  36.868  1.00  0.00     0.123 A 
ATOM      9  C   UNL     1       5.128  -1.391  36.493  1.00  0.00     0.094 A 
ATOM     10  C   UNL     1       4.557  -2.566  36.990  1.00  0.00     0.146 A 
ATOM     11  O   UNL     1       5.059  -3.731  36.594  1.00  0.00    -0.456 OA
ENDROOT
BRANCH   1  12
ATOM     12  C   UNL     1       5.224  -6.145  36.483  1.00  0.00     0.021 A 
ATOM     13  C   UNL     1       6.270  -6.048  35.548  1.00  0.00     0.016 A 
ATOM     14  C   UNL     1       6.893  -7.198  35.057  1.00  0.00     0.051 A 
ATOM     15  C   UNL     1       6.476  -8.464  35.484  1.00  0.00     0.157 A 
ATOM     16  C   UNL     1       4.800  -7.423  36.897  1.00  0.00     0.062 A 
ATOM     17  C   UNL     1       5.426  -8.577  36.403  1.00  0.00     0.158 A 
BRANCH  15  18
ATOM     18  O   UNL     1       7.096  -9.614  34.997  1.00  0.00    -0.504 OA
ATOM     19  H   UNL     1       7.815 -10.093  35.526  1.00  0.00     0.293 HD
ENDBRANCH  15  18
BRANCH  17  20
ATOM     20  O   UNL     1       5.005  -9.840  36.817  1.00  0.00    -0.504 OA
ATOM     21  H   UNL     1       4.347  -9.957  37.580  1.00  0.00     0.293 HD
ENDBRANCH  17  20
ENDBRANCH   1  12
BRANCH   6  22
ATOM     22  O   UNL     1       1.974  -1.041  39.255  1.00  0.00    -0.507 OA
ATOM     23  H   UNL     1       1.193  -0.412  39.152  1.00  0.00     0.293 HD
ENDBRANCH   6  22
BRANCH   8  24
ATOM     24  O   UNL     1       5.172   1.028  36.360  1.00  0.00    -0.508 OA
ATOM     25  H   UNL     1       6.164   1.108  36.170  1.00  0.00     0.293 HD
ENDBRANCH   8  24
TORSDOF 5
ENDMDL
MODEL 5
REMARK VINA RESULT:    -7.063      4.058      7.937
REMARK INTER + INTRA:          -8.578
REMARK INTER:                  -8.283
REMARK INTRA:                  -0.295
REMARK UNBOUND:                -0.276
REMARK SMILES O=c1cc(-c2ccc(O)c(O)c2)oc2cc(O)cc(O)c12
REMARK SMILES IDX 4 1 3 2 2 3 1 4 21 5 19 6 18 7 16 8 15 9 14 10 13 11 5 12
REMARK SMILES IDX 6 13 7 14 8 15 12 16 10 17 9 18 11 20 20 22 17 24
REMARK H PARENT 9 19 11 21 20 23 17 25
REMARK Flexibility Score: inf
ROOT
ATOM      1  C   UNL     1       3.428  -4.046  38.131  1.00  0.00     0.138 A 
ATOM      2  C   UNL     1       4.020  -2.820  37.802  1.00  0.00     0.100 A 
ATOM      3  C   UNL     1       4.929  -2.752  36.744  1.00  0.00     0.197 A 
ATOM      4  O   UNL     1       5.400  -1.627  36.438  1.00  0.00    -0.289 OA
ATOM      5  C   UNL     1       5.273  -3.930  36.036  1.00  0.00     0.107 A 
ATOM      6  C   UNL     1       6.212  -3.989  34.963  1.00  0.00     0.134 A 
ATOM      7  C   UNL     1       6.398  -5.194  34.274  1.00  0.00     0.093 A 
ATOM      8  C   UNL     1       5.723  -6.353  34.654  1.00  0.00     0.123 A 
ATOM      9  C   UNL     1       4.839  -6.319  35.734  1.00  0.00     0.094 A 
ATOM     10  C   UNL     1       4.607  -5.124  36.420  1.00  0.00     0.146 A 
ATOM     11  O   UNL     1       3.744  -5.131  37.431  1.00  0.00    -0.456 OA
ENDROOT
BRANCH   1  12
ATOM     12  C   UNL     1       2.459  -4.175  39.247  1.00  0.00     0.021 A 
ATOM     13  C   UNL     1       1.682  -5.342  39.356  1.00  0.00     0.016 A 
ATOM     14  C   UNL     1       0.757  -5.487  40.393  1.00  0.00     0.051 A 
ATOM     15  C   UNL     1       0.584  -4.464  41.332  1.00  0.00     0.157 A 
ATOM     16  C   UNL     1       2.269  -3.144  40.189  1.00  0.00     0.062 A 
ATOM     17  C   UNL     1       1.339  -3.289  41.229  1.00  0.00     0.158 A 
BRANCH  15  18
ATOM     18  O   UNL     1      -0.337  -4.604  42.369  1.00  0.00    -0.504 OA
ATOM     19  H   UNL     1      -0.426  -3.906  43.098  1.00  0.00     0.293 HD
ENDBRANCH  15  18
BRANCH  17  20
ATOM     20  O   UNL     1       1.156  -2.268  42.159  1.00  0.00    -0.504 OA
ATOM     21  H   UNL     1       1.774  -1.464  42.193  1.00  0.00     0.293 HD
ENDBRANCH  17  20
ENDBRANCH   1  12
BRANCH   6  22
ATOM     22  O   UNL     1       7.000  -2.910  34.550  1.00  0.00    -0.507 OA
ATOM     23  H   UNL     1       6.794  -1.939  34.731  1.00  0.00     0.293 HD
ENDBRANCH   6  22
BRANCH   8  24
ATOM     24  O   UNL     1       5.944  -7.538  33.954  1.00  0.00    -0.508 OA
ATOM     25  H   UNL     1       6.503  -7.558  33.109  1.00  0.00     0.293 HD
ENDBRANCH   8  24
TORSDOF 5
ENDMDL
MODEL 6
REMARK VINA RESULT:    -7.011      4.333      7.988
REMARK INTER + INTRA:          -8.517
REMARK INTER:                  -8.217
REMARK INTRA:                  -0.300
REMARK UNBOUND:                -0.276
REMARK SMILES O=c1cc(-c2ccc(O)c(O)c2)oc2cc(O)cc(O)c12
REMARK SMILES IDX 4 1 3 2 2 3 1 4 21 5 19 6 18 7 16 8 15 9 14 10 13 11 5 12
REMARK SMILES IDX 6 13 7 14 8 15 12 16 10 17 9 18 11 20 20 22 17 24
REMARK H PARENT 9 19 11 21 20 23 17 25
REMARK Flexibility Score: inf
ROOT
ATOM      1  C   UNL     1       3.496  -4.816  38.321  1.00  0.00     0.138 A 
ATOM      2  C   UNL     1       3.630  -6.209  38.248  1.00  0.00     0.100 A 
ATOM      3  C   UNL     1       4.418  -6.776  37.245  1.00  0.00     0.197 A 
ATOM      4  O   UNL     1       4.564  -8.025  37.241  1.00  0.00    -0.289 OA
ATOM      5  C   UNL     1       5.047  -5.942  36.288  1.00  0.00     0.107 A 
ATOM      6  C   UNL     1       5.846  -6.408  35.202  1.00  0.00     0.134 A 
ATOM      7  C   UNL     1       6.497  -5.483  34.377  1.00  0.00     0.093 A 
ATOM      8  C   UNL     1       6.333  -4.111  34.562  1.00  0.00     0.123 A 
ATOM      9  C   UNL     1       5.514  -3.643  35.590  1.00  0.00     0.094 A 
ATOM     10  C   UNL     1       4.878  -4.541  36.452  1.00  0.00     0.146 A 
ATOM     11  O   UNL     1       4.121  -4.054  37.430  1.00  0.00    -0.456 OA
ENDROOT
BRANCH   1  12
ATOM     12  C   UNL     1       2.668  -4.161  39.364  1.00  0.00     0.021 A 
ATOM     13  C   UNL     1       1.464  -4.764  39.770  1.00  0.00     0.016 A 
ATOM     14  C   UNL     1       0.662  -4.165  40.745  1.00  0.00     0.051 A 
ATOM     15  C   UNL     1       1.044  -2.948  41.322  1.00  0.00     0.157 A 
ATOM     16  C   UNL     1       3.038  -2.929  39.940  1.00  0.00     0.062 A 
ATOM     17  C   UNL     1       2.231  -2.328  40.918  1.00  0.00     0.158 A 
BRANCH  15  18
ATOM     18  O   UNL     1       0.246  -2.347  42.296  1.00  0.00    -0.504 OA
ATOM     19  H   UNL     1       0.375  -2.544  43.281  1.00  0.00     0.293 HD
ENDBRANCH  15  18
BRANCH  17  20
ATOM     20  O   UNL     1       2.602  -1.111  41.487  1.00  0.00    -0.504 OA
ATOM     21  H   UNL     1       3.049  -1.064  42.396  1.00  0.00     0.293 HD
ENDBRANCH  17  20
ENDBRANCH   1  12
BRANCH   6  22
ATOM     22  O   UNL     1       6.016  -7.758  34.875  1.00  0.00    -0.507 OA
ATOM     23  H   UNL     1       5.913  -8.527  35.520  1.00  0.00     0.293 HD
ENDBRANCH   6  22
BRANCH   8  24
ATOM     24  O   UNL     1       6.985  -3.220  33.712  1.00  0.00    -0.508 OA
ATOM     25  H   UNL     1       6.585  -2.317  33.483  1.00  0.00     0.293 HD
ENDBRANCH   8  24
TORSDOF 5
ENDMDL
MODEL 7
REMARK VINA RESULT:    -6.955      4.356      6.385
REMARK INTER + INTRA:          -8.451
REMARK INTER:                  -8.156
REMARK INTRA:                  -0.295
REMARK UNBOUND:                -0.276
REMARK SMILES O=c1cc(-c2ccc(O)c(O)c2)oc2cc(O)cc(O)c12
REMARK SMILES IDX 4 1 3 2 2 3 1 4 21 5 19 6 18 7 16 8 15 9 14 10 13 11 5 12
REMARK SMILES IDX 6 13 7 14 8 15 12 16 10 17 9 18 11 20 20 22 17 24
REMARK H PARENT 9 19 11 21 20 23 17 25
REMARK Flexibility Score: inf
ROOT
ATOM      1  C   UNL     1       3.289  -4.093  37.275  1.00  0.00     0.138 A 
ATOM      2  C   UNL     1       2.587  -5.159  37.853  1.00  0.00     0.100 A 
ATOM      3  C   UNL     1       2.017  -5.005  39.118  1.00  0.00     0.197 A 
ATOM      4  O   UNL     1       1.346  -5.960  39.586  1.00  0.00    -0.289 OA
ATOM      5  C   UNL     1       2.185  -3.788  39.823  1.00  0.00     0.107 A 
ATOM      6  C   UNL     1       1.679  -3.528  41.131  1.00  0.00     0.134 A 
ATOM      7  C   UNL     1       1.823  -2.251  41.687  1.00  0.00     0.093 A 
ATOM      8  C   UNL     1       2.504  -1.243  41.007  1.00  0.00     0.123 A 
ATOM      9  C   UNL     1       3.047  -1.499  39.747  1.00  0.00     0.094 A 
ATOM     10  C   UNL     1       2.889  -2.753  39.151  1.00  0.00     0.146 A 
ATOM     11  O   UNL     1       3.406  -2.950  37.943  1.00  0.00    -0.456 OA
ENDROOT
BRANCH   1  12
ATOM     12  C   UNL     1       3.917  -4.203  35.934  1.00  0.00     0.021 A 
ATOM     13  C   UNL     1       3.222  -4.848  34.896  1.00  0.00     0.016 A 
ATOM     14  C   UNL     1       3.793  -4.971  33.627  1.00  0.00     0.051 A 
ATOM     15  C   UNL     1       5.072  -4.462  33.376  1.00  0.00     0.157 A 
ATOM     16  C   UNL     1       5.210  -3.705  35.678  1.00  0.00     0.062 A 
ATOM     17  C   UNL     1       5.783  -3.831  34.404  1.00  0.00     0.158 A 
BRANCH  15  18
ATOM     18  O   UNL     1       5.645  -4.582  32.111  1.00  0.00    -0.504 OA
ATOM     19  H   UNL     1       5.632  -5.459  31.605  1.00  0.00     0.293 HD
ENDBRANCH  15  18
BRANCH  17  20
ATOM     20  O   UNL     1       7.062  -3.335  34.153  1.00  0.00    -0.504 OA
ATOM     21  H   UNL     1       7.418  -2.517  34.636  1.00  0.00     0.293 HD
ENDBRANCH  17  20
ENDBRANCH   1  12
BRANCH   6  22
ATOM     22  O   UNL     1       1.051  -4.487  41.934  1.00  0.00    -0.507 OA
ATOM     23  H   UNL     1       1.300  -5.464  41.973  1.00  0.00     0.293 HD
ENDBRANCH   6  22
BRANCH   8  24
ATOM     24  O   UNL     1       2.642   0.013  41.597  1.00  0.00    -0.508 OA
ATOM     25  H   UNL     1       3.450   0.597  41.418  1.00  0.00     0.293 HD
ENDBRANCH   8  24
TORSDOF 5
ENDMDL
MODEL 8
REMARK VINA RESULT:    -6.937      1.232      2.716
REMARK INTER + INTRA:          -8.430
REMARK INTER:                  -8.149
REMARK INTRA:                  -0.281
REMARK UNBOUND:                -0.276
REMARK SMILES O=c1cc(-c2ccc(O)c(O)c2)oc2cc(O)cc(O)c12
REMARK SMILES IDX 4 1 3 2 2 3 1 4 21 5 19 6 18 7 16 8 15 9 14 10 13 11 5 12
REMARK SMILES IDX 6 13 7 14 8 15 12 16 10 17 9 18 11 20 20 22 17 24
REMARK H PARENT 9 19 11 21 20 23 17 25
REMARK Flexibility Score: inf
ROOT
ATOM      1  C   UNL     1       7.007  -0.826  35.722  1.00  0.00     0.138 A 
ATOM      2  C   UNL     1       7.038  -2.225  35.652  1.00  0.00     0.100 A 
ATOM      3  C   UNL     1       5.964  -2.966  36.149  1.00  0.00     0.197 A 
ATOM      4  O   UNL     1       5.998  -4.216  36.021  1.00  0.00    -0.289 OA
ATOM      5  C   UNL     1       4.869  -2.300  36.752  1.00  0.00     0.107 A 
ATOM      6  C   UNL     1       3.735  -2.951  37.322  1.00  0.00     0.134 A 
ATOM      7  C   UNL     1       2.667  -2.183  37.802  1.00  0.00     0.093 A 
ATOM      8  C   UNL     1       2.716  -0.790  37.785  1.00  0.00     0.123 A 
ATOM      9  C   UNL     1       3.841  -0.141  37.275  1.00  0.00     0.094 A 
ATOM     10  C   UNL     1       4.908  -0.880  36.757  1.00  0.00     0.146 A 
ATOM     11  O   UNL     1       5.953  -0.224  36.264  1.00  0.00    -0.456 OA
ENDROOT
BRANCH   1  12
ATOM     12  C   UNL     1       8.122   0.010  35.212  1.00  0.00     0.021 A 
ATOM     13  C   UNL     1       8.540  -0.133  33.877  1.00  0.00     0.016 A 
ATOM     14  C   UNL     1       9.592   0.636  33.374  1.00  0.00     0.051 A 
ATOM     15  C   UNL     1      10.252   1.554  34.199  1.00  0.00     0.157 A 
ATOM     16  C   UNL     1       8.801   0.927  36.040  1.00  0.00     0.062 A 
ATOM     17  C   UNL     1       9.858   1.698  35.534  1.00  0.00     0.158 A 
BRANCH  15  18
ATOM     18  O   UNL     1      11.302   2.325  33.700  1.00  0.00    -0.504 OA
ATOM     19  H   UNL     1      11.764   2.090  32.831  1.00  0.00     0.293 HD
ENDBRANCH  15  18
BRANCH  17  20
ATOM     20  O   UNL     1      10.525   2.606  36.356  1.00  0.00    -0.504 OA
ATOM     21  H   UNL     1      11.536   2.687  36.346  1.00  0.00     0.293 HD
ENDBRANCH  17  20
ENDBRANCH   1  12
BRANCH   6  22
ATOM     22  O   UNL     1       3.615  -4.338  37.464  1.00  0.00    -0.507 OA
ATOM     23  H   UNL     1       2.752  -4.855  37.390  1.00  0.00     0.293 HD
ENDBRANCH   6  22
BRANCH   8  24
ATOM     24  O   UNL     1       1.640  -0.058  38.285  1.00  0.00    -0.508 OA
ATOM     25  H   UNL     1       0.831  -0.514  38.689  1.00  0.00     0.293 HD
ENDBRANCH   8  24
TORSDOF 5
ENDMDL
MODEL 9
REMARK VINA RESULT:    -6.903      4.142      6.159
REMARK INTER + INTRA:          -8.389
REMARK INTER:                  -8.090
REMARK INTRA:                  -0.299
REMARK UNBOUND:                -0.276
REMARK SMILES O=c1cc(-c2ccc(O)c(O)c2)oc2cc(O)cc(O)c12
REMARK SMILES IDX 4 1 3 2 2 3 1 4 21 5 19 6 18 7 16 8 15 9 14 10 13 11 5 12
REMARK SMILES IDX 6 13 7 14 8 15 12 16 10 17 9 18 11 20 20 22 17 24
REMARK H PARENT 9 19 11 21 20 23 17 25
REMARK Flexibility Score: inf
ROOT
ATOM      1  C   UNL     1       3.418  -3.375  37.936  1.00  0.00     0.138 A 
ATOM      2  C   UNL     1       3.415  -2.168  38.649  1.00  0.00     0.100 A 
ATOM      3  C   UNL     1       2.597  -2.031  39.772  1.00  0.00     0.197 A 
ATOM      4  O   UNL     1       2.659  -0.957  40.423  1.00  0.00    -0.289 OA
ATOM      5  C   UNL     1       1.750  -3.098  40.161  1.00  0.00     0.107 A 
ATOM      6  C   UNL     1       0.850  -3.061  41.267  1.00  0.00     0.134 A 
ATOM      7  C   UNL     1       0.134  -4.213  41.614  1.00  0.00     0.093 A 
ATOM      8  C   UNL     1       0.242  -5.382  40.862  1.00  0.00     0.123 A 
ATOM      9  C   UNL     1       1.082  -5.416  39.748  1.00  0.00     0.094 A 
ATOM     10  C   UNL     1       1.836  -4.293  39.397  1.00  0.00     0.146 A 
ATOM     11  O   UNL     1       2.637  -4.372  38.340  1.00  0.00    -0.456 OA
ENDROOT
BRANCH   1  12
ATOM     12  C   UNL     1       4.265  -3.574  36.734  1.00  0.00     0.021 A 
ATOM     13  C   UNL     1       5.550  -3.005  36.692  1.00  0.00     0.016 A 
ATOM     14  C   UNL     1       6.365  -3.171  35.570  1.00  0.00     0.051 A 
ATOM     15  C   UNL     1       5.906  -3.898  34.466  1.00  0.00     0.157 A 
ATOM     16  C   UNL     1       3.805  -4.293  35.613  1.00  0.00     0.062 A 
ATOM     17  C   UNL     1       4.623  -4.458  34.486  1.00  0.00     0.158 A 
BRANCH  15  18
ATOM     18  O   UNL     1       6.717  -4.067  33.344  1.00  0.00    -0.504 OA
ATOM     19  H   UNL     1       6.637  -3.460  32.537  1.00  0.00     0.293 HD
ENDBRANCH  15  18
BRANCH  17  20
ATOM     20  O   UNL     1       4.165  -5.171  33.379  1.00  0.00    -0.504 OA
ATOM     21  H   UNL     1       3.693  -4.711  32.609  1.00  0.00     0.293 HD
ENDBRANCH  17  20
ENDBRANCH   1  12
BRANCH   6  22
ATOM     22  O   UNL     1       0.603  -1.921  42.040  1.00  0.00    -0.507 OA
ATOM     23  H   UNL     1       1.058  -1.705  42.914  1.00  0.00     0.293 HD
ENDBRANCH   6  22
BRANCH   8  24
ATOM     24  O   UNL     1      -0.497  -6.506  41.227  1.00  0.00    -0.508 OA
ATOM     25  H   UNL     1      -1.001  -6.546  42.106  1.00  0.00     0.293 HD
ENDBRANCH   8  24
TORSDOF 5
ENDMDL
