MODEL 1
REMARK VINA RESULT:    -1.822      0.000      0.000
REMARK INTER + INTRA:          -1.822
REMARK INTER:                  -1.822
REMARK INTRA:                   0.000
REMARK UNBOUND:                 0.000
REMARK SMILES CC(=O)[O-]
REMARK SMILES IDX 1 1 2 2 3 3 4 4
REMARK H PARENT
REMARK Flexibility Score: inf
ROOT
ATOM      1  C   UNL     1      49.629  49.763   8.395  1.00  0.00     0.063 C 
ATOM      2  C   UNL     1      50.579  49.985   9.521  1.00  0.00     0.038 C 
ATOM      3  O   UNL     1      50.158  50.020  10.707  1.00  0.00    -0.550 OA
ATOM      4  O   UNL     1      51.942  50.098   9.270  1.00  0.00    -0.550 OA
ENDROOT
TORSDOF 0
ENDMDL
MODEL 2
REMARK VINA RESULT:    -1.765     15.054     15.267
REMARK INTER + INTRA:          -1.765
REMARK INTER:                  -1.765
REMARK INTRA:                   0.000
REMARK UNBOUND:                 0.000
REMARK SMILES CC(=O)[O-]
REMARK SMILES IDX 1 1 2 2 3 3 4 4
REMARK H PARENT
REMARK Flexibility Score: inf
ROOT
ATOM      1  C   UNL     1      56.115  34.721  12.639  1.00  0.00     0.063 C 
ATOM      2  C   UNL     1      55.564  35.986  12.074  1.00  0.00     0.038 C 
ATOM      3  O   UNL     1      56.121  36.533  11.087  1.00  0.00    -0.550 OA
ATOM      4  O   UNL     1      54.401  36.536  12.601  1.00  0.00    -0.550 OA
ENDROOT
TORSDOF 0
ENDMDL
MODEL 3
REMARK VINA RESULT:    -1.747     15.081     15.210
REMARK INTER + INTRA:          -1.747
REMARK INTER:                  -1.747
REMARK INTRA:                   0.000
REMARK UNBOUND:                 0.000
REMARK SMILES CC(=O)[O-]
REMARK SMILES IDX 1 1 2 2 3 3 4 4
REMARK H PARENT
REMARK Flexibility Score: inf
ROOT
ATOM      1  C   UNL     1      56.125  34.736  12.755  1.00  0.00     0.063 C 
ATOM      2  C   UNL     1      55.500  35.948  12.154  1.00  0.00     0.038 C 
ATOM      3  O   UNL     1      54.470  36.452  12.673  1.00  0.00    -0.550 OA
ATOM      4  O   UNL     1      56.085  36.559  11.051  1.00  0.00    -0.550 OA
ENDROOT
TORSDOF 0
ENDMDL
MODEL 4
REMARK VINA RESULT:    -1.668      9.542     10.064
REMARK INTER + INTRA:          -1.668
REMARK INTER:                  -1.668
REMARK INTRA:                   0.000
REMARK UNBOUND:                 0.000
REMARK SMILES CC(=O)[O-]
REMARK SMILES IDX 1 1 2 2 3 3 4 4
REMARK H PARENT
REMARK Flexibility Score: inf
ROOT
ATOM      1  C   UNL     1      47.099  42.390  14.110  1.00  0.00     0.063 C 
ATOM      2  C   UNL     1      45.961  43.059  14.803  1.00  0.00     0.038 C 
ATOM      3  O   UNL     1      45.957  44.309  14.950  1.00  0.00    -0.550 OA
ATOM      4  O   UNL     1      44.875  42.310  15.240  1.00  0.00    -0.550 OA
ENDROOT
TORSDOF 0
ENDMDL
MODEL 5
REMARK VINA RESULT:    -1.665     16.066     16.539
REMARK INTER + INTRA:          -1.665
REMARK INTER:                  -1.665
REMARK INTRA:                   0.000
REMARK UNBOUND:                 0.000
REMARK SMILES CC(=O)[O-]
REMARK SMILES IDX 1 1 2 2 3 3 4 4
REMARK H PARENT
REMARK Flexibility Score: inf
ROOT
ATOM      1  C   UNL     1      63.519  44.052  14.953  1.00  0.00     0.063 C 
ATOM      2  C   UNL     1      64.134  42.800  15.476  1.00  0.00     0.038 C 
ATOM      3  O   UNL     1      65.123  42.288  14.889  1.00  0.00    -0.550 OA
ATOM      4  O   UNL     1      63.654  42.223  16.646  1.00  0.00    -0.550 OA
ENDROOT
TORSDOF 0
ENDMDL
MODEL 6
REMARK VINA RESULT:    -1.625     14.881     14.975
REMARK INTER + INTRA:          -1.625
REMARK INTER:                  -1.625
REMARK INTRA:                   0.000
REMARK UNBOUND:                 0.000
REMARK SMILES CC(=O)[O-]
REMARK SMILES IDX 1 1 2 2 3 3 4 4
REMARK H PARENT
REMARK Flexibility Score: inf
ROOT
ATOM      1  C   UNL     1      55.658  36.184  11.868  1.00  0.00     0.063 C 
ATOM      2  C   UNL     1      54.393  35.955  12.622  1.00  0.00     0.038 C 
ATOM      3  O   UNL     1      53.877  36.889  13.290  1.00  0.00    -0.550 OA
ATOM      4  O   UNL     1      53.749  34.725  12.546  1.00  0.00    -0.550 OA
ENDROOT
TORSDOF 0
ENDMDL
MODEL 7
REMARK VINA RESULT:    -1.616      8.870      9.233
REMARK INTER + INTRA:          -1.616
REMARK INTER:                  -1.616
REMARK INTRA:                   0.000
REMARK UNBOUND:                 0.000
REMARK SMILES CC(=O)[O-]
REMARK SMILES IDX 1 1 2 2 3 3 4 4
REMARK H PARENT
REMARK Flexibility Score: inf
ROOT
ATOM      1  C   UNL     1      48.585  43.598  14.873  1.00  0.00     0.063 C 
ATOM      2  C   UNL     1      47.220  43.193  14.432  1.00  0.00     0.038 C 
ATOM      3  O   UNL     1      46.281  44.032  14.433  1.00  0.00    -0.550 OA
ATOM      4  O   UNL     1      46.993  41.904  13.966  1.00  0.00    -0.550 OA
ENDROOT
TORSDOF 0
ENDMDL
MODEL 8
REMARK VINA RESULT:    -1.606      9.769     10.182
REMARK INTER + INTRA:          -1.606
REMARK INTER:                  -1.606
REMARK INTRA:                   0.000
REMARK UNBOUND:                 0.000
REMARK SMILES CC(=O)[O-]
REMARK SMILES IDX 1 1 2 2 3 3 4 4
REMARK H PARENT
REMARK Flexibility Score: inf
ROOT
ATOM      1  C   UNL     1      45.114  41.783  15.252  1.00  0.00     0.063 C 
ATOM      2  C   UNL     1      46.172  42.589  14.580  1.00  0.00     0.038 C 
ATOM      3  O   UNL     1      47.053  42.020  13.882  1.00  0.00    -0.550 OA
ATOM      4  O   UNL     1      46.159  43.975  14.677  1.00  0.00    -0.550 OA
ENDROOT
TORSDOF 0
ENDMDL
MODEL 9
REMARK VINA RESULT:    -1.579      1.885      2.015
REMARK INTER + INTRA:          -1.579
REMARK INTER:                  -1.579
REMARK INTRA:                   0.000
REMARK UNBOUND:                 0.000
REMARK SMILES CC(=O)[O-]
REMARK SMILES IDX 1 1 2 2 3 3 4 4
REMARK H PARENT
REMARK Flexibility Score: inf
ROOT
ATOM      1  C   UNL     1      51.494  49.649   9.599  1.00  0.00     0.063 C 
ATOM      2  C   UNL     1      51.284  49.702  11.074  1.00  0.00     0.038 C 
ATOM      3  O   UNL     1      50.122  49.821  11.542  1.00  0.00    -0.550 OA
ATOM      4  O   UNL     1      52.365  49.565  11.937  1.00  0.00    -0.550 OA
ENDROOT
TORSDOF 0
ENDMDL
