MODEL 1
REMARK VINA RESULT:     4.289      0.000      0.000
REMARK INTER + INTRA:           5.200
REMARK INTER:                   5.292
REMARK INTRA:                  -0.092
REMARK UNBOUND:                -0.092
REMARK SMILES CCCCCC(=O)[O-]
REMARK SMILES IDX 4 1 5 2 6 3 7 4 8 5 3 6 2 7 1 8
REMARK H PARENT
REMARK Flexibility Score: inf
ROOT
ATOM      1  C   UNL     1      -9.211 -17.496  29.133  1.00  0.00     0.006 C 
ENDROOT
BRANCH   1   2
ATOM      2  C   UNL     1      -7.947 -17.495  30.009  1.00  0.00     0.053 C 
BRANCH   2   3
ATOM      3  C   UNL     1      -8.277 -17.451  31.470  1.00  0.00     0.041 C 
ATOM      4  O   UNL     1      -8.113 -16.388  32.125  1.00  0.00    -0.550 OA
ATOM      5  O   UNL     1      -8.795 -18.576  32.100  1.00  0.00    -0.550 OA
ENDBRANCH   2   3
ENDBRANCH   1   2
BRANCH   1   6
ATOM      6  C   UNL     1      -8.940 -17.697  27.631  1.00  0.00     0.000 C 
BRANCH   6   7
ATOM      7  C   UNL     1      -7.696 -16.938  27.145  1.00  0.00    -0.003 C 
ATOM      8  C   UNL     1      -6.654 -17.898  26.577  1.00  0.00     0.004 C 
ENDBRANCH   6   7
ENDBRANCH   1   6
TORSDOF 4
ENDMDL
MODEL 2
REMARK VINA RESULT:     4.788      2.630      3.721
REMARK INTER + INTRA:           5.815
REMARK INTER:                   5.916
REMARK INTRA:                  -0.101
REMARK UNBOUND:                -0.092
REMARK SMILES CCCCCC(=O)[O-]
REMARK SMILES IDX 4 1 5 2 6 3 7 4 8 5 3 6 2 7 1 8
REMARK H PARENT
REMARK Flexibility Score: inf
ROOT
ATOM      1  C   UNL     1      -7.313 -17.895  26.177  1.00  0.00     0.006 C 
ENDROOT
BRANCH   1   2
ATOM      2  C   UNL     1      -7.660 -17.064  27.423  1.00  0.00     0.053 C 
BRANCH   2   3
ATOM      3  C   UNL     1      -9.097 -17.219  27.818  1.00  0.00     0.041 C 
ATOM      4  O   UNL     1      -9.468 -18.228  28.474  1.00  0.00    -0.550 OA
ATOM      5  O   UNL     1     -10.020 -16.234  27.489  1.00  0.00    -0.550 OA
ENDBRANCH   2   3
ENDBRANCH   1   2
BRANCH   1   6
ATOM      6  C   UNL     1      -5.832 -18.306  26.083  1.00  0.00     0.000 C 
BRANCH   6   7
ATOM      7  C   UNL     1      -5.003 -17.816  27.280  1.00  0.00    -0.003 C 
ATOM      8  C   UNL     1      -3.513 -17.803  26.947  1.00  0.00     0.004 C 
ENDBRANCH   6   7
ENDBRANCH   1   6
TORSDOF 4
ENDMDL
MODEL 3
REMARK VINA RESULT:     6.588     17.530     18.216
REMARK INTER + INTRA:           8.036
REMARK INTER:                   8.118
REMARK INTRA:                  -0.082
REMARK UNBOUND:                -0.092
REMARK SMILES CCCCCC(=O)[O-]
REMARK SMILES IDX 4 1 5 2 6 3 7 4 8 5 3 6 2 7 1 8
REMARK H PARENT
REMARK Flexibility Score: inf
ROOT
ATOM      1  C   UNL     1      -3.766 -12.133  12.968  1.00  0.00     0.006 C 
ENDROOT
BRANCH   1   2
ATOM      2  C   UNL     1      -4.282 -10.738  12.577  1.00  0.00     0.053 C 
BRANCH   2   3
ATOM      3  C   UNL     1      -4.273  -9.791  13.738  1.00  0.00     0.041 C 
ATOM      4  O   UNL     1      -4.262 -10.233  14.916  1.00  0.00    -0.550 OA
ATOM      5  O   UNL     1      -4.246  -8.419  13.517  1.00  0.00    -0.550 OA
ENDBRANCH   2   3
ENDBRANCH   1   2
BRANCH   1   6
ATOM      6  C   UNL     1      -2.460 -12.544  12.264  1.00  0.00     0.000 C 
BRANCH   6   7
ATOM      7  C   UNL     1      -1.330 -12.872  13.253  1.00  0.00    -0.003 C 
ATOM      8  C   UNL     1      -1.306 -14.362  13.583  1.00  0.00     0.004 C 
ENDBRANCH   6   7
ENDBRANCH   1   6
TORSDOF 4
ENDMDL
MODEL 4
REMARK VINA RESULT:     6.849     17.424     18.528
REMARK INTER + INTRA:           8.358
REMARK INTER:                   8.440
REMARK INTRA:                  -0.082
REMARK UNBOUND:                -0.092
REMARK SMILES CCCCCC(=O)[O-]
REMARK SMILES IDX 4 1 5 2 6 3 7 4 8 5 3 6 2 7 1 8
REMARK H PARENT
REMARK Flexibility Score: inf
ROOT
ATOM      1  C   UNL     1      -3.566 -11.635  13.389  1.00  0.00     0.006 C 
ENDROOT
BRANCH   1   2
ATOM      2  C   UNL     1      -3.053 -12.696  12.401  1.00  0.00     0.053 C 
BRANCH   2   3
ATOM      3  C   UNL     1      -1.613 -13.034  12.638  1.00  0.00     0.041 C 
ATOM      4  O   UNL     1      -0.714 -12.519  11.922  1.00  0.00    -0.550 OA
ATOM      5  O   UNL     1      -1.261 -13.894  13.671  1.00  0.00    -0.550 OA
ENDBRANCH   2   3
ENDBRANCH   1   2
BRANCH   1   6
ATOM      6  C   UNL     1      -4.339 -10.479  12.730  1.00  0.00     0.000 C 
BRANCH   6   7
ATOM      7  C   UNL     1      -4.338  -9.201  13.582  1.00  0.00    -0.003 C 
ATOM      8  C   UNL     1      -4.038  -9.517  15.045  1.00  0.00     0.004 C 
ENDBRANCH   6   7
ENDBRANCH   1   6
TORSDOF 4
ENDMDL
MODEL 5
REMARK VINA RESULT:     6.915      2.889      4.410
REMARK INTER + INTRA:           8.440
REMARK INTER:                   8.521
REMARK INTRA:                  -0.081
REMARK UNBOUND:                -0.092
REMARK SMILES CCCCCC(=O)[O-]
REMARK SMILES IDX 4 1 5 2 6 3 7 4 8 5 3 6 2 7 1 8
REMARK H PARENT
REMARK Flexibility Score: inf
ROOT
ATOM      1  C   UNL     1      -8.312 -17.500  29.635  1.00  0.00     0.006 C 
ENDROOT
BRANCH   1   2
ATOM      2  C   UNL     1      -8.907 -17.532  28.218  1.00  0.00     0.053 C 
BRANCH   2   3
ATOM      3  C   UNL     1      -7.919 -17.086  27.184  1.00  0.00     0.041 C 
ATOM      4  O   UNL     1      -8.115 -16.025  26.535  1.00  0.00    -0.550 OA
ATOM      5  O   UNL     1      -6.764 -17.825  26.960  1.00  0.00    -0.550 OA
ENDBRANCH   2   3
ENDBRANCH   1   2
BRANCH   1   6
ATOM      6  C   UNL     1      -9.250 -18.044  30.728  1.00  0.00     0.000 C 
BRANCH   6   7
ATOM      7  C   UNL     1      -8.912 -17.502  32.125  1.00  0.00    -0.003 C 
ATOM      8  C   UNL     1      -7.576 -16.765  32.119  1.00  0.00     0.004 C 
ENDBRANCH   6   7
ENDBRANCH   1   6
TORSDOF 4
ENDMDL
