MODEL 1
REMARK VINA RESULT:    -4.266      0.000      0.000
REMARK INTER + INTRA:          -4.221
REMARK INTER:                  -5.264
REMARK INTRA:                   1.043
REMARK UNBOUND:                 1.043
REMARK SMILES CC1=CC=CC(C)(C)CC1=O
REMARK SMILES IDX 1 1 2 2 3 3 10 4 11 5 9 6 4 8 5 9 6 10 7 11 8 12
REMARK H PARENT
REMARK Flexibility Score: 80.00
ROOT
ATOM      1  C   UNL     1     -11.221  73.379  33.681  1.00  0.00     0.048 C 
ATOM      2  C   UNL     1     -10.578  73.326  32.316  1.00  0.00    -0.008 C 
ATOM      3  C   UNL     1     -10.239  72.111  31.831  1.00  0.00     0.007 C 
ENDROOT
BRANCH   2   4
ATOM      4  C   UNL     1     -10.302  74.621  31.648  1.00  0.00     0.159 C 
ATOM      5  O   UNL     1     -10.839  75.668  32.104  1.00  0.00    -0.295 OA
BRANCH   4   6
ATOM      6  C   UNL     1      -9.423  74.760  30.442  1.00  0.00     0.091 CG0
ATOM      7  G   UNL     1      -9.892  73.903  29.246  1.00  0.00     0.000 G0
ENDBRANCH   4   6
ENDBRANCH   2   4
BRANCH   3   8
ATOM      8  C   UNL     1      -9.581  71.746  30.555  1.00  0.00    -0.003 C 
ATOM      9  C   UNL     1      -9.405  72.489  29.453  1.00  0.00    -0.020 C 
BRANCH   9  10
ATOM     10  C   UNL     1      -9.877  73.908  29.242  1.00  0.00    -0.010 CG0
ATOM     11  C   UNL     1     -11.421  73.902  29.190  1.00  0.00     0.016 C 
ATOM     12  C   UNL     1      -9.356  74.442  27.888  1.00  0.00     0.016 C 
ATOM     13  G   UNL     1      -9.440  74.785  30.436  1.00  0.00     0.000 G0
ENDBRANCH   9  10
ENDBRANCH   3   8
TORSDOF 0
ENDMDL
MODEL 2
REMARK VINA RESULT:    -4.192      1.300      1.794
REMARK INTER + INTRA:          -4.130
REMARK INTER:                  -4.884
REMARK INTRA:                   0.754
REMARK UNBOUND:                 1.043
REMARK SMILES CC1=CC=CC(C)(C)CC1=O
REMARK SMILES IDX 1 1 2 2 3 3 10 4 11 5 9 6 4 8 5 9 6 10 7 11 8 12
REMARK H PARENT
REMARK Flexibility Score: 80.00
ROOT
ATOM      1  C   UNL     1     -10.574  73.591  33.002  1.00  0.00     0.048 C 
ATOM      2  C   UNL     1     -10.777  73.464  31.510  1.00  0.00    -0.008 C 
ATOM      3  C   UNL     1     -11.629  72.511  31.075  1.00  0.00     0.007 C 
ENDROOT
BRANCH   2   4
ATOM      4  C   UNL     1      -9.964  74.348  30.640  1.00  0.00     0.159 C 
ATOM      5  O   UNL     1      -9.013  75.000  31.152  1.00  0.00    -0.295 OA
BRANCH   4   6
ATOM      6  C   UNL     1     -10.216  74.524  29.173  1.00  0.00     0.091 CG0
ATOM      7  G   UNL     1     -10.099  73.207  28.373  1.00  0.00     0.000 G0
ENDBRANCH   4   6
ENDBRANCH   2   4
BRANCH   3   8
ATOM      8  C   UNL     1     -12.008  72.133  29.693  1.00  0.00    -0.003 C 
ATOM      9  C   UNL     1     -11.379  72.404  28.541  1.00  0.00    -0.020 C 
BRANCH   9  10
ATOM     10  C   UNL     1     -10.109  73.206  28.379  1.00  0.00    -0.010 CG0
ATOM     11  C   UNL     1      -9.952  73.566  26.885  1.00  0.00     0.016 C 
ATOM     12  C   UNL     1      -8.888  72.353  28.795  1.00  0.00     0.016 C 
ATOM     13  G   UNL     1     -10.219  74.521  29.181  1.00  0.00     0.000 G0
ENDBRANCH   9  10
ENDBRANCH   3   8
TORSDOF 0
ENDMDL
MODEL 3
REMARK VINA RESULT:    -4.190      1.976      3.858
REMARK INTER + INTRA:          -4.127
REMARK INTER:                  -4.884
REMARK INTRA:                   0.757
REMARK UNBOUND:                 1.043
REMARK SMILES CC1=CC=CC(C)(C)CC1=O
REMARK SMILES IDX 1 1 2 2 3 3 10 4 11 5 9 6 4 8 5 9 6 10 7 11 8 12
REMARK H PARENT
REMARK Flexibility Score: 80.00
ROOT
ATOM      1  C   UNL     1     -10.710  73.943  26.948  1.00  0.00     0.048 C 
ATOM      2  C   UNL     1     -10.612  73.940  28.455  1.00  0.00    -0.008 C 
ATOM      3  C   UNL     1      -9.749  74.807  29.027  1.00  0.00     0.007 C 
ENDROOT
BRANCH   2   4
ATOM      4  C   UNL     1     -11.418  72.929  29.182  1.00  0.00     0.159 C 
ATOM      5  O   UNL     1     -11.975  72.006  28.525  1.00  0.00    -0.295 OA
BRANCH   4   6
ATOM      6  C   UNL     1     -11.622  72.945  30.667  1.00  0.00     0.091 CG0
ATOM      7  G   UNL     1     -10.301  72.856  31.464  1.00  0.00     0.000 G0
ENDBRANCH   4   6
ENDBRANCH   2   4
BRANCH   3   8
ATOM      8  C   UNL     1      -9.418  75.017  30.456  1.00  0.00    -0.003 C 
ATOM      9  C   UNL     1      -9.628  74.202  31.499  1.00  0.00    -0.020 C 
BRANCH   9  10
ATOM     10  C   UNL     1     -10.297  72.849  31.461  1.00  0.00    -0.010 CG0
ATOM     11  C   UNL     1     -10.639  72.436  32.910  1.00  0.00     0.016 C 
ATOM     12  C   UNL     1      -9.324  71.795  30.883  1.00  0.00     0.016 C 
ATOM     13  G   UNL     1     -11.616  72.942  30.663  1.00  0.00     0.000 G0
ENDBRANCH   9  10
ENDBRANCH   3   8
TORSDOF 0
ENDMDL
MODEL 4
REMARK VINA RESULT:    -4.121      1.599      3.529
REMARK INTER + INTRA:          -4.042
REMARK INTER:                  -5.105
REMARK INTRA:                   1.063
REMARK UNBOUND:                 1.043
REMARK SMILES CC1=CC=CC(C)(C)CC1=O
REMARK SMILES IDX 1 1 2 2 3 3 10 4 11 5 9 6 4 8 5 9 6 10 7 11 8 12
REMARK H PARENT
REMARK Flexibility Score: 80.00
ROOT
ATOM      1  C   UNL     1      -9.780  75.007  27.466  1.00  0.00     0.048 C 
ATOM      2  C   UNL     1     -10.397  74.141  28.538  1.00  0.00    -0.008 C 
ATOM      3  C   UNL     1     -11.212  73.139  28.141  1.00  0.00     0.007 C 
ENDROOT
BRANCH   2   4
ATOM      4  C   UNL     1     -10.119  74.509  29.948  1.00  0.00     0.159 C 
ATOM      5  O   UNL     1      -9.153  75.283  30.195  1.00  0.00    -0.295 OA
BRANCH   4   6
ATOM      6  C   UNL     1     -10.917  74.001  31.109  1.00  0.00     0.091 CG0
ATOM      7  G   UNL     1     -10.883  72.463  31.245  1.00  0.00     0.000 G0
ENDBRANCH   4   6
ENDBRANCH   2   4
BRANCH   3   8
ATOM      8  C   UNL     1     -11.972  72.154  28.947  1.00  0.00    -0.003 C 
ATOM      9  C   UNL     1     -11.857  71.862  30.249  1.00  0.00    -0.020 C 
BRANCH   9  10
ATOM     10  C   UNL     1     -10.876  72.470  31.223  1.00  0.00    -0.010 CG0
ATOM     11  C   UNL     1      -9.456  71.993  30.841  1.00  0.00     0.016 C 
ATOM     12  C   UNL     1     -11.176  71.972  32.656  1.00  0.00     0.016 C 
ATOM     13  G   UNL     1     -10.914  74.009  31.108  1.00  0.00     0.000 G0
ENDBRANCH   9  10
ENDBRANCH   3   8
TORSDOF 0
ENDMDL
MODEL 5
REMARK VINA RESULT:    -4.027      2.036      3.874
REMARK INTER + INTRA:          -3.926
REMARK INTER:                  -4.986
REMARK INTRA:                   1.061
REMARK UNBOUND:                 1.043
REMARK SMILES CC1=CC=CC(C)(C)CC1=O
REMARK SMILES IDX 1 1 2 2 3 3 10 4 11 5 9 6 4 8 5 9 6 10 7 11 8 12
REMARK H PARENT
REMARK Flexibility Score: 80.00
ROOT
ATOM      1  C   UNL     1      -9.788  73.543  26.470  1.00  0.00     0.048 C 
ATOM      2  C   UNL     1     -10.035  73.087  27.889  1.00  0.00    -0.008 C 
ATOM      3  C   UNL     1      -8.985  72.588  28.577  1.00  0.00     0.007 C 
ENDROOT
BRANCH   2   4
ATOM      4  C   UNL     1     -11.431  73.154  28.386  1.00  0.00     0.159 C 
ATOM      5  O   UNL     1     -12.269  73.856  27.757  1.00  0.00    -0.295 OA
BRANCH   4   6
ATOM      6  C   UNL     1     -11.906  72.438  29.614  1.00  0.00     0.091 CG0
ATOM      7  G   UNL     1     -11.147  72.853  30.893  1.00  0.00     0.000 G0
ENDBRANCH   4   6
ENDBRANCH   2   4
BRANCH   3   8
ATOM      8  C   UNL     1      -8.922  72.045  29.954  1.00  0.00    -0.003 C 
ATOM      9  C   UNL     1      -9.826  72.135  30.939  1.00  0.00    -0.020 C 
BRANCH   9  10
ATOM     10  C   UNL     1     -11.150  72.859  30.879  1.00  0.00    -0.010 CG0
ATOM     11  C   UNL     1     -10.870  74.376  30.793  1.00  0.00     0.016 C 
ATOM     12  C   UNL     1     -11.956  72.594  32.172  1.00  0.00     0.016 C 
ATOM     13  G   UNL     1     -11.915  72.438  29.604  1.00  0.00     0.000 G0
ENDBRANCH   9  10
ENDBRANCH   3   8
TORSDOF 0
ENDMDL
MODEL 6
REMARK VINA RESULT:    -3.920      1.911      2.712
REMARK INTER + INTRA:          -3.794
REMARK INTER:                  -4.550
REMARK INTRA:                   0.756
REMARK UNBOUND:                 1.043
REMARK SMILES CC1=CC=CC(C)(C)CC1=O
REMARK SMILES IDX 1 1 2 2 3 3 10 4 11 5 9 6 4 8 5 9 6 10 7 11 8 12
REMARK H PARENT
REMARK Flexibility Score: 80.00
ROOT
ATOM      1  C   UNL     1     -11.941  72.425  32.249  1.00  0.00     0.048 C 
ATOM      2  C   UNL     1     -11.039  72.971  31.167  1.00  0.00    -0.008 C 
ATOM      3  C   UNL     1     -10.583  74.234  31.312  1.00  0.00     0.007 C 
ENDROOT
BRANCH   2   4
ATOM      4  C   UNL     1     -10.790  72.100  29.993  1.00  0.00     0.159 C 
ATOM      5  O   UNL     1     -11.489  71.059  29.846  1.00  0.00    -0.295 OA
BRANCH   4   6
ATOM      6  C   UNL     1      -9.737  72.379  28.964  1.00  0.00     0.091 CG0
ATOM      7  G   UNL     1      -9.933  73.732  28.244  1.00  0.00     0.000 G0
ENDBRANCH   4   6
ENDBRANCH   2   4
BRANCH   3   8
ATOM      8  C   UNL     1      -9.717  75.040  30.420  1.00  0.00    -0.003 C 
ATOM      9  C   UNL     1      -9.436  74.855  29.123  1.00  0.00    -0.020 C 
BRANCH   9  10
ATOM     10  C   UNL     1      -9.933  73.727  28.249  1.00  0.00    -0.010 CG0
ATOM     11  C   UNL     1      -9.084  73.705  26.958  1.00  0.00     0.016 C 
ATOM     12  C   UNL     1     -11.405  73.979  27.847  1.00  0.00     0.016 C 
ATOM     13  G   UNL     1      -9.736  72.380  28.977  1.00  0.00     0.000 G0
ENDBRANCH   9  10
ENDBRANCH   3   8
TORSDOF 0
ENDMDL
MODEL 7
REMARK VINA RESULT:    -3.543      2.089      4.022
REMARK INTER + INTRA:          -3.328
REMARK INTER:                  -4.087
REMARK INTRA:                   0.758
REMARK UNBOUND:                 1.043
REMARK SMILES CC1=CC=CC(C)(C)CC1=O
REMARK SMILES IDX 1 1 2 2 3 3 10 4 11 5 9 6 4 8 5 9 6 10 7 11 8 12
REMARK H PARENT
REMARK Flexibility Score: 80.00
ROOT
ATOM      1  C   UNL     1     -10.574  74.992  26.081  1.00  0.00     0.048 C 
ATOM      2  C   UNL     1     -10.693  74.105  27.298  1.00  0.00    -0.008 C 
ATOM      3  C   UNL     1     -11.929  73.894  27.800  1.00  0.00     0.007 C 
ENDROOT
BRANCH   2   4
ATOM      4  C   UNL     1      -9.430  73.600  27.891  1.00  0.00     0.159 C 
ATOM      5  O   UNL     1      -8.333  74.068  27.479  1.00  0.00    -0.295 OA
BRANCH   4   6
ATOM      6  C   UNL     1      -9.380  72.545  28.953  1.00  0.00     0.091 CG0
ATOM      7  G   UNL     1     -10.159  72.929  30.230  1.00  0.00     0.000 G0
ENDBRANCH   4   6
ENDBRANCH   2   4
BRANCH   3   8
ATOM      8  C   UNL     1     -12.354  73.107  28.981  1.00  0.00    -0.003 C 
ATOM      9  C   UNL     1     -11.627  72.696  30.028  1.00  0.00    -0.020 C 
BRANCH   9  10
ATOM     10  C   UNL     1     -10.149  72.926  30.240  1.00  0.00    -0.010 CG0
ATOM     11  C   UNL     1      -9.672  71.995  31.378  1.00  0.00     0.016 C 
ATOM     12  C   UNL     1      -9.899  74.386  30.682  1.00  0.00     0.016 C 
ATOM     13  G   UNL     1      -9.375  72.551  28.957  1.00  0.00     0.000 G0
ENDBRANCH   9  10
ENDBRANCH   3   8
TORSDOF 0
ENDMDL
MODEL 8
REMARK VINA RESULT:    -3.505      5.529      7.377
REMARK INTER + INTRA:          -3.282
REMARK INTER:                  -4.040
REMARK INTRA:                   0.758
REMARK UNBOUND:                 1.043
REMARK SMILES CC1=CC=CC(C)(C)CC1=O
REMARK SMILES IDX 1 1 2 2 3 3 10 4 11 5 9 6 4 8 5 9 6 10 7 11 8 12
REMARK H PARENT
REMARK Flexibility Score: 80.00
ROOT
ATOM      1  C   UNL     1      -8.945  73.172  26.689  1.00  0.00     0.048 C 
ATOM      2  C   UNL     1      -8.952  73.055  25.183  1.00  0.00    -0.008 C 
ATOM      3  C   UNL     1      -8.126  72.145  24.622  1.00  0.00     0.007 C 
ENDROOT
BRANCH   2   4
ATOM      4  C   UNL     1      -9.812  74.005  24.435  1.00  0.00     0.159 C 
ATOM      5  O   UNL     1     -10.318  74.983  25.051  1.00  0.00    -0.295 OA
BRANCH   4   6
ATOM      6  C   UNL     1     -10.129  73.863  22.978  1.00  0.00     0.091 CG0
ATOM      7  G   UNL     1      -8.875  73.894  22.076  1.00  0.00     0.000 G0
ENDBRANCH   4   6
ENDBRANCH   2   4
BRANCH   3   8
ATOM      8  C   UNL     1      -7.894  71.822  23.195  1.00  0.00    -0.003 C 
ATOM      9  C   UNL     1      -8.187  72.548  22.107  1.00  0.00    -0.020 C 
BRANCH   9  10
ATOM     10  C   UNL     1      -8.869  73.895  22.084  1.00  0.00    -0.010 CG0
ATOM     11  C   UNL     1      -9.321  74.184  20.635  1.00  0.00     0.016 C 
ATOM     12  C   UNL     1      -7.870  75.000  22.501  1.00  0.00     0.016 C 
ATOM     13  G   UNL     1     -10.125  73.859  22.982  1.00  0.00     0.000 G0
ENDBRANCH   9  10
ENDBRANCH   3   8
TORSDOF 0
ENDMDL
MODEL 9
REMARK VINA RESULT:    -3.348      6.337      7.555
REMARK INTER + INTRA:          -3.089
REMARK INTER:                  -3.836
REMARK INTRA:                   0.747
REMARK UNBOUND:                 1.043
REMARK SMILES CC1=CC=CC(C)(C)CC1=O
REMARK SMILES IDX 1 1 2 2 3 3 10 4 11 5 9 6 4 8 5 9 6 10 7 11 8 12
REMARK H PARENT
REMARK Flexibility Score: 80.00
ROOT
ATOM      1  C   UNL     1     -11.193  71.954  37.696  1.00  0.00     0.048 C 
ATOM      2  C   UNL     1     -10.317  70.798  37.278  1.00  0.00    -0.008 C 
ATOM      3  C   UNL     1     -10.241  69.737  38.111  1.00  0.00     0.007 C 
ENDROOT
BRANCH   2   4
ATOM      4  C   UNL     1      -9.549  70.953  36.018  1.00  0.00     0.159 C 
ATOM      5  O   UNL     1      -9.483  72.094  35.482  1.00  0.00    -0.295 OA
BRANCH   4   6
ATOM      6  C   UNL     1      -8.849  69.821  35.331  1.00  0.00     0.091 CG0
ATOM      7  G   UNL     1      -7.773  69.146  36.210  1.00  0.00     0.000 G0
ENDBRANCH   4   6
ENDBRANCH   2   4
BRANCH   3   8
ATOM      8  C   UNL     1      -9.457  68.486  37.988  1.00  0.00    -0.003 C 
ATOM      9  C   UNL     1      -8.405  68.222  37.201  1.00  0.00    -0.020 C 
BRANCH   9  10
ATOM     10  C   UNL     1      -7.772  69.163  36.205  1.00  0.00    -0.010 CG0
ATOM     11  C   UNL     1      -6.864  68.336  35.267  1.00  0.00     0.016 C 
ATOM     12  C   UNL     1      -6.884  70.193  36.941  1.00  0.00     0.016 C 
ATOM     13  G   UNL     1      -8.870  69.830  35.347  1.00  0.00     0.000 G0
ENDBRANCH   9  10
ENDBRANCH   3   8
TORSDOF 0
ENDMDL
