MODEL 1
REMARK VINA RESULT:    -4.019      0.000      0.000
REMARK INTER + INTRA:          -4.626
REMARK INTER:                  -4.841
REMARK INTRA:                   0.215
REMARK UNBOUND:                 0.215
REMARK SMILES CC[C@H](C)[C@@H]([NH3+])C(=O)[O-]
REMARK SMILES IDX 3 1 4 2 5 3 6 4 7 8 8 9 9 10 2 11 1 12
REMARK H PARENT 6 5 6 6 6 7
REMARK Flexibility Score: inf
ROOT
ATOM      1  C   UNL     1      77.705  -0.768  25.042  1.00  0.00     0.050 C 
ATOM      2  C   UNL     1      77.290  -1.254  23.639  1.00  0.00     0.014 C 
ENDROOT
BRANCH   1   3
ATOM      3  C   UNL     1      79.227  -0.970  25.325  1.00  0.00     0.230 C 
BRANCH   3   4
ATOM      4  N   UNL     1      79.783   0.056  26.222  1.00  0.00    -0.350 N 
ATOM      5  H   UNL     1      79.653  -0.204  27.226  1.00  0.00     0.345 HD
ATOM      6  H   UNL     1      80.807   0.163  26.036  1.00  0.00     0.345 HD
ATOM      7  H   UNL     1      79.331   0.980  26.043  1.00  0.00     0.345 HD
ENDBRANCH   3   4
BRANCH   3   8
ATOM      8  C   UNL     1      79.502  -2.358  25.850  1.00  0.00     0.099 C 
ATOM      9  O   UNL     1      79.343  -2.633  27.069  1.00  0.00    -0.544 OA
ATOM     10  O   UNL     1      79.895  -3.360  24.971  1.00  0.00    -0.544 OA
ENDBRANCH   3   8
ENDBRANCH   1   3
BRANCH   1  11
ATOM     11  C   UNL     1      76.838  -1.427  26.143  1.00  0.00     0.006 C 
ATOM     12  C   UNL     1      76.449  -0.452  27.254  1.00  0.00     0.004 C 
ENDBRANCH   1  11
TORSDOF 4
ENDMDL
MODEL 2
REMARK VINA RESULT:    -3.954      2.287      3.342
REMARK INTER + INTRA:          -4.548
REMARK INTER:                  -4.730
REMARK INTRA:                   0.182
REMARK UNBOUND:                 0.215
REMARK SMILES CC[C@H](C)[C@@H]([NH3+])C(=O)[O-]
REMARK SMILES IDX 3 1 4 2 5 3 6 4 7 8 8 9 9 10 2 11 1 12
REMARK H PARENT 6 5 6 6 6 7
REMARK Flexibility Score: inf
ROOT
ATOM      1  C   UNL     1      79.132  -1.657  26.205  1.00  0.00     0.050 C 
ATOM      2  C   UNL     1      79.765  -3.019  25.858  1.00  0.00     0.014 C 
ENDROOT
BRANCH   1   3
ATOM      3  C   UNL     1      77.621  -1.577  25.820  1.00  0.00     0.230 C 
BRANCH   3   4
ATOM      4  N   UNL     1      76.860  -0.652  26.676  1.00  0.00    -0.350 N 
ATOM      5  H   UNL     1      77.015  -0.855  27.690  1.00  0.00     0.345 HD
ATOM      6  H   UNL     1      77.164   0.330  26.483  1.00  0.00     0.345 HD
ATOM      7  H   UNL     1      75.840  -0.715  26.463  1.00  0.00     0.345 HD
ENDBRANCH   3   4
BRANCH   3   8
ATOM      8  C   UNL     1      77.450  -1.231  24.361  1.00  0.00     0.099 C 
ATOM      9  O   UNL     1      77.214  -2.127  23.506  1.00  0.00    -0.544 OA
ATOM     10  O   UNL     1      77.509   0.097  23.958  1.00  0.00    -0.544 OA
ENDBRANCH   3   8
ENDBRANCH   1   3
BRANCH   1  11
ATOM     11  C   UNL     1      79.933  -0.490  25.576  1.00  0.00     0.006 C 
ATOM     12  C   UNL     1      80.084   0.703  26.522  1.00  0.00     0.004 C 
ENDBRANCH   1  11
TORSDOF 4
ENDMDL
MODEL 3
REMARK VINA RESULT:    -3.843      2.179      3.445
REMARK INTER + INTRA:          -4.415
REMARK INTER:                  -4.441
REMARK INTRA:                   0.027
REMARK UNBOUND:                 0.215
REMARK SMILES CC[C@H](C)[C@@H]([NH3+])C(=O)[O-]
REMARK SMILES IDX 3 1 4 2 5 3 6 4 7 8 8 9 9 10 2 11 1 12
REMARK H PARENT 6 5 6 6 6 7
REMARK Flexibility Score: inf
ROOT
ATOM      1  C   UNL     1      79.265  -0.824  25.317  1.00  0.00     0.050 C 
ATOM      2  C   UNL     1      79.951   0.444  25.862  1.00  0.00     0.014 C 
ENDROOT
BRANCH   1   3
ATOM      3  C   UNL     1      77.721  -0.658  25.164  1.00  0.00     0.230 C 
BRANCH   3   4
ATOM      4  N   UNL     1      77.179  -1.384  24.004  1.00  0.00    -0.350 N 
ATOM      5  H   UNL     1      77.934  -1.875  23.474  1.00  0.00     0.345 HD
ATOM      6  H   UNL     1      76.485  -2.095  24.331  1.00  0.00     0.345 HD
ATOM      7  H   UNL     1      76.680  -0.726  23.364  1.00  0.00     0.345 HD
ENDBRANCH   3   4
BRANCH   3   8
ATOM      8  C   UNL     1      77.004  -1.051  26.433  1.00  0.00     0.099 C 
ATOM      9  O   UNL     1      76.477  -2.189  26.554  1.00  0.00    -0.544 OA
ATOM     10  O   UNL     1      76.961  -0.163  27.501  1.00  0.00    -0.544 OA
ENDBRANCH   3   8
ENDBRANCH   1   3
BRANCH   1  11
ATOM     11  C   UNL     1      79.613  -2.063  26.180  1.00  0.00     0.006 C 
ATOM     12  C   UNL     1      79.753  -3.341  25.351  1.00  0.00     0.004 C 
ENDBRANCH   1  11
TORSDOF 4
ENDMDL
MODEL 4
REMARK VINA RESULT:    -3.776      1.966      3.005
REMARK INTER + INTRA:          -4.334
REMARK INTER:                  -4.374
REMARK INTRA:                   0.040
REMARK UNBOUND:                 0.215
REMARK SMILES CC[C@H](C)[C@@H]([NH3+])C(=O)[O-]
REMARK SMILES IDX 3 1 4 2 5 3 6 4 7 8 8 9 9 10 2 11 1 12
REMARK H PARENT 6 5 6 6 6 7
REMARK Flexibility Score: inf
ROOT
ATOM      1  C   UNL     1      77.539  -1.587  25.978  1.00  0.00     0.050 C 
ATOM      2  C   UNL     1      76.646  -1.066  27.121  1.00  0.00     0.014 C 
ENDROOT
BRANCH   1   3
ATOM      3  C   UNL     1      79.059  -1.544  26.331  1.00  0.00     0.230 C 
BRANCH   3   4
ATOM      4  N   UNL     1      79.812  -2.672  25.760  1.00  0.00    -0.350 N 
ATOM      5  H   UNL     1      79.832  -2.629  24.716  1.00  0.00     0.345 HD
ATOM      6  H   UNL     1      80.796  -2.649  26.114  1.00  0.00     0.345 HD
ATOM      7  H   UNL     1      79.390  -3.580  26.060  1.00  0.00     0.345 HD
ENDBRANCH   3   4
BRANCH   3   8
ATOM      8  C   UNL     1      79.672  -0.223  25.930  1.00  0.00     0.099 C 
ATOM      9  O   UNL     1      80.282  -0.099  24.834  1.00  0.00    -0.544 OA
ATOM     10  O   UNL     1      79.525   0.882  26.758  1.00  0.00    -0.544 OA
ENDBRANCH   3   8
ENDBRANCH   1   3
BRANCH   1  11
ATOM     11  C   UNL     1      77.249  -0.837  24.654  1.00  0.00     0.006 C 
ATOM     12  C   UNL     1      77.352  -1.742  23.426  1.00  0.00     0.004 C 
ENDBRANCH   1  11
TORSDOF 4
ENDMDL
MODEL 5
REMARK VINA RESULT:    -3.587     13.182     14.296
REMARK INTER + INTRA:          -4.107
REMARK INTER:                  -4.075
REMARK INTRA:                  -0.032
REMARK UNBOUND:                 0.215
REMARK SMILES CC[C@H](C)[C@@H]([NH3+])C(=O)[O-]
REMARK SMILES IDX 3 1 4 2 5 3 6 4 7 8 8 9 9 10 2 11 1 12
REMARK H PARENT 6 5 6 6 6 7
REMARK Flexibility Score: inf
ROOT
ATOM      1  C   UNL     1      68.732  -4.064  34.446  1.00  0.00     0.050 C 
ATOM      2  C   UNL     1      69.070  -4.182  32.947  1.00  0.00     0.014 C 
ENDROOT
BRANCH   1   3
ATOM      3  C   UNL     1      68.053  -5.349  35.015  1.00  0.00     0.230 C 
BRANCH   3   4
ATOM      4  N   UNL     1      68.260  -6.532  34.163  1.00  0.00    -0.350 N 
ATOM      5  H   UNL     1      68.482  -7.379  34.733  1.00  0.00     0.345 HD
ATOM      6  H   UNL     1      67.391  -6.720  33.611  1.00  0.00     0.345 HD
ATOM      7  H   UNL     1      69.034  -6.359  33.483  1.00  0.00     0.345 HD
ENDBRANCH   3   4
BRANCH   3   8
ATOM      8  C   UNL     1      68.498  -5.617  36.433  1.00  0.00     0.099 C 
ATOM      9  O   UNL     1      69.379  -6.483  36.683  1.00  0.00    -0.544 OA
ATOM     10  O   UNL     1      67.963  -4.869  37.474  1.00  0.00    -0.544 OA
ENDBRANCH   3   8
ENDBRANCH   1   3
BRANCH   1  11
ATOM     11  C   UNL     1      67.875  -2.805  34.730  1.00  0.00     0.006 C 
ATOM     12  C   UNL     1      68.150  -1.667  33.746  1.00  0.00     0.004 C 
ENDBRANCH   1  11
TORSDOF 4
ENDMDL
MODEL 6
REMARK VINA RESULT:    -3.440      2.159      2.851
REMARK INTER + INTRA:          -3.929
REMARK INTER:                  -4.456
REMARK INTRA:                   0.527
REMARK UNBOUND:                 0.215
REMARK SMILES CC[C@H](C)[C@@H]([NH3+])C(=O)[O-]
REMARK SMILES IDX 3 1 4 2 5 3 6 4 7 8 8 9 9 10 2 11 1 12
REMARK H PARENT 6 5 6 6 6 7
REMARK Flexibility Score: inf
ROOT
ATOM      1  C   UNL     1      77.914  -2.057  25.174  1.00  0.00     0.050 C 
ATOM      2  C   UNL     1      77.583  -1.925  23.675  1.00  0.00     0.014 C 
ENDROOT
BRANCH   1   3
ATOM      3  C   UNL     1      77.594  -0.760  25.981  1.00  0.00     0.230 C 
BRANCH   3   4
ATOM      4  N   UNL     1      76.980  -1.036  27.290  1.00  0.00    -0.350 N 
ATOM      5  H   UNL     1      76.185  -0.386  27.484  1.00  0.00     0.345 HD
ATOM      6  H   UNL     1      76.618  -2.018  27.304  1.00  0.00     0.345 HD
ATOM      7  H   UNL     1      77.691  -0.951  28.051  1.00  0.00     0.345 HD
ENDBRANCH   3   4
BRANCH   3   8
ATOM      8  C   UNL     1      78.822   0.105  26.129  1.00  0.00     0.099 C 
ATOM      9  O   UNL     1      79.081   0.682  27.220  1.00  0.00    -0.544 OA
ATOM     10  O   UNL     1      79.705   0.234  25.064  1.00  0.00    -0.544 OA
ENDBRANCH   3   8
ENDBRANCH   1   3
BRANCH   1  11
ATOM     11  C   UNL     1      79.384  -2.500  25.387  1.00  0.00     0.006 C 
ATOM     12  C   UNL     1      79.564  -3.381  26.623  1.00  0.00     0.004 C 
ENDBRANCH   1  11
TORSDOF 4
ENDMDL
MODEL 7
REMARK VINA RESULT:    -3.429      0.637      2.036
REMARK INTER + INTRA:          -3.916
REMARK INTER:                  -3.847
REMARK INTRA:                  -0.069
REMARK UNBOUND:                 0.215
REMARK SMILES CC[C@H](C)[C@@H]([NH3+])C(=O)[O-]
REMARK SMILES IDX 3 1 4 2 5 3 6 4 7 8 8 9 9 10 2 11 1 12
REMARK H PARENT 6 5 6 6 6 7
REMARK Flexibility Score: inf
ROOT
ATOM      1  C   UNL     1      77.607  -1.249  25.303  1.00  0.00     0.050 C 
ATOM      2  C   UNL     1      76.844  -0.768  26.553  1.00  0.00     0.014 C 
ENDROOT
BRANCH   1   3
ATOM      3  C   UNL     1      79.145  -1.361  25.539  1.00  0.00     0.230 C 
BRANCH   3   4
ATOM      4  N   UNL     1      79.664  -0.320  26.440  1.00  0.00    -0.350 N 
ATOM      5  H   UNL     1      79.733  -0.665  27.424  1.00  0.00     0.345 HD
ATOM      6  H   UNL     1      80.617  -0.028  26.122  1.00  0.00     0.345 HD
ATOM      7  H   UNL     1      79.050   0.525  26.412  1.00  0.00     0.345 HD
ENDBRANCH   3   4
BRANCH   3   8
ATOM      8  C   UNL     1      79.520  -2.739  26.029  1.00  0.00     0.099 C 
ATOM      9  O   UNL     1      79.417  -3.044  27.247  1.00  0.00    -0.544 OA
ATOM     10  O   UNL     1      79.944  -3.700  25.119  1.00  0.00    -0.544 OA
ENDBRANCH   3   8
ENDBRANCH   1   3
BRANCH   1  11
ATOM     11  C   UNL     1      77.291  -0.356  24.077  1.00  0.00     0.006 C 
ATOM     12  C   UNL     1      77.359  -1.120  22.754  1.00  0.00     0.004 C 
ENDBRANCH   1  11
TORSDOF 4
ENDMDL
MODEL 8
REMARK VINA RESULT:    -3.396      2.427      3.457
REMARK INTER + INTRA:          -3.877
REMARK INTER:                  -3.854
REMARK INTRA:                  -0.022
REMARK UNBOUND:                 0.215
REMARK SMILES CC[C@H](C)[C@@H]([NH3+])C(=O)[O-]
REMARK SMILES IDX 3 1 4 2 5 3 6 4 7 8 8 9 9 10 2 11 1 12
REMARK H PARENT 6 5 6 6 6 7
REMARK Flexibility Score: inf
ROOT
ATOM      1  C   UNL     1      79.290  -1.564  25.701  1.00  0.00     0.050 C 
ATOM      2  C   UNL     1      79.768  -0.168  26.146  1.00  0.00     0.014 C 
ENDROOT
BRANCH   1   3
ATOM      3  C   UNL     1      77.763  -1.605  25.378  1.00  0.00     0.230 C 
BRANCH   3   4
ATOM      4  N   UNL     1      76.953  -0.844  26.343  1.00  0.00    -0.350 N 
ATOM      5  H   UNL     1      76.080  -0.475  25.902  1.00  0.00     0.345 HD
ATOM      6  H   UNL     1      76.685  -1.467  27.140  1.00  0.00     0.345 HD
ATOM      7  H   UNL     1      77.506  -0.049  26.735  1.00  0.00     0.345 HD
ENDBRANCH   3   4
BRANCH   3   8
ATOM      8  C   UNL     1      77.495  -1.148  23.964  1.00  0.00     0.099 C 
ATOM      9  O   UNL     1      77.514   0.076  23.664  1.00  0.00    -0.544 OA
ATOM     10  O   UNL     1      77.267  -2.090  22.969  1.00  0.00    -0.544 OA
ENDBRANCH   3   8
ENDBRANCH   1   3
BRANCH   1  11
ATOM     11  C   UNL     1      79.672  -2.645  26.743  1.00  0.00     0.006 C 
ATOM     12  C   UNL     1      79.777  -4.044  26.133  1.00  0.00     0.004 C 
ENDBRANCH   1  11
TORSDOF 4
ENDMDL
MODEL 9
REMARK VINA RESULT:    -3.376     14.085     15.487
REMARK INTER + INTRA:          -3.852
REMARK INTER:                  -3.778
REMARK INTRA:                  -0.074
REMARK UNBOUND:                 0.215
REMARK SMILES CC[C@H](C)[C@@H]([NH3+])C(=O)[O-]
REMARK SMILES IDX 3 1 4 2 5 3 6 4 7 8 8 9 9 10 2 11 1 12
REMARK H PARENT 6 5 6 6 6 7
REMARK Flexibility Score: inf
ROOT
ATOM      1  C   UNL     1      68.855  -6.269  37.095  1.00  0.00     0.050 C 
ATOM      2  C   UNL     1      69.847  -5.478  37.971  1.00  0.00     0.014 C 
ENDROOT
BRANCH   1   3
ATOM      3  C   UNL     1      68.085  -5.361  36.085  1.00  0.00     0.230 C 
BRANCH   3   4
ATOM      4  N   UNL     1      68.252  -3.925  36.363  1.00  0.00    -0.350 N 
ATOM      5  H   UNL     1      67.403  -3.382  36.087  1.00  0.00     0.345 HD
ATOM      6  H   UNL     1      68.419  -3.786  37.386  1.00  0.00     0.345 HD
ATOM      7  H   UNL     1      69.083  -3.551  35.852  1.00  0.00     0.345 HD
ENDBRANCH   3   4
BRANCH   3   8
ATOM      8  C   UNL     1      68.466  -5.688  34.661  1.00  0.00     0.099 C 
ATOM      9  O   UNL     1      69.163  -4.890  33.978  1.00  0.00    -0.544 OA
ATOM     10  O   UNL     1      68.083  -6.903  34.108  1.00  0.00    -0.544 OA
ENDBRANCH   3   8
ENDBRANCH   1   3
BRANCH   1  11
ATOM     11  C   UNL     1      67.875  -7.096  37.966  1.00  0.00     0.006 C 
ATOM     12  C   UNL     1      67.920  -6.704  39.443  1.00  0.00     0.004 C 
ENDBRANCH   1  11
TORSDOF 4
ENDMDL
