MODEL 1
REMARK VINA RESULT:    -5.193      0.000      0.000
REMARK INTER + INTRA:         -10.017
REMARK INTER:                  -9.140
REMARK INTRA:                  -0.877
REMARK UNBOUND:                -0.877
REMARK SMILES CCCCCCC=CCCCCCCCC(=O)[O-]
REMARK SMILES IDX 10 1 11 2 12 3 13 4 14 5 15 6 16 7 17 8 18 9 9 10 8 11 7 12
REMARK SMILES IDX 6 13 5 14 4 15 3 16 2 17 1 18
REMARK H PARENT
REMARK Flexibility Score: inf
ROOT
ATOM      1  C   UNL     1    -129.284 111.519  43.987  1.00  0.00     0.004 C 
ENDROOT
BRANCH   1   2
ATOM      2  C   UNL     1    -129.332 110.643  42.720  1.00  0.00     0.000 C 
BRANCH   2   3
ATOM      3  C   UNL     1    -129.329 109.127  43.016  1.00  0.00     0.000 C 
BRANCH   3   4
ATOM      4  C   UNL     1    -128.095 108.424  42.425  1.00  0.00     0.000 C 
BRANCH   4   5
ATOM      5  C   UNL     1    -128.436 107.078  41.758  1.00  0.00     0.006 C 
BRANCH   5   6
ATOM      6  C   UNL     1    -129.380 107.194  40.550  1.00  0.00     0.053 C 
BRANCH   6   7
ATOM      7  C   UNL     1    -129.460 105.916  39.774  1.00  0.00     0.041 C 
ATOM      8  O   UNL     1    -129.634 104.821  40.372  1.00  0.00    -0.550 OA
ATOM      9  O   UNL     1    -129.377 105.938  38.388  1.00  0.00    -0.550 OA
ENDBRANCH   6   7
ENDBRANCH   5   6
ENDBRANCH   4   5
ENDBRANCH   3   4
ENDBRANCH   2   3
ENDBRANCH   1   2
BRANCH   1  10
ATOM     10  C   UNL     1    -129.155 113.026  43.713  1.00  0.00     0.027 C 
BRANCH  10  11
ATOM     11  C   UNL     1    -130.053 113.468  42.582  1.00  0.00    -0.031 C 
ATOM     12  C   UNL     1    -130.060 114.693  42.024  1.00  0.00    -0.031 C 
BRANCH  12  13
ATOM     13  C   UNL     1    -129.201 115.858  42.457  1.00  0.00     0.027 C 
BRANCH  13  14
ATOM     14  C   UNL     1    -129.968 116.916  43.271  1.00  0.00     0.004 C 
BRANCH  14  15
ATOM     15  C   UNL     1    -129.497 117.063  44.732  1.00  0.00     0.000 C 
BRANCH  15  16
ATOM     16  C   UNL     1    -130.035 115.991  45.700  1.00  0.00    -0.000 C 
BRANCH  16  17
ATOM     17  C   UNL     1    -130.836 116.539  46.894  1.00  0.00    -0.003 C 
ATOM     18  C   UNL     1    -130.996 118.059  46.857  1.00  0.00     0.004 C 
ENDBRANCH  16  17
ENDBRANCH  15  16
ENDBRANCH  14  15
ENDBRANCH  13  14
ENDBRANCH  12  13
ENDBRANCH  10  11
ENDBRANCH   1  10
TORSDOF 13
ENDMDL
MODEL 2
REMARK VINA RESULT:    -5.187      1.895      2.069
REMARK INTER + INTRA:         -10.007
REMARK INTER:                  -8.930
REMARK INTRA:                  -1.077
REMARK UNBOUND:                -0.877
REMARK SMILES CCCCCCC=CCCCCCCCC(=O)[O-]
REMARK SMILES IDX 10 1 11 2 12 3 13 4 14 5 15 6 16 7 17 8 18 9 9 10 8 11 7 12
REMARK SMILES IDX 6 13 5 14 4 15 3 16 2 17 1 18
REMARK H PARENT
REMARK Flexibility Score: inf
ROOT
ATOM      1  C   UNL     1    -129.364 111.744  44.230  1.00  0.00     0.004 C 
ENDROOT
BRANCH   1   2
ATOM      2  C   UNL     1    -129.387 110.635  43.160  1.00  0.00     0.000 C 
BRANCH   2   3
ATOM      3  C   UNL     1    -129.855 109.266  43.699  1.00  0.00     0.000 C 
BRANCH   3   4
ATOM      4  C   UNL     1    -129.775 108.164  42.628  1.00  0.00     0.000 C 
BRANCH   4   5
ATOM      5  C   UNL     1    -129.009 108.609  41.368  1.00  0.00     0.006 C 
BRANCH   5   6
ATOM      6  C   UNL     1    -129.776 108.394  40.054  1.00  0.00     0.053 C 
BRANCH   6   7
ATOM      7  C   UNL     1    -130.374 109.666  39.537  1.00  0.00     0.041 C 
ATOM      8  O   UNL     1    -131.623 109.782  39.431  1.00  0.00    -0.550 OA
ATOM      9  O   UNL     1    -129.553 110.736  39.205  1.00  0.00    -0.550 OA
ENDBRANCH   6   7
ENDBRANCH   5   6
ENDBRANCH   4   5
ENDBRANCH   3   4
ENDBRANCH   2   3
ENDBRANCH   1   2
BRANCH   1  10
ATOM     10  C   UNL     1    -129.053 113.147  43.685  1.00  0.00     0.027 C 
BRANCH  10  11
ATOM     11  C   UNL     1    -130.002 113.539  42.577  1.00  0.00    -0.031 C 
ATOM     12  C   UNL     1    -130.104 114.767  42.035  1.00  0.00    -0.031 C 
BRANCH  12  13
ATOM     13  C   UNL     1    -129.316 115.983  42.464  1.00  0.00     0.027 C 
BRANCH  13  14
ATOM     14  C   UNL     1    -130.074 116.888  43.452  1.00  0.00     0.004 C 
BRANCH  14  15
ATOM     15  C   UNL     1    -129.482 116.917  44.876  1.00  0.00     0.000 C 
BRANCH  15  16
ATOM     16  C   UNL     1    -130.103 115.906  45.860  1.00  0.00    -0.000 C 
BRANCH  16  17
ATOM     17  C   UNL     1    -130.937 116.531  46.991  1.00  0.00    -0.003 C 
ATOM     18  C   UNL     1    -131.004 118.056  46.910  1.00  0.00     0.004 C 
ENDBRANCH  16  17
ENDBRANCH  15  16
ENDBRANCH  14  15
ENDBRANCH  13  14
ENDBRANCH  12  13
ENDBRANCH  10  11
ENDBRANCH   1  10
TORSDOF 13
ENDMDL
MODEL 3
REMARK VINA RESULT:    -5.176      1.180      2.008
REMARK INTER + INTRA:          -9.988
REMARK INTER:                  -9.251
REMARK INTRA:                  -0.737
REMARK UNBOUND:                -0.877
REMARK SMILES CCCCCCC=CCCCCCCCC(=O)[O-]
REMARK SMILES IDX 10 1 11 2 12 3 13 4 14 5 15 6 16 7 17 8 18 9 9 10 8 11 7 12
REMARK SMILES IDX 6 13 5 14 4 15 3 16 2 17 1 18
REMARK H PARENT
REMARK Flexibility Score: inf
ROOT
ATOM      1  C   UNL     1    -129.324 109.953  43.181  1.00  0.00     0.004 C 
ENDROOT
BRANCH   1   2
ATOM      2  C   UNL     1    -129.099 109.005  41.987  1.00  0.00     0.000 C 
BRANCH   2   3
ATOM      3  C   UNL     1    -130.100 109.219  40.831  1.00  0.00     0.000 C 
BRANCH   3   4
ATOM      4  C   UNL     1    -129.566 108.676  39.494  1.00  0.00     0.000 C 
BRANCH   4   5
ATOM      5  C   UNL     1    -130.294 107.398  39.034  1.00  0.00     0.006 C 
BRANCH   5   6
ATOM      6  C   UNL     1    -129.363 106.302  38.491  1.00  0.00     0.053 C 
BRANCH   6   7
ATOM      7  C   UNL     1    -129.003 105.299  39.544  1.00  0.00     0.041 C 
ATOM      8  O   UNL     1    -129.144 104.068  39.319  1.00  0.00    -0.550 OA
ATOM      9  O   UNL     1    -128.479 105.722  40.758  1.00  0.00    -0.550 OA
ENDBRANCH   6   7
ENDBRANCH   5   6
ENDBRANCH   4   5
ENDBRANCH   3   4
ENDBRANCH   2   3
ENDBRANCH   1   2
BRANCH   1  10
ATOM     10  C   UNL     1    -129.392 111.442  42.806  1.00  0.00     0.027 C 
BRANCH  10  11
ATOM     11  C   UNL     1    -129.185 112.331  44.009  1.00  0.00    -0.031 C 
ATOM     12  C   UNL     1    -129.399 113.660  44.043  1.00  0.00    -0.031 C 
BRANCH  12  13
ATOM     13  C   UNL     1    -129.843 114.507  42.874  1.00  0.00     0.027 C 
BRANCH  13  14
ATOM     14  C   UNL     1    -129.791 116.020  43.157  1.00  0.00     0.004 C 
BRANCH  14  15
ATOM     15  C   UNL     1    -129.413 116.386  44.607  1.00  0.00     0.000 C 
BRANCH  15  16
ATOM     16  C   UNL     1    -130.045 117.689  45.135  1.00  0.00    -0.000 C 
BRANCH  16  17
ATOM     17  C   UNL     1    -130.695 117.577  46.526  1.00  0.00    -0.003 C 
ATOM     18  C   UNL     1    -130.918 116.130  46.964  1.00  0.00     0.004 C 
ENDBRANCH  16  17
ENDBRANCH  15  16
ENDBRANCH  14  15
ENDBRANCH  13  14
ENDBRANCH  12  13
ENDBRANCH  10  11
ENDBRANCH   1  10
TORSDOF 13
ENDMDL
MODEL 4
REMARK VINA RESULT:    -5.129      4.671      9.117
REMARK INTER + INTRA:          -9.904
REMARK INTER:                  -8.489
REMARK INTRA:                  -1.415
REMARK UNBOUND:                -0.877
REMARK SMILES CCCCCCC=CCCCCCCCC(=O)[O-]
REMARK SMILES IDX 10 1 11 2 12 3 13 4 14 5 15 6 16 7 17 8 18 9 9 10 8 11 7 12
REMARK SMILES IDX 6 13 5 14 4 15 3 16 2 17 1 18
REMARK H PARENT
REMARK Flexibility Score: inf
ROOT
ATOM      1  C   UNL     1    -129.802 109.433  43.787  1.00  0.00     0.004 C 
ENDROOT
BRANCH   1   2
ATOM      2  C   UNL     1    -129.381 110.790  43.191  1.00  0.00     0.000 C 
BRANCH   2   3
ATOM      3  C   UNL     1    -129.394 111.946  44.215  1.00  0.00     0.000 C 
BRANCH   3   4
ATOM      4  C   UNL     1    -129.075 113.302  43.562  1.00  0.00     0.000 C 
BRANCH   4   5
ATOM      5  C   UNL     1    -129.619 114.496  44.369  1.00  0.00     0.006 C 
BRANCH   5   6
ATOM      6  C   UNL     1    -129.787 115.786  43.550  1.00  0.00     0.053 C 
BRANCH   6   7
ATOM      7  C   UNL     1    -129.694 117.011  44.407  1.00  0.00     0.041 C 
ATOM      8  O   UNL     1    -130.174 117.008  45.571  1.00  0.00    -0.550 OA
ATOM      9  O   UNL     1    -129.046 118.144  43.932  1.00  0.00    -0.550 OA
ENDBRANCH   6   7
ENDBRANCH   5   6
ENDBRANCH   4   5
ENDBRANCH   3   4
ENDBRANCH   2   3
ENDBRANCH   1   2
BRANCH   1  10
ATOM     10  C   UNL     1    -129.909 108.293  42.761  1.00  0.00     0.027 C 
BRANCH  10  11
ATOM     11  C   UNL     1    -128.553 107.890  42.231  1.00  0.00    -0.031 C 
ATOM     12  C   UNL     1    -128.319 106.872  41.382  1.00  0.00    -0.031 C 
BRANCH  12  13
ATOM     13  C   UNL     1    -129.363 105.925  40.839  1.00  0.00     0.027 C 
BRANCH  13  14
ATOM     14  C   UNL     1    -129.579 106.054  39.320  1.00  0.00     0.004 C 
BRANCH  14  15
ATOM     15  C   UNL     1    -129.688 107.507  38.812  1.00  0.00     0.000 C 
BRANCH  15  16
ATOM     16  C   UNL     1    -131.042 108.191  39.083  1.00  0.00    -0.000 C 
BRANCH  16  17
ATOM     17  C   UNL     1    -130.949 109.670  39.497  1.00  0.00    -0.003 C 
ATOM     18  C   UNL     1    -129.518 110.206  39.477  1.00  0.00     0.004 C 
ENDBRANCH  16  17
ENDBRANCH  15  16
ENDBRANCH  14  15
ENDBRANCH  13  14
ENDBRANCH  12  13
ENDBRANCH  10  11
ENDBRANCH   1  10
TORSDOF 13
ENDMDL
MODEL 5
REMARK VINA RESULT:    -5.120      5.029      9.430
REMARK INTER + INTRA:          -9.889
REMARK INTER:                  -8.914
REMARK INTRA:                  -0.975
REMARK UNBOUND:                -0.877
REMARK SMILES CCCCCCC=CCCCCCCCC(=O)[O-]
REMARK SMILES IDX 10 1 11 2 12 3 13 4 14 5 15 6 16 7 17 8 18 9 9 10 8 11 7 12
REMARK SMILES IDX 6 13 5 14 4 15 3 16 2 17 1 18
REMARK H PARENT
REMARK Flexibility Score: inf
ROOT
ATOM      1  C   UNL     1    -129.407 111.832  44.071  1.00  0.00     0.004 C 
ENDROOT
BRANCH   1   2
ATOM      2  C   UNL     1    -128.902 113.211  43.605  1.00  0.00     0.000 C 
BRANCH   2   3
ATOM      3  C   UNL     1    -130.019 114.129  43.064  1.00  0.00     0.000 C 
BRANCH   3   4
ATOM      4  C   UNL     1    -129.747 115.614  43.366  1.00  0.00     0.000 C 
BRANCH   4   5
ATOM      5  C   UNL     1    -129.647 115.908  44.875  1.00  0.00     0.006 C 
BRANCH   5   6
ATOM      6  C   UNL     1    -129.971 117.360  45.257  1.00  0.00     0.053 C 
BRANCH   6   7
ATOM      7  C   UNL     1    -130.719 117.447  46.552  1.00  0.00     0.041 C 
ATOM      8  O   UNL     1    -131.051 118.569  47.017  1.00  0.00    -0.550 OA
ATOM      9  O   UNL     1    -131.080 116.288  47.226  1.00  0.00    -0.550 OA
ENDBRANCH   6   7
ENDBRANCH   5   6
ENDBRANCH   4   5
ENDBRANCH   3   4
ENDBRANCH   2   3
ENDBRANCH   1   2
BRANCH   1  10
ATOM     10  C   UNL     1    -129.368 110.742  42.989  1.00  0.00     0.027 C 
BRANCH  10  11
ATOM     11  C   UNL     1    -129.849 109.411  43.519  1.00  0.00    -0.031 C 
ATOM     12  C   UNL     1    -129.544 108.208  42.999  1.00  0.00    -0.031 C 
BRANCH  12  13
ATOM     13  C   UNL     1    -128.700 107.973  41.768  1.00  0.00     0.027 C 
BRANCH  13  14
ATOM     14  C   UNL     1    -129.354 107.023  40.747  1.00  0.00     0.004 C 
BRANCH  14  15
ATOM     15  C   UNL     1    -129.662 107.667  39.380  1.00  0.00     0.000 C 
BRANCH  15  16
ATOM     16  C   UNL     1    -129.787 109.203  39.399  1.00  0.00    -0.000 C 
BRANCH  16  17
ATOM     17  C   UNL     1    -131.231 109.736  39.413  1.00  0.00    -0.003 C 
ATOM     18  C   UNL     1    -132.191 108.878  38.589  1.00  0.00     0.004 C 
ENDBRANCH  16  17
ENDBRANCH  15  16
ENDBRANCH  14  15
ENDBRANCH  13  14
ENDBRANCH  12  13
ENDBRANCH  10  11
ENDBRANCH   1  10
TORSDOF 13
ENDMDL
MODEL 6
REMARK VINA RESULT:    -5.090      1.323      1.941
REMARK INTER + INTRA:          -9.835
REMARK INTER:                  -9.181
REMARK INTRA:                  -0.654
REMARK UNBOUND:                -0.877
REMARK SMILES CCCCCCC=CCCCCCCCC(=O)[O-]
REMARK SMILES IDX 10 1 11 2 12 3 13 4 14 5 15 6 16 7 17 8 18 9 9 10 8 11 7 12
REMARK SMILES IDX 6 13 5 14 4 15 3 16 2 17 1 18
REMARK H PARENT
REMARK Flexibility Score: inf
ROOT
ATOM      1  C   UNL     1    -129.739 111.119  40.222  1.00  0.00     0.004 C 
ENDROOT
BRANCH   1   2
ATOM      2  C   UNL     1    -129.700 109.579  40.250  1.00  0.00     0.000 C 
BRANCH   2   3
ATOM      3  C   UNL     1    -129.294 108.996  41.622  1.00  0.00     0.000 C 
BRANCH   3   4
ATOM      4  C   UNL     1    -129.652 107.504  41.746  1.00  0.00     0.000 C 
BRANCH   4   5
ATOM      5  C   UNL     1    -128.607 106.583  41.089  1.00  0.00     0.006 C 
BRANCH   5   6
ATOM      6  C   UNL     1    -129.192 105.296  40.485  1.00  0.00     0.053 C 
BRANCH   6   7
ATOM      7  C   UNL     1    -129.470 105.438  39.020  1.00  0.00     0.041 C 
ATOM      8  O   UNL     1    -129.381 106.564  38.465  1.00  0.00    -0.550 OA
ATOM      9  O   UNL     1    -129.791 104.320  38.262  1.00  0.00    -0.550 OA
ENDBRANCH   6   7
ENDBRANCH   5   6
ENDBRANCH   4   5
ENDBRANCH   3   4
ENDBRANCH   2   3
ENDBRANCH   1   2
BRANCH   1  10
ATOM     10  C   UNL     1    -129.829 111.779  41.607  1.00  0.00     0.027 C 
BRANCH  10  11
ATOM     11  C   UNL     1    -130.128 113.256  41.504  1.00  0.00    -0.031 C 
ATOM     12  C   UNL     1    -129.954 114.157  42.489  1.00  0.00    -0.031 C 
BRANCH  12  13
ATOM     13  C   UNL     1    -129.470 113.847  43.886  1.00  0.00     0.027 C 
BRANCH  13  14
ATOM     14  C   UNL     1    -129.541 115.053  44.842  1.00  0.00     0.004 C 
BRANCH  14  15
ATOM     15  C   UNL     1    -129.722 116.414  44.140  1.00  0.00     0.000 C 
BRANCH  15  16
ATOM     16  C   UNL     1    -129.918 117.613  45.089  1.00  0.00    -0.000 C 
BRANCH  16  17
ATOM     17  C   UNL     1    -130.675 117.293  46.390  1.00  0.00    -0.003 C 
ATOM     18  C   UNL     1    -131.090 118.545  47.161  1.00  0.00     0.004 C 
ENDBRANCH  16  17
ENDBRANCH  15  16
ENDBRANCH  14  15
ENDBRANCH  13  14
ENDBRANCH  12  13
ENDBRANCH  10  11
ENDBRANCH   1  10
TORSDOF 13
ENDMDL
MODEL 7
REMARK VINA RESULT:    -5.028      1.358      2.389
REMARK INTER + INTRA:          -9.726
REMARK INTER:                  -8.838
REMARK INTRA:                  -0.888
REMARK UNBOUND:                -0.877
REMARK SMILES CCCCCCC=CCCCCCCCC(=O)[O-]
REMARK SMILES IDX 10 1 11 2 12 3 13 4 14 5 15 6 16 7 17 8 18 9 9 10 8 11 7 12
REMARK SMILES IDX 6 13 5 14 4 15 3 16 2 17 1 18
REMARK H PARENT
REMARK Flexibility Score: inf
ROOT
ATOM      1  C   UNL     1    -129.319 109.150  42.753  1.00  0.00     0.004 C 
ENDROOT
BRANCH   1   2
ATOM      2  C   UNL     1    -127.925 108.561  42.463  1.00  0.00     0.000 C 
BRANCH   2   3
ATOM      3  C   UNL     1    -127.966 107.123  41.901  1.00  0.00     0.000 C 
BRANCH   3   4
ATOM      4  C   UNL     1    -129.385 106.708  41.473  1.00  0.00     0.000 C 
BRANCH   4   5
ATOM      5  C   UNL     1    -129.398 105.869  40.181  1.00  0.00     0.006 C 
BRANCH   5   6
ATOM      6  C   UNL     1    -129.305 106.697  38.890  1.00  0.00     0.053 C 
BRANCH   6   7
ATOM      7  C   UNL     1    -130.079 107.976  38.986  1.00  0.00     0.041 C 
ATOM      8  O   UNL     1    -131.337 107.960  38.943  1.00  0.00    -0.550 OA
ATOM      9  O   UNL     1    -129.410 109.181  39.157  1.00  0.00    -0.550 OA
ENDBRANCH   6   7
ENDBRANCH   5   6
ENDBRANCH   4   5
ENDBRANCH   3   4
ENDBRANCH   2   3
ENDBRANCH   1   2
BRANCH   1  10
ATOM     10  C   UNL     1    -129.453 110.650  42.444  1.00  0.00     0.027 C 
BRANCH  10  11
ATOM     11  C   UNL     1    -129.133 111.499  43.651  1.00  0.00    -0.031 C 
ATOM     12  C   UNL     1    -129.335 112.827  43.746  1.00  0.00    -0.031 C 
BRANCH  12  13
ATOM     13  C   UNL     1    -129.878 113.712  42.649  1.00  0.00     0.027 C 
BRANCH  13  14
ATOM     14  C   UNL     1    -129.829 115.213  42.991  1.00  0.00     0.004 C 
BRANCH  14  15
ATOM     15  C   UNL     1    -129.705 115.521  44.497  1.00  0.00     0.000 C 
BRANCH  15  16
ATOM     16  C   UNL     1    -129.618 117.019  44.849  1.00  0.00    -0.000 C 
BRANCH  16  17
ATOM     17  C   UNL     1    -130.487 117.457  46.041  1.00  0.00    -0.003 C 
ATOM     18  C   UNL     1    -130.878 116.294  46.952  1.00  0.00     0.004 C 
ENDBRANCH  16  17
ENDBRANCH  15  16
ENDBRANCH  14  15
ENDBRANCH  13  14
ENDBRANCH  12  13
ENDBRANCH  10  11
ENDBRANCH   1  10
TORSDOF 13
ENDMDL
MODEL 8
REMARK VINA RESULT:    -5.023      1.232      2.260
REMARK INTER + INTRA:          -9.718
REMARK INTER:                  -9.053
REMARK INTRA:                  -0.665
REMARK UNBOUND:                -0.877
REMARK SMILES CCCCCCC=CCCCCCCCC(=O)[O-]
REMARK SMILES IDX 10 1 11 2 12 3 13 4 14 5 15 6 16 7 17 8 18 9 9 10 8 11 7 12
REMARK SMILES IDX 6 13 5 14 4 15 3 16 2 17 1 18
REMARK H PARENT
REMARK Flexibility Score: inf
ROOT
ATOM      1  C   UNL     1    -129.634 110.544  42.474  1.00  0.00     0.004 C 
ENDROOT
BRANCH   1   2
ATOM      2  C   UNL     1    -129.314 109.110  42.936  1.00  0.00     0.000 C 
BRANCH   2   3
ATOM      3  C   UNL     1    -127.898 108.635  42.546  1.00  0.00     0.000 C 
BRANCH   3   4
ATOM      4  C   UNL     1    -127.887 107.170  42.075  1.00  0.00     0.000 C 
BRANCH   4   5
ATOM      5  C   UNL     1    -129.011 106.857  41.070  1.00  0.00     0.006 C 
BRANCH   5   6
ATOM      6  C   UNL     1    -128.831 105.530  40.315  1.00  0.00     0.053 C 
BRANCH   6   7
ATOM      7  C   UNL     1    -129.633 105.489  39.051  1.00  0.00     0.041 C 
ATOM      8  O   UNL     1    -129.845 104.391  38.471  1.00  0.00    -0.550 OA
ATOM      9  O   UNL     1    -130.177 106.657  38.534  1.00  0.00    -0.550 OA
ENDBRANCH   6   7
ENDBRANCH   5   6
ENDBRANCH   4   5
ENDBRANCH   3   4
ENDBRANCH   2   3
ENDBRANCH   1   2
BRANCH   1  10
ATOM     10  C   UNL     1    -129.368 111.628  43.531  1.00  0.00     0.027 C 
BRANCH  10  11
ATOM     11  C   UNL     1    -129.408 113.014  42.933  1.00  0.00    -0.031 C 
ATOM     12  C   UNL     1    -129.462 114.164  43.632  1.00  0.00    -0.031 C 
BRANCH  12  13
ATOM     13  C   UNL     1    -129.536 114.273  45.137  1.00  0.00     0.027 C 
BRANCH  13  14
ATOM     14  C   UNL     1    -129.950 115.671  45.631  1.00  0.00     0.004 C 
BRANCH  14  15
ATOM     15  C   UNL     1    -129.989 116.752  44.531  1.00  0.00     0.000 C 
BRANCH  15  16
ATOM     16  C   UNL     1    -129.465 118.136  44.960  1.00  0.00    -0.000 C 
BRANCH  16  17
ATOM     17  C   UNL     1    -128.505 118.804  43.960  1.00  0.00    -0.003 C 
ATOM     18  C   UNL     1    -128.611 118.219  42.552  1.00  0.00     0.004 C 
ENDBRANCH  16  17
ENDBRANCH  15  16
ENDBRANCH  14  15
ENDBRANCH  13  14
ENDBRANCH  12  13
ENDBRANCH  10  11
ENDBRANCH   1  10
TORSDOF 13
ENDMDL
MODEL 9
REMARK VINA RESULT:    -4.901      4.715      8.806
REMARK INTER + INTRA:          -9.502
REMARK INTER:                  -8.119
REMARK INTRA:                  -1.383
REMARK UNBOUND:                -0.877
REMARK SMILES CCCCCCC=CCCCCCCCC(=O)[O-]
REMARK SMILES IDX 10 1 11 2 12 3 13 4 14 5 15 6 16 7 17 8 18 9 9 10 8 11 7 12
REMARK SMILES IDX 6 13 5 14 4 15 3 16 2 17 1 18
REMARK H PARENT
REMARK Flexibility Score: inf
ROOT
ATOM      1  C   UNL     1    -129.565 111.656  39.842  1.00  0.00     0.004 C 
ENDROOT
BRANCH   1   2
ATOM      2  C   UNL     1    -130.001 111.775  41.314  1.00  0.00     0.000 C 
BRANCH   2   3
ATOM      3  C   UNL     1    -130.115 113.233  41.809  1.00  0.00     0.000 C 
BRANCH   3   4
ATOM      4  C   UNL     1    -129.511 113.418  43.212  1.00  0.00     0.000 C 
BRANCH   4   5
ATOM      5  C   UNL     1    -129.567 114.879  43.699  1.00  0.00     0.006 C 
BRANCH   5   6
ATOM      6  C   UNL     1    -129.395 115.045  45.217  1.00  0.00     0.053 C 
BRANCH   6   7
ATOM      7  C   UNL     1    -130.069 116.282  45.727  1.00  0.00     0.041 C 
ATOM      8  O   UNL     1    -130.808 116.226  46.745  1.00  0.00    -0.550 OA
ATOM      9  O   UNL     1    -129.854 117.501  45.098  1.00  0.00    -0.550 OA
ENDBRANCH   6   7
ENDBRANCH   5   6
ENDBRANCH   4   5
ENDBRANCH   3   4
ENDBRANCH   2   3
ENDBRANCH   1   2
BRANCH   1  10
ATOM     10  C   UNL     1    -129.361 110.212  39.353  1.00  0.00     0.027 C 
BRANCH  10  11
ATOM     11  C   UNL     1    -130.677 109.490  39.181  1.00  0.00    -0.031 C 
ATOM     12  C   UNL     1    -130.830 108.155  39.103  1.00  0.00    -0.031 C 
BRANCH  12  13
ATOM     13  C   UNL     1    -129.710 107.141  39.133  1.00  0.00     0.027 C 
BRANCH  13  14
ATOM     14  C   UNL     1    -129.603 106.384  40.469  1.00  0.00     0.004 C 
BRANCH  14  15
ATOM     15  C   UNL     1    -128.391 106.785  41.336  1.00  0.00     0.000 C 
BRANCH  15  16
ATOM     16  C   UNL     1    -128.574 108.081  42.149  1.00  0.00    -0.000 C 
BRANCH  16  17
ATOM     17  C   UNL     1    -130.008 108.338  42.646  1.00  0.00    -0.003 C 
ATOM     18  C   UNL     1    -130.052 109.049  43.997  1.00  0.00     0.004 C 
ENDBRANCH  16  17
ENDBRANCH  15  16
ENDBRANCH  14  15
ENDBRANCH  13  14
ENDBRANCH  12  13
ENDBRANCH  10  11
ENDBRANCH   1  10
TORSDOF 13
ENDMDL
