MODEL 1
REMARK VINA RESULT:    -3.369      0.000      0.000
REMARK INTER + INTRA:          -7.998
REMARK INTER:                  -5.930
REMARK INTRA:                  -2.068
REMARK UNBOUND:                -2.068
REMARK SMILES CCCCCCCCCCCCCCC(=O)[O-]
REMARK SMILES IDX 9 1 10 2 11 3 12 4 13 5 14 6 15 7 16 8 17 9 8 10 7 11 6 12
REMARK SMILES IDX 5 13 4 14 3 15 2 16 1 17
REMARK H PARENT
REMARK Flexibility Score: inf
ROOT
ATOM      1  C   UNL     1      18.445 133.102  62.776  1.00  0.00     0.000 C 
ENDROOT
BRANCH   1   2
ATOM      2  C   UNL     1      19.314 131.954  63.319  1.00  0.00     0.000 C 
BRANCH   2   3
ATOM      3  C   UNL     1      19.181 131.783  64.841  1.00  0.00     0.000 C 
BRANCH   3   4
ATOM      4  C   UNL     1      18.552 130.439  65.236  1.00  0.00     0.000 C 
BRANCH   4   5
ATOM      5  C   UNL     1      18.045 129.686  64.000  1.00  0.00     0.006 C 
BRANCH   5   6
ATOM      6  C   UNL     1      18.504 128.225  64.020  1.00  0.00     0.053 C 
BRANCH   6   7
ATOM      7  C   UNL     1      19.998 128.146  64.079  1.00  0.00     0.041 C 
ATOM      8  O   UNL     1      20.695 128.628  63.148  1.00  0.00    -0.550 OA
ATOM      9  O   UNL     1      20.618 127.499  65.141  1.00  0.00    -0.550 OA
ENDBRANCH   6   7
ENDBRANCH   5   6
ENDBRANCH   4   5
ENDBRANCH   3   4
ENDBRANCH   2   3
ENDBRANCH   1   2
BRANCH   1  10
ATOM     10  C   UNL     1      17.970 134.055  63.886  1.00  0.00     0.000 C 
BRANCH  10  11
ATOM     11  C   UNL     1      16.438 134.178  63.943  1.00  0.00    -0.000 C 
BRANCH  11  12
ATOM     12  C   UNL     1      15.727 132.814  64.013  1.00  0.00    -0.000 C 
BRANCH  12  13
ATOM     13  C   UNL     1      14.854 132.589  65.261  1.00  0.00    -0.000 C 
BRANCH  13  14
ATOM     14  C   UNL     1      15.669 132.167  66.496  1.00  0.00    -0.000 C 
BRANCH  14  15
ATOM     15  C   UNL     1      14.911 131.182  67.406  1.00  0.00    -0.000 C 
BRANCH  15  16
ATOM     16  C   UNL     1      15.500 129.760  67.461  1.00  0.00    -0.003 C 
ATOM     17  C   UNL     1      15.135 128.913  66.242  1.00  0.00     0.004 C 
ENDBRANCH  15  16
ENDBRANCH  14  15
ENDBRANCH  13  14
ENDBRANCH  12  13
ENDBRANCH  11  12
ENDBRANCH  10  11
ENDBRANCH   1  10
TORSDOF 13
ENDMDL
MODEL 2
REMARK VINA RESULT:    -3.338      4.026      5.742
REMARK INTER + INTRA:          -7.944
REMARK INTER:                  -6.870
REMARK INTRA:                  -1.073
REMARK UNBOUND:                -2.068
REMARK SMILES CCCCCCCCCCCCCCC(=O)[O-]
REMARK SMILES IDX 9 1 10 2 11 3 12 4 13 5 14 6 15 7 16 8 17 9 8 10 7 11 6 12
REMARK SMILES IDX 5 13 4 14 3 15 2 16 1 17
REMARK H PARENT
REMARK Flexibility Score: inf
ROOT
ATOM      1  C   UNL     1      18.211 133.052  60.174  1.00  0.00     0.000 C 
ENDROOT
BRANCH   1   2
ATOM      2  C   UNL     1      19.271 133.670  61.104  1.00  0.00     0.000 C 
BRANCH   2   3
ATOM      3  C   UNL     1      19.888 132.638  62.062  1.00  0.00     0.000 C 
BRANCH   3   4
ATOM      4  C   UNL     1      18.973 132.308  63.250  1.00  0.00     0.000 C 
BRANCH   4   5
ATOM      5  C   UNL     1      19.310 130.932  63.837  1.00  0.00     0.006 C 
BRANCH   5   6
ATOM      6  C   UNL     1      18.054 130.239  64.372  1.00  0.00     0.053 C 
BRANCH   6   7
ATOM      7  C   UNL     1      18.186 128.753  64.256  1.00  0.00     0.041 C 
ATOM      8  O   UNL     1      19.286 128.239  63.925  1.00  0.00    -0.550 OA
ATOM      9  O   UNL     1      17.081 127.938  64.469  1.00  0.00    -0.550 OA
ENDBRANCH   6   7
ENDBRANCH   5   6
ENDBRANCH   4   5
ENDBRANCH   3   4
ENDBRANCH   2   3
ENDBRANCH   1   2
BRANCH   1  10
ATOM     10  C   UNL     1      18.267 133.635  58.751  1.00  0.00     0.000 C 
BRANCH  10  11
ATOM     11  C   UNL     1      18.877 132.654  57.736  1.00  0.00    -0.000 C 
BRANCH  11  12
ATOM     12  C   UNL     1      17.886 132.236  56.633  1.00  0.00    -0.000 C 
BRANCH  12  13
ATOM     13  C   UNL     1      17.076 130.960  56.925  1.00  0.00    -0.000 C 
BRANCH  13  14
ATOM     14  C   UNL     1      15.556 131.189  56.879  1.00  0.00    -0.000 C 
BRANCH  14  15
ATOM     15  C   UNL     1      15.034 132.000  58.080  1.00  0.00    -0.000 C 
BRANCH  15  16
ATOM     16  C   UNL     1      14.479 131.158  59.243  1.00  0.00    -0.003 C 
ATOM     17  C   UNL     1      14.655 131.828  60.605  1.00  0.00     0.004 C 
ENDBRANCH  15  16
ENDBRANCH  14  15
ENDBRANCH  13  14
ENDBRANCH  12  13
ENDBRANCH  11  12
ENDBRANCH  10  11
ENDBRANCH   1  10
TORSDOF 13
ENDMDL
MODEL 3
REMARK VINA RESULT:    -3.325      5.355      7.207
REMARK INTER + INTRA:          -7.920
REMARK INTER:                  -5.915
REMARK INTRA:                  -2.005
REMARK UNBOUND:                -2.068
REMARK SMILES CCCCCCCCCCCCCCC(=O)[O-]
REMARK SMILES IDX 9 1 10 2 11 3 12 4 13 5 14 6 15 7 16 8 17 9 8 10 7 11 6 12
REMARK SMILES IDX 5 13 4 14 3 15 2 16 1 17
REMARK H PARENT
REMARK Flexibility Score: inf
ROOT
ATOM      1  C   UNL     1      17.247 131.253  57.566  1.00  0.00     0.000 C 
ENDROOT
BRANCH   1   2
ATOM      2  C   UNL     1      18.214 132.268  56.930  1.00  0.00     0.000 C 
BRANCH   2   3
ATOM      3  C   UNL     1      18.876 133.184  57.972  1.00  0.00     0.000 C 
BRANCH   3   4
ATOM      4  C   UNL     1      18.230 133.069  59.361  1.00  0.00     0.000 C 
BRANCH   4   5
ATOM      5  C   UNL     1      19.139 133.669  60.440  1.00  0.00     0.006 C 
BRANCH   5   6
ATOM      6  C   UNL     1      18.731 133.184  61.835  1.00  0.00     0.053 C 
BRANCH   6   7
ATOM      7  C   UNL     1      19.824 132.362  62.443  1.00  0.00     0.041 C 
ATOM      8  O   UNL     1      19.601 131.675  63.474  1.00  0.00    -0.550 OA
ATOM      9  O   UNL     1      21.101 132.391  61.898  1.00  0.00    -0.550 OA
ENDBRANCH   6   7
ENDBRANCH   5   6
ENDBRANCH   4   5
ENDBRANCH   3   4
ENDBRANCH   2   3
ENDBRANCH   1   2
BRANCH   1  10
ATOM     10  C   UNL     1      16.285 130.635  56.537  1.00  0.00     0.000 C 
BRANCH  10  11
ATOM     11  C   UNL     1      15.933 131.608  55.399  1.00  0.00    -0.000 C 
BRANCH  11  12
ATOM     12  C   UNL     1      14.692 132.467  55.705  1.00  0.00    -0.000 C 
BRANCH  12  13
ATOM     13  C   UNL     1      14.978 133.941  56.043  1.00  0.00    -0.000 C 
BRANCH  13  14
ATOM     14  C   UNL     1      14.858 134.248  57.546  1.00  0.00    -0.000 C 
BRANCH  14  15
ATOM     15  C   UNL     1      14.052 133.184  58.314  1.00  0.00    -0.000 C 
BRANCH  15  16
ATOM     16  C   UNL     1      14.550 132.891  59.740  1.00  0.00    -0.003 C 
ATOM     17  C   UNL     1      14.670 131.396  60.038  1.00  0.00     0.004 C 
ENDBRANCH  15  16
ENDBRANCH  14  15
ENDBRANCH  13  14
ENDBRANCH  12  13
ENDBRANCH  11  12
ENDBRANCH  10  11
ENDBRANCH   1  10
TORSDOF 13
ENDMDL
MODEL 4
REMARK VINA RESULT:    -3.313      4.996      6.607
REMARK INTER + INTRA:          -7.898
REMARK INTER:                  -7.114
REMARK INTRA:                  -0.784
REMARK UNBOUND:                -2.068
REMARK SMILES CCCCCCCCCCCCCCC(=O)[O-]
REMARK SMILES IDX 9 1 10 2 11 3 12 4 13 5 14 6 15 7 16 8 17 9 8 10 7 11 6 12
REMARK SMILES IDX 5 13 4 14 3 15 2 16 1 17
REMARK H PARENT
REMARK Flexibility Score: inf
ROOT
ATOM      1  C   UNL     1      19.167 133.475  60.044  1.00  0.00     0.000 C 
ENDROOT
BRANCH   1   2
ATOM      2  C   UNL     1      17.685 133.061  60.039  1.00  0.00     0.000 C 
BRANCH   2   3
ATOM      3  C   UNL     1      17.197 132.633  58.645  1.00  0.00     0.000 C 
BRANCH   3   4
ATOM      4  C   UNL     1      15.897 131.818  58.694  1.00  0.00     0.000 C 
BRANCH   4   5
ATOM      5  C   UNL     1      15.634 131.121  57.353  1.00  0.00     0.006 C 
BRANCH   5   6
ATOM      6  C   UNL     1      16.899 131.095  56.490  1.00  0.00     0.053 C 
BRANCH   6   7
ATOM      7  C   UNL     1      16.630 131.703  55.149  1.00  0.00     0.041 C 
ATOM      8  O   UNL     1      17.533 132.346  54.552  1.00  0.00    -0.550 OA
ATOM      9  O   UNL     1      15.368 131.600  54.579  1.00  0.00    -0.550 OA
ENDBRANCH   6   7
ENDBRANCH   5   6
ENDBRANCH   4   5
ENDBRANCH   3   4
ENDBRANCH   2   3
ENDBRANCH   1   2
BRANCH   1  10
ATOM     10  C   UNL     1      19.875 133.103  61.358  1.00  0.00     0.000 C 
BRANCH  10  11
ATOM     11  C   UNL     1      18.892 132.645  62.449  1.00  0.00    -0.000 C 
BRANCH  11  12
ATOM     12  C   UNL     1      19.515 131.643  63.438  1.00  0.00    -0.000 C 
BRANCH  12  13
ATOM     13  C   UNL     1      18.910 131.653  64.854  1.00  0.00    -0.000 C 
BRANCH  13  14
ATOM     14  C   UNL     1      18.066 130.402  65.155  1.00  0.00    -0.000 C 
BRANCH  14  15
ATOM     15  C   UNL     1      18.048 129.396  63.990  1.00  0.00    -0.000 C 
BRANCH  15  16
ATOM     16  C   UNL     1      18.795 128.076  64.256  1.00  0.00    -0.003 C 
ATOM     17  C   UNL     1      20.189 128.040  63.631  1.00  0.00     0.004 C 
ENDBRANCH  15  16
ENDBRANCH  14  15
ENDBRANCH  13  14
ENDBRANCH  12  13
ENDBRANCH  11  12
ENDBRANCH  10  11
ENDBRANCH   1  10
TORSDOF 13
ENDMDL
MODEL 5
REMARK VINA RESULT:    -3.306      4.092      5.918
REMARK INTER + INTRA:          -7.887
REMARK INTER:                  -6.808
REMARK INTRA:                  -1.080
REMARK UNBOUND:                -2.068
REMARK SMILES CCCCCCCCCCCCCCC(=O)[O-]
REMARK SMILES IDX 9 1 10 2 11 3 12 4 13 5 14 6 15 7 16 8 17 9 8 10 7 11 6 12
REMARK SMILES IDX 5 13 4 14 3 15 2 16 1 17
REMARK H PARENT
REMARK Flexibility Score: inf
ROOT
ATOM      1  C   UNL     1      15.562 131.829  61.629  1.00  0.00     0.000 C 
ENDROOT
BRANCH   1   2
ATOM      2  C   UNL     1      15.296 131.392  60.178  1.00  0.00     0.000 C 
BRANCH   2   3
ATOM      3  C   UNL     1      16.061 132.246  59.155  1.00  0.00     0.000 C 
BRANCH   3   4
ATOM      4  C   UNL     1      16.679 131.409  58.025  1.00  0.00     0.000 C 
BRANCH   4   5
ATOM      5  C   UNL     1      17.683 132.237  57.213  1.00  0.00     0.006 C 
BRANCH   5   6
ATOM      6  C   UNL     1      18.772 132.822  58.117  1.00  0.00     0.053 C 
BRANCH   6   7
ATOM      7  C   UNL     1      20.027 133.060  57.338  1.00  0.00     0.041 C 
ATOM      8  O   UNL     1      20.383 134.233  57.053  1.00  0.00    -0.550 OA
ATOM      9  O   UNL     1      20.780 131.983  56.886  1.00  0.00    -0.550 OA
ENDBRANCH   6   7
ENDBRANCH   5   6
ENDBRANCH   4   5
ENDBRANCH   3   4
ENDBRANCH   2   3
ENDBRANCH   1   2
BRANCH   1  10
ATOM     10  C   UNL     1      16.803 132.729  61.753  1.00  0.00     0.000 C 
BRANCH  10  11
ATOM     11  C   UNL     1      17.013 133.252  63.184  1.00  0.00    -0.000 C 
BRANCH  11  12
ATOM     12  C   UNL     1      18.467 133.109  63.669  1.00  0.00    -0.000 C 
BRANCH  12  13
ATOM     13  C   UNL     1      19.111 131.732  63.423  1.00  0.00    -0.000 C 
BRANCH  13  14
ATOM     14  C   UNL     1      18.781 130.708  64.523  1.00  0.00    -0.000 C 
BRANCH  14  15
ATOM     15  C   UNL     1      17.699 129.699  64.099  1.00  0.00    -0.000 C 
BRANCH  15  16
ATOM     16  C   UNL     1      18.154 128.229  64.068  1.00  0.00    -0.003 C 
ATOM     17  C   UNL     1      19.655 128.070  63.828  1.00  0.00     0.004 C 
ENDBRANCH  15  16
ENDBRANCH  14  15
ENDBRANCH  13  14
ENDBRANCH  12  13
ENDBRANCH  11  12
ENDBRANCH  10  11
ENDBRANCH   1  10
TORSDOF 13
ENDMDL
MODEL 6
REMARK VINA RESULT:    -3.297      4.183      6.120
REMARK INTER + INTRA:          -7.870
REMARK INTER:                  -6.582
REMARK INTRA:                  -1.288
REMARK UNBOUND:                -2.068
REMARK SMILES CCCCCCCCCCCCCCC(=O)[O-]
REMARK SMILES IDX 9 1 10 2 11 3 12 4 13 5 14 6 15 7 16 8 17 9 8 10 7 11 6 12
REMARK SMILES IDX 5 13 4 14 3 15 2 16 1 17
REMARK H PARENT
REMARK Flexibility Score: inf
ROOT
ATOM      1  C   UNL     1      17.042 133.513  61.456  1.00  0.00     0.000 C 
ENDROOT
BRANCH   1   2
ATOM      2  C   UNL     1      17.561 133.306  60.022  1.00  0.00     0.000 C 
BRANCH   2   3
ATOM      3  C   UNL     1      18.054 134.613  59.379  1.00  0.00     0.000 C 
BRANCH   3   4
ATOM      4  C   UNL     1      19.049 134.373  58.233  1.00  0.00     0.000 C 
BRANCH   4   5
ATOM      5  C   UNL     1      19.484 132.904  58.182  1.00  0.00     0.006 C 
BRANCH   5   6
ATOM      6  C   UNL     1      19.528 132.394  56.739  1.00  0.00     0.053 C 
BRANCH   6   7
ATOM      7  C   UNL     1      18.171 131.941  56.301  1.00  0.00     0.041 C 
ATOM      8  O   UNL     1      17.432 131.297  57.092  1.00  0.00    -0.550 OA
ATOM      9  O   UNL     1      17.739 132.190  55.004  1.00  0.00    -0.550 OA
ENDBRANCH   6   7
ENDBRANCH   5   6
ENDBRANCH   4   5
ENDBRANCH   3   4
ENDBRANCH   2   3
ENDBRANCH   1   2
BRANCH   1  10
ATOM     10  C   UNL     1      18.181 133.607  62.485  1.00  0.00     0.000 C 
BRANCH  10  11
ATOM     11  C   UNL     1      19.373 132.701  62.130  1.00  0.00    -0.000 C 
BRANCH  11  12
ATOM     12  C   UNL     1      19.769 131.752  63.276  1.00  0.00    -0.000 C 
BRANCH  12  13
ATOM     13  C   UNL     1      19.014 131.968  64.600  1.00  0.00    -0.000 C 
BRANCH  13  14
ATOM     14  C   UNL     1      18.502 130.656  65.220  1.00  0.00    -0.000 C 
BRANCH  14  15
ATOM     15  C   UNL     1      17.715 129.787  64.222  1.00  0.00    -0.000 C 
BRANCH  15  16
ATOM     16  C   UNL     1      18.143 128.310  64.164  1.00  0.00    -0.003 C 
ATOM     17  C   UNL     1      19.660 128.126  64.138  1.00  0.00     0.004 C 
ENDBRANCH  15  16
ENDBRANCH  14  15
ENDBRANCH  13  14
ENDBRANCH  12  13
ENDBRANCH  11  12
ENDBRANCH  10  11
ENDBRANCH   1  10
TORSDOF 13
ENDMDL
MODEL 7
REMARK VINA RESULT:    -3.289      3.205      5.081
REMARK INTER + INTRA:          -7.857
REMARK INTER:                  -5.882
REMARK INTRA:                  -1.974
REMARK UNBOUND:                -2.068
REMARK SMILES CCCCCCCCCCCCCCC(=O)[O-]
REMARK SMILES IDX 9 1 10 2 11 3 12 4 13 5 14 6 15 7 16 8 17 9 8 10 7 11 6 12
REMARK SMILES IDX 5 13 4 14 3 15 2 16 1 17
REMARK H PARENT
REMARK Flexibility Score: inf
ROOT
ATOM      1  C   UNL     1      17.097 133.583  62.763  1.00  0.00     0.000 C 
ENDROOT
BRANCH   1   2
ATOM      2  C   UNL     1      18.297 132.907  62.076  1.00  0.00     0.000 C 
BRANCH   2   3
ATOM      3  C   UNL     1      19.296 132.313  63.084  1.00  0.00     0.000 C 
BRANCH   3   4
ATOM      4  C   UNL     1      18.896 132.577  64.543  1.00  0.00     0.000 C 
BRANCH   4   5
ATOM      5  C   UNL     1      18.741 131.262  65.316  1.00  0.00     0.006 C 
BRANCH   5   6
ATOM      6  C   UNL     1      18.838 130.056  64.377  1.00  0.00     0.053 C 
BRANCH   6   7
ATOM      7  C   UNL     1      17.565 129.271  64.400  1.00  0.00     0.041 C 
ATOM      8  O   UNL     1      16.522 129.768  64.901  1.00  0.00    -0.550 OA
ATOM      9  O   UNL     1      17.541 127.970  63.911  1.00  0.00    -0.550 OA
ENDBRANCH   6   7
ENDBRANCH   5   6
ENDBRANCH   4   5
ENDBRANCH   3   4
ENDBRANCH   2   3
ENDBRANCH   1   2
BRANCH   1  10
ATOM     10  C   UNL     1      15.864 132.665  62.827  1.00  0.00     0.000 C 
BRANCH  10  11
ATOM     11  C   UNL     1      15.909 131.543  61.776  1.00  0.00    -0.000 C 
BRANCH  11  12
ATOM     12  C   UNL     1      14.719 131.585  60.800  1.00  0.00    -0.000 C 
BRANCH  12  13
ATOM     13  C   UNL     1      14.392 132.972  60.219  1.00  0.00    -0.000 C 
BRANCH  13  14
ATOM     14  C   UNL     1      14.957 133.180  58.803  1.00  0.00    -0.000 C 
BRANCH  14  15
ATOM     15  C   UNL     1      16.417 133.671  58.806  1.00  0.00    -0.000 C 
BRANCH  15  16
ATOM     16  C   UNL     1      17.465 132.604  58.442  1.00  0.00    -0.003 C 
ATOM     17  C   UNL     1      16.866 131.397  57.720  1.00  0.00     0.004 C 
ENDBRANCH  15  16
ENDBRANCH  14  15
ENDBRANCH  13  14
ENDBRANCH  12  13
ENDBRANCH  11  12
ENDBRANCH  10  11
ENDBRANCH   1  10
TORSDOF 13
ENDMDL
MODEL 8
REMARK VINA RESULT:    -3.221      4.762      6.907
REMARK INTER + INTRA:          -7.737
REMARK INTER:                  -6.624
REMARK INTRA:                  -1.112
REMARK UNBOUND:                -2.068
REMARK SMILES CCCCCCCCCCCCCCC(=O)[O-]
REMARK SMILES IDX 9 1 10 2 11 3 12 4 13 5 14 6 15 7 16 8 17 9 8 10 7 11 6 12
REMARK SMILES IDX 5 13 4 14 3 15 2 16 1 17
REMARK H PARENT
REMARK Flexibility Score: inf
ROOT
ATOM      1  C   UNL     1      17.735 134.236  60.465  1.00  0.00     0.000 C 
ENDROOT
BRANCH   1   2
ATOM      2  C   UNL     1      18.044 133.205  61.564  1.00  0.00     0.000 C 
BRANCH   2   3
ATOM      3  C   UNL     1      19.543 132.878  61.662  1.00  0.00     0.000 C 
BRANCH   3   4
ATOM      4  C   UNL     1      19.900 132.095  62.934  1.00  0.00     0.000 C 
BRANCH   4   5
ATOM      5  C   UNL     1      18.895 132.383  64.056  1.00  0.00     0.006 C 
BRANCH   5   6
ATOM      6  C   UNL     1      18.876 131.246  65.082  1.00  0.00     0.053 C 
BRANCH   6   7
ATOM      7  C   UNL     1      18.443 129.966  64.438  1.00  0.00     0.041 C 
ATOM      8  O   UNL     1      17.275 129.849  63.983  1.00  0.00    -0.550 OA
ATOM      9  O   UNL     1      19.316 128.887  64.381  1.00  0.00    -0.550 OA
ENDBRANCH   6   7
ENDBRANCH   5   6
ENDBRANCH   4   5
ENDBRANCH   3   4
ENDBRANCH   2   3
ENDBRANCH   1   2
BRANCH   1  10
ATOM     10  C   UNL     1      18.795 134.242  59.350  1.00  0.00     0.000 C 
BRANCH  10  11
ATOM     11  C   UNL     1      18.202 133.906  57.971  1.00  0.00    -0.000 C 
BRANCH  11  12
ATOM     12  C   UNL     1      18.275 132.406  57.634  1.00  0.00    -0.000 C 
BRANCH  12  13
ATOM     13  C   UNL     1      16.998 131.600  57.936  1.00  0.00    -0.000 C 
BRANCH  13  14
ATOM     14  C   UNL     1      16.615 130.633  56.802  1.00  0.00    -0.000 C 
BRANCH  14  15
ATOM     15  C   UNL     1      17.255 131.007  55.453  1.00  0.00    -0.000 C 
BRANCH  15  16
ATOM     16  C   UNL     1      16.262 131.210  54.294  1.00  0.00    -0.003 C 
ATOM     17  C   UNL     1      15.138 132.190  54.631  1.00  0.00     0.004 C 
ENDBRANCH  15  16
ENDBRANCH  14  15
ENDBRANCH  13  14
ENDBRANCH  12  13
ENDBRANCH  11  12
ENDBRANCH  10  11
ENDBRANCH   1  10
TORSDOF 13
ENDMDL
MODEL 9
REMARK VINA RESULT:    -3.217      3.127      5.531
REMARK INTER + INTRA:          -7.730
REMARK INTER:                  -5.839
REMARK INTRA:                  -1.891
REMARK UNBOUND:                -2.068
REMARK SMILES CCCCCCCCCCCCCCC(=O)[O-]
REMARK SMILES IDX 9 1 10 2 11 3 12 4 13 5 14 6 15 7 16 8 17 9 8 10 7 11 6 12
REMARK SMILES IDX 5 13 4 14 3 15 2 16 1 17
REMARK H PARENT
REMARK Flexibility Score: inf
ROOT
ATOM      1  C   UNL     1      15.149 132.891  61.818  1.00  0.00     0.000 C 
ENDROOT
BRANCH   1   2
ATOM      2  C   UNL     1      16.368 133.161  62.719  1.00  0.00     0.000 C 
BRANCH   2   3
ATOM      3  C   UNL     1      17.337 131.969  62.771  1.00  0.00     0.000 C 
BRANCH   3   4
ATOM      4  C   UNL     1      18.750 132.371  63.220  1.00  0.00     0.000 C 
BRANCH   4   5
ATOM      5  C   UNL     1      19.550 131.146  63.678  1.00  0.00     0.006 C 
BRANCH   5   6
ATOM      6  C   UNL     1      18.720 130.266  64.618  1.00  0.00     0.053 C 
BRANCH   6   7
ATOM      7  C   UNL     1      18.815 128.830  64.210  1.00  0.00     0.041 C 
ATOM      8  O   UNL     1      17.774 128.129  64.110  1.00  0.00    -0.550 OA
ATOM      9  O   UNL     1      20.058 128.251  63.985  1.00  0.00    -0.550 OA
ENDBRANCH   6   7
ENDBRANCH   5   6
ENDBRANCH   4   5
ENDBRANCH   3   4
ENDBRANCH   2   3
ENDBRANCH   1   2
BRANCH   1  10
ATOM     10  C   UNL     1      15.348 131.662  60.915  1.00  0.00     0.000 C 
BRANCH  10  11
ATOM     11  C   UNL     1      14.476 131.713  59.649  1.00  0.00    -0.000 C 
BRANCH  11  12
ATOM     12  C   UNL     1      15.299 131.649  58.349  1.00  0.00    -0.000 C 
BRANCH  12  13
ATOM     13  C   UNL     1      16.826 131.595  58.538  1.00  0.00    -0.000 C 
BRANCH  13  14
ATOM     14  C   UNL     1      17.503 132.965  58.364  1.00  0.00    -0.000 C 
BRANCH  14  15
ATOM     15  C   UNL     1      18.660 133.193  59.354  1.00  0.00    -0.000 C 
BRANCH  15  16
ATOM     16  C   UNL     1      18.581 134.502  60.160  1.00  0.00    -0.003 C 
ATOM     17  C   UNL     1      17.347 135.340  59.824  1.00  0.00     0.004 C 
ENDBRANCH  15  16
ENDBRANCH  14  15
ENDBRANCH  13  14
ENDBRANCH  12  13
ENDBRANCH  11  12
ENDBRANCH  10  11
ENDBRANCH   1  10
TORSDOF 13
ENDMDL
