MODEL 1
REMARK VINA RESULT:    -6.765      0.000      0.000
REMARK INTER + INTRA:         -11.453
REMARK INTER:                 -10.521
REMARK INTRA:                  -0.931
REMARK UNBOUND:                -0.931
REMARK SMILES C[C@@]12C[C@H](O)[C@H]3C[C@]1(O[C@H]1O[C@@H](CO)[C@@H](O)[C@H](O)[C@@H]1O)[C@@]3(COC(=O)c1ccccc1)C(=O)O2
REMARK SMILES IDX 1 1 2 2 3 3 4 4 6 5 7 6 8 7 21 8 32 9 33 10 34 11 9 12 10 13
REMARK SMILES IDX 19 14 11 15 17 16 12 17 15 18 20 19 18 21 13 23 14 24 16 26
REMARK SMILES IDX 5 28 22 30 23 31 24 32 25 33 26 34 27 35 31 36 28 37 30 38
REMARK SMILES IDX 29 39
REMARK H PARENT 20 20 18 22 14 25 16 27 5 29
REMARK Flexibility Score: inf
ROOT
ATOM      1  C   UNL     1     -16.764  14.974  -2.901  1.00  0.00     0.060 C 
ATOM      2  C   UNL     1     -17.877  14.818  -3.939  1.00  0.00     0.142 C 
ATOM      3  C   UNL     1     -19.280  15.150  -3.314  1.00  0.00     0.083 C 
ATOM      4  C   UNL     1     -20.379  15.329  -4.430  1.00  0.00     0.123 C 
ATOM      5  C   UNL     1     -19.722  15.738  -5.789  1.00  0.00     0.045 C 
ATOM      6  C   UNL     1     -18.653  16.797  -5.457  1.00  0.00     0.049 C 
ATOM      7  C   UNL     1     -17.670  15.613  -5.314  1.00  0.00     0.131 C 
ATOM      8  C   UNL     1     -18.582  14.752  -6.221  1.00  0.00     0.140 C 
ATOM      9  C   UNL     1     -18.501  13.396  -5.588  1.00  0.00     0.319 C 
ATOM     10  O   UNL     1     -18.908  12.323  -6.102  1.00  0.00    -0.251 OA
ATOM     11  O   UNL     1     -17.950  13.460  -4.335  1.00  0.00    -0.456 OA
ENDROOT
BRANCH   7  12
ATOM     12  O   UNL     1     -16.288  15.736  -5.689  1.00  0.00    -0.338 OA
BRANCH  12  13
ATOM     13  C   UNL     1     -15.817  17.062  -5.923  1.00  0.00     0.282 C 
ATOM     14  C   UNL     1     -16.077  17.471  -7.390  1.00  0.00     0.202 C 
ATOM     15  O   UNL     1     -14.459  17.238  -5.521  1.00  0.00    -0.341 OA
ATOM     16  C   UNL     1     -15.114  16.751  -8.334  1.00  0.00     0.179 C 
ATOM     17  C   UNL     1     -13.487  16.632  -6.367  1.00  0.00     0.178 C 
ATOM     18  C   UNL     1     -13.669  16.998  -7.864  1.00  0.00     0.177 C 
BRANCH  14  19
ATOM     19  O   UNL     1     -15.927  18.865  -7.533  1.00  0.00    -0.385 OA
ATOM     20  H   UNL     1     -15.817  19.044  -8.503  1.00  0.00     0.211 HD
ENDBRANCH  14  19
BRANCH  16  21
ATOM     21  O   UNL     1     -15.269  17.232  -9.646  1.00  0.00    -0.387 OA
ATOM     22  H   UNL     1     -16.245  17.308  -9.810  1.00  0.00     0.211 HD
ENDBRANCH  16  21
BRANCH  17  23
ATOM     23  C   UNL     1     -13.359  15.127  -6.088  1.00  0.00     0.191 C 
BRANCH  23  24
ATOM     24  O   UNL     1     -13.379  14.888  -4.710  1.00  0.00    -0.394 OA
ATOM     25  H   UNL     1     -13.291  13.903  -4.602  1.00  0.00     0.210 HD
ENDBRANCH  23  24
ENDBRANCH  17  23
BRANCH  18  26
ATOM     26  O   UNL     1     -12.728  16.334  -8.673  1.00  0.00    -0.387 OA
ATOM     27  H   UNL     1     -12.804  16.684  -9.602  1.00  0.00     0.211 HD
ENDBRANCH  18  26
ENDBRANCH  12  13
ENDBRANCH   7  12
BRANCH   4  28
ATOM     28  O   UNL     1     -21.114  14.147  -4.599  1.00  0.00    -0.393 OA
ATOM     29  H   UNL     1     -21.219  14.010  -5.577  1.00  0.00     0.210 HD
ENDBRANCH   4  28
BRANCH   8  30
ATOM     30  C   UNL     1     -18.332  14.719  -7.746  1.00  0.00     0.255 C 
BRANCH  30  31
ATOM     31  O   UNL     1     -17.180  13.925  -8.010  1.00  0.00    -0.461 OA
BRANCH  31  32
ATOM     32  C   UNL     1     -16.800  13.499  -9.292  1.00  0.00     0.338 C 
ATOM     33  O   UNL     1     -15.598  13.620  -9.678  1.00  0.00    -0.246 OA
BRANCH  32  34
ATOM     34  C   UNL     1     -17.801  12.847 -10.166  1.00  0.00     0.060 A 
ATOM     35  C   UNL     1     -18.316  11.580  -9.827  1.00  0.00     0.015 A 
ATOM     36  C   UNL     1     -18.229  13.465 -11.357  1.00  0.00     0.015 A 
ATOM     37  C   UNL     1     -19.247  10.951 -10.659  1.00  0.00     0.001 A 
ATOM     38  C   UNL     1     -19.152  12.827 -12.191  1.00  0.00     0.001 A 
ATOM     39  C   UNL     1     -19.661  11.571 -11.843  1.00  0.00     0.000 A 
ENDBRANCH  32  34
ENDBRANCH  31  32
ENDBRANCH  30  31
ENDBRANCH   8  30
TORSDOF 12
ENDMDL
MODEL 2
REMARK VINA RESULT:    -6.682      2.053      6.036
REMARK INTER + INTRA:         -11.324
REMARK INTER:                 -10.213
REMARK INTRA:                  -1.111
REMARK UNBOUND:                -0.931
REMARK SMILES C[C@@]12C[C@H](O)[C@H]3C[C@]1(O[C@H]1O[C@@H](CO)[C@@H](O)[C@H](O)[C@@H]1O)[C@@]3(COC(=O)c1ccccc1)C(=O)O2
REMARK SMILES IDX 1 1 2 2 3 3 4 4 6 5 7 6 8 7 21 8 32 9 33 10 34 11 9 12 10 13
REMARK SMILES IDX 19 14 11 15 17 16 12 17 15 18 20 19 18 21 13 23 14 24 16 26
REMARK SMILES IDX 5 28 22 30 23 31 24 32 25 33 26 34 27 35 31 36 28 37 30 38
REMARK SMILES IDX 29 39
REMARK H PARENT 20 20 18 22 14 25 16 27 5 29
REMARK Flexibility Score: inf
ROOT
ATOM      1  C   UNL     1     -20.368  10.511  -7.391  1.00  0.00     0.060 C 
ATOM      2  C   UNL     1     -19.680  11.115  -8.616  1.00  0.00     0.142 C 
ATOM      3  C   UNL     1     -20.354  10.615  -9.945  1.00  0.00     0.083 C 
ATOM      4  C   UNL     1     -19.895  11.477 -11.182  1.00  0.00     0.123 C 
ATOM      5  C   UNL     1     -19.429  12.898 -10.723  1.00  0.00     0.045 C 
ATOM      6  C   UNL     1     -20.454  13.374  -9.675  1.00  0.00     0.049 C 
ATOM      7  C   UNL     1     -19.536  12.711  -8.623  1.00  0.00     0.131 C 
ATOM      8  C   UNL     1     -18.339  12.833  -9.598  1.00  0.00     0.140 C 
ATOM      9  C   UNL     1     -17.589  11.555  -9.370  1.00  0.00     0.319 C 
ATOM     10  O   UNL     1     -16.429  11.303  -9.785  1.00  0.00    -0.251 OA
ATOM     11  O   UNL     1     -18.343  10.649  -8.670  1.00  0.00    -0.456 OA
ENDROOT
BRANCH   7  12
ATOM     12  O   UNL     1     -19.378  13.265  -7.307  1.00  0.00    -0.338 OA
BRANCH  12  13
ATOM     13  C   UNL     1     -20.278  14.316  -6.958  1.00  0.00     0.282 C 
ATOM     14  C   UNL     1     -19.668  15.687  -7.326  1.00  0.00     0.202 C 
ATOM     15  O   UNL     1     -20.707  14.237  -5.599  1.00  0.00    -0.341 OA
ATOM     16  C   UNL     1     -18.545  16.060  -6.359  1.00  0.00     0.179 C 
ATOM     17  C   UNL     1     -19.735  14.606  -4.627  1.00  0.00     0.178 C 
ATOM     18  C   UNL     1     -19.075  15.981  -4.916  1.00  0.00     0.177 C 
BRANCH  14  19
ATOM     19  O   UNL     1     -20.667  16.680  -7.297  1.00  0.00    -0.385 OA
ATOM     20  H   UNL     1     -20.583  17.147  -6.425  1.00  0.00     0.211 HD
ENDBRANCH  14  19
BRANCH  16  21
ATOM     21  O   UNL     1     -18.092  17.366  -6.620  1.00  0.00    -0.387 OA
ATOM     22  H   UNL     1     -18.895  17.912  -6.826  1.00  0.00     0.211 HD
ENDBRANCH  16  21
BRANCH  17  23
ATOM     23  C   UNL     1     -18.743  13.463  -4.363  1.00  0.00     0.191 C 
BRANCH  23  24
ATOM     24  O   UNL     1     -19.404  12.231  -4.399  1.00  0.00    -0.394 OA
ATOM     25  H   UNL     1     -19.703  12.109  -5.340  1.00  0.00     0.210 HD
ENDBRANCH  23  24
ENDBRANCH  17  23
BRANCH  18  26
ATOM     26  O   UNL     1     -18.079  16.282  -3.968  1.00  0.00    -0.387 OA
ATOM     27  H   UNL     1     -17.400  16.871  -4.396  1.00  0.00     0.211 HD
ENDBRANCH  18  26
ENDBRANCH  12  13
ENDBRANCH   7  12
BRANCH   4  28
ATOM     28  O   UNL     1     -18.853  10.841 -11.873  1.00  0.00    -0.393 OA
ATOM     29  H   UNL     1     -18.249  11.555 -12.205  1.00  0.00     0.210 HD
ENDBRANCH   4  28
BRANCH   8  30
ATOM     30  C   UNL     1     -17.430  14.081  -9.540  1.00  0.00     0.255 C 
BRANCH  30  31
ATOM     31  O   UNL     1     -16.531  13.949  -8.443  1.00  0.00    -0.461 OA
BRANCH  31  32
ATOM     32  C   UNL     1     -15.390  14.746  -8.266  1.00  0.00     0.338 C 
ATOM     33  O   UNL     1     -14.895  15.384  -9.244  1.00  0.00    -0.246 OA
BRANCH  32  34
ATOM     34  C   UNL     1     -14.806  14.887  -6.913  1.00  0.00     0.060 A 
ATOM     35  C   UNL     1     -13.551  15.503  -6.746  1.00  0.00     0.015 A 
ATOM     36  C   UNL     1     -15.479  14.384  -5.782  1.00  0.00     0.015 A 
ATOM     37  C   UNL     1     -12.986  15.621  -5.473  1.00  0.00     0.001 A 
ATOM     38  C   UNL     1     -14.906  14.495  -4.512  1.00  0.00     0.001 A 
ATOM     39  C   UNL     1     -13.660  15.113  -4.357  1.00  0.00     0.000 A 
ENDBRANCH  32  34
ENDBRANCH  31  32
ENDBRANCH  30  31
ENDBRANCH   8  30
TORSDOF 12
ENDMDL
MODEL 3
REMARK VINA RESULT:    -6.427      1.885      5.144
REMARK INTER + INTRA:         -10.928
REMARK INTER:                  -9.886
REMARK INTRA:                  -1.042
REMARK UNBOUND:                -0.931
REMARK SMILES C[C@@]12C[C@H](O)[C@H]3C[C@]1(O[C@H]1O[C@@H](CO)[C@@H](O)[C@H](O)[C@@H]1O)[C@@]3(COC(=O)c1ccccc1)C(=O)O2
REMARK SMILES IDX 1 1 2 2 3 3 4 4 6 5 7 6 8 7 21 8 32 9 33 10 34 11 9 12 10 13
REMARK SMILES IDX 19 14 11 15 17 16 12 17 15 18 20 19 18 21 13 23 14 24 16 26
REMARK SMILES IDX 5 28 22 30 23 31 24 32 25 33 26 34 27 35 31 36 28 37 30 38
REMARK SMILES IDX 29 39
REMARK H PARENT 20 20 18 22 14 25 16 27 5 29
REMARK Flexibility Score: inf
ROOT
ATOM      1  C   UNL     1     -17.822  18.686  -4.435  1.00  0.00     0.060 C 
ATOM      2  C   UNL     1     -16.544  17.860  -4.586  1.00  0.00     0.142 C 
ATOM      3  C   UNL     1     -15.555  18.128  -3.394  1.00  0.00     0.083 C 
ATOM      4  C   UNL     1     -14.405  17.052  -3.347  1.00  0.00     0.123 C 
ATOM      5  C   UNL     1     -14.861  15.727  -4.042  1.00  0.00     0.045 C 
ATOM      6  C   UNL     1     -16.306  15.464  -3.574  1.00  0.00     0.049 C 
ATOM      7  C   UNL     1     -16.747  16.286  -4.806  1.00  0.00     0.131 C 
ATOM      8  C   UNL     1     -15.397  15.970  -5.495  1.00  0.00     0.140 C 
ATOM      9  C   UNL     1     -15.071  17.253  -6.197  1.00  0.00     0.319 C 
ATOM     10  O   UNL     1     -14.172  17.405  -7.065  1.00  0.00    -0.251 OA
ATOM     11  O   UNL     1     -15.857  18.284  -5.751  1.00  0.00    -0.456 OA
ENDROOT
BRANCH   7  12
ATOM     12  O   UNL     1     -17.949  15.972  -5.527  1.00  0.00    -0.338 OA
BRANCH  12  13
ATOM     13  C   UNL     1     -18.845  15.065  -4.887  1.00  0.00     0.282 C 
ATOM     14  C   UNL     1     -18.520  13.612  -5.300  1.00  0.00     0.202 C 
ATOM     15  O   UNL     1     -20.214  15.415  -5.090  1.00  0.00    -0.341 OA
ATOM     16  C   UNL     1     -18.962  13.343  -6.738  1.00  0.00     0.179 C 
ATOM     17  C   UNL     1     -20.725  15.161  -6.394  1.00  0.00     0.178 C 
ATOM     18  C   UNL     1     -20.448  13.715  -6.886  1.00  0.00     0.177 C 
BRANCH  14  19
ATOM     19  O   UNL     1     -19.165  12.710  -4.430  1.00  0.00    -0.385 OA
ATOM     20  H   UNL     1     -20.139  12.789  -4.603  1.00  0.00     0.211 HD
ENDBRANCH  14  19
BRANCH  16  21
ATOM     21  O   UNL     1     -18.786  11.984  -7.055  1.00  0.00    -0.387 OA
ATOM     22  H   UNL     1     -18.056  11.938  -7.726  1.00  0.00     0.211 HD
ENDBRANCH  16  21
BRANCH  17  23
ATOM     23  C   UNL     1     -20.312  16.262  -7.382  1.00  0.00     0.191 C 
BRANCH  23  24
ATOM     24  O   UNL     1     -21.117  16.211  -8.525  1.00  0.00    -0.394 OA
ATOM     25  H   UNL     1     -21.207  17.151  -8.839  1.00  0.00     0.210 HD
ENDBRANCH  23  24
ENDBRANCH  17  23
BRANCH  18  26
ATOM     26  O   UNL     1     -20.915  13.522  -8.200  1.00  0.00    -0.387 OA
ATOM     27  H   UNL     1     -20.201  13.804  -8.835  1.00  0.00     0.211 HD
ENDBRANCH  18  26
ENDBRANCH  12  13
ENDBRANCH   7  12
BRANCH   4  28
ATOM     28  O   UNL     1     -13.245  17.535  -3.970  1.00  0.00    -0.393 OA
ATOM     29  H   UNL     1     -12.973  18.354  -3.479  1.00  0.00     0.210 HD
ENDBRANCH   4  28
BRANCH   8  30
ATOM     30  C   UNL     1     -15.281  14.735  -6.417  1.00  0.00     0.255 C 
BRANCH  30  31
ATOM     31  O   UNL     1     -16.045  14.963  -7.597  1.00  0.00    -0.461 OA
BRANCH  31  32
ATOM     32  C   UNL     1     -15.603  14.642  -8.889  1.00  0.00     0.338 C 
ATOM     33  O   UNL     1     -14.577  15.207  -9.376  1.00  0.00    -0.246 OA
BRANCH  32  34
ATOM     34  C   UNL     1     -16.306  13.589  -9.655  1.00  0.00     0.060 A 
ATOM     35  C   UNL     1     -15.619  12.425 -10.052  1.00  0.00     0.015 A 
ATOM     36  C   UNL     1     -17.657  13.746 -10.024  1.00  0.00     0.015 A 
ATOM     37  C   UNL     1     -16.272  11.436 -10.792  1.00  0.00     0.001 A 
ATOM     38  C   UNL     1     -18.304  12.760 -10.774  1.00  0.00     0.001 A 
ATOM     39  C   UNL     1     -17.612  11.605 -11.158  1.00  0.00     0.000 A 
ENDBRANCH  32  34
ENDBRANCH  31  32
ENDBRANCH  30  31
ENDBRANCH   8  30
TORSDOF 12
ENDMDL
MODEL 4
REMARK VINA RESULT:    -6.414      2.103      5.986
REMARK INTER + INTRA:         -10.908
REMARK INTER:                 -10.267
REMARK INTRA:                  -0.641
REMARK UNBOUND:                -0.931
REMARK SMILES C[C@@]12C[C@H](O)[C@H]3C[C@]1(O[C@H]1O[C@@H](CO)[C@@H](O)[C@H](O)[C@@H]1O)[C@@]3(COC(=O)c1ccccc1)C(=O)O2
REMARK SMILES IDX 1 1 2 2 3 3 4 4 6 5 7 6 8 7 21 8 32 9 33 10 34 11 9 12 10 13
REMARK SMILES IDX 19 14 11 15 17 16 12 17 15 18 20 19 18 21 13 23 14 24 16 26
REMARK SMILES IDX 5 28 22 30 23 31 24 32 25 33 26 34 27 35 31 36 28 37 30 38
REMARK SMILES IDX 29 39
REMARK H PARENT 20 20 18 22 14 25 16 27 5 29
REMARK Flexibility Score: inf
ROOT
ATOM      1  C   UNL     1     -21.115  14.705  -6.917  1.00  0.00     0.060 C 
ATOM      2  C   UNL     1     -19.789  15.059  -6.244  1.00  0.00     0.142 C 
ATOM      3  C   UNL     1     -19.952  15.137  -4.682  1.00  0.00     0.083 C 
ATOM      4  C   UNL     1     -18.553  15.159  -3.958  1.00  0.00     0.123 C 
ATOM      5  C   UNL     1     -17.456  14.501  -4.857  1.00  0.00     0.045 C 
ATOM      6  C   UNL     1     -18.091  13.234  -5.464  1.00  0.00     0.049 C 
ATOM      7  C   UNL     1     -18.536  14.140  -6.634  1.00  0.00     0.131 C 
ATOM      8  C   UNL     1     -17.400  15.135  -6.290  1.00  0.00     0.140 C 
ATOM      9  C   UNL     1     -18.039  16.469  -6.531  1.00  0.00     0.319 C 
ATOM     10  O   UNL     1     -17.433  17.571  -6.589  1.00  0.00    -0.251 OA
ATOM     11  O   UNL     1     -19.400  16.361  -6.648  1.00  0.00    -0.456 OA
ENDROOT
BRANCH   7  12
ATOM     12  O   UNL     1     -18.600  13.649  -7.983  1.00  0.00    -0.338 OA
BRANCH  12  13
ATOM     13  C   UNL     1     -18.880  12.257  -8.129  1.00  0.00     0.282 C 
ATOM     14  C   UNL     1     -17.731  11.559  -8.891  1.00  0.00     0.202 C 
ATOM     15  O   UNL     1     -20.164  12.016  -8.703  1.00  0.00    -0.341 OA
ATOM     16  C   UNL     1     -17.762  11.923 -10.375  1.00  0.00     0.179 C 
ATOM     17  C   UNL     1     -20.276  12.292 -10.095  1.00  0.00     0.178 C 
ATOM     18  C   UNL     1     -19.161  11.619 -10.940  1.00  0.00     0.177 C 
BRANCH  14  19
ATOM     19  O   UNL     1     -17.839  10.161  -8.745  1.00  0.00    -0.385 OA
ATOM     20  H   UNL     1     -18.750   9.977  -8.398  1.00  0.00     0.211 HD
ENDBRANCH  14  19
BRANCH  16  21
ATOM     21  O   UNL     1     -16.800  11.177 -11.079  1.00  0.00    -0.387 OA
ATOM     22  H   UNL     1     -16.913  11.399 -12.040  1.00  0.00     0.211 HD
ENDBRANCH  16  21
BRANCH  17  23
ATOM     23  C   UNL     1     -20.457  13.794 -10.357  1.00  0.00     0.191 C 
BRANCH  23  24
ATOM     24  O   UNL     1     -19.251  14.358 -10.787  1.00  0.00    -0.394 OA
ATOM     25  H   UNL     1     -18.930  14.923 -10.034  1.00  0.00     0.210 HD
ENDBRANCH  23  24
ENDBRANCH  17  23
BRANCH  18  26
ATOM     26  O   UNL     1     -19.270  11.963 -12.301  1.00  0.00    -0.387 OA
ATOM     27  H   UNL     1     -18.835  12.848 -12.440  1.00  0.00     0.211 HD
ENDBRANCH  18  26
ENDBRANCH  12  13
ENDBRANCH   7  12
BRANCH   4  28
ATOM     28  O   UNL     1     -18.177  16.472  -3.641  1.00  0.00    -0.393 OA
ATOM     29  H   UNL     1     -18.849  17.073  -4.058  1.00  0.00     0.210 HD
ENDBRANCH   4  28
BRANCH   8  30
ATOM     30  C   UNL     1     -16.025  14.994  -6.980  1.00  0.00     0.255 C 
BRANCH  30  31
ATOM     31  O   UNL     1     -15.031  15.604  -6.164  1.00  0.00    -0.461 OA
BRANCH  31  32
ATOM     32  C   UNL     1     -14.142  16.590  -6.618  1.00  0.00     0.338 C 
ATOM     33  O   UNL     1     -13.303  17.113  -5.824  1.00  0.00    -0.246 OA
BRANCH  32  34
ATOM     34  C   UNL     1     -14.148  16.967  -8.049  1.00  0.00     0.060 A 
ATOM     35  C   UNL     1     -13.346  16.264  -8.969  1.00  0.00     0.015 A 
ATOM     36  C   UNL     1     -14.929  18.048  -8.506  1.00  0.00     0.015 A 
ATOM     37  C   UNL     1     -13.332  16.629 -10.318  1.00  0.00     0.001 A 
ATOM     38  C   UNL     1     -14.904  18.416  -9.854  1.00  0.00     0.001 A 
ATOM     39  C   UNL     1     -14.106  17.708 -10.760  1.00  0.00     0.000 A 
ENDBRANCH  32  34
ENDBRANCH  31  32
ENDBRANCH  30  31
ENDBRANCH   8  30
TORSDOF 12
ENDMDL
MODEL 5
REMARK VINA RESULT:    -6.179      2.368      6.658
REMARK INTER + INTRA:         -10.542
REMARK INTER:                  -9.980
REMARK INTRA:                  -0.562
REMARK UNBOUND:                -0.931
REMARK SMILES C[C@@]12C[C@H](O)[C@H]3C[C@]1(O[C@H]1O[C@@H](CO)[C@@H](O)[C@H](O)[C@@H]1O)[C@@]3(COC(=O)c1ccccc1)C(=O)O2
REMARK SMILES IDX 1 1 2 2 3 3 4 4 6 5 7 6 8 7 21 8 32 9 33 10 34 11 9 12 10 13
REMARK SMILES IDX 19 14 11 15 17 16 12 17 15 18 20 19 18 21 13 23 14 24 16 26
REMARK SMILES IDX 5 28 22 30 23 31 24 32 25 33 26 34 27 35 31 36 28 37 30 38
REMARK SMILES IDX 29 39
REMARK H PARENT 20 20 18 22 14 25 16 27 5 29
REMARK Flexibility Score: inf
ROOT
ATOM      1  C   UNL     1     -21.098  16.186  -8.373  1.00  0.00     0.060 C 
ATOM      2  C   UNL     1     -20.323  16.017  -7.066  1.00  0.00     0.142 C 
ATOM      3  C   UNL     1     -21.125  16.616  -5.854  1.00  0.00     0.083 C 
ATOM      4  C   UNL     1     -20.516  16.154  -4.476  1.00  0.00     0.123 C 
ATOM      5  C   UNL     1     -19.732  14.810  -4.643  1.00  0.00     0.045 C 
ATOM      6  C   UNL     1     -20.597  13.910  -5.547  1.00  0.00     0.049 C 
ATOM      7  C   UNL     1     -19.824  14.532  -6.733  1.00  0.00     0.131 C 
ATOM      8  C   UNL     1     -18.656  14.886  -5.781  1.00  0.00     0.140 C 
ATOM      9  C   UNL     1     -18.207  16.224  -6.284  1.00  0.00     0.319 C 
ATOM     10  O   UNL     1     -17.143  16.810  -5.956  1.00  0.00    -0.251 OA
ATOM     11  O   UNL     1     -19.127  16.774  -7.139  1.00  0.00    -0.456 OA
ENDROOT
BRANCH   7  12
ATOM     12  O   UNL     1     -19.513  13.768  -7.909  1.00  0.00    -0.338 OA
BRANCH  12  13
ATOM     13  C   UNL     1     -20.151  12.496  -8.018  1.00  0.00     0.282 C 
ATOM     14  C   UNL     1     -19.109  11.363  -7.883  1.00  0.00     0.202 C 
ATOM     15  O   UNL     1     -20.953  12.387  -9.193  1.00  0.00    -0.341 OA
ATOM     16  C   UNL     1     -18.250  11.261  -9.143  1.00  0.00     0.179 C 
ATOM     17  C   UNL     1     -20.236  12.247 -10.414  1.00  0.00     0.178 C 
ATOM     18  C   UNL     1     -19.170  11.120 -10.369  1.00  0.00     0.177 C 
BRANCH  14  19
ATOM     19  O   UNL     1     -19.763  10.135  -7.654  1.00  0.00    -0.385 OA
ATOM     20  H   UNL     1     -20.419  10.017  -8.390  1.00  0.00     0.211 HD
ENDBRANCH  14  19
BRANCH  16  21
ATOM     21  O   UNL     1     -17.401  10.142  -9.063  1.00  0.00    -0.387 OA
ATOM     22  H   UNL     1     -17.740   9.578  -8.319  1.00  0.00     0.211 HD
ENDBRANCH  16  21
BRANCH  17  23
ATOM     23  C   UNL     1     -19.713  13.601 -10.916  1.00  0.00     0.191 C 
BRANCH  23  24
ATOM     24  O   UNL     1     -19.132  13.456 -12.180  1.00  0.00    -0.394 OA
ATOM     25  H   UNL     1     -19.323  12.522 -12.463  1.00  0.00     0.210 HD
ENDBRANCH  23  24
ENDBRANCH  17  23
BRANCH  18  26
ATOM     26  O   UNL     1     -18.442  11.053 -11.573  1.00  0.00    -0.387 OA
ATOM     27  H   UNL     1     -18.387  10.100 -11.858  1.00  0.00     0.211 HD
ENDBRANCH  18  26
ENDBRANCH  12  13
ENDBRANCH   7  12
BRANCH   4  28
ATOM     28  O   UNL     1     -19.661  17.136  -3.955  1.00  0.00    -0.393 OA
ATOM     29  H   UNL     1     -19.857  17.978  -4.444  1.00  0.00     0.210 HD
ENDBRANCH   4  28
BRANCH   8  30
ATOM     30  C   UNL     1     -17.489  13.889  -5.601  1.00  0.00     0.255 C 
BRANCH  30  31
ATOM     31  O   UNL     1     -17.147  13.819  -4.220  1.00  0.00    -0.461 OA
BRANCH  31  32
ATOM     32  C   UNL     1     -15.830  13.754  -3.741  1.00  0.00     0.338 C 
ATOM     33  O   UNL     1     -15.470  12.808  -2.978  1.00  0.00    -0.246 OA
BRANCH  32  34
ATOM     34  C   UNL     1     -14.846  14.765  -4.190  1.00  0.00     0.060 A 
ATOM     35  C   UNL     1     -13.788  14.392  -5.042  1.00  0.00     0.015 A 
ATOM     36  C   UNL     1     -14.932  16.101  -3.749  1.00  0.00     0.015 A 
ATOM     37  C   UNL     1     -12.844  15.337  -5.453  1.00  0.00     0.001 A 
ATOM     38  C   UNL     1     -13.980  17.040  -4.154  1.00  0.00     0.001 A 
ATOM     39  C   UNL     1     -12.937  16.660  -5.005  1.00  0.00     0.000 A 
ENDBRANCH  32  34
ENDBRANCH  31  32
ENDBRANCH  30  31
ENDBRANCH   8  30
TORSDOF 12
ENDMDL
MODEL 6
REMARK VINA RESULT:    -5.930      1.212      1.806
REMARK INTER + INTRA:         -10.154
REMARK INTER:                  -9.796
REMARK INTRA:                  -0.358
REMARK UNBOUND:                -0.931
REMARK SMILES C[C@@]12C[C@H](O)[C@H]3C[C@]1(O[C@H]1O[C@@H](CO)[C@@H](O)[C@H](O)[C@@H]1O)[C@@]3(COC(=O)c1ccccc1)C(=O)O2
REMARK SMILES IDX 1 1 2 2 3 3 4 4 6 5 7 6 8 7 21 8 32 9 33 10 34 11 9 12 10 13
REMARK SMILES IDX 19 14 11 15 17 16 12 17 15 18 20 19 18 21 13 23 14 24 16 26
REMARK SMILES IDX 5 28 22 30 23 31 24 32 25 33 26 34 27 35 31 36 28 37 30 38
REMARK SMILES IDX 29 39
REMARK H PARENT 20 20 18 22 14 25 16 27 5 29
REMARK Flexibility Score: inf
ROOT
ATOM      1  C   UNL     1     -16.470  16.616  -2.943  1.00  0.00     0.060 C 
ATOM      2  C   UNL     1     -17.628  15.878  -3.619  1.00  0.00     0.142 C 
ATOM      3  C   UNL     1     -19.012  16.366  -3.055  1.00  0.00     0.083 C 
ATOM      4  C   UNL     1     -20.205  15.881  -3.963  1.00  0.00     0.123 C 
ATOM      5  C   UNL     1     -19.714  15.610  -5.423  1.00  0.00     0.045 C 
ATOM      6  C   UNL     1     -18.772  16.774  -5.789  1.00  0.00     0.049 C 
ATOM      7  C   UNL     1     -17.632  15.898  -5.220  1.00  0.00     0.131 C 
ATOM      8  C   UNL     1     -18.489  14.632  -5.467  1.00  0.00     0.140 C 
ATOM      9  C   UNL     1     -18.181  13.781  -4.272  1.00  0.00     0.319 C 
ATOM     10  O   UNL     1     -18.480  12.566  -4.142  1.00  0.00    -0.251 OA
ATOM     11  O   UNL     1     -17.550  14.502  -3.291  1.00  0.00    -0.456 OA
ENDROOT
BRANCH   7  12
ATOM     12  O   UNL     1     -16.312  15.925  -5.785  1.00  0.00    -0.338 OA
BRANCH  12  13
ATOM     13  C   UNL     1     -15.767  17.218  -6.044  1.00  0.00     0.282 C 
ATOM     14  C   UNL     1     -16.011  17.615  -7.517  1.00  0.00     0.202 C 
ATOM     15  O   UNL     1     -14.400  17.323  -5.651  1.00  0.00    -0.341 OA
ATOM     16  C   UNL     1     -15.095  16.825  -8.452  1.00  0.00     0.179 C 
ATOM     17  C   UNL     1     -13.467  16.649  -6.489  1.00  0.00     0.178 C 
ATOM     18  C   UNL     1     -13.636  16.997  -7.993  1.00  0.00     0.177 C 
BRANCH  14  19
ATOM     19  O   UNL     1     -15.783  18.995  -7.687  1.00  0.00    -0.385 OA
ATOM     20  H   UNL     1     -15.641  19.376  -6.782  1.00  0.00     0.211 HD
ENDBRANCH  14  19
BRANCH  16  21
ATOM     21  O   UNL     1     -15.229  17.291  -9.772  1.00  0.00    -0.387 OA
ATOM     22  H   UNL     1     -16.102  16.958 -10.106  1.00  0.00     0.211 HD
ENDBRANCH  16  21
BRANCH  17  23
ATOM     23  C   UNL     1     -13.424  15.144  -6.184  1.00  0.00     0.191 C 
BRANCH  23  24
ATOM     24  O   UNL     1     -13.728  14.916  -4.838  1.00  0.00    -0.394 OA
ATOM     25  H   UNL     1     -14.263  14.077  -4.817  1.00  0.00     0.210 HD
ENDBRANCH  23  24
ENDBRANCH  17  23
BRANCH  18  26
ATOM     26  O   UNL     1     -12.738  16.266  -8.793  1.00  0.00    -0.387 OA
ATOM     27  H   UNL     1     -13.213  15.471  -9.158  1.00  0.00     0.211 HD
ENDBRANCH  18  26
ENDBRANCH  12  13
ENDBRANCH   7  12
BRANCH   4  28
ATOM     28  O   UNL     1     -20.788  14.718  -3.439  1.00  0.00    -0.393 OA
ATOM     29  H   UNL     1     -21.772  14.848  -3.472  1.00  0.00     0.210 HD
ENDBRANCH   4  28
BRANCH   8  30
ATOM     30  C   UNL     1     -18.352  13.865  -6.801  1.00  0.00     0.255 C 
BRANCH  30  31
ATOM     31  O   UNL     1     -19.161  12.694  -6.748  1.00  0.00    -0.461 OA
BRANCH  31  32
ATOM     32  C   UNL     1     -19.987  12.265  -7.798  1.00  0.00     0.338 C 
ATOM     33  O   UNL     1     -21.106  11.721  -7.554  1.00  0.00    -0.246 OA
BRANCH  32  34
ATOM     34  C   UNL     1     -19.569  12.513  -9.196  1.00  0.00     0.060 A 
ATOM     35  C   UNL     1     -19.875  13.739  -9.818  1.00  0.00     0.015 A 
ATOM     36  C   UNL     1     -18.891  11.521  -9.933  1.00  0.00     0.015 A 
ATOM     37  C   UNL     1     -19.501  13.972 -11.145  1.00  0.00     0.001 A 
ATOM     38  C   UNL     1     -18.528  11.754 -11.262  1.00  0.00     0.001 A 
ATOM     39  C   UNL     1     -18.832  12.978 -11.868  1.00  0.00     0.000 A 
ENDBRANCH  32  34
ENDBRANCH  31  32
ENDBRANCH  30  31
ENDBRANCH   8  30
TORSDOF 12
ENDMDL
MODEL 7
REMARK VINA RESULT:    -5.841      1.853      5.508
REMARK INTER + INTRA:         -10.017
REMARK INTER:                  -9.563
REMARK INTRA:                  -0.454
REMARK UNBOUND:                -0.931
REMARK SMILES C[C@@]12C[C@H](O)[C@H]3C[C@]1(O[C@H]1O[C@@H](CO)[C@@H](O)[C@H](O)[C@@H]1O)[C@@]3(COC(=O)c1ccccc1)C(=O)O2
REMARK SMILES IDX 1 1 2 2 3 3 4 4 6 5 7 6 8 7 21 8 32 9 33 10 34 11 9 12 10 13
REMARK SMILES IDX 19 14 11 15 17 16 12 17 15 18 20 19 18 21 13 23 14 24 16 26
REMARK SMILES IDX 5 28 22 30 23 31 24 32 25 33 26 34 27 35 31 36 28 37 30 38
REMARK SMILES IDX 29 39
REMARK H PARENT 20 20 18 22 14 25 16 27 5 29
REMARK Flexibility Score: inf
ROOT
ATOM      1  C   UNL     1     -20.492  15.527  -8.098  1.00  0.00     0.060 C 
ATOM      2  C   UNL     1     -19.755  15.463  -6.760  1.00  0.00     0.142 C 
ATOM      3  C   UNL     1     -20.767  15.487  -5.557  1.00  0.00     0.083 C 
ATOM      4  C   UNL     1     -20.065  15.081  -4.206  1.00  0.00     0.123 C 
ATOM      5  C   UNL     1     -18.799  14.205  -4.484  1.00  0.00     0.045 C 
ATOM      6  C   UNL     1     -19.197  13.199  -5.582  1.00  0.00     0.049 C 
ATOM      7  C   UNL     1     -18.707  14.263  -6.592  1.00  0.00     0.131 C 
ATOM      8  C   UNL     1     -17.812  14.887  -5.493  1.00  0.00     0.140 C 
ATOM      9  C   UNL     1     -17.929  16.357  -5.760  1.00  0.00     0.319 C 
ATOM     10  O   UNL     1     -17.204  17.252  -5.254  1.00  0.00    -0.251 OA
ATOM     11  O   UNL     1     -18.966  16.632  -6.613  1.00  0.00    -0.456 OA
ENDROOT
BRANCH   7  12
ATOM     12  O   UNL     1     -18.078  13.891  -7.828  1.00  0.00    -0.338 OA
BRANCH  12  13
ATOM     13  C   UNL     1     -18.934  13.338  -8.826  1.00  0.00     0.282 C 
ATOM     14  C   UNL     1     -19.175  11.837  -8.552  1.00  0.00     0.202 C 
ATOM     15  O   UNL     1     -18.471  13.601 -10.150  1.00  0.00    -0.341 OA
ATOM     16  C   UNL     1     -17.929  11.016  -8.885  1.00  0.00     0.179 C 
ATOM     17  C   UNL     1     -17.334  12.850 -10.562  1.00  0.00     0.178 C 
ATOM     18  C   UNL     1     -17.495  11.324 -10.328  1.00  0.00     0.177 C 
BRANCH  14  19
ATOM     19  O   UNL     1     -20.264  11.377  -9.319  1.00  0.00    -0.385 OA
ATOM     20  H   UNL     1     -19.886  10.979 -10.146  1.00  0.00     0.211 HD
ENDBRANCH  14  19
BRANCH  16  21
ATOM     21  O   UNL     1     -18.205   9.643  -8.761  1.00  0.00    -0.387 OA
ATOM     22  H   UNL     1     -17.423   9.159  -9.135  1.00  0.00     0.211 HD
ENDBRANCH  16  21
BRANCH  17  23
ATOM     23  C   UNL     1     -16.034  13.448 -10.004  1.00  0.00     0.191 C 
BRANCH  23  24
ATOM     24  O   UNL     1     -15.621  12.736  -8.873  1.00  0.00    -0.394 OA
ATOM     25  H   UNL     1     -16.247  11.967  -8.791  1.00  0.00     0.210 HD
ENDBRANCH  23  24
ENDBRANCH  17  23
BRANCH  18  26
ATOM     26  O   UNL     1     -16.329  10.624 -10.692  1.00  0.00    -0.387 OA
ATOM     27  H   UNL     1     -16.458   9.659 -10.479  1.00  0.00     0.211 HD
ENDBRANCH  18  26
ENDBRANCH  12  13
ENDBRANCH   7  12
BRANCH   4  28
ATOM     28  O   UNL     1     -19.698  16.220  -3.475  1.00  0.00    -0.393 OA
ATOM     29  H   UNL     1     -20.134  16.997  -3.912  1.00  0.00     0.210 HD
ENDBRANCH   4  28
BRANCH   8  30
ATOM     30  C   UNL     1     -16.347  14.418  -5.344  1.00  0.00     0.255 C 
BRANCH  30  31
ATOM     31  O   UNL     1     -15.649  14.685  -6.556  1.00  0.00    -0.461 OA
BRANCH  31  32
ATOM     32  C   UNL     1     -14.604  15.613  -6.669  1.00  0.00     0.338 C 
ATOM     33  O   UNL     1     -13.747  15.731  -5.743  1.00  0.00    -0.246 OA
BRANCH  32  34
ATOM     34  C   UNL     1     -14.472  16.409  -7.910  1.00  0.00     0.060 A 
ATOM     35  C   UNL     1     -15.183  17.617  -8.055  1.00  0.00     0.015 A 
ATOM     36  C   UNL     1     -13.663  15.959  -8.973  1.00  0.00     0.015 A 
ATOM     37  C   UNL     1     -15.079  18.362  -9.233  1.00  0.00     0.001 A 
ATOM     38  C   UNL     1     -13.569  16.703 -10.153  1.00  0.00     0.001 A 
ATOM     39  C   UNL     1     -14.276  17.903 -10.283  1.00  0.00     0.000 A 
ENDBRANCH  32  34
ENDBRANCH  31  32
ENDBRANCH  30  31
ENDBRANCH   8  30
TORSDOF 12
ENDMDL
MODEL 8
REMARK VINA RESULT:    -5.790      1.913      6.194
REMARK INTER + INTRA:          -9.937
REMARK INTER:                  -8.944
REMARK INTRA:                  -0.993
REMARK UNBOUND:                -0.931
REMARK SMILES C[C@@]12C[C@H](O)[C@H]3C[C@]1(O[C@H]1O[C@@H](CO)[C@@H](O)[C@H](O)[C@@H]1O)[C@@]3(COC(=O)c1ccccc1)C(=O)O2
REMARK SMILES IDX 1 1 2 2 3 3 4 4 6 5 7 6 8 7 21 8 32 9 33 10 34 11 9 12 10 13
REMARK SMILES IDX 19 14 11 15 17 16 12 17 15 18 20 19 18 21 13 23 14 24 16 26
REMARK SMILES IDX 5 28 22 30 23 31 24 32 25 33 26 34 27 35 31 36 28 37 30 38
REMARK SMILES IDX 29 39
REMARK H PARENT 20 20 18 22 14 25 16 27 5 29
REMARK Flexibility Score: inf
ROOT
ATOM      1  C   UNL     1     -14.411  16.259  -9.273  1.00  0.00     0.060 C 
ATOM      2  C   UNL     1     -14.656  16.181  -7.766  1.00  0.00     0.142 C 
ATOM      3  C   UNL     1     -14.842  17.615  -7.150  1.00  0.00     0.083 C 
ATOM      4  C   UNL     1     -15.427  17.542  -5.688  1.00  0.00     0.123 C 
ATOM      5  C   UNL     1     -16.218  16.209  -5.477  1.00  0.00     0.045 C 
ATOM      6  C   UNL     1     -17.056  15.991  -6.752  1.00  0.00     0.049 C 
ATOM      7  C   UNL     1     -15.840  15.208  -7.297  1.00  0.00     0.131 C 
ATOM      8  C   UNL     1     -15.365  14.946  -5.846  1.00  0.00     0.140 C 
ATOM      9  C   UNL     1     -13.875  15.067  -5.954  1.00  0.00     0.319 C 
ATOM     10  O   UNL     1     -13.047  14.722  -5.072  1.00  0.00    -0.251 OA
ATOM     11  O   UNL     1     -13.503  15.646  -7.139  1.00  0.00    -0.456 OA
ENDROOT
BRANCH   7  12
ATOM     12  O   UNL     1     -16.004  14.069  -8.157  1.00  0.00    -0.338 OA
BRANCH  12  13
ATOM     13  C   UNL     1     -17.226  14.008  -8.890  1.00  0.00     0.282 C 
ATOM     14  C   UNL     1     -18.353  13.433  -8.004  1.00  0.00     0.202 C 
ATOM     15  O   UNL     1     -17.083  13.324 -10.134  1.00  0.00    -0.341 OA
ATOM     16  C   UNL     1     -18.171  11.929  -7.800  1.00  0.00     0.179 C 
ATOM     17  C   UNL     1     -16.946  11.910 -10.043  1.00  0.00     0.178 C 
ATOM     18  C   UNL     1     -18.048  11.246  -9.174  1.00  0.00     0.177 C 
BRANCH  14  19
ATOM     19  O   UNL     1     -19.606  13.682  -8.598  1.00  0.00    -0.385 OA
ATOM     20  H   UNL     1     -19.470  13.647  -9.581  1.00  0.00     0.211 HD
ENDBRANCH  14  19
BRANCH  16  21
ATOM     21  O   UNL     1     -19.273  11.395  -7.108  1.00  0.00    -0.387 OA
ATOM     22  H   UNL     1     -19.957  11.170  -7.791  1.00  0.00     0.211 HD
ENDBRANCH  16  21
BRANCH  17  23
ATOM     23  C   UNL     1     -15.511  11.507  -9.674  1.00  0.00     0.191 C 
BRANCH  23  24
ATOM     24  O   UNL     1     -15.261  10.190 -10.073  1.00  0.00    -0.394 OA
ATOM     25  H   UNL     1     -14.659  10.253 -10.863  1.00  0.00     0.210 HD
ENDBRANCH  23  24
ENDBRANCH  17  23
BRANCH  18  26
ATOM     26  O   UNL     1     -17.844   9.858  -9.060  1.00  0.00    -0.387 OA
ATOM     27  H   UNL     1     -16.934   9.641  -9.402  1.00  0.00     0.211 HD
ENDBRANCH  18  26
ENDBRANCH  12  13
ENDBRANCH   7  12
BRANCH   4  28
ATOM     28  O   UNL     1     -14.403  17.638  -4.736  1.00  0.00    -0.393 OA
ATOM     29  H   UNL     1     -14.199  16.713  -4.437  1.00  0.00     0.210 HD
ENDBRANCH   4  28
BRANCH   8  30
ATOM     30  C   UNL     1     -15.812  13.658  -5.118  1.00  0.00     0.255 C 
BRANCH  30  31
ATOM     31  O   UNL     1     -16.461  14.015  -3.901  1.00  0.00    -0.461 OA
BRANCH  31  32
ATOM     32  C   UNL     1     -17.739  13.565  -3.535  1.00  0.00     0.338 C 
ATOM     33  O   UNL     1     -17.880  12.463  -2.925  1.00  0.00    -0.246 OA
BRANCH  32  34
ATOM     34  C   UNL     1     -18.915  14.421  -3.808  1.00  0.00     0.060 A 
ATOM     35  C   UNL     1     -19.896  14.002  -4.727  1.00  0.00     0.015 A 
ATOM     36  C   UNL     1     -19.055  15.675  -3.180  1.00  0.00     0.015 A 
ATOM     37  C   UNL     1     -20.999  14.815  -5.005  1.00  0.00     0.001 A 
ATOM     38  C   UNL     1     -20.154  16.490  -3.468  1.00  0.00     0.001 A 
ATOM     39  C   UNL     1     -21.125  16.061  -4.379  1.00  0.00     0.000 A 
ENDBRANCH  32  34
ENDBRANCH  31  32
ENDBRANCH  30  31
ENDBRANCH   8  30
TORSDOF 12
ENDMDL
MODEL 9
REMARK VINA RESULT:    -5.688      1.959      6.117
REMARK INTER + INTRA:          -9.778
REMARK INTER:                  -8.741
REMARK INTRA:                  -1.037
REMARK UNBOUND:                -0.931
REMARK SMILES C[C@@]12C[C@H](O)[C@H]3C[C@]1(O[C@H]1O[C@@H](CO)[C@@H](O)[C@H](O)[C@@H]1O)[C@@]3(COC(=O)c1ccccc1)C(=O)O2
REMARK SMILES IDX 1 1 2 2 3 3 4 4 6 5 7 6 8 7 21 8 32 9 33 10 34 11 9 12 10 13
REMARK SMILES IDX 19 14 11 15 17 16 12 17 15 18 20 19 18 21 13 23 14 24 16 26
REMARK SMILES IDX 5 28 22 30 23 31 24 32 25 33 26 34 27 35 31 36 28 37 30 38
REMARK SMILES IDX 29 39
REMARK H PARENT 20 20 18 22 14 25 16 27 5 29
REMARK Flexibility Score: inf
ROOT
ATOM      1  C   UNL     1     -20.817  12.014  -5.678  1.00  0.00     0.060 C 
ATOM      2  C   UNL     1     -20.125  13.330  -5.321  1.00  0.00     0.142 C 
ATOM      3  C   UNL     1     -19.740  13.370  -3.798  1.00  0.00     0.083 C 
ATOM      4  C   UNL     1     -18.738  14.546  -3.488  1.00  0.00     0.123 C 
ATOM      5  C   UNL     1     -17.939  14.942  -4.773  1.00  0.00     0.045 C 
ATOM      6  C   UNL     1     -17.533  13.623  -5.459  1.00  0.00     0.049 C 
ATOM      7  C   UNL     1     -18.868  13.731  -6.231  1.00  0.00     0.131 C 
ATOM      8  C   UNL     1     -18.881  15.259  -5.986  1.00  0.00     0.140 C 
ATOM      9  C   UNL     1     -20.331  15.548  -5.738  1.00  0.00     0.319 C 
ATOM     10  O   UNL     1     -20.854  16.691  -5.705  1.00  0.00    -0.251 OA
ATOM     11  O   UNL     1     -21.039  14.397  -5.509  1.00  0.00    -0.456 OA
ENDROOT
BRANCH   7  12
ATOM     12  O   UNL     1     -18.990  13.275  -7.588  1.00  0.00    -0.338 OA
BRANCH  12  13
ATOM     13  C   UNL     1     -18.198  12.143  -7.943  1.00  0.00     0.282 C 
ATOM     14  C   UNL     1     -17.256  12.497  -9.115  1.00  0.00     0.202 C 
ATOM     15  O   UNL     1     -18.987  10.979  -8.185  1.00  0.00    -0.341 OA
ATOM     16  C   UNL     1     -18.036  12.609 -10.425  1.00  0.00     0.179 C 
ATOM     17  C   UNL     1     -19.720  10.980  -9.406  1.00  0.00     0.178 C 
ATOM     18  C   UNL     1     -18.845  11.318 -10.642  1.00  0.00     0.177 C 
BRANCH  14  19
ATOM     19  O   UNL     1     -16.257  11.511  -9.242  1.00  0.00    -0.385 OA
ATOM     20  H   UNL     1     -16.431  11.033 -10.095  1.00  0.00     0.211 HD
ENDBRANCH  14  19
BRANCH  16  21
ATOM     21  O   UNL     1     -17.152  12.795 -11.503  1.00  0.00    -0.387 OA
ATOM     22  H   UNL     1     -17.663  12.598 -12.330  1.00  0.00     0.211 HD
ENDBRANCH  16  21
BRANCH  17  23
ATOM     23  C   UNL     1     -21.007  11.809  -9.288  1.00  0.00     0.191 C 
BRANCH  23  24
ATOM     24  O   UNL     1     -20.871  13.014  -9.985  1.00  0.00    -0.394 OA
ATOM     25  H   UNL     1     -20.813  13.726  -9.292  1.00  0.00     0.210 HD
ENDBRANCH  23  24
ENDBRANCH  17  23
BRANCH  18  26
ATOM     26  O   UNL     1     -19.616  11.367 -11.819  1.00  0.00    -0.387 OA
ATOM     27  H   UNL     1     -20.384  11.983 -11.670  1.00  0.00     0.211 HD
ENDBRANCH  18  26
ENDBRANCH  12  13
ENDBRANCH   7  12
BRANCH   4  28
ATOM     28  O   UNL     1     -19.421  15.666  -2.994  1.00  0.00    -0.393 OA
ATOM     29  H   UNL     1     -19.323  16.386  -3.672  1.00  0.00     0.210 HD
ENDBRANCH   4  28
BRANCH   8  30
ATOM     30  C   UNL     1     -18.251  16.206  -7.032  1.00  0.00     0.255 C 
BRANCH  30  31
ATOM     31  O   UNL     1     -17.717  17.346  -6.366  1.00  0.00    -0.461 OA
BRANCH  31  32
ATOM     32  C   UNL     1     -16.424  17.844  -6.581  1.00  0.00     0.338 C 
ATOM     33  O   UNL     1     -16.255  19.009  -7.052  1.00  0.00    -0.246 OA
BRANCH  32  34
ATOM     34  C   UNL     1     -15.256  17.023  -6.191  1.00  0.00     0.060 A 
ATOM     35  C   UNL     1     -14.797  17.033  -4.860  1.00  0.00     0.015 A 
ATOM     36  C   UNL     1     -14.571  16.245  -7.146  1.00  0.00     0.015 A 
ATOM     37  C   UNL     1     -13.682  16.275  -4.490  1.00  0.00     0.001 A 
ATOM     38  C   UNL     1     -13.451  15.496  -6.775  1.00  0.00     0.001 A 
ATOM     39  C   UNL     1     -13.006  15.511  -5.448  1.00  0.00     0.000 A 
ENDBRANCH  32  34
ENDBRANCH  31  32
ENDBRANCH  30  31
ENDBRANCH   8  30
TORSDOF 12
ENDMDL
