MODEL 1
REMARK VINA RESULT:    -4.210      0.000      0.000
REMARK INTER + INTRA:          -7.026
REMARK INTER:                  -6.672
REMARK INTRA:                  -0.354
REMARK UNBOUND:                -0.354
REMARK SMILES CCCCCCCCCCCC(=O)[O-]
REMARK SMILES IDX 7 1 8 2 9 3 10 4 11 5 12 6 13 7 14 8 6 9 5 10 4 11 3 12 2 13
REMARK SMILES IDX 1 14
REMARK H PARENT
REMARK Flexibility Score: inf
ROOT
ATOM      1  C   UNL     1      -4.181  -0.187  -0.737  1.00  0.00     0.000 C 
ENDROOT
BRANCH   1   2
ATOM      2  C   UNL     1      -3.422   1.021  -0.161  1.00  0.00     0.000 C 
BRANCH   2   3
ATOM      3  C   UNL     1      -4.294   1.891   0.763  1.00  0.00     0.000 C 
BRANCH   3   4
ATOM      4  C   UNL     1      -3.877   3.370   0.853  1.00  0.00     0.006 C 
BRANCH   4   5
ATOM      5  C   UNL     1      -2.731   3.729  -0.102  1.00  0.00     0.053 C 
BRANCH   5   6
ATOM      6  C   UNL     1      -3.080   4.942  -0.905  1.00  0.00     0.041 C 
ATOM      7  O   UNL     1      -3.395   6.015  -0.327  1.00  0.00    -0.550 OA
ATOM      8  O   UNL     1      -3.012   4.902  -2.292  1.00  0.00    -0.550 OA
ENDBRANCH   5   6
ENDBRANCH   4   5
ENDBRANCH   3   4
ENDBRANCH   2   3
ENDBRANCH   1   2
BRANCH   1   9
ATOM      9  C   UNL     1      -3.376  -0.926  -1.819  1.00  0.00     0.000 C 
BRANCH   9  10
ATOM     10  C   UNL     1      -4.236  -1.913  -2.629  1.00  0.00    -0.000 C 
BRANCH  10  11
ATOM     11  C   UNL     1      -3.564  -3.286  -2.790  1.00  0.00    -0.000 C 
BRANCH  11  12
ATOM     12  C   UNL     1      -4.067  -4.314  -1.766  1.00  0.00    -0.000 C 
BRANCH  12  13
ATOM     13  C   UNL     1      -3.688  -3.898  -0.340  1.00  0.00    -0.003 C 
ATOM     14  C   UNL     1      -4.638  -4.509   0.685  1.00  0.00     0.004 C 
ENDBRANCH  12  13
ENDBRANCH  11  12
ENDBRANCH  10  11
ENDBRANCH   9  10
ENDBRANCH   1   9
TORSDOF 10
ENDMDL
MODEL 2
REMARK VINA RESULT:    -4.167      3.926      7.666
REMARK INTER + INTRA:          -6.958
REMARK INTER:                  -6.515
REMARK INTRA:                  -0.444
REMARK UNBOUND:                -0.354
REMARK SMILES CCCCCCCCCCCC(=O)[O-]
REMARK SMILES IDX 7 1 8 2 9 3 10 4 11 5 12 6 13 7 14 8 6 9 5 10 4 11 3 12 2 13
REMARK SMILES IDX 1 14
REMARK H PARENT
REMARK Flexibility Score: inf
ROOT
ATOM      1  C   UNL     1      -4.213  -0.212  -0.750  1.00  0.00     0.000 C 
ENDROOT
BRANCH   1   2
ATOM      2  C   UNL     1      -3.347  -1.088  -1.670  1.00  0.00     0.000 C 
BRANCH   2   3
ATOM      3  C   UNL     1      -4.175  -2.079  -2.509  1.00  0.00     0.000 C 
BRANCH   3   4
ATOM      4  C   UNL     1      -3.951  -3.565  -2.176  1.00  0.00     0.006 C 
BRANCH   4   5
ATOM      5  C   UNL     1      -3.458  -3.790  -0.740  1.00  0.00     0.053 C 
BRANCH   5   6
ATOM      6  C   UNL     1      -4.537  -4.408   0.092  1.00  0.00     0.041 C 
ATOM      7  O   UNL     1      -4.937  -5.576  -0.155  1.00  0.00    -0.550 OA
ATOM      8  O   UNL     1      -5.067  -3.713   1.171  1.00  0.00    -0.550 OA
ENDBRANCH   5   6
ENDBRANCH   4   5
ENDBRANCH   3   4
ENDBRANCH   2   3
ENDBRANCH   1   2
BRANCH   1   9
ATOM      9  C   UNL     1      -3.473   1.046  -0.267  1.00  0.00     0.000 C 
BRANCH   9  10
ATOM     10  C   UNL     1      -4.190   1.745   0.903  1.00  0.00    -0.000 C 
BRANCH  10  11
ATOM     11  C   UNL     1      -4.065   3.276   0.842  1.00  0.00    -0.000 C 
BRANCH  11  12
ATOM     12  C   UNL     1      -2.927   3.738  -0.080  1.00  0.00    -0.000 C 
BRANCH  12  13
ATOM     13  C   UNL     1      -2.915   5.266  -0.212  1.00  0.00    -0.003 C 
ATOM     14  C   UNL     1      -2.194   5.917   0.963  1.00  0.00     0.004 C 
ENDBRANCH  12  13
ENDBRANCH  11  12
ENDBRANCH  10  11
ENDBRANCH   9  10
ENDBRANCH   1   9
TORSDOF 10
ENDMDL
MODEL 3
REMARK VINA RESULT:    -3.820      3.765      7.295
REMARK INTER + INTRA:          -6.408
REMARK INTER:                  -5.690
REMARK INTRA:                  -0.718
REMARK UNBOUND:                -0.354
REMARK SMILES CCCCCCCCCCCC(=O)[O-]
REMARK SMILES IDX 7 1 8 2 9 3 10 4 11 5 12 6 13 7 14 8 6 9 5 10 4 11 3 12 2 13
REMARK SMILES IDX 1 14
REMARK H PARENT
REMARK Flexibility Score: inf
ROOT
ATOM      1  C   UNL     1      -4.321   1.764   0.842  1.00  0.00     0.000 C 
ENDROOT
BRANCH   1   2
ATOM      2  C   UNL     1      -3.213   1.134  -0.020  1.00  0.00     0.000 C 
BRANCH   2   3
ATOM      3  C   UNL     1      -3.758   0.425  -1.273  1.00  0.00     0.000 C 
BRANCH   3   4
ATOM      4  C   UNL     1      -3.797  -1.112  -1.190  1.00  0.00     0.006 C 
BRANCH   4   5
ATOM      5  C   UNL     1      -3.621  -1.791  -2.555  1.00  0.00     0.053 C 
BRANCH   5   6
ATOM      6  C   UNL     1      -3.757  -3.275  -2.421  1.00  0.00     0.041 C 
ATOM      7  O   UNL     1      -3.843  -3.999  -3.447  1.00  0.00    -0.550 OA
ATOM      8  O   UNL     1      -3.739  -3.865  -1.163  1.00  0.00    -0.550 OA
ENDBRANCH   5   6
ENDBRANCH   4   5
ENDBRANCH   3   4
ENDBRANCH   2   3
ENDBRANCH   1   2
BRANCH   1   9
ATOM      9  C   UNL     1      -4.113   3.271   1.059  1.00  0.00     0.000 C 
BRANCH   9  10
ATOM     10  C   UNL     1      -2.861   3.808   0.340  1.00  0.00    -0.000 C 
BRANCH  10  11
ATOM     11  C   UNL     1      -3.036   5.255  -0.147  1.00  0.00    -0.000 C 
BRANCH  11  12
ATOM     12  C   UNL     1      -3.147   5.354  -1.676  1.00  0.00    -0.000 C 
BRANCH  12  13
ATOM     13  C   UNL     1      -2.870   3.997  -2.334  1.00  0.00    -0.003 C 
ATOM     14  C   UNL     1      -2.469   4.164  -3.796  1.00  0.00     0.004 C 
ENDBRANCH  12  13
ENDBRANCH  11  12
ENDBRANCH  10  11
ENDBRANCH   9  10
ENDBRANCH   1   9
TORSDOF 10
ENDMDL
MODEL 4
REMARK VINA RESULT:    -3.801      0.982      1.568
REMARK INTER + INTRA:          -6.377
REMARK INTER:                  -5.951
REMARK INTRA:                  -0.426
REMARK UNBOUND:                -0.354
REMARK SMILES CCCCCCCCCCCC(=O)[O-]
REMARK SMILES IDX 7 1 8 2 9 3 10 4 11 5 12 6 13 7 14 8 6 9 5 10 4 11 3 12 2 13
REMARK SMILES IDX 1 14
REMARK H PARENT
REMARK Flexibility Score: inf
ROOT
ATOM      1  C   UNL     1      -3.450   1.131  -0.387  1.00  0.00     0.000 C 
ENDROOT
BRANCH   1   2
ATOM      2  C   UNL     1      -4.162   1.914   0.729  1.00  0.00     0.000 C 
BRANCH   2   3
ATOM      3  C   UNL     1      -3.886   3.428   0.670  1.00  0.00     0.000 C 
BRANCH   3   4
ATOM      4  C   UNL     1      -2.759   3.849  -0.291  1.00  0.00     0.006 C 
BRANCH   4   5
ATOM      5  C   UNL     1      -3.078   5.139  -1.060  1.00  0.00     0.053 C 
BRANCH   5   6
ATOM      6  C   UNL     1      -3.221   4.854  -2.521  1.00  0.00     0.041 C 
ATOM      7  O   UNL     1      -4.159   5.375  -3.179  1.00  0.00    -0.550 OA
ATOM      8  O   UNL     1      -2.290   4.051  -3.168  1.00  0.00    -0.550 OA
ENDBRANCH   5   6
ENDBRANCH   4   5
ENDBRANCH   3   4
ENDBRANCH   2   3
ENDBRANCH   1   2
BRANCH   1   9
ATOM      9  C   UNL     1      -4.223  -0.129  -0.808  1.00  0.00     0.000 C 
BRANCH   9  10
ATOM     10  C   UNL     1      -3.403  -1.048  -1.732  1.00  0.00    -0.000 C 
BRANCH  10  11
ATOM     11  C   UNL     1      -4.260  -2.146  -2.383  1.00  0.00    -0.000 C 
BRANCH  11  12
ATOM     12  C   UNL     1      -3.820  -3.559  -1.973  1.00  0.00    -0.000 C 
BRANCH  12  13
ATOM     13  C   UNL     1      -3.669  -3.665  -0.451  1.00  0.00    -0.003 C 
ATOM     14  C   UNL     1      -4.505  -4.812   0.108  1.00  0.00     0.004 C 
ENDBRANCH  12  13
ENDBRANCH  11  12
ENDBRANCH  10  11
ENDBRANCH   9  10
ENDBRANCH   1   9
TORSDOF 10
ENDMDL
MODEL 5
REMARK VINA RESULT:    -3.656      1.360      1.915
REMARK INTER + INTRA:          -6.148
REMARK INTER:                  -5.859
REMARK INTRA:                  -0.289
REMARK UNBOUND:                -0.354
REMARK SMILES CCCCCCCCCCCC(=O)[O-]
REMARK SMILES IDX 7 1 8 2 9 3 10 4 11 5 12 6 13 7 14 8 6 9 5 10 4 11 3 12 2 13
REMARK SMILES IDX 1 14
REMARK H PARENT
REMARK Flexibility Score: inf
ROOT
ATOM      1  C   UNL     1      -3.400   1.054  -0.392  1.00  0.00     0.000 C 
ENDROOT
BRANCH   1   2
ATOM      2  C   UNL     1      -4.250   1.689   0.723  1.00  0.00     0.000 C 
BRANCH   2   3
ATOM      3  C   UNL     1      -3.961   3.190   0.916  1.00  0.00     0.000 C 
BRANCH   3   4
ATOM      4  C   UNL     1      -2.892   3.775  -0.025  1.00  0.00     0.006 C 
BRANCH   4   5
ATOM      5  C   UNL     1      -2.953   5.305  -0.123  1.00  0.00     0.053 C 
BRANCH   5   6
ATOM      6  C   UNL     1      -2.219   5.932   1.020  1.00  0.00     0.041 C 
ATOM      7  O   UNL     1      -1.248   6.702   0.804  1.00  0.00    -0.550 OA
ATOM      8  O   UNL     1      -2.639   5.704   2.324  1.00  0.00    -0.550 OA
ENDBRANCH   5   6
ENDBRANCH   4   5
ENDBRANCH   3   4
ENDBRANCH   2   3
ENDBRANCH   1   2
BRANCH   1   9
ATOM      9  C   UNL     1      -4.091  -0.156  -1.041  1.00  0.00     0.000 C 
BRANCH   9  10
ATOM     10  C   UNL     1      -3.092  -1.233  -1.502  1.00  0.00    -0.000 C 
BRANCH  10  11
ATOM     11  C   UNL     1      -3.683  -2.166  -2.571  1.00  0.00    -0.000 C 
BRANCH  11  12
ATOM     12  C   UNL     1      -4.092  -3.532  -2.001  1.00  0.00    -0.000 C 
BRANCH  12  13
ATOM     13  C   UNL     1      -3.499  -3.742  -0.602  1.00  0.00    -0.003 C 
ATOM     14  C   UNL     1      -4.505  -4.411   0.329  1.00  0.00     0.004 C 
ENDBRANCH  12  13
ENDBRANCH  11  12
ENDBRANCH  10  11
ENDBRANCH   9  10
ENDBRANCH   1   9
TORSDOF 10
ENDMDL
MODEL 6
REMARK VINA RESULT:    -3.464      3.879      7.500
REMARK INTER + INTRA:          -5.843
REMARK INTER:                  -5.354
REMARK INTRA:                  -0.490
REMARK UNBOUND:                -0.354
REMARK SMILES CCCCCCCCCCCC(=O)[O-]
REMARK SMILES IDX 7 1 8 2 9 3 10 4 11 5 12 6 13 7 14 8 6 9 5 10 4 11 3 12 2 13
REMARK SMILES IDX 1 14
REMARK H PARENT
REMARK Flexibility Score: inf
ROOT
ATOM      1  C   UNL     1      -3.679   2.093   0.670  1.00  0.00     0.000 C 
ENDROOT
BRANCH   1   2
ATOM      2  C   UNL     1      -4.416   0.848   0.146  1.00  0.00     0.000 C 
BRANCH   2   3
ATOM      3  C   UNL     1      -3.600   0.063  -0.897  1.00  0.00     0.000 C 
BRANCH   3   4
ATOM      4  C   UNL     1      -3.984  -1.421  -1.046  1.00  0.00     0.006 C 
BRANCH   4   5
ATOM      5  C   UNL     1      -4.040  -1.882  -2.509  1.00  0.00     0.053 C 
BRANCH   5   6
ATOM      6  C   UNL     1      -3.772  -3.350  -2.604  1.00  0.00     0.041 C 
ATOM      7  O   UNL     1      -3.443  -3.864  -3.705  1.00  0.00    -0.550 OA
ATOM      8  O   UNL     1      -3.837  -4.144  -1.466  1.00  0.00    -0.550 OA
ENDBRANCH   5   6
ENDBRANCH   4   5
ENDBRANCH   3   4
ENDBRANCH   2   3
ENDBRANCH   1   2
BRANCH   1   9
ATOM      9  C   UNL     1      -2.321   2.306  -0.019  1.00  0.00     0.000 C 
BRANCH   9  10
ATOM     10  C   UNL     1      -2.381   3.360  -1.139  1.00  0.00    -0.000 C 
BRANCH  10  11
ATOM     11  C   UNL     1      -3.497   4.394  -0.917  1.00  0.00    -0.000 C 
BRANCH  11  12
ATOM     12  C   UNL     1      -2.968   5.722  -0.355  1.00  0.00    -0.000 C 
BRANCH  12  13
ATOM     13  C   UNL     1      -2.525   5.561   1.105  1.00  0.00    -0.003 C 
ATOM     14  C   UNL     1      -1.544   6.658   1.508  1.00  0.00     0.004 C 
ENDBRANCH  12  13
ENDBRANCH  11  12
ENDBRANCH  10  11
ENDBRANCH   9  10
ENDBRANCH   1   9
TORSDOF 10
ENDMDL
MODEL 7
REMARK VINA RESULT:    -3.040      4.975      7.381
REMARK INTER + INTRA:          -5.172
REMARK INTER:                  -4.738
REMARK INTRA:                  -0.434
REMARK UNBOUND:                -0.354
REMARK SMILES CCCCCCCCCCCC(=O)[O-]
REMARK SMILES IDX 7 1 8 2 9 3 10 4 11 5 12 6 13 7 14 8 6 9 5 10 4 11 3 12 2 13
REMARK SMILES IDX 1 14
REMARK H PARENT
REMARK Flexibility Score: inf
ROOT
ATOM      1  C   UNL     1      -3.867   5.294  -3.739  1.00  0.00     0.000 C 
ENDROOT
BRANCH   1   2
ATOM      2  C   UNL     1      -5.366   5.620  -3.850  1.00  0.00     0.000 C 
BRANCH   2   3
ATOM      3  C   UNL     1      -5.730   6.329  -5.168  1.00  0.00     0.000 C 
BRANCH   3   4
ATOM      4  C   UNL     1      -7.112   5.972  -5.743  1.00  0.00     0.006 C 
BRANCH   4   5
ATOM      5  C   UNL     1      -7.134   5.938  -7.277  1.00  0.00     0.053 C 
BRANCH   5   6
ATOM      6  C   UNL     1      -7.109   7.327  -7.830  1.00  0.00     0.041 C 
ATOM      7  O   UNL     1      -6.415   7.593  -8.846  1.00  0.00    -0.550 OA
ATOM      8  O   UNL     1      -7.892   8.320  -7.254  1.00  0.00    -0.550 OA
ENDBRANCH   5   6
ENDBRANCH   4   5
ENDBRANCH   3   4
ENDBRANCH   2   3
ENDBRANCH   1   2
BRANCH   1   9
ATOM      9  C   UNL     1      -3.556   4.346  -2.570  1.00  0.00     0.000 C 
BRANCH   9  10
ATOM     10  C   UNL     1      -2.996   5.083  -1.340  1.00  0.00    -0.000 C 
BRANCH  10  11
ATOM     11  C   UNL     1      -3.027   4.219  -0.069  1.00  0.00    -0.000 C 
BRANCH  11  12
ATOM     12  C   UNL     1      -2.501   2.796  -0.310  1.00  0.00    -0.000 C 
BRANCH  12  13
ATOM     13  C   UNL     1      -3.580   1.753   0.006  1.00  0.00    -0.003 C 
ATOM     14  C   UNL     1      -4.511   2.239   1.112  1.00  0.00     0.004 C 
ENDBRANCH  12  13
ENDBRANCH  11  12
ENDBRANCH  10  11
ENDBRANCH   9  10
ENDBRANCH   1   9
TORSDOF 10
ENDMDL
MODEL 8
REMARK VINA RESULT:    -3.026      3.560      7.409
REMARK INTER + INTRA:          -5.149
REMARK INTER:                  -4.621
REMARK INTRA:                  -0.527
REMARK UNBOUND:                -0.354
REMARK SMILES CCCCCCCCCCCC(=O)[O-]
REMARK SMILES IDX 7 1 8 2 9 3 10 4 11 5 12 6 13 7 14 8 6 9 5 10 4 11 3 12 2 13
REMARK SMILES IDX 1 14
REMARK H PARENT
REMARK Flexibility Score: inf
ROOT
ATOM      1  C   UNL     1      -3.722   3.100   0.353  1.00  0.00     0.000 C 
ENDROOT
BRANCH   1   2
ATOM      2  C   UNL     1      -2.982   1.822  -0.080  1.00  0.00     0.000 C 
BRANCH   2   3
ATOM      3  C   UNL     1      -3.933   0.643  -0.355  1.00  0.00     0.000 C 
BRANCH   3   4
ATOM      4  C   UNL     1      -3.337  -0.492  -1.209  1.00  0.00     0.006 C 
BRANCH   4   5
ATOM      5  C   UNL     1      -4.237  -1.733  -1.270  1.00  0.00     0.053 C 
BRANCH   5   6
ATOM      6  C   UNL     1      -3.657  -2.754  -2.195  1.00  0.00     0.041 C 
ATOM      7  O   UNL     1      -2.967  -2.394  -3.185  1.00  0.00    -0.550 OA
ATOM      8  O   UNL     1      -3.836  -4.108  -1.939  1.00  0.00    -0.550 OA
ENDBRANCH   5   6
ENDBRANCH   4   5
ENDBRANCH   3   4
ENDBRANCH   2   3
ENDBRANCH   1   2
BRANCH   1   9
ATOM      9  C   UNL     1      -2.832   4.351   0.276  1.00  0.00     0.000 C 
BRANCH   9  10
ATOM     10  C   UNL     1      -3.221   5.285  -0.884  1.00  0.00    -0.000 C 
BRANCH  10  11
ATOM     11  C   UNL     1      -2.584   4.867  -2.219  1.00  0.00    -0.000 C 
BRANCH  11  12
ATOM     12  C   UNL     1      -3.621   4.689  -3.338  1.00  0.00    -0.000 C 
BRANCH  12  13
ATOM     13  C   UNL     1      -4.806   5.642  -3.143  1.00  0.00    -0.003 C 
ATOM     14  C   UNL     1      -5.465   5.984  -4.475  1.00  0.00     0.004 C 
ENDBRANCH  12  13
ENDBRANCH  11  12
ENDBRANCH  10  11
ENDBRANCH   9  10
ENDBRANCH   1   9
TORSDOF 10
ENDMDL
MODEL 9
REMARK VINA RESULT:    -2.321      3.502      7.454
REMARK INTER + INTRA:          -4.032
REMARK INTER:                  -3.665
REMARK INTRA:                  -0.367
REMARK UNBOUND:                -0.354
REMARK SMILES CCCCCCCCCCCC(=O)[O-]
REMARK SMILES IDX 7 1 8 2 9 3 10 4 11 5 12 6 13 7 14 8 6 9 5 10 4 11 3 12 2 13
REMARK SMILES IDX 1 14
REMARK H PARENT
REMARK Flexibility Score: inf
ROOT
ATOM      1  C   UNL     1      -3.192   0.059  -0.903  1.00  0.00     0.000 C 
ENDROOT
BRANCH   1   2
ATOM      2  C   UNL     1      -4.051  -1.120  -1.392  1.00  0.00     0.000 C 
BRANCH   2   3
ATOM      3  C   UNL     1      -3.885  -2.382  -0.527  1.00  0.00     0.000 C 
BRANCH   3   4
ATOM      4  C   UNL     1      -3.841  -3.709  -1.307  1.00  0.00     0.006 C 
BRANCH   4   5
ATOM      5  C   UNL     1      -4.357  -3.575  -2.746  1.00  0.00     0.053 C 
BRANCH   5   6
ATOM      6  C   UNL     1      -3.222  -3.656  -3.718  1.00  0.00     0.041 C 
ATOM      7  O   UNL     1      -2.367  -2.734  -3.771  1.00  0.00    -0.550 OA
ATOM      8  O   UNL     1      -3.082  -4.773  -4.532  1.00  0.00    -0.550 OA
ENDBRANCH   5   6
ENDBRANCH   4   5
ENDBRANCH   3   4
ENDBRANCH   2   3
ENDBRANCH   1   2
BRANCH   1   9
ATOM      9  C   UNL     1      -3.970   1.011   0.020  1.00  0.00     0.000 C 
BRANCH   9  10
ATOM     10  C   UNL     1      -3.104   2.173   0.541  1.00  0.00    -0.000 C 
BRANCH  10  11
ATOM     11  C   UNL     1      -3.753   3.546   0.303  1.00  0.00    -0.000 C 
BRANCH  11  12
ATOM     12  C   UNL     1      -2.722   4.682   0.238  1.00  0.00    -0.000 C 
BRANCH  12  13
ATOM     13  C   UNL     1      -2.898   5.509  -1.042  1.00  0.00    -0.003 C 
ATOM     14  C   UNL     1      -3.060   4.609  -2.263  1.00  0.00     0.004 C 
ENDBRANCH  12  13
ENDBRANCH  11  12
ENDBRANCH  10  11
ENDBRANCH   9  10
ENDBRANCH   1   9
TORSDOF 10
ENDMDL
