MODEL 1
REMARK VINA RESULT:    -1.529      0.000      0.000
REMARK INTER + INTRA:          -0.854
REMARK INTER:                  -1.663
REMARK INTRA:                   0.809
REMARK UNBOUND:                 0.809
REMARK SMILES Cc1ccc(C(C)C)c(O)c1
REMARK SMILES IDX 1 1 2 2 11 3 9 4 5 5 4 6 3 7 10 8 6 10 7 11 8 12
REMARK H PARENT 10 9
REMARK Flexibility Score: inf
ROOT
ATOM      1  C   UNL     1     -16.334   7.830  -3.274  1.00  0.00     0.044 C 
ATOM      2  C   UNL     1     -17.463   6.847  -3.188  1.00  0.00    -0.047 A 
ATOM      3  C   UNL     1     -18.787   7.298  -3.127  1.00  0.00     0.049 A 
ATOM      4  C   UNL     1     -19.849   6.394  -2.999  1.00  0.00     0.119 A 
ATOM      5  C   UNL     1     -19.592   4.996  -2.972  1.00  0.00    -0.004 A 
ATOM      6  C   UNL     1     -18.249   4.565  -2.966  1.00  0.00     0.008 A 
ATOM      7  C   UNL     1     -17.200   5.478  -3.076  1.00  0.00     0.004 A 
ENDROOT
BRANCH   4   8
ATOM      8  O   UNL     1     -21.134   6.930  -2.878  1.00  0.00    -0.508 OA
ATOM      9  H   UNL     1     -21.343   7.918  -2.904  1.00  0.00     0.293 HD
ENDBRANCH   4   8
BRANCH   5  10
ATOM     10  C   UNL     1     -20.726   3.979  -2.875  1.00  0.00     0.017 C 
ATOM     11  C   UNL     1     -20.540   2.879  -3.926  1.00  0.00     0.012 C 
ATOM     12  C   UNL     1     -22.123   4.612  -2.993  1.00  0.00     0.012 C 
ENDBRANCH   5  10
TORSDOF 2
ENDMDL
