MODEL 1
REMARK VINA RESULT:    39.411      0.000      0.000
REMARK INTER + INTRA:          47.141
REMARK INTER:                  47.475
REMARK INTRA:                  -0.334
REMARK UNBOUND:                -0.334
REMARK SMILES Oc1cc(O)c2cc(O)c(-c3ccc(O)c(O)c3)[o+]c2c1.[Cl-]
REMARK SMILES IDX 10 1 19 2 20 3 21 4 2 5 3 6 4 7 6 8 7 9 8 10 11 11 12 12
REMARK SMILES IDX 13 13 14 14 18 15 16 16 15 17 17 19 9 21 1 23 5 25
REMARK H PARENT 15 18 17 20 9 22 1 24 5 26
REMARK Flexibility Score: inf
ROOT
ATOM      1  C   UNL     1       9.790 -22.976 -22.337  1.00  0.00     0.402 A 
ATOM      2  O   UNL     1       9.194 -23.764 -23.227  1.00  0.00    -0.202 OA
ATOM      3  C   UNL     1       9.792 -24.808 -23.794  1.00  0.00     0.368 A 
ATOM      4  C   UNL     1       9.084 -25.576 -24.722  1.00  0.00     0.162 A 
ATOM      5  C   UNL     1       9.687 -26.674 -25.335  1.00  0.00     0.128 A 
ATOM      6  C   UNL     1      11.009 -27.009 -25.021  1.00  0.00     0.093 A 
ATOM      7  C   UNL     1      11.741 -26.254 -24.095  1.00  0.00     0.136 A 
ATOM      8  C   UNL     1      11.130 -25.137 -23.467  1.00  0.00     0.125 A 
ATOM      9  C   UNL     1      11.781 -24.333 -22.518  1.00  0.00     0.078 A 
ATOM     10  C   UNL     1      11.111 -23.251 -21.938  1.00  0.00     0.223 A 
ENDROOT
BRANCH   1  11
ATOM     11  C   UNL     1       9.020 -21.838 -21.783  1.00  0.00     0.087 A 
ATOM     12  C   UNL     1       9.217 -20.528 -22.247  1.00  0.00     0.022 A 
ATOM     13  C   UNL     1       8.462 -19.475 -21.725  1.00  0.00     0.051 A 
ATOM     14  C   UNL     1       7.492 -19.708 -20.746  1.00  0.00     0.157 A 
ATOM     15  C   UNL     1       8.033 -22.078 -20.816  1.00  0.00     0.068 A 
ATOM     16  C   UNL     1       7.270 -21.028 -20.286  1.00  0.00     0.158 A 
BRANCH  14  17
ATOM     17  O   UNL     1       6.775 -18.611 -20.263  1.00  0.00    -0.504 OA
ATOM     18  H   UNL     1       6.875 -18.238 -19.329  1.00  0.00     0.293 HD
ENDBRANCH  14  17
BRANCH  16  19
ATOM     19  O   UNL     1       6.315 -21.340 -19.318  1.00  0.00    -0.504 OA
ATOM     20  H   UNL     1       5.365 -21.610 -19.528  1.00  0.00     0.293 HD
ENDBRANCH  16  19
ENDBRANCH   1  11
BRANCH  10  21
ATOM     21  O   UNL     1      11.740 -22.483 -20.959  1.00  0.00    -0.500 OA
ATOM     22  H   UNL     1      11.561 -22.628 -19.972  1.00  0.00     0.294 HD
ENDBRANCH  10  21
BRANCH   5  23
ATOM     23  O   UNL     1       8.965 -27.429 -26.258  1.00  0.00    -0.507 OA
ATOM     24  H   UNL     1       8.896 -27.153 -27.230  1.00  0.00     0.293 HD
ENDBRANCH   5  23
BRANCH   7  25
ATOM     25  O   UNL     1      13.057 -26.650 -23.839  1.00  0.00    -0.507 OA
ATOM     26  H   UNL     1      13.696 -26.991 -24.542  1.00  0.00     0.293 HD
ENDBRANCH   7  25
TORSDOF 6
ENDMDL
MODEL 2
REMARK VINA RESULT:    40.782      0.808      1.447
REMARK INTER + INTRA:          48.792
REMARK INTER:                  48.618
REMARK INTRA:                   0.174
REMARK UNBOUND:                -0.334
REMARK SMILES Oc1cc(O)c2cc(O)c(-c3ccc(O)c(O)c3)[o+]c2c1.[Cl-]
REMARK SMILES IDX 10 1 19 2 20 3 21 4 2 5 3 6 4 7 6 8 7 9 8 10 11 11 12 12
REMARK SMILES IDX 13 13 14 14 18 15 16 16 15 17 17 19 9 21 1 23 5 25
REMARK H PARENT 15 18 17 20 9 22 1 24 5 26
REMARK Flexibility Score: inf
ROOT
ATOM      1  C   UNL     1       9.804 -22.915 -22.259  1.00  0.00     0.402 A 
ATOM      2  O   UNL     1       9.229 -23.669 -23.192  1.00  0.00    -0.202 OA
ATOM      3  C   UNL     1       9.811 -24.739 -23.726  1.00  0.00     0.368 A 
ATOM      4  C   UNL     1       9.127 -25.467 -24.704  1.00  0.00     0.162 A 
ATOM      5  C   UNL     1       9.714 -26.592 -25.284  1.00  0.00     0.128 A 
ATOM      6  C   UNL     1      10.995 -26.992 -24.888  1.00  0.00     0.093 A 
ATOM      7  C   UNL     1      11.701 -26.278 -23.910  1.00  0.00     0.136 A 
ATOM      8  C   UNL     1      11.106 -25.135 -23.316  1.00  0.00     0.125 A 
ATOM      9  C   UNL     1      11.733 -24.368 -22.321  1.00  0.00     0.078 A 
ATOM     10  C   UNL     1      11.081 -23.257 -21.778  1.00  0.00     0.223 A 
ENDROOT
BRANCH   1  11
ATOM     11  C   UNL     1       9.056 -21.742 -21.749  1.00  0.00     0.087 A 
ATOM     12  C   UNL     1       7.668 -21.794 -21.542  1.00  0.00     0.022 A 
ATOM     13  C   UNL     1       6.989 -20.683 -21.039  1.00  0.00     0.051 A 
ATOM     14  C   UNL     1       7.678 -19.509 -20.719  1.00  0.00     0.157 A 
ATOM     15  C   UNL     1       9.753 -20.573 -21.409  1.00  0.00     0.068 A 
ATOM     16  C   UNL     1       9.080 -19.453 -20.903  1.00  0.00     0.158 A 
BRANCH  14  17
ATOM     17  O   UNL     1       6.939 -18.432 -20.224  1.00  0.00    -0.504 OA
ATOM     18  H   UNL     1       6.015 -18.184 -20.549  1.00  0.00     0.293 HD
ENDBRANCH  14  17
BRANCH  16  19
ATOM     19  O   UNL     1       9.837 -18.320 -20.599  1.00  0.00    -0.504 OA
ATOM     20  H   UNL     1      10.834 -18.253 -20.738  1.00  0.00     0.293 HD
ENDBRANCH  16  19
ENDBRANCH   1  11
BRANCH  10  21
ATOM     21  O   UNL     1      11.682 -22.524 -20.754  1.00  0.00    -0.500 OA
ATOM     22  H   UNL     1      11.185 -22.294 -19.902  1.00  0.00     0.294 HD
ENDBRANCH  10  21
BRANCH   5  23
ATOM     23  O   UNL     1       9.017 -27.306 -26.257  1.00  0.00    -0.507 OA
ATOM     24  H   UNL     1       8.107 -27.005 -26.585  1.00  0.00     0.293 HD
ENDBRANCH   5  23
BRANCH   7  25
ATOM     25  O   UNL     1      12.977 -26.741 -23.572  1.00  0.00    -0.507 OA
ATOM     26  H   UNL     1      13.790 -26.150 -23.479  1.00  0.00     0.293 HD
ENDBRANCH   7  25
TORSDOF 6
ENDMDL
