MODEL 1
REMARK VINA RESULT:    -4.227      0.000      0.000
REMARK INTER + INTRA:          -4.474
REMARK INTER:                  -4.474
REMARK INTRA:                   0.000
REMARK UNBOUND:                 0.000
REMARK SMILES O=c1ccc2cc(O)c(O)cc2o1
REMARK SMILES IDX 4 1 3 2 2 3 1 4 13 5 12 6 11 7 9 8 7 9 6 10 5 11 8 12 10 14
REMARK H PARENT 8 13 10 15
REMARK Flexibility Score: inf
ROOT
ATOM      1  C   UNL     1      13.906  57.387  15.752  1.00  0.00     0.019 A 
ATOM      2  C   UNL     1      13.711  57.832  17.059  1.00  0.00     0.094 A 
ATOM      3  C   UNL     1      13.863  59.194  17.340  1.00  0.00     0.336 A 
ATOM      4  O   UNL     1      13.691  59.616  18.514  1.00  0.00    -0.246 OA
ATOM      5  O   UNL     1      14.189  60.049  16.375  1.00  0.00    -0.423 OA
ATOM      6  C   UNL     1      14.383  59.666  15.115  1.00  0.00     0.142 A 
ATOM      7  C   UNL     1      14.725  60.610  14.141  1.00  0.00     0.098 A 
ATOM      8  C   UNL     1      14.931  60.216  12.814  1.00  0.00     0.161 A 
ATOM      9  C   UNL     1      14.796  58.862  12.456  1.00  0.00     0.158 A 
ATOM     10  C   UNL     1      14.454  57.911  13.429  1.00  0.00     0.062 A 
ATOM     11  C   UNL     1      14.247  58.308  14.757  1.00  0.00     0.022 A 
ENDROOT
BRANCH   9  12
ATOM     12  O   UNL     1      15.002  58.467  11.135  1.00  0.00    -0.504 OA
ATOM     13  H   UNL     1      15.785  58.812  10.592  1.00  0.00     0.293 HD
ENDBRANCH   9  12
BRANCH   8  14
ATOM     14  O   UNL     1      15.270  61.181  11.867  1.00  0.00    -0.504 OA
ATOM     15  H   UNL     1      15.524  62.125  12.128  1.00  0.00     0.293 HD
ENDBRANCH   8  14
TORSDOF 2
ENDMDL
MODEL 2
REMARK VINA RESULT:    -4.184      1.152      2.267
REMARK INTER + INTRA:          -4.428
REMARK INTER:                  -4.428
REMARK INTRA:                   0.000
REMARK UNBOUND:                 0.000
REMARK SMILES O=c1ccc2cc(O)c(O)cc2o1
REMARK SMILES IDX 4 1 3 2 2 3 1 4 13 5 12 6 11 7 9 8 7 9 6 10 5 11 8 12 10 14
REMARK H PARENT 8 13 10 15
REMARK Flexibility Score: inf
ROOT
ATOM      1  C   UNL     1      14.208  60.040  16.536  1.00  0.00     0.019 A 
ATOM      2  C   UNL     1      13.860  59.077  17.482  1.00  0.00     0.094 A 
ATOM      3  C   UNL     1      13.709  57.748  17.073  1.00  0.00     0.336 A 
ATOM      4  O   UNL     1      13.396  56.863  17.911  1.00  0.00    -0.246 OA
ATOM      5  O   UNL     1      13.896  57.411  15.799  1.00  0.00    -0.423 OA
ATOM      6  C   UNL     1      14.229  58.298  14.865  1.00  0.00     0.142 A 
ATOM      7  C   UNL     1      14.412  57.886  13.541  1.00  0.00     0.098 A 
ATOM      8  C   UNL     1      14.762  58.813  12.553  1.00  0.00     0.161 A 
ATOM      9  C   UNL     1      14.930  60.168  12.890  1.00  0.00     0.158 A 
ATOM     10  C   UNL     1      14.749  60.587  14.217  1.00  0.00     0.062 A 
ATOM     11  C   UNL     1      14.398  59.658  15.206  1.00  0.00     0.022 A 
ENDROOT
BRANCH   9  12
ATOM     12  O   UNL     1      15.279  61.094  11.907  1.00  0.00    -0.504 OA
ATOM     13  H   UNL     1      15.728  61.971  12.139  1.00  0.00     0.293 HD
ENDBRANCH   9  12
BRANCH   8  14
ATOM     14  O   UNL     1      14.937  58.370  11.242  1.00  0.00    -0.504 OA
ATOM     15  H   UNL     1      14.708  57.427  10.958  1.00  0.00     0.293 HD
ENDBRANCH   8  14
TORSDOF 2
ENDMDL
MODEL 3
REMARK VINA RESULT:    -4.140      7.363      9.552
REMARK INTER + INTRA:          -4.382
REMARK INTER:                  -4.382
REMARK INTRA:                   0.000
REMARK UNBOUND:                 0.000
REMARK SMILES O=c1ccc2cc(O)c(O)cc2o1
REMARK SMILES IDX 4 1 3 2 2 3 1 4 13 5 12 6 11 7 9 8 7 9 6 10 5 11 8 12 10 14
REMARK H PARENT 8 13 10 15
REMARK Flexibility Score: inf
ROOT
ATOM      1  C   UNL     1      17.716  53.828  19.368  1.00  0.00     0.019 A 
ATOM      2  C   UNL     1      18.554  52.723  19.516  1.00  0.00     0.094 A 
ATOM      3  C   UNL     1      18.286  51.802  20.534  1.00  0.00     0.336 A 
ATOM      4  O   UNL     1      19.031  50.798  20.684  1.00  0.00    -0.246 OA
ATOM      5  O   UNL     1      17.249  51.979  21.347  1.00  0.00    -0.423 OA
ATOM      6  C   UNL     1      16.424  53.019  21.240  1.00  0.00     0.142 A 
ATOM      7  C   UNL     1      15.350  53.154  22.124  1.00  0.00     0.098 A 
ATOM      8  C   UNL     1      14.478  54.244  22.019  1.00  0.00     0.161 A 
ATOM      9  C   UNL     1      14.685  55.212  21.019  1.00  0.00     0.158 A 
ATOM     10  C   UNL     1      15.761  55.082  20.129  1.00  0.00     0.062 A 
ATOM     11  C   UNL     1      16.633  53.989  20.236  1.00  0.00     0.022 A 
ENDROOT
BRANCH   9  12
ATOM     12  O   UNL     1      13.818  56.300  20.912  1.00  0.00    -0.504 OA
ATOM     13  H   UNL     1      14.098  57.160  20.456  1.00  0.00     0.293 HD
ENDBRANCH   9  12
BRANCH   8  14
ATOM     14  O   UNL     1      13.416  54.350  22.915  1.00  0.00    -0.504 OA
ATOM     15  H   UNL     1      12.767  53.589  23.073  1.00  0.00     0.293 HD
ENDBRANCH   8  14
TORSDOF 2
ENDMDL
MODEL 4
REMARK VINA RESULT:    -3.957      7.007      9.444
REMARK INTER + INTRA:          -4.189
REMARK INTER:                  -4.189
REMARK INTRA:                   0.000
REMARK UNBOUND:                 0.000
REMARK SMILES O=c1ccc2cc(O)c(O)cc2o1
REMARK SMILES IDX 4 1 3 2 2 3 1 4 13 5 12 6 11 7 9 8 7 9 6 10 5 11 8 12 10 14
REMARK H PARENT 8 13 10 15
REMARK Flexibility Score: inf
ROOT
ATOM      1  C   UNL     1      12.949  56.045  22.562  1.00  0.00     0.019 A 
ATOM      2  C   UNL     1      12.186  56.443  21.465  1.00  0.00     0.094 A 
ATOM      3  C   UNL     1      12.422  55.843  20.223  1.00  0.00     0.336 A 
ATOM      4  O   UNL     1      11.744  56.189  19.220  1.00  0.00    -0.246 OA
ATOM      5  O   UNL     1      13.359  54.908  20.094  1.00  0.00    -0.423 OA
ATOM      6  C   UNL     1      14.108  54.498  21.115  1.00  0.00     0.142 A 
ATOM      7  C   UNL     1      15.079  53.512  20.919  1.00  0.00     0.098 A 
ATOM      8  C   UNL     1      15.871  53.076  21.988  1.00  0.00     0.161 A 
ATOM      9  C   UNL     1      15.691  53.634  23.267  1.00  0.00     0.158 A 
ATOM     10  C   UNL     1      14.719  54.624  23.469  1.00  0.00     0.062 A 
ATOM     11  C   UNL     1      13.926  55.059  22.397  1.00  0.00     0.022 A 
ENDROOT
BRANCH   9  12
ATOM     12  O   UNL     1      16.480  53.202  24.333  1.00  0.00    -0.504 OA
ATOM     13  H   UNL     1      16.091  52.662  25.097  1.00  0.00     0.293 HD
ENDBRANCH   9  12
BRANCH   8  14
ATOM     14  O   UNL     1      16.830  52.090  21.761  1.00  0.00    -0.504 OA
ATOM     15  H   UNL     1      16.611  51.225  21.283  1.00  0.00     0.293 HD
ENDBRANCH   8  14
TORSDOF 2
ENDMDL
MODEL 5
REMARK VINA RESULT:    -3.933      6.492      9.055
REMARK INTER + INTRA:          -4.163
REMARK INTER:                  -4.163
REMARK INTRA:                   0.000
REMARK UNBOUND:                 0.000
REMARK SMILES O=c1ccc2cc(O)c(O)cc2o1
REMARK SMILES IDX 4 1 3 2 2 3 1 4 13 5 12 6 11 7 9 8 7 9 6 10 5 11 8 12 10 14
REMARK H PARENT 8 13 10 15
REMARK Flexibility Score: inf
ROOT
ATOM      1  C   UNL     1      18.607  53.452  19.332  1.00  0.00     0.019 A 
ATOM      2  C   UNL     1      18.900  54.489  18.447  1.00  0.00     0.094 A 
ATOM      3  C   UNL     1      18.009  55.562  18.340  1.00  0.00     0.336 A 
ATOM      4  O   UNL     1      18.256  56.507  17.547  1.00  0.00    -0.246 OA
ATOM      5  O   UNL     1      16.899  55.590  19.072  1.00  0.00    -0.423 OA
ATOM      6  C   UNL     1      16.581  54.623  19.929  1.00  0.00     0.142 A 
ATOM      7  C   UNL     1      15.400  54.706  20.673  1.00  0.00     0.098 A 
ATOM      8  C   UNL     1      15.059  53.693  21.576  1.00  0.00     0.161 A 
ATOM      9  C   UNL     1      15.907  52.582  21.737  1.00  0.00     0.158 A 
ATOM     10  C   UNL     1      17.093  52.493  20.993  1.00  0.00     0.062 A 
ATOM     11  C   UNL     1      17.434  53.509  20.090  1.00  0.00     0.022 A 
ENDROOT
BRANCH   9  12
ATOM     12  O   UNL     1      15.569  51.571  22.636  1.00  0.00    -0.504 OA
ATOM     13  H   UNL     1      16.157  51.345  23.429  1.00  0.00     0.293 HD
ENDBRANCH   9  12
BRANCH   8  14
ATOM     14  O   UNL     1      13.874  53.805  22.303  1.00  0.00    -0.504 OA
ATOM     15  H   UNL     1      13.055  53.252  22.087  1.00  0.00     0.293 HD
ENDBRANCH   8  14
TORSDOF 2
ENDMDL
MODEL 6
REMARK VINA RESULT:    -3.885      5.927      8.582
REMARK INTER + INTRA:          -4.112
REMARK INTER:                  -4.112
REMARK INTRA:                   0.000
REMARK UNBOUND:                 0.000
REMARK SMILES O=c1ccc2cc(O)c(O)cc2o1
REMARK SMILES IDX 4 1 3 2 2 3 1 4 13 5 12 6 11 7 9 8 7 9 6 10 5 11 8 12 10 14
REMARK H PARENT 8 13 10 15
REMARK Flexibility Score: inf
ROOT
ATOM      1  C   UNL     1      13.802  55.452  20.322  1.00  0.00     0.019 A 
ATOM      2  C   UNL     1      13.994  56.527  19.456  1.00  0.00     0.094 A 
ATOM      3  C   UNL     1      15.251  56.705  18.865  1.00  0.00     0.336 A 
ATOM      4  O   UNL     1      15.445  57.670  18.081  1.00  0.00    -0.246 OA
ATOM      5  O   UNL     1      16.244  55.861  19.129  1.00  0.00    -0.423 OA
ATOM      6  C   UNL     1      16.102  54.822  19.949  1.00  0.00     0.142 A 
ATOM      7  C   UNL     1      17.182  53.967  20.189  1.00  0.00     0.098 A 
ATOM      8  C   UNL     1      17.042  52.873  21.050  1.00  0.00     0.161 A 
ATOM      9  C   UNL     1      15.808  52.630  21.680  1.00  0.00     0.158 A 
ATOM     10  C   UNL     1      14.720  53.484  21.443  1.00  0.00     0.062 A 
ATOM     11  C   UNL     1      14.863  54.580  20.580  1.00  0.00     0.022 A 
ENDROOT
BRANCH   9  12
ATOM     12  O   UNL     1      15.666  51.541  22.539  1.00  0.00    -0.504 OA
ATOM     13  H   UNL     1      15.363  50.634  22.202  1.00  0.00     0.293 HD
ENDBRANCH   9  12
BRANCH   8  14
ATOM     14  O   UNL     1      18.138  52.039  21.268  1.00  0.00    -0.504 OA
ATOM     15  H   UNL     1      18.882  51.939  20.590  1.00  0.00     0.293 HD
ENDBRANCH   8  14
TORSDOF 2
ENDMDL
MODEL 7
REMARK VINA RESULT:    -3.767      5.827      8.553
REMARK INTER + INTRA:          -3.987
REMARK INTER:                  -3.987
REMARK INTRA:                   0.000
REMARK UNBOUND:                 0.000
REMARK SMILES O=c1ccc2cc(O)c(O)cc2o1
REMARK SMILES IDX 4 1 3 2 2 3 1 4 13 5 12 6 11 7 9 8 7 9 6 10 5 11 8 12 10 14
REMARK H PARENT 8 13 10 15
REMARK Flexibility Score: inf
ROOT
ATOM      1  C   UNL     1      15.816  56.116  19.187  1.00  0.00     0.019 A 
ATOM      2  C   UNL     1      14.637  56.848  19.053  1.00  0.00     0.094 A 
ATOM      3  C   UNL     1      13.491  56.415  19.729  1.00  0.00     0.336 A 
ATOM      4  O   UNL     1      12.416  57.062  19.621  1.00  0.00    -0.246 OA
ATOM      5  O   UNL     1      13.528  55.322  20.487  1.00  0.00    -0.423 OA
ATOM      6  C   UNL     1      14.633  54.596  20.642  1.00  0.00     0.142 A 
ATOM      7  C   UNL     1      14.613  53.456  21.451  1.00  0.00     0.098 A 
ATOM      8  C   UNL     1      15.770  52.687  21.620  1.00  0.00     0.161 A 
ATOM      9  C   UNL     1      16.961  53.060  20.971  1.00  0.00     0.158 A 
ATOM     10  C   UNL     1      16.987  54.204  20.158  1.00  0.00     0.062 A 
ATOM     11  C   UNL     1      15.827  54.973  19.991  1.00  0.00     0.022 A 
ENDROOT
BRANCH   9  12
ATOM     12  O   UNL     1      18.115  52.295  21.136  1.00  0.00    -0.504 OA
ATOM     13  H   UNL     1      18.695  52.379  21.963  1.00  0.00     0.293 HD
ENDBRANCH   9  12
BRANCH   8  14
ATOM     14  O   UNL     1      15.718  51.556  22.433  1.00  0.00    -0.504 OA
ATOM     15  H   UNL     1      15.128  50.763  22.216  1.00  0.00     0.293 HD
ENDBRANCH   8  14
TORSDOF 2
ENDMDL
MODEL 8
REMARK VINA RESULT:    -3.750      7.761      8.977
REMARK INTER + INTRA:          -3.969
REMARK INTER:                  -3.969
REMARK INTRA:                   0.000
REMARK UNBOUND:                 0.000
REMARK SMILES O=c1ccc2cc(O)c(O)cc2o1
REMARK SMILES IDX 4 1 3 2 2 3 1 4 13 5 12 6 11 7 9 8 7 9 6 10 5 11 8 12 10 14
REMARK H PARENT 8 13 10 15
REMARK Flexibility Score: inf
ROOT
ATOM      1  C   UNL     1      15.366  55.579  20.786  1.00  0.00     0.019 A 
ATOM      2  C   UNL     1      14.526  55.546  21.899  1.00  0.00     0.094 A 
ATOM      3  C   UNL     1      14.619  54.469  22.787  1.00  0.00     0.336 A 
ATOM      4  O   UNL     1      13.870  54.421  23.797  1.00  0.00    -0.246 OA
ATOM      5  O   UNL     1      15.496  53.493  22.571  1.00  0.00    -0.423 OA
ATOM      6  C   UNL     1      16.317  53.486  21.523  1.00  0.00     0.142 A 
ATOM      7  C   UNL     1      17.218  52.432  21.346  1.00  0.00     0.098 A 
ATOM      8  C   UNL     1      18.084  52.416  20.247  1.00  0.00     0.161 A 
ATOM      9  C   UNL     1      18.047  53.466  19.311  1.00  0.00     0.158 A 
ATOM     10  C   UNL     1      17.144  54.526  19.483  1.00  0.00     0.062 A 
ATOM     11  C   UNL     1      16.278  54.540  20.585  1.00  0.00     0.022 A 
ENDROOT
BRANCH   9  12
ATOM     12  O   UNL     1      18.908  53.453  18.214  1.00  0.00    -0.504 OA
ATOM     13  H   UNL     1      19.796  52.967  18.241  1.00  0.00     0.293 HD
ENDBRANCH   9  12
BRANCH   8  14
ATOM     14  O   UNL     1      18.972  51.352  20.099  1.00  0.00    -0.504 OA
ATOM     15  H   UNL     1      19.489  51.197  19.243  1.00  0.00     0.293 HD
ENDBRANCH   8  14
TORSDOF 2
ENDMDL
MODEL 9
REMARK VINA RESULT:    -3.726      5.727      7.978
REMARK INTER + INTRA:          -3.944
REMARK INTER:                  -3.944
REMARK INTRA:                   0.000
REMARK UNBOUND:                 0.000
REMARK SMILES O=c1ccc2cc(O)c(O)cc2o1
REMARK SMILES IDX 4 1 3 2 2 3 1 4 13 5 12 6 11 7 9 8 7 9 6 10 5 11 8 12 10 14
REMARK H PARENT 8 13 10 15
REMARK Flexibility Score: inf
ROOT
ATOM      1  C   UNL     1      14.727  53.054  21.753  1.00  0.00     0.019 A 
ATOM      2  C   UNL     1      15.836  52.211  21.826  1.00  0.00     0.094 A 
ATOM      3  C   UNL     1      16.983  52.535  21.093  1.00  0.00     0.336 A 
ATOM      4  O   UNL     1      17.994  51.787  21.146  1.00  0.00    -0.246 OA
ATOM      5  O   UNL     1      17.013  53.631  20.340  1.00  0.00    -0.423 OA
ATOM      6  C   UNL     1      15.978  54.462  20.243  1.00  0.00     0.142 A 
ATOM      7  C   UNL     1      16.067  55.599  19.434  1.00  0.00     0.098 A 
ATOM      8  C   UNL     1      14.983  56.478  19.326  1.00  0.00     0.161 A 
ATOM      9  C   UNL     1      13.796  56.217  20.034  1.00  0.00     0.158 A 
ATOM     10  C   UNL     1      13.701  55.078  20.847  1.00  0.00     0.062 A 
ATOM     11  C   UNL     1      14.788  54.199  20.953  1.00  0.00     0.022 A 
ENDROOT
BRANCH   9  12
ATOM     12  O   UNL     1      12.714  57.091  19.928  1.00  0.00    -0.504 OA
ATOM     13  H   UNL     1      11.913  56.877  19.346  1.00  0.00     0.293 HD
ENDBRANCH   9  12
BRANCH   8  14
ATOM     14  O   UNL     1      15.104  57.604  18.512  1.00  0.00    -0.504 OA
ATOM     15  H   UNL     1      14.587  58.455  18.691  1.00  0.00     0.293 HD
ENDBRANCH   8  14
TORSDOF 2
ENDMDL
