MODEL 1
REMARK VINA RESULT:    -4.063      0.000      0.000
REMARK INTER + INTRA:         -12.775
REMARK INTER:                  -8.813
REMARK INTRA:                  -3.962
REMARK UNBOUND:                -3.962
REMARK SMILES CCCCCCCCCCCCCCCCCCCCCC(=O)[O-]
REMARK SMILES IDX 12 1 11 2 10 3 9 4 8 5 7 6 6 7 5 8 4 9 3 10 2 11 1 12 13 13
REMARK SMILES IDX 14 14 15 15 16 16 17 17 18 18 19 19 20 20 21 21 22 22 23 23
REMARK SMILES IDX 24 24
REMARK H PARENT
REMARK Flexibility Score: inf
ROOT
ATOM      1  C   UNL     1      54.652  26.059  37.004  1.00  0.00     0.000 C 
ENDROOT
BRANCH   1   2
ATOM      2  C   UNL     1      55.497  27.028  37.857  1.00  0.00     0.000 C 
BRANCH   2   3
ATOM      3  C   UNL     1      54.937  28.461  37.967  1.00  0.00     0.000 C 
BRANCH   3   4
ATOM      4  C   UNL     1      55.860  29.564  37.414  1.00  0.00    -0.000 C 
BRANCH   4   5
ATOM      5  C   UNL     1      57.222  29.072  36.887  1.00  0.00    -0.000 C 
BRANCH   5   6
ATOM      6  C   UNL     1      58.414  29.992  37.207  1.00  0.00    -0.000 C 
BRANCH   6   7
ATOM      7  C   UNL     1      58.303  30.652  38.590  1.00  0.00    -0.000 C 
BRANCH   7   8
ATOM      8  C   UNL     1      58.725  29.675  39.699  1.00  0.00    -0.000 C 
BRANCH   8   9
ATOM      9  C   UNL     1      57.608  29.423  40.727  1.00  0.00    -0.000 C 
BRANCH   9  10
ATOM     10  C   UNL     1      56.794  30.672  41.117  1.00  0.00    -0.000 C 
BRANCH  10  11
ATOM     11  C   UNL     1      55.266  30.438  41.133  1.00  0.00    -0.003 C 
ATOM     12  C   UNL     1      54.894  29.034  41.609  1.00  0.00     0.004 C 
ENDBRANCH  10  11
ENDBRANCH   9  10
ENDBRANCH   8   9
ENDBRANCH   7   8
ENDBRANCH   6   7
ENDBRANCH   5   6
ENDBRANCH   4   5
ENDBRANCH   3   4
ENDBRANCH   2   3
ENDBRANCH   1   2
BRANCH   1  13
ATOM     13  C   UNL     1      55.433  25.294  35.920  1.00  0.00     0.000 C 
BRANCH  13  14
ATOM     14  C   UNL     1      55.056  25.723  34.495  1.00  0.00     0.000 C 
BRANCH  14  15
ATOM     15  C   UNL     1      56.071  26.729  33.941  1.00  0.00     0.000 C 
BRANCH  15  16
ATOM     16  C   UNL     1      55.497  28.154  33.945  1.00  0.00     0.000 C 
BRANCH  16  17
ATOM     17  C   UNL     1      53.961  28.163  33.782  1.00  0.00     0.000 C 
BRANCH  17  18
ATOM     18  C   UNL     1      53.232  29.020  34.832  1.00  0.00     0.000 C 
BRANCH  18  19
ATOM     19  C   UNL     1      52.061  28.281  35.503  1.00  0.00     0.000 C 
BRANCH  19  20
ATOM     20  C   UNL     1      51.563  27.086  34.673  1.00  0.00     0.006 C 
BRANCH  20  21
ATOM     21  C   UNL     1      51.364  25.820  35.518  1.00  0.00     0.053 C 
BRANCH  21  22
ATOM     22  C   UNL     1      49.916  25.444  35.565  1.00  0.00     0.041 C 
ATOM     23  O   UNL     1      49.027  26.317  35.378  1.00  0.00    -0.550 OA
ATOM     24  O   UNL     1      49.547  24.137  35.858  1.00  0.00    -0.550 OA
ENDBRANCH  21  22
ENDBRANCH  20  21
ENDBRANCH  19  20
ENDBRANCH  18  19
ENDBRANCH  17  18
ENDBRANCH  16  17
ENDBRANCH  15  16
ENDBRANCH  14  15
ENDBRANCH  13  14
ENDBRANCH   1  13
TORSDOF 20
ENDMDL
MODEL 2
REMARK VINA RESULT:    -3.995      3.708      8.009
REMARK INTER + INTRA:         -12.629
REMARK INTER:                  -8.939
REMARK INTRA:                  -3.690
REMARK UNBOUND:                -3.962
REMARK SMILES CCCCCCCCCCCCCCCCCCCCCC(=O)[O-]
REMARK SMILES IDX 12 1 11 2 10 3 9 4 8 5 7 6 6 7 5 8 4 9 3 10 2 11 1 12 13 13
REMARK SMILES IDX 14 14 15 15 16 16 17 17 18 18 19 19 20 20 21 21 22 22 23 23
REMARK SMILES IDX 24 24
REMARK H PARENT
REMARK Flexibility Score: inf
ROOT
ATOM      1  C   UNL     1      54.455  25.961  34.796  1.00  0.00     0.000 C 
ENDROOT
BRANCH   1   2
ATOM      2  C   UNL     1      53.782  24.676  35.321  1.00  0.00     0.000 C 
BRANCH   2   3
ATOM      3  C   UNL     1      52.924  24.858  36.589  1.00  0.00     0.000 C 
BRANCH   3   4
ATOM      4  C   UNL     1      51.585  24.094  36.584  1.00  0.00    -0.000 C 
BRANCH   4   5
ATOM      5  C   UNL     1      51.557  22.832  35.699  1.00  0.00    -0.000 C 
BRANCH   5   6
ATOM      6  C   UNL     1      50.289  22.665  34.843  1.00  0.00    -0.000 C 
BRANCH   6   7
ATOM      7  C   UNL     1      50.597  22.484  33.349  1.00  0.00    -0.000 C 
BRANCH   7   8
ATOM      8  C   UNL     1      51.264  23.741  32.770  1.00  0.00    -0.000 C 
BRANCH   8   9
ATOM      9  C   UNL     1      50.345  24.974  32.807  1.00  0.00    -0.000 C 
BRANCH   9  10
ATOM     10  C   UNL     1      51.004  26.256  33.353  1.00  0.00    -0.000 C 
BRANCH  10  11
ATOM     11  C   UNL     1      50.272  26.861  34.572  1.00  0.00    -0.003 C 
ATOM     12  C   UNL     1      48.943  26.163  34.862  1.00  0.00     0.004 C 
ENDBRANCH  10  11
ENDBRANCH   9  10
ENDBRANCH   8   9
ENDBRANCH   7   8
ENDBRANCH   6   7
ENDBRANCH   5   6
ENDBRANCH   4   5
ENDBRANCH   3   4
ENDBRANCH   2   3
ENDBRANCH   1   2
BRANCH   1  13
ATOM     13  C   UNL     1      53.930  27.270  35.413  1.00  0.00     0.000 C 
BRANCH  13  14
ATOM     14  C   UNL     1      53.963  28.451  34.433  1.00  0.00     0.000 C 
BRANCH  14  15
ATOM     15  C   UNL     1      52.866  29.468  34.766  1.00  0.00     0.000 C 
BRANCH  15  16
ATOM     16  C   UNL     1      52.657  29.580  36.284  1.00  0.00     0.000 C 
BRANCH  16  17
ATOM     17  C   UNL     1      53.547  30.673  36.916  1.00  0.00     0.000 C 
BRANCH  17  18
ATOM     18  C   UNL     1      54.106  30.293  38.298  1.00  0.00     0.000 C 
BRANCH  18  19
ATOM     19  C   UNL     1      55.318  29.350  38.218  1.00  0.00     0.000 C 
BRANCH  19  20
ATOM     20  C   UNL     1      56.303  29.747  37.106  1.00  0.00     0.006 C 
BRANCH  20  21
ATOM     21  C   UNL     1      57.209  30.920  37.507  1.00  0.00     0.053 C 
BRANCH  21  22
ATOM     22  C   UNL     1      57.858  30.652  38.828  1.00  0.00     0.041 C 
ATOM     23  O   UNL     1      57.617  31.395  39.817  1.00  0.00    -0.550 OA
ATOM     24  O   UNL     1      58.763  29.606  38.958  1.00  0.00    -0.550 OA
ENDBRANCH  21  22
ENDBRANCH  20  21
ENDBRANCH  19  20
ENDBRANCH  18  19
ENDBRANCH  17  18
ENDBRANCH  16  17
ENDBRANCH  15  16
ENDBRANCH  14  15
ENDBRANCH  13  14
ENDBRANCH   1  13
TORSDOF 20
ENDMDL
MODEL 3
REMARK VINA RESULT:    -3.974      1.821      3.052
REMARK INTER + INTRA:         -12.584
REMARK INTER:                  -9.197
REMARK INTRA:                  -3.386
REMARK UNBOUND:                -3.962
REMARK SMILES CCCCCCCCCCCCCCCCCCCCCC(=O)[O-]
REMARK SMILES IDX 12 1 11 2 10 3 9 4 8 5 7 6 6 7 5 8 4 9 3 10 2 11 1 12 13 13
REMARK SMILES IDX 14 14 15 15 16 16 17 17 18 18 19 19 20 20 21 21 22 22 23 23
REMARK SMILES IDX 24 24
REMARK H PARENT
REMARK Flexibility Score: inf
ROOT
ATOM      1  C   UNL     1      52.865  29.415  36.162  1.00  0.00     0.000 C 
ENDROOT
BRANCH   1   2
ATOM      2  C   UNL     1      54.325  29.522  36.647  1.00  0.00     0.000 C 
BRANCH   2   3
ATOM      3  C   UNL     1      54.669  28.664  37.882  1.00  0.00     0.000 C 
BRANCH   3   4
ATOM      4  C   UNL     1      56.025  27.935  37.811  1.00  0.00    -0.000 C 
BRANCH   4   5
ATOM      5  C   UNL     1      56.777  28.084  36.473  1.00  0.00    -0.000 C 
BRANCH   5   6
ATOM      6  C   UNL     1      58.281  28.388  36.603  1.00  0.00    -0.000 C 
BRANCH   6   7
ATOM      7  C   UNL     1      58.561  29.724  37.309  1.00  0.00    -0.000 C 
BRANCH   7   8
ATOM      8  C   UNL     1      57.905  30.891  36.554  1.00  0.00    -0.000 C 
BRANCH   8   9
ATOM      9  C   UNL     1      57.603  32.094  37.464  1.00  0.00    -0.000 C 
BRANCH   9  10
ATOM     10  C   UNL     1      56.279  31.998  38.246  1.00  0.00    -0.000 C 
BRANCH  10  11
ATOM     11  C   UNL     1      56.458  31.585  39.724  1.00  0.00    -0.003 C 
ATOM     12  C   UNL     1      56.860  32.760  40.616  1.00  0.00     0.004 C 
ENDBRANCH  10  11
ENDBRANCH   9  10
ENDBRANCH   8   9
ENDBRANCH   7   8
ENDBRANCH   6   7
ENDBRANCH   5   6
ENDBRANCH   4   5
ENDBRANCH   3   4
ENDBRANCH   2   3
ENDBRANCH   1   2
BRANCH   1  13
ATOM     13  C   UNL     1      52.697  29.011  34.686  1.00  0.00     0.000 C 
BRANCH  13  14
ATOM     14  C   UNL     1      53.885  28.203  34.146  1.00  0.00     0.000 C 
BRANCH  14  15
ATOM     15  C   UNL     1      53.484  26.745  33.893  1.00  0.00     0.000 C 
BRANCH  15  16
ATOM     16  C   UNL     1      54.038  25.821  34.989  1.00  0.00     0.000 C 
BRANCH  16  17
ATOM     17  C   UNL     1      53.077  25.705  36.193  1.00  0.00     0.000 C 
BRANCH  17  18
ATOM     18  C   UNL     1      52.213  24.432  36.175  1.00  0.00     0.000 C 
BRANCH  18  19
ATOM     19  C   UNL     1      50.704  24.730  36.127  1.00  0.00     0.000 C 
BRANCH  19  20
ATOM     20  C   UNL     1      50.402  26.206  35.818  1.00  0.00     0.006 C 
BRANCH  20  21
ATOM     21  C   UNL     1      49.166  26.383  34.925  1.00  0.00     0.053 C 
BRANCH  21  22
ATOM     22  C   UNL     1      49.338  25.635  33.640  1.00  0.00     0.041 C 
ATOM     23  O   UNL     1      50.224  25.984  32.815  1.00  0.00    -0.550 OA
ATOM     24  O   UNL     1      48.490  24.577  33.334  1.00  0.00    -0.550 OA
ENDBRANCH  21  22
ENDBRANCH  20  21
ENDBRANCH  19  20
ENDBRANCH  18  19
ENDBRANCH  17  18
ENDBRANCH  16  17
ENDBRANCH  15  16
ENDBRANCH  14  15
ENDBRANCH  13  14
ENDBRANCH   1  13
TORSDOF 20
ENDMDL
MODEL 4
REMARK VINA RESULT:    -3.970      1.439      2.982
REMARK INTER + INTRA:         -12.574
REMARK INTER:                  -8.826
REMARK INTRA:                  -3.748
REMARK UNBOUND:                -3.962
REMARK SMILES CCCCCCCCCCCCCCCCCCCCCC(=O)[O-]
REMARK SMILES IDX 12 1 11 2 10 3 9 4 8 5 7 6 6 7 5 8 4 9 3 10 2 11 1 12 13 13
REMARK SMILES IDX 14 14 15 15 16 16 17 17 18 18 19 19 20 20 21 21 22 22 23 23
REMARK SMILES IDX 24 24
REMARK H PARENT
REMARK Flexibility Score: inf
ROOT
ATOM      1  C   UNL     1      58.683  29.549  37.307  1.00  0.00     0.000 C 
ENDROOT
BRANCH   1   2
ATOM      2  C   UNL     1      57.750  30.584  36.645  1.00  0.00     0.000 C 
BRANCH   2   3
ATOM      3  C   UNL     1      57.430  31.822  37.506  1.00  0.00     0.000 C 
BRANCH   3   4
ATOM      4  C   UNL     1      55.946  31.981  37.891  1.00  0.00    -0.000 C 
BRANCH   4   5
ATOM      5  C   UNL     1      55.026  30.832  37.432  1.00  0.00    -0.000 C 
BRANCH   5   6
ATOM      6  C   UNL     1      54.220  30.157  38.556  1.00  0.00    -0.000 C 
BRANCH   6   7
ATOM      7  C   UNL     1      55.045  29.938  39.833  1.00  0.00    -0.000 C 
BRANCH   7   8
ATOM      8  C   UNL     1      55.931  28.689  39.707  1.00  0.00    -0.000 C 
BRANCH   8   9
ATOM      9  C   UNL     1      57.144  28.720  40.652  1.00  0.00    -0.000 C 
BRANCH   9  10
ATOM     10  C   UNL     1      57.366  30.063  41.374  1.00  0.00    -0.000 C 
BRANCH  10  11
ATOM     11  C   UNL     1      58.519  30.904  40.781  1.00  0.00    -0.003 C 
ATOM     12  C   UNL     1      59.854  30.159  40.793  1.00  0.00     0.004 C 
ENDBRANCH  10  11
ENDBRANCH   9  10
ENDBRANCH   8   9
ENDBRANCH   7   8
ENDBRANCH   6   7
ENDBRANCH   5   6
ENDBRANCH   4   5
ENDBRANCH   3   4
ENDBRANCH   2   3
ENDBRANCH   1   2
BRANCH   1  13
ATOM     13  C   UNL     1      58.373  28.081  36.967  1.00  0.00     0.000 C 
BRANCH  13  14
ATOM     14  C   UNL     1      57.155  27.923  36.046  1.00  0.00     0.000 C 
BRANCH  14  15
ATOM     15  C   UNL     1      56.179  26.881  36.606  1.00  0.00     0.000 C 
BRANCH  15  16
ATOM     16  C   UNL     1      54.722  27.279  36.322  1.00  0.00     0.000 C 
BRANCH  16  17
ATOM     17  C   UNL     1      54.553  27.911  34.923  1.00  0.00     0.000 C 
BRANCH  17  18
ATOM     18  C   UNL     1      53.329  28.837  34.806  1.00  0.00     0.000 C 
BRANCH  18  19
ATOM     19  C   UNL     1      52.042  28.206  35.366  1.00  0.00     0.000 C 
BRANCH  19  20
ATOM     20  C   UNL     1      51.561  27.007  34.532  1.00  0.00     0.006 C 
BRANCH  20  21
ATOM     21  C   UNL     1      50.083  26.670  34.777  1.00  0.00     0.053 C 
BRANCH  21  22
ATOM     22  C   UNL     1      49.948  25.294  35.349  1.00  0.00     0.041 C 
ATOM     23  O   UNL     1      49.029  24.528  34.953  1.00  0.00    -0.550 OA
ATOM     24  O   UNL     1      50.813  24.870  36.351  1.00  0.00    -0.550 OA
ENDBRANCH  21  22
ENDBRANCH  20  21
ENDBRANCH  19  20
ENDBRANCH  18  19
ENDBRANCH  17  18
ENDBRANCH  16  17
ENDBRANCH  15  16
ENDBRANCH  14  15
ENDBRANCH  13  14
ENDBRANCH   1  13
TORSDOF 20
ENDMDL
MODEL 5
REMARK VINA RESULT:    -3.958      3.724      7.218
REMARK INTER + INTRA:         -12.548
REMARK INTER:                  -9.156
REMARK INTRA:                  -3.393
REMARK UNBOUND:                -3.962
REMARK SMILES CCCCCCCCCCCCCCCCCCCCCC(=O)[O-]
REMARK SMILES IDX 12 1 11 2 10 3 9 4 8 5 7 6 6 7 5 8 4 9 3 10 2 11 1 12 13 13
REMARK SMILES IDX 14 14 15 15 16 16 17 17 18 18 19 19 20 20 21 21 22 22 23 23
REMARK SMILES IDX 24 24
REMARK H PARENT
REMARK Flexibility Score: inf
ROOT
ATOM      1  C   UNL     1      56.142  26.372  33.753  1.00  0.00     0.000 C 
ENDROOT
BRANCH   1   2
ATOM      2  C   UNL     1      57.160  26.211  34.901  1.00  0.00     0.000 C 
BRANCH   2   3
ATOM      3  C   UNL     1      56.550  26.168  36.316  1.00  0.00     0.000 C 
BRANCH   3   4
ATOM      4  C   UNL     1      55.450  25.108  36.519  1.00  0.00    -0.000 C 
BRANCH   4   5
ATOM      5  C   UNL     1      54.069  25.668  36.916  1.00  0.00    -0.000 C 
BRANCH   5   6
ATOM      6  C   UNL     1      52.871  25.005  36.213  1.00  0.00    -0.000 C 
BRANCH   6   7
ATOM      7  C   UNL     1      53.231  24.433  34.833  1.00  0.00    -0.000 C 
BRANCH   7   8
ATOM      8  C   UNL     1      51.966  24.181  33.998  1.00  0.00    -0.000 C 
BRANCH   8   9
ATOM      9  C   UNL     1      51.495  25.433  33.238  1.00  0.00    -0.000 C 
BRANCH   9  10
ATOM     10  C   UNL     1      49.966  25.603  33.155  1.00  0.00    -0.000 C 
BRANCH  10  11
ATOM     11  C   UNL     1      49.412  26.707  34.084  1.00  0.00    -0.003 C 
ATOM     12  C   UNL     1      49.516  26.335  35.563  1.00  0.00     0.004 C 
ENDBRANCH  10  11
ENDBRANCH   9  10
ENDBRANCH   8   9
ENDBRANCH   7   8
ENDBRANCH   6   7
ENDBRANCH   5   6
ENDBRANCH   4   5
ENDBRANCH   3   4
ENDBRANCH   2   3
ENDBRANCH   1   2
BRANCH   1  13
ATOM     13  C   UNL     1      55.778  27.826  33.404  1.00  0.00     0.000 C 
BRANCH  13  14
ATOM     14  C   UNL     1      54.848  28.476  34.438  1.00  0.00     0.000 C 
BRANCH  14  15
ATOM     15  C   UNL     1      53.391  28.065  34.197  1.00  0.00     0.000 C 
BRANCH  15  16
ATOM     16  C   UNL     1      52.471  28.610  35.300  1.00  0.00     0.000 C 
BRANCH  16  17
ATOM     17  C   UNL     1      52.856  30.046  35.723  1.00  0.00     0.000 C 
BRANCH  17  18
ATOM     18  C   UNL     1      53.259  30.168  37.203  1.00  0.00     0.000 C 
BRANCH  18  19
ATOM     19  C   UNL     1      54.614  30.870  37.401  1.00  0.00     0.000 C 
BRANCH  19  20
ATOM     20  C   UNL     1      55.721  29.902  37.850  1.00  0.00     0.006 C 
BRANCH  20  21
ATOM     21  C   UNL     1      56.931  29.906  36.906  1.00  0.00     0.053 C 
BRANCH  21  22
ATOM     22  C   UNL     1      57.963  30.880  37.382  1.00  0.00     0.041 C 
ATOM     23  O   UNL     1      58.529  30.713  38.495  1.00  0.00    -0.550 OA
ATOM     24  O   UNL     1      58.268  31.998  36.615  1.00  0.00    -0.550 OA
ENDBRANCH  21  22
ENDBRANCH  20  21
ENDBRANCH  19  20
ENDBRANCH  18  19
ENDBRANCH  17  18
ENDBRANCH  16  17
ENDBRANCH  15  16
ENDBRANCH  14  15
ENDBRANCH  13  14
ENDBRANCH   1  13
TORSDOF 20
ENDMDL
MODEL 6
REMARK VINA RESULT:    -3.940      1.255      2.572
REMARK INTER + INTRA:         -12.510
REMARK INTER:                  -9.050
REMARK INTRA:                  -3.460
REMARK UNBOUND:                -3.962
REMARK SMILES CCCCCCCCCCCCCCCCCCCCCC(=O)[O-]
REMARK SMILES IDX 12 1 11 2 10 3 9 4 8 5 7 6 6 7 5 8 4 9 3 10 2 11 1 12 13 13
REMARK SMILES IDX 14 14 15 15 16 16 17 17 18 18 19 19 20 20 21 21 22 22 23 23
REMARK SMILES IDX 24 24
REMARK H PARENT
REMARK Flexibility Score: inf
ROOT
ATOM      1  C   UNL     1      55.300  26.592  37.639  1.00  0.00     0.000 C 
ENDROOT
BRANCH   1   2
ATOM      2  C   UNL     1      55.088  27.275  39.006  1.00  0.00     0.000 C 
BRANCH   2   3
ATOM      3  C   UNL     1      54.979  28.813  38.959  1.00  0.00     0.000 C 
BRANCH   3   4
ATOM      4  C   UNL     1      55.103  29.516  40.325  1.00  0.00    -0.000 C 
BRANCH   4   5
ATOM      5  C   UNL     1      56.499  30.089  40.640  1.00  0.00    -0.000 C 
BRANCH   5   6
ATOM      6  C   UNL     1      57.588  29.035  40.912  1.00  0.00    -0.000 C 
BRANCH   6   7
ATOM      7  C   UNL     1      58.525  28.822  39.714  1.00  0.00    -0.000 C 
BRANCH   7   8
ATOM      8  C   UNL     1      58.740  30.136  38.946  1.00  0.00    -0.000 C 
BRANCH   8   9
ATOM      9  C   UNL     1      58.367  30.024  37.458  1.00  0.00    -0.000 C 
BRANCH   9  10
ATOM     10  C   UNL     1      57.947  31.350  36.795  1.00  0.00    -0.000 C 
BRANCH  10  11
ATOM     11  C   UNL     1      57.152  32.289  37.731  1.00  0.00    -0.003 C 
ATOM     12  C   UNL     1      55.640  32.136  37.567  1.00  0.00     0.004 C 
ENDBRANCH  10  11
ENDBRANCH   9  10
ENDBRANCH   8   9
ENDBRANCH   7   8
ENDBRANCH   6   7
ENDBRANCH   5   6
ENDBRANCH   4   5
ENDBRANCH   3   4
ENDBRANCH   2   3
ENDBRANCH   1   2
BRANCH   1  13
ATOM     13  C   UNL     1      56.702  26.775  37.030  1.00  0.00     0.000 C 
BRANCH  13  14
ATOM     14  C   UNL     1      56.667  27.103  35.531  1.00  0.00     0.000 C 
BRANCH  14  15
ATOM     15  C   UNL     1      55.865  28.384  35.271  1.00  0.00     0.000 C 
BRANCH  15  16
ATOM     16  C   UNL     1      54.829  28.172  34.156  1.00  0.00     0.000 C 
BRANCH  16  17
ATOM     17  C   UNL     1      53.481  28.856  34.476  1.00  0.00     0.000 C 
BRANCH  17  18
ATOM     18  C   UNL     1      52.612  28.074  35.476  1.00  0.00     0.000 C 
BRANCH  18  19
ATOM     19  C   UNL     1      52.488  26.581  35.125  1.00  0.00     0.000 C 
BRANCH  19  20
ATOM     20  C   UNL     1      51.605  26.336  33.890  1.00  0.00     0.006 C 
BRANCH  20  21
ATOM     21  C   UNL     1      50.198  26.931  34.040  1.00  0.00     0.053 C 
BRANCH  21  22
ATOM     22  C   UNL     1      49.388  26.123  35.004  1.00  0.00     0.041 C 
ATOM     23  O   UNL     1      49.284  26.485  36.207  1.00  0.00    -0.550 OA
ATOM     24  O   UNL     1      48.782  24.945  34.586  1.00  0.00    -0.550 OA
ENDBRANCH  21  22
ENDBRANCH  20  21
ENDBRANCH  19  20
ENDBRANCH  18  19
ENDBRANCH  17  18
ENDBRANCH  16  17
ENDBRANCH  15  16
ENDBRANCH  14  15
ENDBRANCH  13  14
ENDBRANCH   1  13
TORSDOF 20
ENDMDL
MODEL 7
REMARK VINA RESULT:    -3.931      3.443      7.389
REMARK INTER + INTRA:         -12.488
REMARK INTER:                  -8.956
REMARK INTRA:                  -3.532
REMARK UNBOUND:                -3.962
REMARK SMILES CCCCCCCCCCCCCCCCCCCCCC(=O)[O-]
REMARK SMILES IDX 12 1 11 2 10 3 9 4 8 5 7 6 6 7 5 8 4 9 3 10 2 11 1 12 13 13
REMARK SMILES IDX 14 14 15 15 16 16 17 17 18 18 19 19 20 20 21 21 22 22 23 23
REMARK SMILES IDX 24 24
REMARK H PARENT
REMARK Flexibility Score: inf
ROOT
ATOM      1  C   UNL     1      53.621  24.301  33.280  1.00  0.00     0.000 C 
ENDROOT
BRANCH   1   2
ATOM      2  C   UNL     1      52.493  23.310  32.925  1.00  0.00     0.000 C 
BRANCH   2   3
ATOM      3  C   UNL     1      51.229  23.948  32.317  1.00  0.00     0.000 C 
BRANCH   3   4
ATOM      4  C   UNL     1      51.091  25.466  32.546  1.00  0.00    -0.000 C 
BRANCH   4   5
ATOM      5  C   UNL     1      49.714  25.925  33.067  1.00  0.00    -0.000 C 
BRANCH   5   6
ATOM      6  C   UNL     1      49.760  26.865  34.285  1.00  0.00    -0.000 C 
BRANCH   6   7
ATOM      7  C   UNL     1      49.554  26.127  35.617  1.00  0.00    -0.000 C 
BRANCH   7   8
ATOM      8  C   UNL     1      50.858  25.460  36.082  1.00  0.00    -0.000 C 
BRANCH   8   9
ATOM      9  C   UNL     1      50.747  23.929  36.169  1.00  0.00    -0.000 C 
BRANCH   9  10
ATOM     10  C   UNL     1      49.484  23.334  35.516  1.00  0.00    -0.000 C 
BRANCH  10  11
ATOM     11  C   UNL     1      49.609  21.832  35.174  1.00  0.00    -0.003 C 
ATOM     12  C   UNL     1      50.952  21.243  35.606  1.00  0.00     0.004 C 
ENDBRANCH  10  11
ENDBRANCH   9  10
ENDBRANCH   8   9
ENDBRANCH   7   8
ENDBRANCH   6   7
ENDBRANCH   5   6
ENDBRANCH   4   5
ENDBRANCH   3   4
ENDBRANCH   2   3
ENDBRANCH   1   2
BRANCH   1  13
ATOM     13  C   UNL     1      54.178  24.170  34.709  1.00  0.00     0.000 C 
BRANCH  13  14
ATOM     14  C   UNL     1      55.658  24.566  34.815  1.00  0.00     0.000 C 
BRANCH  14  15
ATOM     15  C   UNL     1      55.803  26.054  35.153  1.00  0.00     0.000 C 
BRANCH  15  16
ATOM     16  C   UNL     1      56.041  26.890  33.887  1.00  0.00     0.000 C 
BRANCH  16  17
ATOM     17  C   UNL     1      55.159  28.157  33.850  1.00  0.00     0.000 C 
BRANCH  17  18
ATOM     18  C   UNL     1      53.651  27.864  33.943  1.00  0.00     0.000 C 
BRANCH  18  19
ATOM     19  C   UNL     1      52.936  28.725  34.999  1.00  0.00     0.000 C 
BRANCH  19  20
ATOM     20  C   UNL     1      53.710  28.799  36.325  1.00  0.00     0.006 C 
BRANCH  20  21
ATOM     21  C   UNL     1      53.623  30.183  36.986  1.00  0.00     0.053 C 
BRANCH  21  22
ATOM     22  C   UNL     1      54.789  30.401  37.898  1.00  0.00     0.041 C 
ATOM     23  O   UNL     1      54.604  30.749  39.094  1.00  0.00    -0.550 OA
ATOM     24  O   UNL     1      56.085  30.261  37.414  1.00  0.00    -0.550 OA
ENDBRANCH  21  22
ENDBRANCH  20  21
ENDBRANCH  19  20
ENDBRANCH  18  19
ENDBRANCH  17  18
ENDBRANCH  16  17
ENDBRANCH  15  16
ENDBRANCH  14  15
ENDBRANCH  13  14
ENDBRANCH   1  13
TORSDOF 20
ENDMDL
MODEL 8
REMARK VINA RESULT:    -3.927      3.361      7.513
REMARK INTER + INTRA:         -12.481
REMARK INTER:                  -9.123
REMARK INTRA:                  -3.357
REMARK UNBOUND:                -3.962
REMARK SMILES CCCCCCCCCCCCCCCCCCCCCC(=O)[O-]
REMARK SMILES IDX 12 1 11 2 10 3 9 4 8 5 7 6 6 7 5 8 4 9 3 10 2 11 1 12 13 13
REMARK SMILES IDX 14 14 15 15 16 16 17 17 18 18 19 19 20 20 21 21 22 22 23 23
REMARK SMILES IDX 24 24
REMARK H PARENT
REMARK Flexibility Score: inf
ROOT
ATOM      1  C   UNL     1      53.153  28.648  35.672  1.00  0.00     0.000 C 
ENDROOT
BRANCH   1   2
ATOM      2  C   UNL     1      53.474  28.280  34.209  1.00  0.00     0.000 C 
BRANCH   2   3
ATOM      3  C   UNL     1      54.974  28.142  33.883  1.00  0.00     0.000 C 
BRANCH   3   4
ATOM      4  C   UNL     1      55.503  26.694  33.847  1.00  0.00    -0.000 C 
BRANCH   4   5
ATOM      5  C   UNL     1      54.453  25.609  34.159  1.00  0.00    -0.000 C 
BRANCH   5   6
ATOM      6  C   UNL     1      54.609  24.929  35.531  1.00  0.00    -0.000 C 
BRANCH   6   7
ATOM      7  C   UNL     1      53.304  24.917  36.343  1.00  0.00    -0.000 C 
BRANCH   7   8
ATOM      8  C   UNL     1      52.082  25.033  35.418  1.00  0.00    -0.000 C 
BRANCH   8   9
ATOM      9  C   UNL     1      50.776  25.295  36.187  1.00  0.00    -0.000 C 
BRANCH   9  10
ATOM     10  C   UNL     1      49.556  25.612  35.302  1.00  0.00    -0.000 C 
BRANCH  10  11
ATOM     11  C   UNL     1      49.834  26.683  34.221  1.00  0.00    -0.003 C 
ATOM     12  C   UNL     1      49.260  26.301  32.857  1.00  0.00     0.004 C 
ENDBRANCH  10  11
ENDBRANCH   9  10
ENDBRANCH   8   9
ENDBRANCH   7   8
ENDBRANCH   6   7
ENDBRANCH   5   6
ENDBRANCH   4   5
ENDBRANCH   3   4
ENDBRANCH   2   3
ENDBRANCH   1   2
BRANCH   1  13
ATOM     13  C   UNL     1      54.344  29.186  36.485  1.00  0.00     0.000 C 
BRANCH  13  14
ATOM     14  C   UNL     1      54.942  28.139  37.435  1.00  0.00     0.000 C 
BRANCH  14  15
ATOM     15  C   UNL     1      55.043  28.691  38.862  1.00  0.00     0.000 C 
BRANCH  15  16
ATOM     16  C   UNL     1      54.825  30.211  38.884  1.00  0.00     0.000 C 
BRANCH  16  17
ATOM     17  C   UNL     1      55.916  30.944  39.696  1.00  0.00     0.000 C 
BRANCH  17  18
ATOM     18  C   UNL     1      56.671  32.017  38.891  1.00  0.00     0.000 C 
BRANCH  18  19
ATOM     19  C   UNL     1      56.912  31.610  37.427  1.00  0.00     0.000 C 
BRANCH  19  20
ATOM     20  C   UNL     1      58.332  31.070  37.190  1.00  0.00     0.006 C 
BRANCH  20  21
ATOM     21  C   UNL     1      58.355  29.556  36.934  1.00  0.00     0.053 C 
BRANCH  21  22
ATOM     22  C   UNL     1      58.738  28.821  38.180  1.00  0.00     0.041 C 
ATOM     23  O   UNL     1      59.214  29.446  39.165  1.00  0.00    -0.550 OA
ATOM     24  O   UNL     1      58.610  27.439  38.237  1.00  0.00    -0.550 OA
ENDBRANCH  21  22
ENDBRANCH  20  21
ENDBRANCH  19  20
ENDBRANCH  18  19
ENDBRANCH  17  18
ENDBRANCH  16  17
ENDBRANCH  15  16
ENDBRANCH  14  15
ENDBRANCH  13  14
ENDBRANCH   1  13
TORSDOF 20
ENDMDL
MODEL 9
REMARK VINA RESULT:    -3.919      1.975      3.791
REMARK INTER + INTRA:         -12.463
REMARK INTER:                  -8.790
REMARK INTRA:                  -3.673
REMARK UNBOUND:                -3.962
REMARK SMILES CCCCCCCCCCCCCCCCCCCCCC(=O)[O-]
REMARK SMILES IDX 12 1 11 2 10 3 9 4 8 5 7 6 6 7 5 8 4 9 3 10 2 11 1 12 13 13
REMARK SMILES IDX 14 14 15 15 16 16 17 17 18 18 19 19 20 20 21 21 22 22 23 23
REMARK SMILES IDX 24 24
REMARK H PARENT
REMARK Flexibility Score: inf
ROOT
ATOM      1  C   UNL     1      55.999  26.742  34.322  1.00  0.00     0.000 C 
ENDROOT
BRANCH   1   2
ATOM      2  C   UNL     1      55.383  28.142  34.121  1.00  0.00     0.000 C 
BRANCH   2   3
ATOM      3  C   UNL     1      53.853  28.163  33.927  1.00  0.00     0.000 C 
BRANCH   3   4
ATOM      4  C   UNL     1      53.116  29.285  34.685  1.00  0.00    -0.000 C 
BRANCH   4   5
ATOM      5  C   UNL     1      52.861  29.004  36.179  1.00  0.00    -0.000 C 
BRANCH   5   6
ATOM      6  C   UNL     1      53.507  30.011  37.148  1.00  0.00    -0.000 C 
BRANCH   6   7
ATOM      7  C   UNL     1      54.877  29.546  37.667  1.00  0.00    -0.000 C 
BRANCH   7   8
ATOM      8  C   UNL     1      55.954  30.609  37.400  1.00  0.00    -0.000 C 
BRANCH   8   9
ATOM      9  C   UNL     1      57.147  30.061  36.599  1.00  0.00    -0.000 C 
BRANCH   9  10
ATOM     10  C   UNL     1      58.482  30.031  37.367  1.00  0.00    -0.000 C 
BRANCH  10  11
ATOM     11  C   UNL     1      59.065  28.611  37.545  1.00  0.00    -0.003 C 
ATOM     12  C   UNL     1      58.405  27.846  38.691  1.00  0.00     0.004 C 
ENDBRANCH  10  11
ENDBRANCH   9  10
ENDBRANCH   8   9
ENDBRANCH   7   8
ENDBRANCH   6   7
ENDBRANCH   5   6
ENDBRANCH   4   5
ENDBRANCH   3   4
ENDBRANCH   2   3
ENDBRANCH   1   2
BRANCH   1  13
ATOM     13  C   UNL     1      56.551  26.470  35.733  1.00  0.00     0.000 C 
BRANCH  13  14
ATOM     14  C   UNL     1      55.464  26.049  36.732  1.00  0.00     0.000 C 
BRANCH  14  15
ATOM     15  C   UNL     1      54.541  24.989  36.120  1.00  0.00     0.000 C 
BRANCH  15  16
ATOM     16  C   UNL     1      53.070  25.269  36.466  1.00  0.00     0.000 C 
BRANCH  16  17
ATOM     17  C   UNL     1      52.172  25.301  35.210  1.00  0.00     0.000 C 
BRANCH  17  18
ATOM     18  C   UNL     1      50.829  26.019  35.428  1.00  0.00     0.000 C 
BRANCH  18  19
ATOM     19  C   UNL     1      50.348  26.785  34.183  1.00  0.00     0.000 C 
BRANCH  19  20
ATOM     20  C   UNL     1      49.563  25.894  33.207  1.00  0.00     0.006 C 
BRANCH  20  21
ATOM     21  C   UNL     1      48.504  25.033  33.911  1.00  0.00     0.053 C 
BRANCH  21  22
ATOM     22  C   UNL     1      48.695  23.588  33.571  1.00  0.00     0.041 C 
ATOM     23  O   UNL     1      49.851  23.129  33.373  1.00  0.00    -0.550 OA
ATOM     24  O   UNL     1      47.590  22.756  33.431  1.00  0.00    -0.550 OA
ENDBRANCH  21  22
ENDBRANCH  20  21
ENDBRANCH  19  20
ENDBRANCH  18  19
ENDBRANCH  17  18
ENDBRANCH  16  17
ENDBRANCH  15  16
ENDBRANCH  14  15
ENDBRANCH  13  14
ENDBRANCH   1  13
TORSDOF 20
ENDMDL
