MODEL 1
REMARK VINA RESULT:    -5.268      0.000      0.000
REMARK INTER + INTRA:          -6.103
REMARK INTER:                  -5.884
REMARK INTRA:                  -0.219
REMARK UNBOUND:                -0.219
REMARK SMILES CC(C)c1ccc(C(=O)[O-])cc1
REMARK SMILES IDX 7 1 6 2 11 3 5 4 12 5 4 6 8 7 9 8 10 9 2 10 1 11 3 12
REMARK H PARENT
REMARK Flexibility Score: inf
ROOT
ATOM      1  C   UNL     1      36.614  19.211   8.274  1.00  0.00    -0.003 A 
ATOM      2  C   UNL     1      37.993  19.193   8.546  1.00  0.00     0.010 A 
ATOM      3  C   UNL     1      35.715  18.838   9.287  1.00  0.00     0.010 A 
ATOM      4  C   UNL     1      38.462  18.809   9.805  1.00  0.00     0.004 A 
ATOM      5  C   UNL     1      36.185  18.455  10.546  1.00  0.00     0.004 A 
ATOM      6  C   UNL     1      37.563  18.435  10.821  1.00  0.00    -0.045 A 
ENDROOT
BRANCH   1   7
ATOM      7  C   UNL     1      36.113  19.617   6.942  1.00  0.00     0.071 C 
ATOM      8  O   UNL     1      36.907  19.760   5.975  1.00  0.00    -0.545 OA
ATOM      9  O   UNL     1      34.756  19.845   6.740  1.00  0.00    -0.545 OA
ENDBRANCH   1   7
BRANCH   6  10
ATOM     10  C   UNL     1      38.058  18.017  12.192  1.00  0.00     0.013 C 
ATOM     11  C   UNL     1      37.350  18.806  13.300  1.00  0.00     0.012 C 
ATOM     12  C   UNL     1      39.580  18.163  12.298  1.00  0.00     0.012 C 
ENDBRANCH   6  10
TORSDOF 2
ENDMDL
MODEL 2
REMARK VINA RESULT:    -5.145      2.999      4.357
REMARK INTER + INTRA:          -5.965
REMARK INTER:                  -5.754
REMARK INTRA:                  -0.211
REMARK UNBOUND:                -0.219
REMARK SMILES CC(C)c1ccc(C(=O)[O-])cc1
REMARK SMILES IDX 7 1 6 2 11 3 5 4 12 5 4 6 8 7 9 8 10 9 2 10 1 11 3 12
REMARK H PARENT
REMARK Flexibility Score: inf
ROOT
ATOM      1  C   UNL     1      38.867  18.302  10.960  1.00  0.00    -0.003 A 
ATOM      2  C   UNL     1      38.664  18.337  12.350  1.00  0.00     0.010 A 
ATOM      3  C   UNL     1      37.758  18.428  10.107  1.00  0.00     0.010 A 
ATOM      4  C   UNL     1      37.379  18.496  12.876  1.00  0.00     0.004 A 
ATOM      5  C   UNL     1      36.473  18.587  10.632  1.00  0.00     0.004 A 
ATOM      6  C   UNL     1      36.268  18.623  12.022  1.00  0.00    -0.045 A 
ENDROOT
BRANCH   1   7
ATOM      7  C   UNL     1      40.226  18.134  10.399  1.00  0.00     0.071 C 
ATOM      8  O   UNL     1      40.387  17.815   9.191  1.00  0.00    -0.545 OA
ATOM      9  O   UNL     1      41.347  18.329  11.200  1.00  0.00    -0.545 OA
ENDBRANCH   1   7
BRANCH   6  10
ATOM     10  C   UNL     1      34.867  18.796  12.578  1.00  0.00     0.013 C 
ATOM     11  C   UNL     1      34.082  17.480  12.518  1.00  0.00     0.012 C 
ATOM     12  C   UNL     1      34.119  19.918  11.850  1.00  0.00     0.012 C 
ENDBRANCH   6  10
TORSDOF 2
ENDMDL
MODEL 3
REMARK VINA RESULT:    -5.136      3.004      4.362
REMARK INTER + INTRA:          -5.956
REMARK INTER:                  -5.748
REMARK INTRA:                  -0.208
REMARK UNBOUND:                -0.219
REMARK SMILES CC(C)c1ccc(C(=O)[O-])cc1
REMARK SMILES IDX 7 1 6 2 11 3 5 4 12 5 4 6 8 7 9 8 10 9 2 10 1 11 3 12
REMARK H PARENT
REMARK Flexibility Score: inf
ROOT
ATOM      1  C   UNL     1      38.941  18.301  10.930  1.00  0.00    -0.003 A 
ATOM      2  C   UNL     1      37.822  18.398  10.084  1.00  0.00     0.010 A 
ATOM      3  C   UNL     1      38.749  18.350  12.320  1.00  0.00     0.010 A 
ATOM      4  C   UNL     1      36.539  18.540  10.619  1.00  0.00     0.004 A 
ATOM      5  C   UNL     1      37.466  18.492  12.855  1.00  0.00     0.004 A 
ATOM      6  C   UNL     1      36.346  18.589  12.012  1.00  0.00    -0.045 A 
ENDROOT
BRANCH   1   7
ATOM      7  C   UNL     1      40.301  18.151  10.367  1.00  0.00     0.071 C 
ATOM      8  O   UNL     1      40.465  17.737   9.189  1.00  0.00    -0.545 OA
ATOM      9  O   UNL     1      41.419  18.466  11.133  1.00  0.00    -0.545 OA
ENDBRANCH   1   7
BRANCH   6  10
ATOM     10  C   UNL     1      34.959  18.743  12.607  1.00  0.00     0.013 C 
ATOM     11  C   UNL     1      34.196  17.413  12.582  1.00  0.00     0.012 C 
ATOM     12  C   UNL     1      34.170  19.844  11.890  1.00  0.00     0.012 C 
ENDBRANCH   6  10
TORSDOF 2
ENDMDL
MODEL 4
REMARK VINA RESULT:    -5.084      3.779      4.874
REMARK INTER + INTRA:          -5.898
REMARK INTER:                  -5.695
REMARK INTRA:                  -0.203
REMARK UNBOUND:                -0.219
REMARK SMILES CC(C)c1ccc(C(=O)[O-])cc1
REMARK SMILES IDX 7 1 6 2 11 3 5 4 12 5 4 6 8 7 9 8 10 9 2 10 1 11 3 12
REMARK H PARENT
REMARK Flexibility Score: inf
ROOT
ATOM      1  C   UNL     1      40.837  18.407  10.732  1.00  0.00    -0.003 A 
ATOM      2  C   UNL     1      39.916  18.523   9.677  1.00  0.00     0.010 A 
ATOM      3  C   UNL     1      40.357  18.199  12.035  1.00  0.00     0.010 A 
ATOM      4  C   UNL     1      38.543  18.431   9.921  1.00  0.00     0.004 A 
ATOM      5  C   UNL     1      38.985  18.108  12.280  1.00  0.00     0.004 A 
ATOM      6  C   UNL     1      38.061  18.223  11.227  1.00  0.00    -0.045 A 
ENDROOT
BRANCH   1   7
ATOM      7  C   UNL     1      42.292  18.503  10.477  1.00  0.00     0.071 C 
ATOM      8  O   UNL     1      42.861  19.626  10.428  1.00  0.00    -0.545 OA
ATOM      9  O   UNL     1      43.051  17.353  10.289  1.00  0.00    -0.545 OA
ENDBRANCH   1   7
BRANCH   6  10
ATOM     10  C   UNL     1      36.574  18.121  11.508  1.00  0.00     0.013 C 
ATOM     11  C   UNL     1      36.212  18.811  12.829  1.00  0.00     0.012 C 
ATOM     12  C   UNL     1      36.109  16.660  11.503  1.00  0.00     0.012 C 
ENDBRANCH   6  10
TORSDOF 2
ENDMDL
MODEL 5
REMARK VINA RESULT:    -5.057      3.396      4.778
REMARK INTER + INTRA:          -5.867
REMARK INTER:                  -5.658
REMARK INTRA:                  -0.208
REMARK UNBOUND:                -0.219
REMARK SMILES CC(C)c1ccc(C(=O)[O-])cc1
REMARK SMILES IDX 7 1 6 2 11 3 5 4 12 5 4 6 8 7 9 8 10 9 2 10 1 11 3 12
REMARK H PARENT
REMARK Flexibility Score: inf
ROOT
ATOM      1  C   UNL     1      38.227  18.240  11.454  1.00  0.00    -0.003 A 
ATOM      2  C   UNL     1      38.365  18.391  10.064  1.00  0.00     0.010 A 
ATOM      3  C   UNL     1      39.383  18.149  12.247  1.00  0.00     0.010 A 
ATOM      4  C   UNL     1      39.633  18.449   9.479  1.00  0.00     0.004 A 
ATOM      5  C   UNL     1      40.651  18.207  11.662  1.00  0.00     0.004 A 
ATOM      6  C   UNL     1      40.792  18.357  10.272  1.00  0.00    -0.045 A 
ENDROOT
BRANCH   1   7
ATOM      7  C   UNL     1      36.886  18.179  12.077  1.00  0.00     0.071 C 
ATOM      8  O   UNL     1      35.923  17.636  11.473  1.00  0.00    -0.545 OA
ATOM      9  O   UNL     1      36.671  18.719  13.340  1.00  0.00    -0.545 OA
ENDBRANCH   1   7
BRANCH   6  10
ATOM     10  C   UNL     1      42.175  18.418   9.652  1.00  0.00     0.013 C 
ATOM     11  C   UNL     1      42.845  17.039   9.659  1.00  0.00     0.012 C 
ATOM     12  C   UNL     1      43.050  19.461  10.356  1.00  0.00     0.012 C 
ENDBRANCH   6  10
TORSDOF 2
ENDMDL
MODEL 6
REMARK VINA RESULT:    -5.034      2.941      4.350
REMARK INTER + INTRA:          -5.842
REMARK INTER:                  -5.631
REMARK INTRA:                  -0.210
REMARK UNBOUND:                -0.219
REMARK SMILES CC(C)c1ccc(C(=O)[O-])cc1
REMARK SMILES IDX 7 1 6 2 11 3 5 4 12 5 4 6 8 7 9 8 10 9 2 10 1 11 3 12
REMARK H PARENT
REMARK Flexibility Score: inf
ROOT
ATOM      1  C   UNL     1      38.163  18.385  10.930  1.00  0.00    -0.003 A 
ATOM      2  C   UNL     1      38.932  18.178  12.088  1.00  0.00     0.010 A 
ATOM      3  C   UNL     1      38.818  18.555   9.699  1.00  0.00     0.010 A 
ATOM      4  C   UNL     1      40.327  18.140  12.016  1.00  0.00     0.004 A 
ATOM      5  C   UNL     1      40.213  18.517   9.627  1.00  0.00     0.004 A 
ATOM      6  C   UNL     1      40.985  18.310  10.783  1.00  0.00    -0.045 A 
ENDROOT
BRANCH   1   7
ATOM      7  C   UNL     1      36.686  18.426  11.003  1.00  0.00     0.071 C 
ATOM      8  O   UNL     1      36.101  18.521  12.114  1.00  0.00    -0.545 OA
ATOM      9  O   UNL     1      35.922  18.360   9.843  1.00  0.00    -0.545 OA
ENDBRANCH   1   7
BRANCH   6  10
ATOM     10  C   UNL     1      42.498  18.271  10.689  1.00  0.00     0.013 C 
ATOM     11  C   UNL     1      43.057  19.621  10.223  1.00  0.00     0.012 C 
ATOM     12  C   UNL     1      42.965  17.135   9.772  1.00  0.00     0.012 C 
ENDBRANCH   6  10
TORSDOF 2
ENDMDL
MODEL 7
REMARK VINA RESULT:    -5.007      3.293      4.613
REMARK INTER + INTRA:          -5.811
REMARK INTER:                  -5.605
REMARK INTRA:                  -0.206
REMARK UNBOUND:                -0.219
REMARK SMILES CC(C)c1ccc(C(=O)[O-])cc1
REMARK SMILES IDX 7 1 6 2 11 3 5 4 12 5 4 6 8 7 9 8 10 9 2 10 1 11 3 12
REMARK H PARENT
REMARK Flexibility Score: inf
ROOT
ATOM      1  C   UNL     1      38.272  17.902  11.496  1.00  0.00    -0.003 A 
ATOM      2  C   UNL     1      37.475  16.999  10.773  1.00  0.00     0.010 A 
ATOM      3  C   UNL     1      37.723  18.550  12.615  1.00  0.00     0.010 A 
ATOM      4  C   UNL     1      36.156  16.748  11.162  1.00  0.00     0.004 A 
ATOM      5  C   UNL     1      36.405  18.299  13.004  1.00  0.00     0.004 A 
ATOM      6  C   UNL     1      35.605  17.397  12.283  1.00  0.00    -0.045 A 
ENDROOT
BRANCH   1   7
ATOM      7  C   UNL     1      39.669  18.170  11.088  1.00  0.00     0.071 C 
ATOM      8  O   UNL     1      40.593  18.203  11.944  1.00  0.00    -0.545 OA
ATOM      9  O   UNL     1      39.982  18.387   9.750  1.00  0.00    -0.545 OA
ENDBRANCH   1   7
BRANCH   6  10
ATOM     10  C   UNL     1      34.175  17.135  12.717  1.00  0.00     0.013 C 
ATOM     11  C   UNL     1      33.330  18.411  12.632  1.00  0.00     0.012 C 
ATOM     12  C   UNL     1      34.128  16.535  14.126  1.00  0.00     0.012 C 
ENDBRANCH   6  10
TORSDOF 2
ENDMDL
MODEL 8
REMARK VINA RESULT:    -4.954      2.981      4.331
REMARK INTER + INTRA:          -5.752
REMARK INTER:                  -5.542
REMARK INTRA:                  -0.210
REMARK UNBOUND:                -0.219
REMARK SMILES CC(C)c1ccc(C(=O)[O-])cc1
REMARK SMILES IDX 7 1 6 2 11 3 5 4 12 5 4 6 8 7 9 8 10 9 2 10 1 11 3 12
REMARK H PARENT
REMARK Flexibility Score: inf
ROOT
ATOM      1  C   UNL     1      36.773  18.333  11.755  1.00  0.00    -0.003 A 
ATOM      2  C   UNL     1      36.885  18.534  10.369  1.00  0.00     0.010 A 
ATOM      3  C   UNL     1      37.942  18.151  12.513  1.00  0.00     0.010 A 
ATOM      4  C   UNL     1      38.139  18.552   9.753  1.00  0.00     0.004 A 
ATOM      5  C   UNL     1      39.196  18.169  11.897  1.00  0.00     0.004 A 
ATOM      6  C   UNL     1      39.311  18.369  10.511  1.00  0.00    -0.045 A 
ENDROOT
BRANCH   1   7
ATOM      7  C   UNL     1      35.447  18.314  12.410  1.00  0.00     0.071 C 
ATOM      8  O   UNL     1      35.016  17.264  12.956  1.00  0.00    -0.545 OA
ATOM      9  O   UNL     1      34.656  19.458  12.434  1.00  0.00    -0.545 OA
ENDBRANCH   1   7
BRANCH   6  10
ATOM     10  C   UNL     1      40.679  18.385   9.857  1.00  0.00     0.013 C 
ATOM     11  C   UNL     1      40.774  17.333   8.746  1.00  0.00     0.012 C 
ATOM     12  C   UNL     1      41.790  18.192  10.896  1.00  0.00     0.012 C 
ENDBRANCH   6  10
TORSDOF 2
ENDMDL
MODEL 9
REMARK VINA RESULT:    -4.932      3.017      4.328
REMARK INTER + INTRA:          -5.727
REMARK INTER:                  -5.517
REMARK INTRA:                  -0.210
REMARK UNBOUND:                -0.219
REMARK SMILES CC(C)c1ccc(C(=O)[O-])cc1
REMARK SMILES IDX 7 1 6 2 11 3 5 4 12 5 4 6 8 7 9 8 10 9 2 10 1 11 3 12
REMARK H PARENT
REMARK Flexibility Score: inf
ROOT
ATOM      1  C   UNL     1      36.472  18.229  11.881  1.00  0.00    -0.003 A 
ATOM      2  C   UNL     1      37.669  18.123  12.610  1.00  0.00     0.010 A 
ATOM      3  C   UNL     1      36.537  18.415  10.491  1.00  0.00     0.010 A 
ATOM      4  C   UNL     1      38.904  18.201  11.961  1.00  0.00     0.004 A 
ATOM      5  C   UNL     1      37.772  18.493   9.842  1.00  0.00     0.004 A 
ATOM      6  C   UNL     1      38.970  18.387  10.568  1.00  0.00    -0.045 A 
ENDROOT
BRANCH   1   7
ATOM      7  C   UNL     1      35.163  18.147  12.565  1.00  0.00     0.071 C 
ATOM      8  O   UNL     1      34.865  17.140  13.262  1.00  0.00    -0.545 OA
ATOM      9  O   UNL     1      34.242  19.182  12.450  1.00  0.00    -0.545 OA
ENDBRANCH   1   7
BRANCH   6  10
ATOM     10  C   UNL     1      40.303  18.473   9.850  1.00  0.00     0.013 C 
ATOM     11  C   UNL     1      40.445  17.354   8.811  1.00  0.00     0.012 C 
ATOM     12  C   UNL     1      41.469  18.452  10.845  1.00  0.00     0.012 C 
ENDBRANCH   6  10
TORSDOF 2
ENDMDL
