MODEL 1
REMARK VINA RESULT:    -2.227      0.000      0.000
REMARK INTER + INTRA:          -2.227
REMARK INTER:                  -2.227
REMARK INTRA:                   0.000
REMARK UNBOUND:                 0.000
REMARK SMILES CC(=O)[O-]
REMARK SMILES IDX 1 1 2 2 3 3 4 4
REMARK H PARENT
REMARK Flexibility Score: inf
ROOT
ATOM      1  C   UNL     1    -109.552  42.843  -0.701  1.00  0.00     0.063 C 
ATOM      2  C   UNL     1    -108.155  42.909  -0.186  1.00  0.00     0.038 C 
ATOM      3  O   UNL     1    -107.295  42.082  -0.585  1.00  0.00    -0.550 OA
ATOM      4  O   UNL     1    -107.785  43.917   0.694  1.00  0.00    -0.550 OA
ENDROOT
TORSDOF 0
ENDMDL
MODEL 2
REMARK VINA RESULT:    -2.079     12.575     12.934
REMARK INTER + INTRA:          -2.079
REMARK INTER:                  -2.079
REMARK INTRA:                   0.000
REMARK UNBOUND:                 0.000
REMARK SMILES CC(=O)[O-]
REMARK SMILES IDX 1 1 2 2 3 3 4 4
REMARK H PARENT
REMARK Flexibility Score: inf
ROOT
ATOM      1  C   UNL     1    -108.543  29.900   1.481  1.00  0.00     0.063 C 
ATOM      2  C   UNL     1    -107.333  30.251   2.277  1.00  0.00     0.038 C 
ATOM      3  O   UNL     1    -106.416  29.404   2.441  1.00  0.00    -0.550 OA
ATOM      4  O   UNL     1    -107.189  31.531   2.796  1.00  0.00    -0.550 OA
ENDROOT
TORSDOF 0
ENDMDL
MODEL 3
REMARK VINA RESULT:    -2.069      1.712      1.917
REMARK INTER + INTRA:          -2.069
REMARK INTER:                  -2.069
REMARK INTRA:                   0.000
REMARK UNBOUND:                 0.000
REMARK SMILES CC(=O)[O-]
REMARK SMILES IDX 1 1 2 2 3 3 4 4
REMARK H PARENT
REMARK Flexibility Score: inf
ROOT
ATOM      1  C   UNL     1    -107.746  42.296  -0.387  1.00  0.00     0.063 C 
ATOM      2  C   UNL     1    -108.829  43.317  -0.473  1.00  0.00     0.038 C 
ATOM      3  O   UNL     1    -110.023  42.959  -0.647  1.00  0.00    -0.550 OA
ATOM      4  O   UNL     1    -108.530  44.663  -0.308  1.00  0.00    -0.550 OA
ENDROOT
TORSDOF 0
ENDMDL
MODEL 4
REMARK VINA RESULT:    -1.962      1.985      2.308
REMARK INTER + INTRA:          -1.962
REMARK INTER:                  -1.962
REMARK INTRA:                   0.000
REMARK UNBOUND:                 0.000
REMARK SMILES CC(=O)[O-]
REMARK SMILES IDX 1 1 2 2 3 3 4 4
REMARK H PARENT
REMARK Flexibility Score: inf
ROOT
ATOM      1  C   UNL     1    -108.718  44.508  -0.985  1.00  0.00     0.063 C 
ATOM      2  C   UNL     1    -109.292  43.163  -0.696  1.00  0.00     0.038 C 
ATOM      3  O   UNL     1    -110.530  42.967  -0.805  1.00  0.00    -0.550 OA
ATOM      4  O   UNL     1    -108.454  42.107  -0.359  1.00  0.00    -0.550 OA
ENDROOT
TORSDOF 0
ENDMDL
MODEL 5
REMARK VINA RESULT:    -1.869     10.008     10.468
REMARK INTER + INTRA:          -1.869
REMARK INTER:                  -1.869
REMARK INTRA:                   0.000
REMARK UNBOUND:                 0.000
REMARK SMILES CC(=O)[O-]
REMARK SMILES IDX 1 1 2 2 3 3 4 4
REMARK H PARENT
REMARK Flexibility Score: inf
ROOT
ATOM      1  C   UNL     1    -105.973  34.223   2.413  1.00  0.00     0.063 C 
ATOM      2  C   UNL     1    -104.795  33.584   3.065  1.00  0.00     0.038 C 
ATOM      3  O   UNL     1    -104.862  32.391   3.463  1.00  0.00    -0.550 OA
ATOM      4  O   UNL     1    -103.602  34.285   3.188  1.00  0.00    -0.550 OA
ENDROOT
TORSDOF 0
ENDMDL
MODEL 6
REMARK VINA RESULT:    -1.859     13.001     13.205
REMARK INTER + INTRA:          -1.859
REMARK INTER:                  -1.859
REMARK INTRA:                   0.000
REMARK UNBOUND:                 0.000
REMARK SMILES CC(=O)[O-]
REMARK SMILES IDX 1 1 2 2 3 3 4 4
REMARK H PARENT
REMARK Flexibility Score: inf
ROOT
ATOM      1  C   UNL     1    -108.601  30.778   3.319  1.00  0.00     0.063 C 
ATOM      2  C   UNL     1    -108.064  30.031   2.146  1.00  0.00     0.038 C 
ATOM      3  O   UNL     1    -108.783  29.850   1.129  1.00  0.00    -0.550 OA
ATOM      4  O   UNL     1    -106.750  29.580   2.150  1.00  0.00    -0.550 OA
ENDROOT
TORSDOF 0
ENDMDL
MODEL 7
REMARK VINA RESULT:    -1.806     12.706     13.216
REMARK INTER + INTRA:          -1.806
REMARK INTER:                  -1.806
REMARK INTRA:                   0.000
REMARK UNBOUND:                 0.000
REMARK SMILES CC(=O)[O-]
REMARK SMILES IDX 1 1 2 2 3 3 4 4
REMARK H PARENT
REMARK Flexibility Score: inf
ROOT
ATOM      1  C   UNL     1    -106.282  29.322   2.689  1.00  0.00     0.063 C 
ATOM      2  C   UNL     1    -107.400  30.220   2.281  1.00  0.00     0.038 C 
ATOM      3  O   UNL     1    -107.410  31.423   2.648  1.00  0.00    -0.550 OA
ATOM      4  O   UNL     1    -108.407  29.744   1.451  1.00  0.00    -0.550 OA
ENDROOT
TORSDOF 0
ENDMDL
MODEL 8
REMARK VINA RESULT:    -1.771     13.923     14.336
REMARK INTER + INTRA:          -1.771
REMARK INTER:                  -1.771
REMARK INTRA:                   0.000
REMARK UNBOUND:                 0.000
REMARK SMILES CC(=O)[O-]
REMARK SMILES IDX 1 1 2 2 3 3 4 4
REMARK H PARENT
REMARK Flexibility Score: inf
ROOT
ATOM      1  C   UNL     1    -114.897  34.788  -7.465  1.00  0.00     0.063 C 
ATOM      2  C   UNL     1    -115.635  34.148  -8.591  1.00  0.00     0.038 C 
ATOM      3  O   UNL     1    -115.018  33.783  -9.625  1.00  0.00    -0.550 OA
ATOM      4  O   UNL     1    -116.998  33.906  -8.480  1.00  0.00    -0.550 OA
ENDROOT
TORSDOF 0
ENDMDL
MODEL 9
REMARK VINA RESULT:    -1.730      9.619     10.086
REMARK INTER + INTRA:          -1.730
REMARK INTER:                  -1.730
REMARK INTRA:                   0.000
REMARK UNBOUND:                 0.000
REMARK SMILES CC(=O)[O-]
REMARK SMILES IDX 1 1 2 2 3 3 4 4
REMARK H PARENT
REMARK Flexibility Score: inf
ROOT
ATOM      1  C   UNL     1    -104.635  33.872   2.941  1.00  0.00     0.063 C 
ATOM      2  C   UNL     1    -106.119  33.732   2.938  1.00  0.00     0.038 C 
ATOM      3  O   UNL     1    -106.646  32.592   2.852  1.00  0.00    -0.550 OA
ATOM      4  O   UNL     1    -106.924  34.854   3.085  1.00  0.00    -0.550 OA
ENDROOT
TORSDOF 0
ENDMDL
