MODEL 1
REMARK VINA RESULT:    -4.269      0.000      0.000
REMARK INTER + INTRA:         -10.393
REMARK INTER:                  -8.013
REMARK INTRA:                  -2.380
REMARK UNBOUND:                -2.380
REMARK SMILES CCCCCCCCC=CCCCCCCCC(=O)[O-]
REMARK SMILES IDX 10 1 9 2 11 3 12 4 13 5 14 6 15 7 16 8 17 9 18 10 19 11
REMARK SMILES IDX 20 12 8 13 7 14 6 15 5 16 4 17 3 18 2 19 1 20
REMARK H PARENT
REMARK Flexibility Score: inf
ROOT
ATOM      1  C   UNL     1      48.762   0.620  73.443  1.00  0.00    -0.031 C 
ATOM      2  C   UNL     1      48.598   0.371  74.755  1.00  0.00    -0.031 C 
ENDROOT
BRANCH   1   3
ATOM      3  C   UNL     1      48.540  -0.408  72.359  1.00  0.00     0.027 C 
BRANCH   3   4
ATOM      4  C   UNL     1      49.862  -0.972  71.814  1.00  0.00     0.004 C 
BRANCH   4   5
ATOM      5  C   UNL     1      51.110  -0.214  72.305  1.00  0.00     0.000 C 
BRANCH   5   6
ATOM      6  C   UNL     1      52.034  -1.096  73.158  1.00  0.00     0.000 C 
BRANCH   6   7
ATOM      7  C   UNL     1      53.174  -1.680  72.309  1.00  0.00     0.000 C 
BRANCH   7   8
ATOM      8  C   UNL     1      53.505  -3.135  72.682  1.00  0.00     0.006 C 
BRANCH   8   9
ATOM      9  C   UNL     1      52.338  -3.844  73.382  1.00  0.00     0.053 C 
BRANCH   9  10
ATOM     10  C   UNL     1      52.844  -4.713  74.489  1.00  0.00     0.041 C 
ATOM     11  O   UNL     1      52.371  -4.597  75.651  1.00  0.00    -0.550 OA
ATOM     12  O   UNL     1      53.860  -5.627  74.248  1.00  0.00    -0.550 OA
ENDBRANCH   9  10
ENDBRANCH   8   9
ENDBRANCH   7   8
ENDBRANCH   6   7
ENDBRANCH   5   6
ENDBRANCH   4   5
ENDBRANCH   3   4
ENDBRANCH   1   3
BRANCH   2  13
ATOM     13  C   UNL     1      48.206  -0.967  75.333  1.00  0.00     0.027 C 
BRANCH  13  14
ATOM     14  C   UNL     1      49.432  -1.862  75.553  1.00  0.00     0.004 C 
BRANCH  14  15
ATOM     15  C   UNL     1      49.131  -3.340  75.251  1.00  0.00     0.000 C 
BRANCH  15  16
ATOM     16  C   UNL     1      47.939  -3.520  74.298  1.00  0.00     0.000 C 
BRANCH  16  17
ATOM     17  C   UNL     1      48.348  -4.110  72.937  1.00  0.00    -0.000 C 
BRANCH  17  18
ATOM     18  C   UNL     1      48.193  -5.638  72.883  1.00  0.00    -0.000 C 
BRANCH  18  19
ATOM     19  C   UNL     1      46.789  -6.073  72.439  1.00  0.00    -0.003 C 
ATOM     20  C   UNL     1      45.982  -6.607  73.618  1.00  0.00     0.004 C 
ENDBRANCH  18  19
ENDBRANCH  17  18
ENDBRANCH  16  17
ENDBRANCH  15  16
ENDBRANCH  14  15
ENDBRANCH  13  14
ENDBRANCH   2  13
TORSDOF 15
ENDMDL
MODEL 2
REMARK VINA RESULT:    -4.154      2.491      5.806
REMARK INTER + INTRA:         -10.176
REMARK INTER:                  -7.765
REMARK INTRA:                  -2.411
REMARK UNBOUND:                -2.380
REMARK SMILES CCCCCCCCC=CCCCCCCCC(=O)[O-]
REMARK SMILES IDX 10 1 9 2 11 3 12 4 13 5 14 6 15 7 16 8 17 9 18 10 19 11
REMARK SMILES IDX 20 12 8 13 7 14 6 15 5 16 4 17 3 18 2 19 1 20
REMARK H PARENT
REMARK Flexibility Score: inf
ROOT
ATOM      1  C   UNL     1      53.344  -0.960  72.386  1.00  0.00    -0.031 C 
ATOM      2  C   UNL     1      52.356  -0.120  72.028  1.00  0.00    -0.031 C 
ENDROOT
BRANCH   1   3
ATOM      3  C   UNL     1      53.221  -1.974  73.500  1.00  0.00     0.027 C 
BRANCH   3   4
ATOM      4  C   UNL     1      52.967  -3.393  72.967  1.00  0.00     0.004 C 
BRANCH   4   5
ATOM      5  C   UNL     1      51.474  -3.769  72.890  1.00  0.00     0.000 C 
BRANCH   5   6
ATOM      6  C   UNL     1      50.750  -3.573  74.231  1.00  0.00     0.000 C 
BRANCH   6   7
ATOM      7  C   UNL     1      49.334  -4.169  74.182  1.00  0.00     0.000 C 
BRANCH   7   8
ATOM      8  C   UNL     1      48.920  -4.596  72.764  1.00  0.00     0.006 C 
BRANCH   8   9
ATOM      9  C   UNL     1      47.434  -4.963  72.669  1.00  0.00     0.053 C 
BRANCH   9  10
ATOM     10  C   UNL     1      47.262  -6.449  72.672  1.00  0.00     0.041 C 
ATOM     11  O   UNL     1      48.204  -7.196  72.300  1.00  0.00    -0.550 OA
ATOM     12  O   UNL     1      46.049  -7.008  73.052  1.00  0.00    -0.550 OA
ENDBRANCH   9  10
ENDBRANCH   8   9
ENDBRANCH   7   8
ENDBRANCH   6   7
ENDBRANCH   5   6
ENDBRANCH   4   5
ENDBRANCH   3   4
ENDBRANCH   1   3
BRANCH   2  13
ATOM     13  C   UNL     1      51.007  -0.043  72.701  1.00  0.00     0.027 C 
BRANCH  13  14
ATOM     14  C   UNL     1      49.899  -0.605  71.801  1.00  0.00     0.004 C 
BRANCH  14  15
ATOM     15  C   UNL     1      48.602  -0.878  72.581  1.00  0.00     0.000 C 
BRANCH  15  16
ATOM     16  C   UNL     1      48.699  -0.463  74.058  1.00  0.00     0.000 C 
BRANCH  16  17
ATOM     17  C   UNL     1      47.669   0.614  74.442  1.00  0.00    -0.000 C 
BRANCH  17  18
ATOM     18  C   UNL     1      48.034   2.004  73.899  1.00  0.00    -0.000 C 
BRANCH  18  19
ATOM     19  C   UNL     1      49.175   2.664  74.686  1.00  0.00    -0.003 C 
ATOM     20  C   UNL     1      49.495   4.048  74.130  1.00  0.00     0.004 C 
ENDBRANCH  18  19
ENDBRANCH  17  18
ENDBRANCH  16  17
ENDBRANCH  15  16
ENDBRANCH  14  15
ENDBRANCH  13  14
ENDBRANCH   2  13
TORSDOF 15
ENDMDL
MODEL 3
REMARK VINA RESULT:    -4.130      2.339      6.360
REMARK INTER + INTRA:         -10.132
REMARK INTER:                  -7.971
REMARK INTRA:                  -2.161
REMARK UNBOUND:                -2.380
REMARK SMILES CCCCCCCCC=CCCCCCCCC(=O)[O-]
REMARK SMILES IDX 10 1 9 2 11 3 12 4 13 5 14 6 15 7 16 8 17 9 18 10 19 11
REMARK SMILES IDX 20 12 8 13 7 14 6 15 5 16 4 17 3 18 2 19 1 20
REMARK H PARENT
REMARK Flexibility Score: inf
ROOT
ATOM      1  C   UNL     1      47.936  -4.066  74.017  1.00  0.00    -0.031 C 
ATOM      2  C   UNL     1      48.577  -2.897  73.837  1.00  0.00    -0.031 C 
ENDROOT
BRANCH   1   3
ATOM      3  C   UNL     1      47.605  -5.024  72.896  1.00  0.00     0.027 C 
BRANCH   3   4
ATOM      4  C   UNL     1      48.656  -6.137  72.755  1.00  0.00     0.004 C 
BRANCH   4   5
ATOM      5  C   UNL     1      48.086  -7.464  72.220  1.00  0.00     0.000 C 
BRANCH   5   6
ATOM      6  C   UNL     1      46.567  -7.404  72.000  1.00  0.00     0.000 C 
BRANCH   6   7
ATOM      7  C   UNL     1      45.834  -8.360  72.954  1.00  0.00     0.000 C 
BRANCH   7   8
ATOM      8  C   UNL     1      45.267  -7.642  74.190  1.00  0.00     0.006 C 
BRANCH   8   9
ATOM      9  C   UNL     1      45.724  -8.284  75.506  1.00  0.00     0.053 C 
BRANCH   9  10
ATOM     10  C   UNL     1      47.151  -7.936  75.790  1.00  0.00     0.041 C 
ATOM     11  O   UNL     1      47.463  -6.763  76.120  1.00  0.00    -0.550 OA
ATOM     12  O   UNL     1      48.141  -8.900  75.655  1.00  0.00    -0.550 OA
ENDBRANCH   9  10
ENDBRANCH   8   9
ENDBRANCH   7   8
ENDBRANCH   6   7
ENDBRANCH   5   6
ENDBRANCH   4   5
ENDBRANCH   3   4
ENDBRANCH   1   3
BRANCH   2  13
ATOM     13  C   UNL     1      49.026  -2.360  72.499  1.00  0.00     0.027 C 
BRANCH  13  14
ATOM     14  C   UNL     1      49.099  -0.828  72.507  1.00  0.00     0.004 C 
BRANCH  14  15
ATOM     15  C   UNL     1      50.373  -0.313  73.199  1.00  0.00     0.000 C 
BRANCH  15  16
ATOM     16  C   UNL     1      51.476   0.071  72.200  1.00  0.00     0.000 C 
BRANCH  16  17
ATOM     17  C   UNL     1      52.744  -0.786  72.355  1.00  0.00    -0.000 C 
BRANCH  17  18
ATOM     18  C   UNL     1      52.600  -1.868  73.436  1.00  0.00    -0.000 C 
BRANCH  18  19
ATOM     19  C   UNL     1      52.562  -3.286  72.850  1.00  0.00    -0.003 C 
ATOM     20  C   UNL     1      52.060  -4.292  73.880  1.00  0.00     0.004 C 
ENDBRANCH  18  19
ENDBRANCH  17  18
ENDBRANCH  16  17
ENDBRANCH  15  16
ENDBRANCH  14  15
ENDBRANCH  13  14
ENDBRANCH   2  13
TORSDOF 15
ENDMDL
MODEL 4
REMARK VINA RESULT:    -4.095      2.253      4.485
REMARK INTER + INTRA:         -10.065
REMARK INTER:                  -7.835
REMARK INTRA:                  -2.230
REMARK UNBOUND:                -2.380
REMARK SMILES CCCCCCCCC=CCCCCCCCC(=O)[O-]
REMARK SMILES IDX 10 1 9 2 11 3 12 4 13 5 14 6 15 7 16 8 17 9 18 10 19 11
REMARK SMILES IDX 20 12 8 13 7 14 6 15 5 16 4 17 3 18 2 19 1 20
REMARK H PARENT
REMARK Flexibility Score: inf
ROOT
ATOM      1  C   UNL     1      53.052  -1.010  72.617  1.00  0.00    -0.031 C 
ATOM      2  C   UNL     1      51.972  -0.304  72.235  1.00  0.00    -0.031 C 
ENDROOT
BRANCH   1   3
ATOM      3  C   UNL     1      53.029  -2.060  73.703  1.00  0.00     0.027 C 
BRANCH   3   4
ATOM      4  C   UNL     1      53.295  -3.471  73.153  1.00  0.00     0.004 C 
BRANCH   4   5
ATOM      5  C   UNL     1      52.891  -4.600  74.121  1.00  0.00     0.000 C 
BRANCH   5   6
ATOM      6  C   UNL     1      53.960  -4.864  75.192  1.00  0.00     0.000 C 
BRANCH   6   7
ATOM      7  C   UNL     1      55.371  -4.811  74.586  1.00  0.00     0.000 C 
BRANCH   7   8
ATOM      8  C   UNL     1      56.128  -6.142  74.729  1.00  0.00     0.006 C 
BRANCH   8   9
ATOM      9  C   UNL     1      56.223  -6.911  73.406  1.00  0.00     0.053 C 
BRANCH   9  10
ATOM     10  C   UNL     1      55.472  -8.201  73.497  1.00  0.00     0.041 C 
ATOM     11  O   UNL     1      54.233  -8.198  73.720  1.00  0.00    -0.550 OA
ATOM     12  O   UNL     1      56.145  -9.409  73.369  1.00  0.00    -0.550 OA
ENDBRANCH   9  10
ENDBRANCH   8   9
ENDBRANCH   7   8
ENDBRANCH   6   7
ENDBRANCH   5   6
ENDBRANCH   4   5
ENDBRANCH   3   4
ENDBRANCH   1   3
BRANCH   2  13
ATOM     13  C   UNL     1      50.600  -0.431  72.854  1.00  0.00     0.027 C 
BRANCH  13  14
ATOM     14  C   UNL     1      49.662  -1.260  71.968  1.00  0.00     0.004 C 
BRANCH  14  15
ATOM     15  C   UNL     1      49.792  -2.769  72.240  1.00  0.00     0.000 C 
BRANCH  15  16
ATOM     16  C   UNL     1      48.507  -3.379  72.823  1.00  0.00     0.000 C 
BRANCH  16  17
ATOM     17  C   UNL     1      48.365  -3.135  74.335  1.00  0.00    -0.000 C 
BRANCH  17  18
ATOM     18  C   UNL     1      49.702  -3.253  75.083  1.00  0.00    -0.000 C 
BRANCH  18  19
ATOM     19  C   UNL     1      49.838  -2.224  76.214  1.00  0.00    -0.003 C 
ATOM     20  C   UNL     1      50.956  -2.611  77.177  1.00  0.00     0.004 C 
ENDBRANCH  18  19
ENDBRANCH  17  18
ENDBRANCH  16  17
ENDBRANCH  15  16
ENDBRANCH  14  15
ENDBRANCH  13  14
ENDBRANCH   2  13
TORSDOF 15
ENDMDL
MODEL 5
REMARK VINA RESULT:    -4.055      3.049      6.185
REMARK INTER + INTRA:          -9.990
REMARK INTER:                  -8.046
REMARK INTRA:                  -1.944
REMARK UNBOUND:                -2.380
REMARK SMILES CCCCCCCCC=CCCCCCCCC(=O)[O-]
REMARK SMILES IDX 10 1 9 2 11 3 12 4 13 5 14 6 15 7 16 8 17 9 18 10 19 11
REMARK SMILES IDX 20 12 8 13 7 14 6 15 5 16 4 17 3 18 2 19 1 20
REMARK H PARENT
REMARK Flexibility Score: inf
ROOT
ATOM      1  C   UNL     1      51.705  -2.737  75.181  1.00  0.00    -0.031 C 
ATOM      2  C   UNL     1      52.643  -2.363  74.292  1.00  0.00    -0.031 C 
ENDROOT
BRANCH   1   3
ATOM      3  C   UNL     1      50.289  -3.103  74.802  1.00  0.00     0.027 C 
BRANCH   3   4
ATOM      4  C   UNL     1      50.201  -4.500  74.165  1.00  0.00     0.004 C 
BRANCH   4   5
ATOM      5  C   UNL     1      49.408  -4.531  72.845  1.00  0.00     0.000 C 
BRANCH   5   6
ATOM      6  C   UNL     1      47.962  -4.040  73.017  1.00  0.00     0.000 C 
BRANCH   6   7
ATOM      7  C   UNL     1      47.012  -5.215  73.299  1.00  0.00     0.000 C 
BRANCH   7   8
ATOM      8  C   UNL     1      47.162  -6.355  72.278  1.00  0.00     0.006 C 
BRANCH   8   9
ATOM      9  C   UNL     1      46.287  -7.568  72.615  1.00  0.00     0.053 C 
BRANCH   9  10
ATOM     10  C   UNL     1      46.460  -8.640  71.587  1.00  0.00     0.041 C 
ATOM     11  O   UNL     1      45.977  -8.494  70.434  1.00  0.00    -0.550 OA
ATOM     12  O   UNL     1      47.124  -9.815  71.912  1.00  0.00    -0.550 OA
ENDBRANCH   9  10
ENDBRANCH   8   9
ENDBRANCH   7   8
ENDBRANCH   6   7
ENDBRANCH   5   6
ENDBRANCH   4   5
ENDBRANCH   3   4
ENDBRANCH   1   3
BRANCH   2  13
ATOM     13  C   UNL     1      52.412  -2.221  72.807  1.00  0.00     0.027 C 
BRANCH  13  14
ATOM     14  C   UNL     1      52.578  -0.766  72.351  1.00  0.00     0.004 C 
BRANCH  14  15
ATOM     15  C   UNL     1      51.233  -0.023  72.287  1.00  0.00     0.000 C 
BRANCH  15  16
ATOM     16  C   UNL     1      50.074  -0.930  71.845  1.00  0.00     0.000 C 
BRANCH  16  17
ATOM     17  C   UNL     1      48.728  -0.521  72.466  1.00  0.00    -0.000 C 
BRANCH  17  18
ATOM     18  C   UNL     1      48.892   0.216  73.804  1.00  0.00    -0.000 C 
BRANCH  18  19
ATOM     19  C   UNL     1      48.171   1.571  73.823  1.00  0.00    -0.003 C 
ATOM     20  C   UNL     1      46.871   1.490  74.616  1.00  0.00     0.004 C 
ENDBRANCH  18  19
ENDBRANCH  17  18
ENDBRANCH  16  17
ENDBRANCH  15  16
ENDBRANCH  14  15
ENDBRANCH  13  14
ENDBRANCH   2  13
TORSDOF 15
ENDMDL
MODEL 6
REMARK VINA RESULT:    -4.039      3.049      6.076
REMARK INTER + INTRA:          -9.961
REMARK INTER:                  -7.615
REMARK INTRA:                  -2.346
REMARK UNBOUND:                -2.380
REMARK SMILES CCCCCCCCC=CCCCCCCCC(=O)[O-]
REMARK SMILES IDX 10 1 9 2 11 3 12 4 13 5 14 6 15 7 16 8 17 9 18 10 19 11
REMARK SMILES IDX 20 12 8 13 7 14 6 15 5 16 4 17 3 18 2 19 1 20
REMARK H PARENT
REMARK Flexibility Score: inf
ROOT
ATOM      1  C   UNL     1      50.023  -3.262  75.897  1.00  0.00    -0.031 C 
ATOM      2  C   UNL     1      49.750  -1.960  75.691  1.00  0.00    -0.031 C 
ENDROOT
BRANCH   1   3
ATOM      3  C   UNL     1      49.237  -4.392  75.275  1.00  0.00     0.027 C 
BRANCH   3   4
ATOM      4  C   UNL     1      49.891  -4.915  73.986  1.00  0.00     0.004 C 
BRANCH   4   5
ATOM      5  C   UNL     1      49.006  -4.761  72.735  1.00  0.00     0.000 C 
BRANCH   5   6
ATOM      6  C   UNL     1      47.535  -4.489  73.086  1.00  0.00     0.000 C 
BRANCH   6   7
ATOM      7  C   UNL     1      46.716  -5.790  73.068  1.00  0.00     0.000 C 
BRANCH   7   8
ATOM      8  C   UNL     1      47.470  -6.955  72.406  1.00  0.00     0.006 C 
BRANCH   8   9
ATOM      9  C   UNL     1      46.611  -7.708  71.384  1.00  0.00     0.053 C 
BRANCH   9  10
ATOM     10  C   UNL     1      46.173  -9.026  71.939  1.00  0.00     0.041 C 
ATOM     11  O   UNL     1      45.396  -9.069  72.928  1.00  0.00    -0.550 OA
ATOM     12  O   UNL     1      46.649 -10.207  71.387  1.00  0.00    -0.550 OA
ENDBRANCH   9  10
ENDBRANCH   8   9
ENDBRANCH   7   8
ENDBRANCH   6   7
ENDBRANCH   5   6
ENDBRANCH   4   5
ENDBRANCH   3   4
ENDBRANCH   1   3
BRANCH   2  13
ATOM     13  C   UNL     1      48.610  -1.444  74.847  1.00  0.00     0.027 C 
BRANCH  13  14
ATOM     14  C   UNL     1      49.092  -0.393  73.839  1.00  0.00     0.004 C 
BRANCH  14  15
ATOM     15  C   UNL     1      49.981  -1.007  72.744  1.00  0.00     0.000 C 
BRANCH  15  16
ATOM     16  C   UNL     1      51.123  -0.072  72.314  1.00  0.00     0.000 C 
BRANCH  16  17
ATOM     17  C   UNL     1      52.493  -0.772  72.304  1.00  0.00    -0.000 C 
BRANCH  17  18
ATOM     18  C   UNL     1      52.619  -1.845  73.396  1.00  0.00    -0.000 C 
BRANCH  18  19
ATOM     19  C   UNL     1      53.011  -3.218  72.831  1.00  0.00    -0.003 C 
ATOM     20  C   UNL     1      53.506  -4.145  73.937  1.00  0.00     0.004 C 
ENDBRANCH  18  19
ENDBRANCH  17  18
ENDBRANCH  16  17
ENDBRANCH  15  16
ENDBRANCH  14  15
ENDBRANCH  13  14
ENDBRANCH   2  13
TORSDOF 15
ENDMDL
MODEL 7
REMARK VINA RESULT:    -4.025      1.328      3.878
REMARK INTER + INTRA:          -9.934
REMARK INTER:                  -6.848
REMARK INTRA:                  -3.086
REMARK UNBOUND:                -2.380
REMARK SMILES CCCCCCCCC=CCCCCCCCC(=O)[O-]
REMARK SMILES IDX 10 1 9 2 11 3 12 4 13 5 14 6 15 7 16 8 17 9 18 10 19 11
REMARK SMILES IDX 20 12 8 13 7 14 6 15 5 16 4 17 3 18 2 19 1 20
REMARK H PARENT
REMARK Flexibility Score: inf
ROOT
ATOM      1  C   UNL     1      47.207  -4.586  73.754  1.00  0.00    -0.031 C 
ATOM      2  C   UNL     1      47.503  -5.158  74.935  1.00  0.00    -0.031 C 
ENDROOT
BRANCH   1   3
ATOM      3  C   UNL     1      48.228  -4.308  72.676  1.00  0.00     0.027 C 
BRANCH   3   4
ATOM      4  C   UNL     1      48.709  -2.848  72.693  1.00  0.00     0.004 C 
BRANCH   4   5
ATOM      5  C   UNL     1      50.159  -2.666  72.206  1.00  0.00     0.000 C 
BRANCH   5   6
ATOM      6  C   UNL     1      50.686  -1.244  72.449  1.00  0.00     0.000 C 
BRANCH   6   7
ATOM      7  C   UNL     1      52.180  -1.265  72.810  1.00  0.00     0.000 C 
BRANCH   7   8
ATOM      8  C   UNL     1      52.739  -2.692  72.929  1.00  0.00     0.006 C 
BRANCH   8   9
ATOM      9  C   UNL     1      53.601  -2.886  74.183  1.00  0.00     0.053 C 
BRANCH   9  10
ATOM     10  C   UNL     1      54.118  -4.287  74.251  1.00  0.00     0.041 C 
ATOM     11  O   UNL     1      53.315  -5.256  74.286  1.00  0.00    -0.550 OA
ATOM     12  O   UNL     1      55.484  -4.523  74.311  1.00  0.00    -0.550 OA
ENDBRANCH   9  10
ENDBRANCH   8   9
ENDBRANCH   7   8
ENDBRANCH   6   7
ENDBRANCH   5   6
ENDBRANCH   4   5
ENDBRANCH   3   4
ENDBRANCH   1   3
BRANCH   2  13
ATOM     13  C   UNL     1      48.890  -5.569  75.367  1.00  0.00     0.027 C 
BRANCH  13  14
ATOM     14  C   UNL     1      49.441  -4.630  76.447  1.00  0.00     0.004 C 
BRANCH  14  15
ATOM     15  C   UNL     1      50.466  -3.633  75.880  1.00  0.00     0.000 C 
BRANCH  15  16
ATOM     16  C   UNL     1      50.016  -2.171  76.028  1.00  0.00     0.000 C 
BRANCH  16  17
ATOM     17  C   UNL     1      48.573  -2.042  76.547  1.00  0.00    -0.000 C 
BRANCH  17  18
ATOM     18  C   UNL     1      47.748  -1.014  75.757  1.00  0.00    -0.000 C 
BRANCH  18  19
ATOM     19  C   UNL     1      48.614   0.106  75.163  1.00  0.00    -0.003 C 
ATOM     20  C   UNL     1      47.982   0.676  73.897  1.00  0.00     0.004 C 
ENDBRANCH  18  19
ENDBRANCH  17  18
ENDBRANCH  16  17
ENDBRANCH  15  16
ENDBRANCH  14  15
ENDBRANCH  13  14
ENDBRANCH   2  13
TORSDOF 15
ENDMDL
MODEL 8
REMARK VINA RESULT:    -4.023      2.501      4.293
REMARK INTER + INTRA:          -9.931
REMARK INTER:                  -7.165
REMARK INTRA:                  -2.766
REMARK UNBOUND:                -2.380
REMARK SMILES CCCCCCCCC=CCCCCCCCC(=O)[O-]
REMARK SMILES IDX 10 1 9 2 11 3 12 4 13 5 14 6 15 7 16 8 17 9 18 10 19 11
REMARK SMILES IDX 20 12 8 13 7 14 6 15 5 16 4 17 3 18 2 19 1 20
REMARK H PARENT
REMARK Flexibility Score: inf
ROOT
ATOM      1  C   UNL     1      52.967  -1.055  72.464  1.00  0.00    -0.031 C 
ATOM      2  C   UNL     1      51.881  -0.288  72.260  1.00  0.00    -0.031 C 
ENDROOT
BRANCH   1   3
ATOM      3  C   UNL     1      53.130  -1.985  73.643  1.00  0.00     0.027 C 
BRANCH   3   4
ATOM      4  C   UNL     1      53.127  -3.463  73.222  1.00  0.00     0.004 C 
BRANCH   4   5
ATOM      5  C   UNL     1      52.230  -4.357  74.100  1.00  0.00     0.000 C 
BRANCH   5   6
ATOM      6  C   UNL     1      51.623  -3.593  75.287  1.00  0.00     0.000 C 
BRANCH   6   7
ATOM      7  C   UNL     1      50.499  -4.408  75.947  1.00  0.00     0.000 C 
BRANCH   7   8
ATOM      8  C   UNL     1      49.332  -3.527  76.424  1.00  0.00     0.006 C 
BRANCH   8   9
ATOM      9  C   UNL     1      49.581  -2.034  76.177  1.00  0.00     0.053 C 
BRANCH   9  10
ATOM     10  C   UNL     1      48.619  -1.206  76.969  1.00  0.00     0.041 C 
ATOM     11  O   UNL     1      48.613   0.047  76.847  1.00  0.00    -0.550 OA
ATOM     12  O   UNL     1      47.754  -1.814  77.868  1.00  0.00    -0.550 OA
ENDBRANCH   9  10
ENDBRANCH   8   9
ENDBRANCH   7   8
ENDBRANCH   6   7
ENDBRANCH   5   6
ENDBRANCH   4   5
ENDBRANCH   3   4
ENDBRANCH   1   3
BRANCH   2  13
ATOM     13  C   UNL     1      50.692  -0.218  73.188  1.00  0.00     0.027 C 
BRANCH  13  14
ATOM     14  C   UNL     1      49.452  -0.865  72.559  1.00  0.00     0.004 C 
BRANCH  14  15
ATOM     15  C   UNL     1      49.687  -2.345  72.209  1.00  0.00     0.000 C 
BRANCH  15  16
ATOM     16  C   UNL     1      48.625  -3.274  72.819  1.00  0.00     0.000 C 
BRANCH  16  17
ATOM     17  C   UNL     1      48.904  -4.761  72.539  1.00  0.00    -0.000 C 
BRANCH  17  18
ATOM     18  C   UNL     1      48.081  -5.698  73.436  1.00  0.00    -0.000 C 
BRANCH  18  19
ATOM     19  C   UNL     1      46.782  -6.166  72.766  1.00  0.00    -0.003 C 
ATOM     20  C   UNL     1      45.572  -5.871  73.648  1.00  0.00     0.004 C 
ENDBRANCH  18  19
ENDBRANCH  17  18
ENDBRANCH  16  17
ENDBRANCH  15  16
ENDBRANCH  14  15
ENDBRANCH  13  14
ENDBRANCH   2  13
TORSDOF 15
ENDMDL
MODEL 9
REMARK VINA RESULT:    -3.970      2.648      5.282
REMARK INTER + INTRA:          -9.830
REMARK INTER:                  -7.381
REMARK INTRA:                  -2.450
REMARK UNBOUND:                -2.380
REMARK SMILES CCCCCCCCC=CCCCCCCCC(=O)[O-]
REMARK SMILES IDX 10 1 9 2 11 3 12 4 13 5 14 6 15 7 16 8 17 9 18 10 19 11
REMARK SMILES IDX 20 12 8 13 7 14 6 15 5 16 4 17 3 18 2 19 1 20
REMARK H PARENT
REMARK Flexibility Score: inf
ROOT
ATOM      1  C   UNL     1      51.372  -0.100  72.242  1.00  0.00    -0.031 C 
ATOM      2  C   UNL     1      52.623  -0.592  72.226  1.00  0.00    -0.031 C 
ENDROOT
BRANCH   1   3
ATOM      3  C   UNL     1      50.341  -0.459  73.287  1.00  0.00     0.027 C 
BRANCH   3   4
ATOM      4  C   UNL     1      49.099  -1.126  72.672  1.00  0.00     0.004 C 
BRANCH   4   5
ATOM      5  C   UNL     1      49.171  -2.665  72.645  1.00  0.00     0.000 C 
BRANCH   5   6
ATOM      6  C   UNL     1      48.280  -3.313  73.716  1.00  0.00     0.000 C 
BRANCH   6   7
ATOM      7  C   UNL     1      48.305  -4.845  73.597  1.00  0.00     0.000 C 
BRANCH   7   8
ATOM      8  C   UNL     1      47.199  -5.385  72.676  1.00  0.00     0.006 C 
BRANCH   8   9
ATOM      9  C   UNL     1      45.999  -5.938  73.456  1.00  0.00     0.053 C 
BRANCH   9  10
ATOM     10  C   UNL     1      46.290  -7.318  73.952  1.00  0.00     0.041 C 
ATOM     11  O   UNL     1      46.017  -7.635  75.140  1.00  0.00    -0.550 OA
ATOM     12  O   UNL     1      46.896  -8.246  73.115  1.00  0.00    -0.550 OA
ENDBRANCH   9  10
ENDBRANCH   8   9
ENDBRANCH   7   8
ENDBRANCH   6   7
ENDBRANCH   5   6
ENDBRANCH   4   5
ENDBRANCH   3   4
ENDBRANCH   1   3
BRANCH   2  13
ATOM     13  C   UNL     1      53.166  -1.593  73.218  1.00  0.00     0.027 C 
BRANCH  13  14
ATOM     14  C   UNL     1      53.149  -3.015  72.644  1.00  0.00     0.004 C 
BRANCH  14  15
ATOM     15  C   UNL     1      53.245  -4.085  73.745  1.00  0.00     0.000 C 
BRANCH  15  16
ATOM     16  C   UNL     1      51.871  -4.478  74.312  1.00  0.00     0.000 C 
BRANCH  16  17
ATOM     17  C   UNL     1      51.729  -4.148  75.808  1.00  0.00    -0.000 C 
BRANCH  17  18
ATOM     18  C   UNL     1      51.232  -2.715  76.054  1.00  0.00    -0.000 C 
BRANCH  18  19
ATOM     19  C   UNL     1      49.958  -2.672  76.910  1.00  0.00    -0.003 C 
ATOM     20  C   UNL     1      49.458  -4.079  77.222  1.00  0.00     0.004 C 
ENDBRANCH  18  19
ENDBRANCH  17  18
ENDBRANCH  16  17
ENDBRANCH  15  16
ENDBRANCH  14  15
ENDBRANCH  13  14
ENDBRANCH   2  13
TORSDOF 15
ENDMDL
