MODEL 1
REMARK VINA RESULT:    -5.251      0.000      0.000
REMARK INTER + INTRA:          -6.304
REMARK INTER:                  -6.172
REMARK INTRA:                  -0.133
REMARK UNBOUND:                -0.133
REMARK SMILES O=C([O-])C=Cc1ccc(O)c(O)c1
REMARK SMILES IDX 6 1 13 2 7 3 11 4 8 5 9 6 5 7 4 8 2 9 1 10 3 11 12 12 10 14
REMARK H PARENT 12 13 10 15
REMARK Flexibility Score: inf
ROOT
ATOM      1  C   UNL     1      20.223  -0.680 -19.765  1.00  0.00    -0.022 A 
ATOM      2  C   UNL     1      20.693   0.641 -19.672  1.00  0.00     0.058 A 
ATOM      3  C   UNL     1      20.455  -1.403 -20.952  1.00  0.00     0.012 A 
ATOM      4  C   UNL     1      21.359   1.242 -20.747  1.00  0.00     0.157 A 
ATOM      5  C   UNL     1      21.120  -0.805 -22.025  1.00  0.00     0.051 A 
ATOM      6  C   UNL     1      21.571   0.519 -21.931  1.00  0.00     0.157 A 
ENDROOT
BRANCH   1   7
ATOM      7  C   UNL     1      19.532  -1.271 -18.592  1.00  0.00     0.010 C 
ATOM      8  C   UNL     1      18.873  -0.549 -17.674  1.00  0.00     0.025 C 
BRANCH   8   9
ATOM      9  C   UNL     1      18.208  -1.171 -16.516  1.00  0.00     0.064 C 
ATOM     10  O   UNL     1      17.618  -0.472 -15.648  1.00  0.00    -0.545 OA
ATOM     11  O   UNL     1      18.235  -2.552 -16.375  1.00  0.00    -0.545 OA
ENDBRANCH   8   9
ENDBRANCH   1   7
BRANCH   4  12
ATOM     12  O   UNL     1      21.801   2.558 -20.618  1.00  0.00    -0.504 OA
ATOM     13  H   UNL     1      21.173   3.315 -20.374  1.00  0.00     0.293 HD
ENDBRANCH   4  12
BRANCH   6  14
ATOM     14  O   UNL     1      22.232   1.111 -23.005  1.00  0.00    -0.504 OA
ATOM     15  H   UNL     1      23.025   1.727 -22.866  1.00  0.00     0.293 HD
ENDBRANCH   6  14
TORSDOF 4
ENDMDL
MODEL 2
REMARK VINA RESULT:    -5.080     13.942     17.348
REMARK INTER + INTRA:          -6.104
REMARK INTER:                  -5.971
REMARK INTRA:                  -0.132
REMARK UNBOUND:                -0.133
REMARK SMILES O=C([O-])C=Cc1ccc(O)c(O)c1
REMARK SMILES IDX 6 1 13 2 7 3 11 4 8 5 9 6 5 7 4 8 2 9 1 10 3 11 12 12 10 14
REMARK H PARENT 12 13 10 15
REMARK Flexibility Score: inf
ROOT
ATOM      1  C   UNL     1       9.537  -7.023  -8.232  1.00  0.00    -0.022 A 
ATOM      2  C   UNL     1      10.255  -6.158  -7.388  1.00  0.00     0.058 A 
ATOM      3  C   UNL     1       8.156  -7.194  -8.013  1.00  0.00     0.012 A 
ATOM      4  C   UNL     1       9.618  -5.494  -6.333  1.00  0.00     0.157 A 
ATOM      5  C   UNL     1       7.519  -6.532  -6.961  1.00  0.00     0.051 A 
ATOM      6  C   UNL     1       8.245  -5.684  -6.114  1.00  0.00     0.157 A 
ENDROOT
BRANCH   1   7
ATOM      7  C   UNL     1      10.259  -7.693  -9.342  1.00  0.00     0.010 C 
ATOM      8  C   UNL     1      11.278  -7.134 -10.012  1.00  0.00     0.025 C 
BRANCH   8   9
ATOM      9  C   UNL     1      11.964  -7.826 -11.117  1.00  0.00     0.064 C 
ATOM     10  O   UNL     1      11.450  -8.831 -11.677  1.00  0.00    -0.545 OA
ATOM     11  O   UNL     1      13.201  -7.364 -11.546  1.00  0.00    -0.545 OA
ENDBRANCH   8   9
ENDBRANCH   1   7
BRANCH   4  12
ATOM     12  O   UNL     1      10.369  -4.652  -5.513  1.00  0.00    -0.504 OA
ATOM     13  H   UNL     1      11.233  -4.227  -5.826  1.00  0.00     0.293 HD
ENDBRANCH   4  12
BRANCH   6  14
ATOM     14  O   UNL     1       7.606  -5.027  -5.065  1.00  0.00    -0.504 OA
ATOM     15  H   UNL     1       7.767  -4.045  -4.876  1.00  0.00     0.293 HD
ENDBRANCH   6  14
TORSDOF 4
ENDMDL
MODEL 3
REMARK VINA RESULT:    -5.059      0.809      1.873
REMARK INTER + INTRA:          -6.079
REMARK INTER:                  -5.941
REMARK INTRA:                  -0.138
REMARK UNBOUND:                -0.133
REMARK SMILES O=C([O-])C=Cc1ccc(O)c(O)c1
REMARK SMILES IDX 6 1 13 2 7 3 11 4 8 5 9 6 5 7 4 8 2 9 1 10 3 11 12 12 10 14
REMARK H PARENT 12 13 10 15
REMARK Flexibility Score: inf
ROOT
ATOM      1  C   UNL     1      20.262  -0.618 -19.509  1.00  0.00    -0.022 A 
ATOM      2  C   UNL     1      20.240  -1.217 -20.780  1.00  0.00     0.058 A 
ATOM      3  C   UNL     1      20.926   0.614 -19.349  1.00  0.00     0.012 A 
ATOM      4  C   UNL     1      20.887  -0.617 -21.867  1.00  0.00     0.157 A 
ATOM      5  C   UNL     1      21.571   1.215 -20.433  1.00  0.00     0.051 A 
ATOM      6  C   UNL     1      21.559   0.603 -21.694  1.00  0.00     0.157 A 
ENDROOT
BRANCH   1   7
ATOM      7  C   UNL     1      19.552  -1.294 -18.394  1.00  0.00     0.010 C 
ATOM      8  C   UNL     1      18.815  -0.646 -17.480  1.00  0.00     0.025 C 
BRANCH   8   9
ATOM      9  C   UNL     1      18.133  -1.349 -16.380  1.00  0.00     0.064 C 
ATOM     10  O   UNL     1      17.543  -0.715 -15.465  1.00  0.00    -0.545 OA
ATOM     11  O   UNL     1      18.143  -2.738 -16.350  1.00  0.00    -0.545 OA
ENDBRANCH   8   9
ENDBRANCH   1   7
BRANCH   4  12
ATOM     12  O   UNL     1      20.850  -1.249 -23.109  1.00  0.00    -0.504 OA
ATOM     13  H   UNL     1      19.979  -1.490 -23.565  1.00  0.00     0.293 HD
ENDBRANCH   4  12
BRANCH   6  14
ATOM     14  O   UNL     1      22.205   1.206 -22.771  1.00  0.00    -0.504 OA
ATOM     15  H   UNL     1      23.082   0.848 -23.132  1.00  0.00     0.293 HD
ENDBRANCH   6  14
TORSDOF 4
ENDMDL
MODEL 4
REMARK VINA RESULT:    -5.025      1.174      5.707
REMARK INTER + INTRA:          -6.039
REMARK INTER:                  -5.905
REMARK INTRA:                  -0.134
REMARK UNBOUND:                -0.133
REMARK SMILES O=C([O-])C=Cc1ccc(O)c(O)c1
REMARK SMILES IDX 6 1 13 2 7 3 11 4 8 5 9 6 5 7 4 8 2 9 1 10 3 11 12 12 10 14
REMARK H PARENT 12 13 10 15
REMARK Flexibility Score: inf
ROOT
ATOM      1  C   UNL     1      19.958  -1.167 -19.676  1.00  0.00    -0.022 A 
ATOM      2  C   UNL     1      19.701  -0.111 -18.785  1.00  0.00     0.058 A 
ATOM      3  C   UNL     1      19.518  -2.462 -19.340  1.00  0.00     0.012 A 
ATOM      4  C   UNL     1      19.042  -0.341 -17.572  1.00  0.00     0.157 A 
ATOM      5  C   UNL     1      18.859  -2.694 -18.130  1.00  0.00     0.051 A 
ATOM      6  C   UNL     1      18.621  -1.638 -17.240  1.00  0.00     0.157 A 
ENDROOT
BRANCH   1   7
ATOM      7  C   UNL     1      20.652  -0.865 -20.953  1.00  0.00     0.010 C 
ATOM      8  C   UNL     1      21.304   0.283 -21.193  1.00  0.00     0.025 C 
BRANCH   8   9
ATOM      9  C   UNL     1      21.972   0.551 -22.478  1.00  0.00     0.064 C 
ATOM     10  O   UNL     1      22.541  -0.369 -23.124  1.00  0.00    -0.545 OA
ATOM     11  O   UNL     1      21.978   1.844 -22.985  1.00  0.00    -0.545 OA
ENDBRANCH   8   9
ENDBRANCH   1   7
BRANCH   4  12
ATOM     12  O   UNL     1      18.815   0.732 -16.711  1.00  0.00    -0.504 OA
ATOM     13  H   UNL     1      18.903   1.694 -17.016  1.00  0.00     0.293 HD
ENDBRANCH   4  12
BRANCH   6  14
ATOM     14  O   UNL     1      17.965  -1.874 -16.033  1.00  0.00    -0.504 OA
ATOM     15  H   UNL     1      17.032  -2.268 -16.004  1.00  0.00     0.293 HD
ENDBRANCH   6  14
TORSDOF 4
ENDMDL
MODEL 5
REMARK VINA RESULT:    -4.961     14.841     16.226
REMARK INTER + INTRA:          -5.964
REMARK INTER:                  -5.837
REMARK INTRA:                  -0.127
REMARK UNBOUND:                -0.133
REMARK SMILES O=C([O-])C=Cc1ccc(O)c(O)c1
REMARK SMILES IDX 6 1 13 2 7 3 11 4 8 5 9 6 5 7 4 8 2 9 1 10 3 11 12 12 10 14
REMARK H PARENT 12 13 10 15
REMARK Flexibility Score: inf
ROOT
ATOM      1  C   UNL     1       8.686  -5.283 -10.665  1.00  0.00    -0.022 A 
ATOM      2  C   UNL     1       8.046  -5.035  -9.439  1.00  0.00     0.058 A 
ATOM      3  C   UNL     1       9.989  -5.820 -10.656  1.00  0.00     0.012 A 
ATOM      4  C   UNL     1       8.697  -5.291  -8.226  1.00  0.00     0.157 A 
ATOM      5  C   UNL     1      10.639  -6.077  -9.447  1.00  0.00     0.051 A 
ATOM      6  C   UNL     1      10.000  -5.811  -8.228  1.00  0.00     0.157 A 
ENDROOT
BRANCH   1   7
ATOM      7  C   UNL     1       7.946  -5.003 -11.921  1.00  0.00     0.010 C 
ATOM      8  C   UNL     1       7.840  -3.782 -12.466  1.00  0.00     0.025 C 
BRANCH   8   9
ATOM      9  C   UNL     1       7.087  -3.540 -13.709  1.00  0.00     0.064 C 
ATOM     10  O   UNL     1       7.143  -4.348 -14.674  1.00  0.00    -0.545 OA
ATOM     11  O   UNL     1       6.304  -2.398 -13.820  1.00  0.00    -0.545 OA
ENDBRANCH   8   9
ENDBRANCH   1   7
BRANCH   4  12
ATOM     12  O   UNL     1       8.031  -5.022  -7.031  1.00  0.00    -0.504 OA
ATOM     13  H   UNL     1       8.211  -5.547  -6.185  1.00  0.00     0.293 HD
ENDBRANCH   4  12
BRANCH   6  14
ATOM     14  O   UNL     1      10.655  -6.068  -7.025  1.00  0.00    -0.504 OA
ATOM     15  H   UNL     1      11.307  -6.836  -6.928  1.00  0.00     0.293 HD
ENDBRANCH   6  14
TORSDOF 4
ENDMDL
MODEL 6
REMARK VINA RESULT:    -4.891     14.761     16.066
REMARK INTER + INTRA:          -5.881
REMARK INTER:                  -5.751
REMARK INTRA:                  -0.130
REMARK UNBOUND:                -0.133
REMARK SMILES O=C([O-])C=Cc1ccc(O)c(O)c1
REMARK SMILES IDX 6 1 13 2 7 3 11 4 8 5 9 6 5 7 4 8 2 9 1 10 3 11 12 12 10 14
REMARK H PARENT 12 13 10 15
REMARK Flexibility Score: inf
ROOT
ATOM      1  C   UNL     1       8.670  -5.283 -10.470  1.00  0.00    -0.022 A 
ATOM      2  C   UNL     1      10.044  -5.549 -10.335  1.00  0.00     0.058 A 
ATOM      3  C   UNL     1       7.866  -5.258  -9.314  1.00  0.00     0.012 A 
ATOM      4  C   UNL     1      10.604  -5.810  -9.080  1.00  0.00     0.157 A 
ATOM      5  C   UNL     1       8.423  -5.518  -8.059  1.00  0.00     0.051 A 
ATOM      6  C   UNL     1       9.791  -5.798  -7.936  1.00  0.00     0.157 A 
ENDROOT
BRANCH   1   7
ATOM      7  C   UNL     1       8.131  -5.002 -11.824  1.00  0.00     0.010 C 
ATOM      8  C   UNL     1       7.716  -3.791 -12.225  1.00  0.00     0.025 C 
BRANCH   8   9
ATOM      9  C   UNL     1       7.176  -3.554 -13.574  1.00  0.00     0.064 C 
ATOM     10  O   UNL     1       6.761  -2.416 -13.921  1.00  0.00    -0.545 OA
ATOM     11  O   UNL     1       7.120  -4.605 -14.480  1.00  0.00    -0.545 OA
ENDBRANCH   8   9
ENDBRANCH   1   7
BRANCH   4  12
ATOM     12  O   UNL     1      11.969  -6.079  -8.990  1.00  0.00    -0.504 OA
ATOM     13  H   UNL     1      12.497  -6.448  -9.772  1.00  0.00     0.293 HD
ENDBRANCH   4  12
BRANCH   6  14
ATOM     14  O   UNL     1      10.341  -6.059  -6.682  1.00  0.00    -0.504 OA
ATOM     15  H   UNL     1      10.181  -5.444  -5.893  1.00  0.00     0.293 HD
ENDBRANCH   6  14
TORSDOF 4
ENDMDL
MODEL 7
REMARK VINA RESULT:    -4.787      1.462      1.907
REMARK INTER + INTRA:          -5.759
REMARK INTER:                  -5.631
REMARK INTRA:                  -0.128
REMARK UNBOUND:                -0.133
REMARK SMILES O=C([O-])C=Cc1ccc(O)c(O)c1
REMARK SMILES IDX 6 1 13 2 7 3 11 4 8 5 9 6 5 7 4 8 2 9 1 10 3 11 12 12 10 14
REMARK H PARENT 12 13 10 15
REMARK Flexibility Score: inf
ROOT
ATOM      1  C   UNL     1      19.292  -1.163 -18.430  1.00  0.00    -0.022 A 
ATOM      2  C   UNL     1      20.450  -0.443 -18.092  1.00  0.00     0.058 A 
ATOM      3  C   UNL     1      18.880  -1.194 -19.777  1.00  0.00     0.012 A 
ATOM      4  C   UNL     1      21.171   0.255 -19.068  1.00  0.00     0.157 A 
ATOM      5  C   UNL     1      19.599  -0.499 -20.752  1.00  0.00     0.051 A 
ATOM      6  C   UNL     1      20.744   0.231 -20.404  1.00  0.00     0.157 A 
ENDROOT
BRANCH   1   7
ATOM      7  C   UNL     1      18.572  -1.893 -17.357  1.00  0.00     0.010 C 
ATOM      8  C   UNL     1      18.190  -1.331 -16.201  1.00  0.00     0.025 C 
BRANCH   8   9
ATOM      9  C   UNL     1      17.486  -2.090 -15.154  1.00  0.00     0.064 C 
ATOM     10  O   UNL     1      16.561  -1.567 -14.477  1.00  0.00    -0.545 OA
ATOM     11  O   UNL     1      17.851  -3.407 -14.905  1.00  0.00    -0.545 OA
ENDBRANCH   8   9
ENDBRANCH   1   7
BRANCH   4  12
ATOM     12  O   UNL     1      22.309   0.966 -18.688  1.00  0.00    -0.504 OA
ATOM     13  H   UNL     1      23.232   0.726 -19.029  1.00  0.00     0.293 HD
ENDBRANCH   4  12
BRANCH   6  14
ATOM     14  O   UNL     1      21.456   0.924 -21.380  1.00  0.00    -0.504 OA
ATOM     15  H   UNL     1      21.483   1.936 -21.400  1.00  0.00     0.293 HD
ENDBRANCH   6  14
TORSDOF 4
ENDMDL
MODEL 8
REMARK VINA RESULT:    -4.715     15.173     18.787
REMARK INTER + INTRA:          -5.675
REMARK INTER:                  -5.546
REMARK INTRA:                  -0.129
REMARK UNBOUND:                -0.133
REMARK SMILES O=C([O-])C=Cc1ccc(O)c(O)c1
REMARK SMILES IDX 6 1 13 2 7 3 11 4 8 5 9 6 5 7 4 8 2 9 1 10 3 11 12 12 10 14
REMARK H PARENT 12 13 10 15
REMARK Flexibility Score: inf
ROOT
ATOM      1  C   UNL     1       8.393  -6.644  -7.599  1.00  0.00    -0.022 A 
ATOM      2  C   UNL     1       8.371  -5.715  -6.545  1.00  0.00     0.058 A 
ATOM      3  C   UNL     1       8.044  -7.983  -7.333  1.00  0.00     0.012 A 
ATOM      4  C   UNL     1       8.034  -6.113  -5.246  1.00  0.00     0.157 A 
ATOM      5  C   UNL     1       7.706  -8.381  -6.037  1.00  0.00     0.051 A 
ATOM      6  C   UNL     1       7.702  -7.452  -4.988  1.00  0.00     0.157 A 
ENDROOT
BRANCH   1   7
ATOM      7  C   UNL     1       8.749  -6.166  -8.958  1.00  0.00     0.010 C 
ATOM      8  C   UNL     1       8.052  -5.235  -9.626  1.00  0.00     0.025 C 
BRANCH   8   9
ATOM      9  C   UNL     1       8.429  -4.793 -10.980  1.00  0.00     0.064 C 
ATOM     10  O   UNL     1       9.619  -4.877 -11.387  1.00  0.00    -0.545 OA
ATOM     11  O   UNL     1       7.456  -4.272 -11.823  1.00  0.00    -0.545 OA
ENDBRANCH   8   9
ENDBRANCH   1   7
BRANCH   4  12
ATOM     12  O   UNL     1       8.034  -5.162  -4.226  1.00  0.00    -0.504 OA
ATOM     13  H   UNL     1       7.213  -4.613  -4.001  1.00  0.00     0.293 HD
ENDBRANCH   4  12
BRANCH   6  14
ATOM     14  O   UNL     1       7.366  -7.855  -3.697  1.00  0.00    -0.504 OA
ATOM     15  H   UNL     1       6.629  -8.528  -3.526  1.00  0.00     0.293 HD
ENDBRANCH   6  14
TORSDOF 4
ENDMDL
MODEL 9
REMARK VINA RESULT:    -4.693     15.346     16.509
REMARK INTER + INTRA:          -5.649
REMARK INTER:                  -5.510
REMARK INTRA:                  -0.139
REMARK UNBOUND:                -0.133
REMARK SMILES O=C([O-])C=Cc1ccc(O)c(O)c1
REMARK SMILES IDX 6 1 13 2 7 3 11 4 8 5 9 6 5 7 4 8 2 9 1 10 3 11 12 12 10 14
REMARK H PARENT 12 13 10 15
REMARK Flexibility Score: inf
ROOT
ATOM      1  C   UNL     1       8.391  -5.891 -10.157  1.00  0.00    -0.022 A 
ATOM      2  C   UNL     1       8.359  -6.997 -11.023  1.00  0.00     0.058 A 
ATOM      3  C   UNL     1       8.029  -4.625 -10.657  1.00  0.00     0.012 A 
ATOM      4  C   UNL     1       7.999  -6.845 -12.367  1.00  0.00     0.157 A 
ATOM      5  C   UNL     1       7.668  -4.472 -11.998  1.00  0.00     0.051 A 
ATOM      6  C   UNL     1       7.654  -5.577 -12.859  1.00  0.00     0.157 A 
ENDROOT
BRANCH   1   7
ATOM      7  C   UNL     1       8.771  -6.111  -8.739  1.00  0.00     0.010 C 
ATOM      8  C   UNL     1       8.286  -5.390  -7.717  1.00  0.00     0.025 C 
BRANCH   8   9
ATOM      9  C   UNL     1       8.695  -5.630  -6.323  1.00  0.00     0.064 C 
ATOM     10  O   UNL     1       9.820  -5.254  -5.898  1.00  0.00    -0.545 OA
ATOM     11  O   UNL     1       7.826  -6.286  -5.461  1.00  0.00    -0.545 OA
ENDBRANCH   8   9
ENDBRANCH   1   7
BRANCH   4  12
ATOM     12  O   UNL     1       7.990  -7.967 -13.196  1.00  0.00    -0.504 OA
ATOM     13  H   UNL     1       8.738  -8.649 -13.186  1.00  0.00     0.293 HD
ENDBRANCH   4  12
BRANCH   6  14
ATOM     14  O   UNL     1       7.295  -5.419 -14.197  1.00  0.00    -0.504 OA
ATOM     15  H   UNL     1       6.904  -4.551 -14.542  1.00  0.00     0.293 HD
ENDBRANCH   6  14
TORSDOF 4
ENDMDL
