MODEL 1
REMARK VINA RESULT:    -3.466      0.000      0.000
REMARK INTER + INTRA:          -4.136
REMARK INTER:                  -4.074
REMARK INTRA:                  -0.062
REMARK UNBOUND:                -0.062
REMARK SMILES O=C([O-])CCC(=O)[O-]
REMARK SMILES IDX 4 1 2 2 1 3 3 4 5 5 6 6 7 7 8 8
REMARK H PARENT
REMARK Flexibility Score: inf
ROOT
ATOM      1  C   UNL     1       3.053  29.598  32.041  1.00  0.00     0.059 C 
ENDROOT
BRANCH   1   2
ATOM      2  C   UNL     1       4.378  30.086  31.541  1.00  0.00     0.042 C 
ATOM      3  O   UNL     1       4.704  29.910  30.338  1.00  0.00    -0.550 OA
ATOM      4  O   UNL     1       5.270  30.697  32.413  1.00  0.00    -0.550 OA
ENDBRANCH   1   2
BRANCH   1   5
ATOM      5  C   UNL     1       2.280  30.706  32.764  1.00  0.00     0.059 C 
BRANCH   5   6
ATOM      6  C   UNL     1       2.474  30.638  34.248  1.00  0.00     0.042 C 
ATOM      7  O   UNL     1       2.129  31.603  34.978  1.00  0.00    -0.550 OA
ATOM      8  O   UNL     1       3.075  29.523  34.821  1.00  0.00    -0.550 OA
ENDBRANCH   5   6
ENDBRANCH   1   5
TORSDOF 3
ENDMDL
MODEL 2
REMARK VINA RESULT:    -3.459      0.066      3.762
REMARK INTER + INTRA:          -4.128
REMARK INTER:                  -4.068
REMARK INTRA:                  -0.061
REMARK UNBOUND:                -0.062
REMARK SMILES O=C([O-])CCC(=O)[O-]
REMARK SMILES IDX 4 1 2 2 1 3 3 4 5 5 6 6 7 7 8 8
REMARK H PARENT
REMARK Flexibility Score: inf
ROOT
ATOM      1  C   UNL     1       2.273  30.729  32.788  1.00  0.00     0.059 C 
ENDROOT
BRANCH   1   2
ATOM      2  C   UNL     1       2.449  30.601  34.270  1.00  0.00     0.042 C 
ATOM      3  O   UNL     1       2.043  31.513  35.037  1.00  0.00    -0.550 OA
ATOM      4  O   UNL     1       3.100  29.494  34.801  1.00  0.00    -0.550 OA
ENDBRANCH   1   2
BRANCH   1   5
ATOM      5  C   UNL     1       3.035  29.635  32.032  1.00  0.00     0.059 C 
BRANCH   5   6
ATOM      6  C   UNL     1       4.372  30.118  31.560  1.00  0.00     0.042 C 
ATOM      7  O   UNL     1       4.708  29.977  30.355  1.00  0.00    -0.550 OA
ATOM      8  O   UNL     1       5.264  30.688  32.461  1.00  0.00    -0.550 OA
ENDBRANCH   5   6
ENDBRANCH   1   5
TORSDOF 3
ENDMDL
MODEL 3
REMARK VINA RESULT:    -3.395      1.463      1.842
REMARK INTER + INTRA:          -4.052
REMARK INTER:                  -3.931
REMARK INTRA:                  -0.122
REMARK UNBOUND:                -0.062
REMARK SMILES O=C([O-])CCC(=O)[O-]
REMARK SMILES IDX 4 1 2 2 1 3 3 4 5 5 6 6 7 7 8 8
REMARK H PARENT
REMARK Flexibility Score: inf
ROOT
ATOM      1  C   UNL     1       2.872  29.898  32.201  1.00  0.00     0.059 C 
ENDROOT
BRANCH   1   2
ATOM      2  C   UNL     1       4.284  30.157  31.773  1.00  0.00     0.042 C 
ATOM      3  O   UNL     1       4.669  29.824  30.621  1.00  0.00    -0.550 OA
ATOM      4  O   UNL     1       5.187  30.730  32.661  1.00  0.00    -0.550 OA
ENDBRANCH   1   2
BRANCH   1   5
ATOM      5  C   UNL     1       2.519  30.665  33.479  1.00  0.00     0.059 C 
BRANCH   5   6
ATOM      6  C   UNL     1       1.926  32.006  33.173  1.00  0.00     0.042 C 
ATOM      7  O   UNL     1       0.798  32.089  32.620  1.00  0.00    -0.550 OA
ATOM      8  O   UNL     1       2.638  33.164  33.461  1.00  0.00    -0.550 OA
ENDBRANCH   5   6
ENDBRANCH   1   5
TORSDOF 3
ENDMDL
MODEL 4
REMARK VINA RESULT:    -3.295      2.077      3.198
REMARK INTER + INTRA:          -3.935
REMARK INTER:                  -3.755
REMARK INTRA:                  -0.180
REMARK UNBOUND:                -0.062
REMARK SMILES O=C([O-])CCC(=O)[O-]
REMARK SMILES IDX 4 1 2 2 1 3 3 4 5 5 6 6 7 7 8 8
REMARK H PARENT
REMARK Flexibility Score: inf
ROOT
ATOM      1  C   UNL     1       2.957  30.073  34.491  1.00  0.00     0.059 C 
ENDROOT
BRANCH   1   2
ATOM      2  C   UNL     1       2.533  30.276  33.069  1.00  0.00     0.042 C 
ATOM      3  O   UNL     1       1.843  31.279  32.750  1.00  0.00    -0.550 OA
ATOM      4  O   UNL     1       2.866  29.335  32.102  1.00  0.00    -0.550 OA
ENDBRANCH   1   2
BRANCH   1   5
ATOM      5  C   UNL     1       4.483  30.035  34.626  1.00  0.00     0.059 C 
BRANCH   5   6
ATOM      6  C   UNL     1       5.117  31.280  34.086  1.00  0.00     0.042 C 
ATOM      7  O   UNL     1       5.884  31.221  33.090  1.00  0.00    -0.550 OA
ATOM      8  O   UNL     1       4.892  32.502  34.710  1.00  0.00    -0.550 OA
ENDBRANCH   5   6
ENDBRANCH   1   5
TORSDOF 3
ENDMDL
MODEL 5
REMARK VINA RESULT:    -3.235      1.578      3.807
REMARK INTER + INTRA:          -3.865
REMARK INTER:                  -3.775
REMARK INTRA:                  -0.090
REMARK UNBOUND:                -0.062
REMARK SMILES O=C([O-])CCC(=O)[O-]
REMARK SMILES IDX 4 1 2 2 1 3 3 4 5 5 6 6 7 7 8 8
REMARK H PARENT
REMARK Flexibility Score: inf
ROOT
ATOM      1  C   UNL     1       4.005  31.108  33.584  1.00  0.00     0.059 C 
ENDROOT
BRANCH   1   2
ATOM      2  C   UNL     1       4.027  30.235  34.800  1.00  0.00     0.042 C 
ATOM      3  O   UNL     1       3.001  29.588  35.134  1.00  0.00    -0.550 OA
ATOM      4  O   UNL     1       5.169  30.169  35.589  1.00  0.00    -0.550 OA
ENDBRANCH   1   2
BRANCH   1   5
ATOM      5  C   UNL     1       4.999  30.623  32.523  1.00  0.00     0.059 C 
BRANCH   5   6
ATOM      6  C   UNL     1       4.299  29.986  31.360  1.00  0.00     0.042 C 
ATOM      7  O   UNL     1       3.197  29.403  31.526  1.00  0.00    -0.550 OA
ATOM      8  O   UNL     1       4.887  30.003  30.101  1.00  0.00    -0.550 OA
ENDBRANCH   5   6
ENDBRANCH   1   5
TORSDOF 3
ENDMDL
MODEL 6
REMARK VINA RESULT:    -3.175      1.503      2.052
REMARK INTER + INTRA:          -3.794
REMARK INTER:                  -3.701
REMARK INTRA:                  -0.093
REMARK UNBOUND:                -0.062
REMARK SMILES O=C([O-])CCC(=O)[O-]
REMARK SMILES IDX 4 1 2 2 1 3 3 4 5 5 6 6 7 7 8 8
REMARK H PARENT
REMARK Flexibility Score: inf
ROOT
ATOM      1  C   UNL     1       4.594  31.037  32.776  1.00  0.00     0.059 C 
ENDROOT
BRANCH   1   2
ATOM      2  C   UNL     1       4.128  30.010  31.791  1.00  0.00     0.042 C 
ATOM      3  O   UNL     1       4.870  29.667  30.833  1.00  0.00    -0.550 OA
ATOM      4  O   UNL     1       2.857  29.460  31.907  1.00  0.00    -0.550 OA
ENDBRANCH   1   2
BRANCH   1   5
ATOM      5  C   UNL     1       4.772  30.438  34.175  1.00  0.00     0.059 C 
BRANCH   5   6
ATOM      6  C   UNL     1       3.563  30.664  35.031  1.00  0.00     0.042 C 
ATOM      7  O   UNL     1       2.820  29.699  35.345  1.00  0.00    -0.550 OA
ATOM      8  O   UNL     1       3.236  31.949  35.447  1.00  0.00    -0.550 OA
ENDBRANCH   5   6
ENDBRANCH   1   5
TORSDOF 3
ENDMDL
MODEL 7
REMARK VINA RESULT:    -3.139     19.012     19.771
REMARK INTER + INTRA:          -3.752
REMARK INTER:                  -3.630
REMARK INTRA:                  -0.122
REMARK UNBOUND:                -0.062
REMARK SMILES O=C([O-])CCC(=O)[O-]
REMARK SMILES IDX 4 1 2 2 1 3 3 4 5 5 6 6 7 7 8 8
REMARK H PARENT
REMARK Flexibility Score: inf
ROOT
ATOM      1  C   UNL     1      -2.923  45.286  22.780  1.00  0.00     0.059 C 
ENDROOT
BRANCH   1   2
ATOM      2  C   UNL     1      -3.778  46.104  23.697  1.00  0.00     0.042 C 
ATOM      3  O   UNL     1      -4.081  45.667  24.838  1.00  0.00    -0.550 OA
ATOM      4  O   UNL     1      -4.275  47.332  23.276  1.00  0.00    -0.550 OA
ENDBRANCH   1   2
BRANCH   1   5
ATOM      5  C   UNL     1      -3.591  45.083  21.416  1.00  0.00     0.059 C 
BRANCH   5   6
ATOM      6  C   UNL     1      -4.566  43.946  21.442  1.00  0.00     0.042 C 
ATOM      7  O   UNL     1      -5.512  43.902  20.613  1.00  0.00    -0.550 OA
ATOM      8  O   UNL     1      -4.454  42.955  22.410  1.00  0.00    -0.550 OA
ENDBRANCH   5   6
ENDBRANCH   1   5
TORSDOF 3
ENDMDL
MODEL 8
REMARK VINA RESULT:    -3.130     17.954     18.586
REMARK INTER + INTRA:          -3.742
REMARK INTER:                  -3.572
REMARK INTRA:                  -0.169
REMARK UNBOUND:                -0.062
REMARK SMILES O=C([O-])CCC(=O)[O-]
REMARK SMILES IDX 4 1 2 2 1 3 3 4 5 5 6 6 7 7 8 8
REMARK H PARENT
REMARK Flexibility Score: inf
ROOT
ATOM      1  C   UNL     1      -1.948  44.620  23.525  1.00  0.00     0.059 C 
ENDROOT
BRANCH   1   2
ATOM      2  C   UNL     1      -2.600  43.586  24.391  1.00  0.00     0.042 C 
ATOM      3  O   UNL     1      -2.990  42.497  23.894  1.00  0.00    -0.550 OA
ATOM      4  O   UNL     1      -2.813  43.841  25.740  1.00  0.00    -0.550 OA
ENDBRANCH   1   2
BRANCH   1   5
ATOM      5  C   UNL     1      -2.931  45.201  22.503  1.00  0.00     0.059 C 
BRANCH   5   6
ATOM      6  C   UNL     1      -3.989  46.031  23.163  1.00  0.00     0.042 C 
ATOM      7  O   UNL     1      -5.196  45.683  23.104  1.00  0.00    -0.550 OA
ATOM      8  O   UNL     1      -3.643  47.213  23.809  1.00  0.00    -0.550 OA
ENDBRANCH   5   6
ENDBRANCH   1   5
TORSDOF 3
ENDMDL
MODEL 9
REMARK VINA RESULT:    -3.099     19.668     20.280
REMARK INTER + INTRA:          -3.705
REMARK INTER:                  -3.605
REMARK INTRA:                  -0.100
REMARK UNBOUND:                -0.062
REMARK SMILES O=C([O-])CCC(=O)[O-]
REMARK SMILES IDX 4 1 2 2 1 3 3 4 5 5 6 6 7 7 8 8
REMARK H PARENT
REMARK Flexibility Score: inf
ROOT
ATOM      1  C   UNL     1      -3.623  45.317  20.601  1.00  0.00     0.059 C 
ENDROOT
BRANCH   1   2
ATOM      2  C   UNL     1      -4.530  44.290  19.997  1.00  0.00     0.042 C 
ATOM      3  O   UNL     1      -4.792  44.321  18.765  1.00  0.00    -0.550 OA
ATOM      4  O   UNL     1      -5.120  43.323  20.801  1.00  0.00    -0.550 OA
ENDBRANCH   1   2
BRANCH   1   5
ATOM      5  C   UNL     1      -3.317  45.006  22.069  1.00  0.00     0.059 C 
BRANCH   5   6
ATOM      6  C   UNL     1      -4.154  45.835  22.995  1.00  0.00     0.042 C 
ATOM      7  O   UNL     1      -5.020  45.289  23.726  1.00  0.00    -0.550 OA
ATOM      8  O   UNL     1      -4.005  47.217  23.020  1.00  0.00    -0.550 OA
ENDBRANCH   5   6
ENDBRANCH   1   5
TORSDOF 3
ENDMDL
