MODEL 1
REMARK VINA RESULT:    -4.345      0.000      0.000
REMARK INTER + INTRA:          -4.472
REMARK INTER:                  -4.472
REMARK INTRA:                   0.000
REMARK UNBOUND:                 0.000
REMARK SMILES Oc1ccc2[nH]ccc2c1
REMARK SMILES IDX 3 1 4 2 5 3 9 4 8 5 7 6 6 7 10 8 2 9 1 11
REMARK H PARENT 6 10 1 12
REMARK Flexibility Score: inf
ROOT
ATOM      1  C   UNL     1     170.926 186.576  32.137  1.00  0.00     0.048 A 
ATOM      2  C   UNL     1     171.685 186.203  33.261  1.00  0.00     0.030 A 
ATOM      3  C   UNL     1     171.996 184.854  33.418  1.00  0.00     0.046 A 
ATOM      4  C   UNL     1     171.583 183.911  32.516  1.00  0.00     0.003 A 
ATOM      5  C   UNL     1     172.049 182.690  32.954  1.00  0.00     0.028 A 
ATOM      6  C   UNL     1     172.739 182.965  34.131  1.00  0.00     0.083 A 
ATOM      7  N   UNL     1     172.703 184.289  34.410  1.00  0.00    -0.361 N 
ATOM      8  C   UNL     1     170.830 184.245  31.392  1.00  0.00     0.056 A 
ATOM      9  C   UNL     1     170.498 185.603  31.203  1.00  0.00     0.116 A 
ATOM     10  H   UNL     1     173.138 184.768  35.230  1.00  0.00     0.166 HD
ENDROOT
BRANCH   9  11
ATOM     11  O   UNL     1     169.747 185.999  30.099  1.00  0.00    -0.508 OA
ATOM     12  H   UNL     1     168.850 185.578  29.892  1.00  0.00     0.293 HD
ENDBRANCH   9  11
TORSDOF 1
ENDMDL
MODEL 2
REMARK VINA RESULT:    -4.327      2.087      2.841
REMARK INTER + INTRA:          -4.453
REMARK INTER:                  -4.453
REMARK INTRA:                   0.000
REMARK UNBOUND:                 0.000
REMARK SMILES Oc1ccc2[nH]ccc2c1
REMARK SMILES IDX 3 1 4 2 5 3 9 4 8 5 7 6 6 7 10 8 2 9 1 11
REMARK H PARENT 6 10 1 12
REMARK Flexibility Score: inf
ROOT
ATOM      1  C   UNL     1     168.030 187.028  31.032  1.00  0.00     0.048 A 
ATOM      2  C   UNL     1     168.696 187.438  32.202  1.00  0.00     0.030 A 
ATOM      3  C   UNL     1     169.895 186.806  32.524  1.00  0.00     0.046 A 
ATOM      4  C   UNL     1     170.420 185.816  31.737  1.00  0.00     0.003 A 
ATOM      5  C   UNL     1     171.597 185.405  32.325  1.00  0.00     0.028 A 
ATOM      6  C   UNL     1     171.727 186.188  33.467  1.00  0.00     0.083 A 
ATOM      7  N   UNL     1     170.684 187.043  33.584  1.00  0.00    -0.361 N 
ATOM      8  C   UNL     1     169.787 185.386  30.573  1.00  0.00     0.056 A 
ATOM      9  C   UNL     1     168.571 186.005  30.218  1.00  0.00     0.116 A 
ATOM     10  H   UNL     1     170.528 187.740  34.345  1.00  0.00     0.166 HD
ENDROOT
BRANCH   9  11
ATOM     11  O   UNL     1     167.892 185.618  29.065  1.00  0.00    -0.508 OA
ATOM     12  H   UNL     1     167.151 184.928  29.096  1.00  0.00     0.293 HD
ENDBRANCH   9  11
TORSDOF 1
ENDMDL
MODEL 3
REMARK VINA RESULT:    -4.259      2.931      4.527
REMARK INTER + INTRA:          -4.384
REMARK INTER:                  -4.384
REMARK INTRA:                   0.000
REMARK UNBOUND:                 0.000
REMARK SMILES Oc1ccc2[nH]ccc2c1
REMARK SMILES IDX 3 1 4 2 5 3 9 4 8 5 7 6 6 7 10 8 2 9 1 11
REMARK H PARENT 6 10 1 12
REMARK Flexibility Score: inf
ROOT
ATOM      1  C   UNL     1     171.413 185.103  32.278  1.00  0.00     0.048 A 
ATOM      2  C   UNL     1     170.718 184.795  31.093  1.00  0.00     0.030 A 
ATOM      3  C   UNL     1     169.597 185.559  30.778  1.00  0.00     0.046 A 
ATOM      4  C   UNL     1     169.173 186.581  31.584  1.00  0.00     0.003 A 
ATOM      5  C   UNL     1     168.054 187.130  30.998  1.00  0.00     0.028 A 
ATOM      6  C   UNL     1     167.852 186.393  29.835  1.00  0.00     0.083 A 
ATOM      7  N   UNL     1     168.798 185.434  29.705  1.00  0.00    -0.361 N 
ATOM      8  C   UNL     1     169.837 186.913  32.763  1.00  0.00     0.056 A 
ATOM      9  C   UNL     1     170.976 186.159  33.113  1.00  0.00     0.116 A 
ATOM     10  H   UNL     1     168.885 184.741  28.929  1.00  0.00     0.166 HD
ENDROOT
BRANCH   9  11
ATOM     11  O   UNL     1     171.681 186.444  34.279  1.00  0.00    -0.508 OA
ATOM     12  H   UNL     1     172.498 187.043  34.269  1.00  0.00     0.293 HD
ENDBRANCH   9  11
TORSDOF 1
ENDMDL
MODEL 4
REMARK VINA RESULT:    -4.071      2.679      3.801
REMARK INTER + INTRA:          -4.190
REMARK INTER:                  -4.190
REMARK INTRA:                   0.000
REMARK UNBOUND:                 0.000
REMARK SMILES Oc1ccc2[nH]ccc2c1
REMARK SMILES IDX 3 1 4 2 5 3 9 4 8 5 7 6 6 7 10 8 2 9 1 11
REMARK H PARENT 6 10 1 12
REMARK Flexibility Score: inf
ROOT
ATOM      1  C   UNL     1     171.482 186.114  33.912  1.00  0.00     0.048 A 
ATOM      2  C   UNL     1     170.438 186.864  33.340  1.00  0.00     0.030 A 
ATOM      3  C   UNL     1     169.927 186.439  32.116  1.00  0.00     0.046 A 
ATOM      4  C   UNL     1     170.413 185.330  31.479  1.00  0.00     0.003 A 
ATOM      5  C   UNL     1     169.702 185.183  30.307  1.00  0.00     0.028 A 
ATOM      6  C   UNL     1     168.798 186.240  30.295  1.00  0.00     0.083 A 
ATOM      7  N   UNL     1     168.939 187.005  31.403  1.00  0.00    -0.361 N 
ATOM      8  C   UNL     1     171.446 184.564  32.017  1.00  0.00     0.056 A 
ATOM      9  C   UNL     1     171.987 184.967  33.256  1.00  0.00     0.116 A 
ATOM     10  H   UNL     1     168.391 187.859  31.648  1.00  0.00     0.166 HD
ENDROOT
BRANCH   9  11
ATOM     11  O   UNL     1     173.020 184.242  33.844  1.00  0.00    -0.508 OA
ATOM     12  H   UNL     1     173.026 184.040  34.836  1.00  0.00     0.293 HD
ENDBRANCH   9  11
TORSDOF 1
ENDMDL
MODEL 5
REMARK VINA RESULT:    -4.042      2.662      3.945
REMARK INTER + INTRA:          -4.160
REMARK INTER:                  -4.160
REMARK INTRA:                   0.000
REMARK UNBOUND:                 0.000
REMARK SMILES Oc1ccc2[nH]ccc2c1
REMARK SMILES IDX 3 1 4 2 5 3 9 4 8 5 7 6 6 7 10 8 2 9 1 11
REMARK H PARENT 6 10 1 12
REMARK Flexibility Score: inf
ROOT
ATOM      1  C   UNL     1     169.889 185.409  30.460  1.00  0.00     0.048 A 
ATOM      2  C   UNL     1     170.614 185.819  31.595  1.00  0.00     0.030 A 
ATOM      3  C   UNL     1     170.034 186.771  32.429  1.00  0.00     0.046 A 
ATOM      4  C   UNL     1     168.799 187.301  32.167  1.00  0.00     0.003 A 
ATOM      5  C   UNL     1     168.517 188.203  33.170  1.00  0.00     0.028 A 
ATOM      6  C   UNL     1     169.626 188.172  34.010  1.00  0.00     0.083 A 
ATOM      7  N   UNL     1     170.550 187.295  33.553  1.00  0.00    -0.361 N 
ATOM      8  C   UNL     1     168.054 186.919  31.053  1.00  0.00     0.056 A 
ATOM      9  C   UNL     1     168.613 185.956  30.187  1.00  0.00     0.116 A 
ATOM     10  H   UNL     1     171.473 187.075  33.988  1.00  0.00     0.166 HD
ENDROOT
BRANCH   9  11
ATOM     11  O   UNL     1     167.915 185.534  29.058  1.00  0.00    -0.508 OA
ATOM     12  H   UNL     1     168.393 185.332  28.188  1.00  0.00     0.293 HD
ENDBRANCH   9  11
TORSDOF 1
ENDMDL
MODEL 6
REMARK VINA RESULT:    -4.031      2.185      3.428
REMARK INTER + INTRA:          -4.149
REMARK INTER:                  -4.149
REMARK INTRA:                   0.000
REMARK UNBOUND:                 0.000
REMARK SMILES Oc1ccc2[nH]ccc2c1
REMARK SMILES IDX 3 1 4 2 5 3 9 4 8 5 7 6 6 7 10 8 2 9 1 11
REMARK H PARENT 6 10 1 12
REMARK Flexibility Score: inf
ROOT
ATOM      1  C   UNL     1     171.845 182.748  34.462  1.00  0.00     0.048 A 
ATOM      2  C   UNL     1     171.956 184.114  34.778  1.00  0.00     0.030 A 
ATOM      3  C   UNL     1     171.701 185.038  33.768  1.00  0.00     0.046 A 
ATOM      4  C   UNL     1     171.354 184.645  32.503  1.00  0.00     0.003 A 
ATOM      5  C   UNL     1     171.173 185.786  31.752  1.00  0.00     0.028 A 
ATOM      6  C   UNL     1     171.427 186.840  32.624  1.00  0.00     0.083 A 
ATOM      7  N   UNL     1     171.749 186.378  33.855  1.00  0.00    -0.361 N 
ATOM      8  C   UNL     1     171.236 183.301  32.156  1.00  0.00     0.056 A 
ATOM      9  C   UNL     1     171.487 182.338  33.156  1.00  0.00     0.116 A 
ATOM     10  H   UNL     1     171.987 186.949  34.696  1.00  0.00     0.166 HD
ENDROOT
BRANCH   9  11
ATOM     11  O   UNL     1     171.384 180.979  32.869  1.00  0.00    -0.508 OA
ATOM     12  H   UNL     1     171.235 180.649  31.923  1.00  0.00     0.293 HD
ENDBRANCH   9  11
TORSDOF 1
ENDMDL
MODEL 7
REMARK VINA RESULT:    -3.951      1.699      2.336
REMARK INTER + INTRA:          -4.067
REMARK INTER:                  -4.067
REMARK INTRA:                   0.000
REMARK UNBOUND:                 0.000
REMARK SMILES Oc1ccc2[nH]ccc2c1
REMARK SMILES IDX 3 1 4 2 5 3 9 4 8 5 7 6 6 7 10 8 2 9 1 11
REMARK H PARENT 6 10 1 12
REMARK Flexibility Score: inf
ROOT
ATOM      1  C   UNL     1     170.039 186.345  31.701  1.00  0.00     0.048 A 
ATOM      2  C   UNL     1     170.357 185.041  31.279  1.00  0.00     0.030 A 
ATOM      3  C   UNL     1     171.333 184.347  31.991  1.00  0.00     0.046 A 
ATOM      4  C   UNL     1     171.971 184.902  33.067  1.00  0.00     0.003 A 
ATOM      5  C   UNL     1     172.867 183.969  33.541  1.00  0.00     0.028 A 
ATOM      6  C   UNL     1     172.722 182.866  32.705  1.00  0.00     0.083 A 
ATOM      7  N   UNL     1     171.783 183.102  31.759  1.00  0.00    -0.361 N 
ATOM      8  C   UNL     1     171.682 186.191  33.511  1.00  0.00     0.056 A 
ATOM      9  C   UNL     1     170.698 186.922  32.813  1.00  0.00     0.116 A 
ATOM     10  H   UNL     1     171.475 182.448  31.005  1.00  0.00     0.166 HD
ENDROOT
BRANCH   9  11
ATOM     11  O   UNL     1     170.365 188.214  33.210  1.00  0.00    -0.508 OA
ATOM     12  H   UNL     1     170.841 189.023  32.828  1.00  0.00     0.293 HD
ENDBRANCH   9  11
TORSDOF 1
ENDMDL
MODEL 8
REMARK VINA RESULT:    -3.900      1.992      2.636
REMARK INTER + INTRA:          -4.014
REMARK INTER:                  -4.014
REMARK INTRA:                   0.000
REMARK UNBOUND:                 0.000
REMARK SMILES Oc1ccc2[nH]ccc2c1
REMARK SMILES IDX 3 1 4 2 5 3 9 4 8 5 7 6 6 7 10 8 2 9 1 11
REMARK H PARENT 6 10 1 12
REMARK Flexibility Score: inf
ROOT
ATOM      1  C   UNL     1     167.636 185.768  31.476  1.00  0.00     0.048 A 
ATOM      2  C   UNL     1     168.250 185.716  32.741  1.00  0.00     0.030 A 
ATOM      3  C   UNL     1     169.626 185.510  32.789  1.00  0.00     0.046 A 
ATOM      4  C   UNL     1     170.372 185.362  31.650  1.00  0.00     0.003 A 
ATOM      5  C   UNL     1     171.682 185.177  32.037  1.00  0.00     0.028 A 
ATOM      6  C   UNL     1     171.661 185.224  33.427  1.00  0.00     0.083 A 
ATOM      7  N   UNL     1     170.403 185.427  33.882  1.00  0.00    -0.361 N 
ATOM      8  C   UNL     1     169.797 185.408  30.382  1.00  0.00     0.056 A 
ATOM      9  C   UNL     1     168.404 185.615  30.298  1.00  0.00     0.116 A 
ATOM     10  H   UNL     1     170.102 185.504  34.879  1.00  0.00     0.166 HD
ENDROOT
BRANCH   9  11
ATOM     11  O   UNL     1     167.773 185.671  29.057  1.00  0.00    -0.508 OA
ATOM     12  H   UNL     1     167.229 186.479  28.778  1.00  0.00     0.293 HD
ENDBRANCH   9  11
TORSDOF 1
ENDMDL
MODEL 9
REMARK VINA RESULT:    -3.643      2.685      4.229
REMARK INTER + INTRA:          -3.749
REMARK INTER:                  -3.749
REMARK INTRA:                   0.000
REMARK UNBOUND:                 0.000
REMARK SMILES Oc1ccc2[nH]ccc2c1
REMARK SMILES IDX 3 1 4 2 5 3 9 4 8 5 7 6 6 7 10 8 2 9 1 11
REMARK H PARENT 6 10 1 12
REMARK Flexibility Score: inf
ROOT
ATOM      1  C   UNL     1     171.318 184.218  32.086  1.00  0.00     0.048 A 
ATOM      2  C   UNL     1     170.204 184.842  31.495  1.00  0.00     0.030 A 
ATOM      3  C   UNL     1     169.798 186.072  32.008  1.00  0.00     0.046 A 
ATOM      4  C   UNL     1     170.453 186.667  33.052  1.00  0.00     0.003 A 
ATOM      5  C   UNL     1     169.812 187.858  33.315  1.00  0.00     0.028 A 
ATOM      6  C   UNL     1     168.774 187.924  32.392  1.00  0.00     0.083 A 
ATOM      7  N   UNL     1     168.770 186.830  31.595  1.00  0.00    -0.361 N 
ATOM      8  C   UNL     1     171.560 186.077  33.661  1.00  0.00     0.056 A 
ATOM      9  C   UNL     1     171.996 184.831  33.166  1.00  0.00     0.116 A 
ATOM     10  H   UNL     1     168.102 186.622  30.820  1.00  0.00     0.166 HD
ENDROOT
BRANCH   9  11
ATOM     11  O   UNL     1     173.097 184.193  33.733  1.00  0.00    -0.508 OA
ATOM     12  H   UNL     1     173.972 184.681  33.881  1.00  0.00     0.293 HD
ENDBRANCH   9  11
TORSDOF 1
ENDMDL
