MODEL 1
REMARK VINA RESULT:    -5.692      0.000      0.000
REMARK INTER + INTRA:         -10.947
REMARK INTER:                  -8.853
REMARK INTRA:                  -2.094
REMARK UNBOUND:                -2.094
REMARK SMILES C[C@@]12C[C@@]3(O)O[C@@H](O1)[C@]1(COC(=O)c4ccccc4)[C@H]3C[C@@]12O[C@@H]1O[C@@H](CO)[C@@H](O)[C@H](O)[C@@H]1O
REMARK SMILES IDX 1 1 2 2 3 3 4 4 20 5 21 6 22 7 9 8 7 9 8 10 6 11 23 12 24 13
REMARK SMILES IDX 33 14 25 15 31 16 26 17 29 18 34 19 32 21 27 23 28 24 30 26
REMARK SMILES IDX 5 28 10 30 11 31 12 32 13 33 14 34 15 35 19 36 16 37 18 38
REMARK SMILES IDX 17 39
REMARK H PARENT 34 20 32 22 28 25 30 27 5 29
REMARK Flexibility Score: inf
ROOT
ATOM      1  C   UNL     1     -17.780  18.425   6.806  1.00  0.00     0.046 C 
ATOM      2  C   UNL     1     -18.532  17.515   7.777  1.00  0.00     0.104 C 
ATOM      3  C   UNL     1     -17.770  16.154   7.986  1.00  0.00     0.104 C 
ATOM      4  C   UNL     1     -18.730  15.342   8.923  1.00  0.00     0.175 C 
ATOM      5  C   UNL     1     -20.192  15.376   8.372  1.00  0.00     0.070 C 
ATOM      6  C   UNL     1     -20.266  15.787   6.888  1.00  0.00     0.050 C 
ATOM      7  C   UNL     1     -20.035  17.240   7.382  1.00  0.00     0.115 C 
ATOM      8  C   UNL     1     -20.536  16.811   8.761  1.00  0.00     0.096 C 
ATOM      9  C   UNL     1     -19.485  17.251   9.767  1.00  0.00     0.267 C 
ATOM     10  O   UNL     1     -18.606  18.108   9.058  1.00  0.00    -0.342 OA
ATOM     11  O   UNL     1     -18.790  16.069  10.133  1.00  0.00    -0.320 OA
ENDROOT
BRANCH   7  12
ATOM     12  O   UNL     1     -20.710  18.381   6.845  1.00  0.00    -0.339 OA
BRANCH  12  13
ATOM     13  C   UNL     1     -21.289  18.191   5.561  1.00  0.00     0.282 C 
ATOM     14  C   UNL     1     -22.633  18.949   5.445  1.00  0.00     0.202 C 
ATOM     15  O   UNL     1     -20.395  18.561   4.517  1.00  0.00    -0.341 OA
ATOM     16  C   UNL     1     -22.431  20.475   5.357  1.00  0.00     0.179 C 
ATOM     17  C   UNL     1     -20.115  19.953   4.530  1.00  0.00     0.178 C 
ATOM     18  C   UNL     1     -21.389  20.790   4.269  1.00  0.00     0.177 C 
BRANCH  14  19
ATOM     19  O   UNL     1     -23.519  18.602   6.481  1.00  0.00    -0.385 OA
ATOM     20  H   UNL     1     -23.182  18.999   7.325  1.00  0.00     0.211 HD
ENDBRANCH  14  19
BRANCH  16  21
ATOM     21  O   UNL     1     -22.007  20.981   6.597  1.00  0.00    -0.387 OA
ATOM     22  H   UNL     1     -21.586  20.227   7.088  1.00  0.00     0.211 HD
ENDBRANCH  16  21
BRANCH  17  23
ATOM     23  C   UNL     1     -19.006  20.253   3.514  1.00  0.00     0.191 C 
BRANCH  23  24
ATOM     24  O   UNL     1     -18.388  19.069   3.091  1.00  0.00    -0.394 OA
ATOM     25  H   UNL     1     -17.630  19.346   2.514  1.00  0.00     0.210 HD
ENDBRANCH  23  24
ENDBRANCH  17  23
BRANCH  18  26
ATOM     26  O   UNL     1     -21.932  20.487   3.007  1.00  0.00    -0.387 OA
ATOM     27  H   UNL     1     -22.841  20.120   3.160  1.00  0.00     0.211 HD
ENDBRANCH  18  26
ENDBRANCH  12  13
ENDBRANCH   7  12
BRANCH   4  28
ATOM     28  O   UNL     1     -18.273  14.038   9.154  1.00  0.00    -0.365 OA
ATOM     29  H   UNL     1     -17.878  13.718   8.302  1.00  0.00     0.214 HD
ENDBRANCH   4  28
BRANCH   8  30
ATOM     30  C   UNL     1     -22.014  17.061   9.126  1.00  0.00     0.249 C 
BRANCH  30  31
ATOM     31  O   UNL     1     -22.117  18.099  10.100  1.00  0.00    -0.461 OA
BRANCH  31  32
ATOM     32  C   UNL     1     -22.367  19.443   9.795  1.00  0.00     0.338 C 
ATOM     33  O   UNL     1     -23.285  19.752   8.987  1.00  0.00    -0.246 OA
BRANCH  32  34
ATOM     34  C   UNL     1     -21.553  20.501  10.432  1.00  0.00     0.060 A 
ATOM     35  C   UNL     1     -21.604  21.821   9.949  1.00  0.00     0.015 A 
ATOM     36  C   UNL     1     -20.721  20.208  11.528  1.00  0.00     0.015 A 
ATOM     37  C   UNL     1     -20.838  22.826  10.549  1.00  0.00     0.001 A 
ATOM     38  C   UNL     1     -19.957  21.216  12.125  1.00  0.00     0.001 A 
ATOM     39  C   UNL     1     -20.014  22.523  11.637  1.00  0.00     0.000 A 
ENDBRANCH  32  34
ENDBRANCH  31  32
ENDBRANCH  30  31
ENDBRANCH   8  30
TORSDOF 12
ENDMDL
MODEL 2
REMARK VINA RESULT:    -5.411      2.112      5.714
REMARK INTER + INTRA:         -10.511
REMARK INTER:                  -8.853
REMARK INTRA:                  -1.658
REMARK UNBOUND:                -2.094
REMARK SMILES C[C@@]12C[C@@]3(O)O[C@@H](O1)[C@]1(COC(=O)c4ccccc4)[C@H]3C[C@@]12O[C@@H]1O[C@@H](CO)[C@@H](O)[C@H](O)[C@@H]1O
REMARK SMILES IDX 1 1 2 2 3 3 4 4 20 5 21 6 22 7 9 8 7 9 8 10 6 11 23 12 24 13
REMARK SMILES IDX 33 14 25 15 31 16 26 17 29 18 34 19 32 21 27 23 28 24 30 26
REMARK SMILES IDX 5 28 10 30 11 31 12 32 13 33 14 34 15 35 19 36 16 37 18 38
REMARK SMILES IDX 17 39
REMARK H PARENT 34 20 32 22 28 25 30 27 5 29
REMARK Flexibility Score: inf
ROOT
ATOM      1  C   UNL     1     -21.219  19.230   4.826  1.00  0.00     0.046 C 
ATOM      2  C   UNL     1     -21.852  19.104   6.211  1.00  0.00     0.104 C 
ATOM      3  C   UNL     1     -22.905  20.245   6.461  1.00  0.00     0.104 C 
ATOM      4  C   UNL     1     -23.364  19.998   7.940  1.00  0.00     0.175 C 
ATOM      5  C   UNL     1     -22.124  19.819   8.876  1.00  0.00     0.070 C 
ATOM      6  C   UNL     1     -20.818  20.350   8.252  1.00  0.00     0.050 C 
ATOM      7  C   UNL     1     -20.816  19.052   7.400  1.00  0.00     0.115 C 
ATOM      8  C   UNL     1     -21.730  18.410   8.444  1.00  0.00     0.096 C 
ATOM      9  C   UNL     1     -22.920  17.837   7.693  1.00  0.00     0.267 C 
ATOM     10  O   UNL     1     -22.574  17.893   6.319  1.00  0.00    -0.342 OA
ATOM     11  O   UNL     1     -23.993  18.732   7.940  1.00  0.00    -0.320 OA
ENDROOT
BRANCH   7  12
ATOM     12  O   UNL     1     -19.638  18.293   7.110  1.00  0.00    -0.339 OA
BRANCH  12  13
ATOM     13  C   UNL     1     -18.413  18.992   7.275  1.00  0.00     0.282 C 
ATOM     14  C   UNL     1     -17.303  18.046   7.792  1.00  0.00     0.202 C 
ATOM     15  O   UNL     1     -18.013  19.651   6.078  1.00  0.00    -0.341 OA
ATOM     16  C   UNL     1     -16.832  17.058   6.706  1.00  0.00     0.179 C 
ATOM     17  C   UNL     1     -17.708  18.729   5.044  1.00  0.00     0.178 C 
ATOM     18  C   UNL     1     -16.503  17.834   5.418  1.00  0.00     0.177 C 
BRANCH  14  19
ATOM     19  O   UNL     1     -17.693  17.377   8.967  1.00  0.00    -0.385 OA
ATOM     20  H   UNL     1     -18.663  17.179   8.905  1.00  0.00     0.211 HD
ENDBRANCH  14  19
BRANCH  16  21
ATOM     21  O   UNL     1     -17.830  16.101   6.454  1.00  0.00    -0.387 OA
ATOM     22  H   UNL     1     -18.480  16.519   5.830  1.00  0.00     0.211 HD
ENDBRANCH  16  21
BRANCH  17  23
ATOM     23  C   UNL     1     -17.475  19.497   3.737  1.00  0.00     0.191 C 
BRANCH  23  24
ATOM     24  O   UNL     1     -18.366  19.067   2.745  1.00  0.00    -0.394 OA
ATOM     25  H   UNL     1     -17.957  18.258   2.340  1.00  0.00     0.210 HD
ENDBRANCH  23  24
ENDBRANCH  17  23
BRANCH  18  26
ATOM     26  O   UNL     1     -15.352  18.616   5.632  1.00  0.00    -0.387 OA
ATOM     27  H   UNL     1     -15.292  18.789   6.607  1.00  0.00     0.211 HD
ENDBRANCH  18  26
ENDBRANCH  12  13
ENDBRANCH   7  12
BRANCH   4  28
ATOM     28  O   UNL     1     -24.245  20.986   8.399  1.00  0.00    -0.365 OA
ATOM     29  H   UNL     1     -23.689  21.687   8.829  1.00  0.00     0.214 HD
ENDBRANCH   4  28
BRANCH   8  30
ATOM     30  C   UNL     1     -21.099  17.534   9.546  1.00  0.00     0.249 C 
BRANCH  30  31
ATOM     31  O   UNL     1     -21.340  16.152   9.282  1.00  0.00    -0.461 OA
BRANCH  31  32
ATOM     32  C   UNL     1     -20.424  15.298   8.655  1.00  0.00     0.338 C 
ATOM     33  O   UNL     1     -20.324  15.284   7.398  1.00  0.00    -0.246 OA
BRANCH  32  34
ATOM     34  C   UNL     1     -19.567  14.416   9.476  1.00  0.00     0.060 A 
ATOM     35  C   UNL     1     -18.641  13.554   8.860  1.00  0.00     0.015 A 
ATOM     36  C   UNL     1     -19.659  14.425  10.881  1.00  0.00     0.015 A 
ATOM     37  C   UNL     1     -17.827  12.719   9.633  1.00  0.00     0.001 A 
ATOM     38  C   UNL     1     -18.842  13.589  11.649  1.00  0.00     0.001 A 
ATOM     39  C   UNL     1     -17.927  12.737  11.027  1.00  0.00     0.000 A 
ENDBRANCH  32  34
ENDBRANCH  31  32
ENDBRANCH  30  31
ENDBRANCH   8  30
TORSDOF 12
ENDMDL
MODEL 3
REMARK VINA RESULT:    -5.233      2.108      3.589
REMARK INTER + INTRA:         -10.234
REMARK INTER:                  -8.487
REMARK INTRA:                  -1.746
REMARK UNBOUND:                -2.094
REMARK SMILES C[C@@]12C[C@@]3(O)O[C@@H](O1)[C@]1(COC(=O)c4ccccc4)[C@H]3C[C@@]12O[C@@H]1O[C@@H](CO)[C@@H](O)[C@H](O)[C@@H]1O
REMARK SMILES IDX 1 1 2 2 3 3 4 4 20 5 21 6 22 7 9 8 7 9 8 10 6 11 23 12 24 13
REMARK SMILES IDX 33 14 25 15 31 16 26 17 29 18 34 19 32 21 27 23 28 24 30 26
REMARK SMILES IDX 5 28 10 30 11 31 12 32 13 33 14 34 15 35 19 36 16 37 18 38
REMARK SMILES IDX 17 39
REMARK H PARENT 34 20 32 22 28 25 30 27 5 29
REMARK Flexibility Score: inf
ROOT
ATOM      1  C   UNL     1     -18.398  19.002   9.345  1.00  0.00     0.046 C 
ATOM      2  C   UNL     1     -19.569  18.068   9.042  1.00  0.00     0.104 C 
ATOM      3  C   UNL     1     -19.420  16.703   9.811  1.00  0.00     0.104 C 
ATOM      4  C   UNL     1     -20.646  15.867   9.306  1.00  0.00     0.175 C 
ATOM      5  C   UNL     1     -20.737  15.914   7.746  1.00  0.00     0.070 C 
ATOM      6  C   UNL     1     -19.421  16.361   7.080  1.00  0.00     0.050 C 
ATOM      7  C   UNL     1     -19.812  17.802   7.506  1.00  0.00     0.115 C 
ATOM      8  C   UNL     1     -21.266  17.337   7.603  1.00  0.00     0.096 C 
ATOM      9  C   UNL     1     -21.768  17.753   8.976  1.00  0.00     0.267 C 
ATOM     10  O   UNL     1     -20.784  18.628   9.500  1.00  0.00    -0.342 OA
ATOM     11  O   UNL     1     -21.793  16.563   9.749  1.00  0.00    -0.320 OA
ENDROOT
BRANCH   7  12
ATOM     12  O   UNL     1     -19.622  18.955   6.681  1.00  0.00    -0.339 OA
BRANCH  12  13
ATOM     13  C   UNL     1     -18.557  18.860   5.747  1.00  0.00     0.282 C 
ATOM     14  C   UNL     1     -19.034  19.247   4.325  1.00  0.00     0.202 C 
ATOM     15  O   UNL     1     -17.432  19.638   6.143  1.00  0.00    -0.341 OA
ATOM     16  C   UNL     1     -19.290  20.761   4.194  1.00  0.00     0.179 C 
ATOM     17  C   UNL     1     -17.724  21.027   6.143  1.00  0.00     0.178 C 
ATOM     18  C   UNL     1     -18.068  21.534   4.722  1.00  0.00     0.177 C 
BRANCH  14  19
ATOM     19  O   UNL     1     -20.154  18.494   3.929  1.00  0.00    -0.385 OA
ATOM     20  H   UNL     1     -19.888  17.916   3.167  1.00  0.00     0.211 HD
ENDBRANCH  14  19
BRANCH  16  21
ATOM     21  O   UNL     1     -20.442  21.124   4.912  1.00  0.00    -0.387 OA
ATOM     22  H   UNL     1     -20.609  20.401   5.572  1.00  0.00     0.211 HD
ENDBRANCH  16  21
BRANCH  17  23
ATOM     23  C   UNL     1     -16.545  21.790   6.760  1.00  0.00     0.191 C 
BRANCH  23  24
ATOM     24  O   UNL     1     -15.331  21.172   6.434  1.00  0.00    -0.394 OA
ATOM     25  H   UNL     1     -15.230  21.267   5.451  1.00  0.00     0.210 HD
ENDBRANCH  23  24
ENDBRANCH  17  23
BRANCH  18  26
ATOM     26  O   UNL     1     -16.983  21.336   3.849  1.00  0.00    -0.387 OA
ATOM     27  H   UNL     1     -16.517  20.510   4.141  1.00  0.00     0.211 HD
ENDBRANCH  18  26
ENDBRANCH  12  13
ENDBRANCH   7  12
BRANCH   4  28
ATOM     28  O   UNL     1     -20.642  14.557   9.804  1.00  0.00    -0.365 OA
ATOM     29  H   UNL     1     -19.961  14.529  10.526  1.00  0.00     0.214 HD
ENDBRANCH   4  28
BRANCH   8  30
ATOM     30  C   UNL     1     -22.204  17.577   6.403  1.00  0.00     0.249 C 
BRANCH  30  31
ATOM     31  O   UNL     1     -23.479  18.037   6.852  1.00  0.00    -0.461 OA
BRANCH  31  32
ATOM     32  C   UNL     1     -24.180  19.102   6.274  1.00  0.00     0.338 C 
ATOM     33  O   UNL     1     -25.193  18.883   5.555  1.00  0.00    -0.246 OA
BRANCH  32  34
ATOM     34  C   UNL     1     -23.730  20.490   6.516  1.00  0.00     0.060 A 
ATOM     35  C   UNL     1     -23.129  20.838   7.740  1.00  0.00     0.015 A 
ATOM     36  C   UNL     1     -23.890  21.482   5.530  1.00  0.00     0.015 A 
ATOM     37  C   UNL     1     -22.701  22.149   7.973  1.00  0.00     0.001 A 
ATOM     38  C   UNL     1     -23.459  22.791   5.767  1.00  0.00     0.001 A 
ATOM     39  C   UNL     1     -22.865  23.125   6.986  1.00  0.00     0.000 A 
ENDBRANCH  32  34
ENDBRANCH  31  32
ENDBRANCH  30  31
ENDBRANCH   8  30
TORSDOF 12
ENDMDL
MODEL 4
REMARK VINA RESULT:    -5.206      2.338      3.467
REMARK INTER + INTRA:         -10.192
REMARK INTER:                  -8.412
REMARK INTRA:                  -1.780
REMARK UNBOUND:                -2.094
REMARK SMILES C[C@@]12C[C@@]3(O)O[C@@H](O1)[C@]1(COC(=O)c4ccccc4)[C@H]3C[C@@]12O[C@@H]1O[C@@H](CO)[C@@H](O)[C@H](O)[C@@H]1O
REMARK SMILES IDX 1 1 2 2 3 3 4 4 20 5 21 6 22 7 9 8 7 9 8 10 6 11 23 12 24 13
REMARK SMILES IDX 33 14 25 15 31 16 26 17 29 18 34 19 32 21 27 23 28 24 30 26
REMARK SMILES IDX 5 28 10 30 11 31 12 32 13 33 14 34 15 35 19 36 16 37 18 38
REMARK SMILES IDX 17 39
REMARK H PARENT 34 20 32 22 28 25 30 27 5 29
REMARK Flexibility Score: inf
ROOT
ATOM      1  C   UNL     1     -17.842  19.057   7.493  1.00  0.00     0.046 C 
ATOM      2  C   UNL     1     -18.994  18.187   7.995  1.00  0.00     0.104 C 
ATOM      3  C   UNL     1     -18.474  16.789   8.496  1.00  0.00     0.104 C 
ATOM      4  C   UNL     1     -19.791  16.028   8.876  1.00  0.00     0.175 C 
ATOM      5  C   UNL     1     -20.840  16.137   7.722  1.00  0.00     0.070 C 
ATOM      6  C   UNL     1     -20.213  16.550   6.376  1.00  0.00     0.050 C 
ATOM      7  C   UNL     1     -20.164  17.990   6.955  1.00  0.00     0.115 C 
ATOM      8  C   UNL     1     -21.257  17.588   7.946  1.00  0.00     0.096 C 
ATOM      9  C   UNL     1     -20.759  17.973   9.328  1.00  0.00     0.267 C 
ATOM     10  O   UNL     1     -19.615  18.784   9.116  1.00  0.00    -0.342 OA
ATOM     11  O   UNL     1     -20.361  16.758   9.943  1.00  0.00    -0.320 OA
ENDROOT
BRANCH   7  12
ATOM     12  O   UNL     1     -20.469  19.164   6.196  1.00  0.00    -0.339 OA
BRANCH  12  13
ATOM     13  C   UNL     1     -20.511  18.979   4.788  1.00  0.00     0.282 C 
ATOM     14  C   UNL     1     -21.532  19.942   4.135  1.00  0.00     0.202 C 
ATOM     15  O   UNL     1     -19.224  19.113   4.196  1.00  0.00    -0.341 OA
ATOM     16  C   UNL     1     -21.033  21.401   4.137  1.00  0.00     0.179 C 
ATOM     17  C   UNL     1     -18.720  20.434   4.321  1.00  0.00     0.178 C 
ATOM     18  C   UNL     1     -19.605  21.453   3.566  1.00  0.00     0.177 C 
BRANCH  14  19
ATOM     19  O   UNL     1     -22.806  19.828   4.723  1.00  0.00    -0.385 OA
ATOM     20  H   UNL     1     -23.456  19.591   4.012  1.00  0.00     0.211 HD
ENDBRANCH  14  19
BRANCH  16  21
ATOM     21  O   UNL     1     -21.054  21.920   5.442  1.00  0.00    -0.387 OA
ATOM     22  H   UNL     1     -20.988  21.146   6.061  1.00  0.00     0.211 HD
ENDBRANCH  16  21
BRANCH  17  23
ATOM     23  C   UNL     1     -17.263  20.465   3.842  1.00  0.00     0.191 C 
BRANCH  23  24
ATOM     24  O   UNL     1     -17.123  19.760   2.640  1.00  0.00    -0.394 OA
ATOM     25  H   UNL     1     -17.937  19.199   2.554  1.00  0.00     0.210 HD
ENDBRANCH  23  24
ENDBRANCH  17  23
BRANCH  18  26
ATOM     26  O   UNL     1     -19.646  21.151   2.192  1.00  0.00    -0.387 OA
ATOM     27  H   UNL     1     -18.814  21.511   1.788  1.00  0.00     0.211 HD
ENDBRANCH  18  26
ENDBRANCH  12  13
ENDBRANCH   7  12
BRANCH   4  28
ATOM     28  O   UNL     1     -19.551  14.702   9.259  1.00  0.00    -0.365 OA
ATOM     29  H   UNL     1     -18.682  14.697   9.739  1.00  0.00     0.214 HD
ENDBRANCH   4  28
BRANCH   8  30
ATOM     30  C   UNL     1     -22.726  17.913   7.605  1.00  0.00     0.249 C 
BRANCH  30  31
ATOM     31  O   UNL     1     -23.174  19.038   8.361  1.00  0.00    -0.461 OA
BRANCH  31  32
ATOM     32  C   UNL     1     -23.827  20.147   7.810  1.00  0.00     0.338 C 
ATOM     33  O   UNL     1     -23.164  21.147   7.418  1.00  0.00    -0.246 OA
BRANCH  32  34
ATOM     34  C   UNL     1     -25.301  20.141   7.684  1.00  0.00     0.060 A 
ATOM     35  C   UNL     1     -26.111  20.141   8.834  1.00  0.00     0.015 A 
ATOM     36  C   UNL     1     -25.915  20.140   6.418  1.00  0.00     0.015 A 
ATOM     37  C   UNL     1     -27.505  20.137   8.719  1.00  0.00     0.001 A 
ATOM     38  C   UNL     1     -27.310  20.136   6.308  1.00  0.00     0.001 A 
ATOM     39  C   UNL     1     -28.104  20.135   7.457  1.00  0.00     0.000 A 
ENDBRANCH  32  34
ENDBRANCH  31  32
ENDBRANCH  30  31
ENDBRANCH   8  30
TORSDOF 12
ENDMDL
MODEL 5
REMARK VINA RESULT:    -5.194      2.059      6.618
REMARK INTER + INTRA:         -10.173
REMARK INTER:                  -9.086
REMARK INTRA:                  -1.087
REMARK UNBOUND:                -2.094
REMARK SMILES C[C@@]12C[C@@]3(O)O[C@@H](O1)[C@]1(COC(=O)c4ccccc4)[C@H]3C[C@@]12O[C@@H]1O[C@@H](CO)[C@@H](O)[C@H](O)[C@@H]1O
REMARK SMILES IDX 1 1 2 2 3 3 4 4 20 5 21 6 22 7 9 8 7 9 8 10 6 11 23 12 24 13
REMARK SMILES IDX 33 14 25 15 31 16 26 17 29 18 34 19 32 21 27 23 28 24 30 26
REMARK SMILES IDX 5 28 10 30 11 31 12 32 13 33 14 34 15 35 19 36 16 37 18 38
REMARK SMILES IDX 17 39
REMARK H PARENT 34 20 32 22 28 25 30 27 5 29
REMARK Flexibility Score: inf
ROOT
ATOM      1  C   UNL     1     -18.366  17.842  11.367  1.00  0.00     0.046 C 
ATOM      2  C   UNL     1     -19.320  17.971  10.179  1.00  0.00     0.104 C 
ATOM      3  C   UNL     1     -20.684  18.623  10.613  1.00  0.00     0.104 C 
ATOM      4  C   UNL     1     -21.539  18.583   9.300  1.00  0.00     0.175 C 
ATOM      5  C   UNL     1     -21.489  17.159   8.656  1.00  0.00     0.070 C 
ATOM      6  C   UNL     1     -21.018  16.071   9.640  1.00  0.00     0.050 C 
ATOM      7  C   UNL     1     -19.585  16.621   9.406  1.00  0.00     0.115 C 
ATOM      8  C   UNL     1     -20.074  17.228   8.091  1.00  0.00     0.096 C 
ATOM      9  C   UNL     1     -19.671  18.693   8.107  1.00  0.00     0.267 C 
ATOM     10  O   UNL     1     -18.781  18.838   9.201  1.00  0.00    -0.342 OA
ATOM     11  O   UNL     1     -20.863  19.413   8.378  1.00  0.00    -0.320 OA
ENDROOT
BRANCH   7  12
ATOM     12  O   UNL     1     -18.426  15.793   9.272  1.00  0.00    -0.339 OA
BRANCH  12  13
ATOM     13  C   UNL     1     -18.398  14.651  10.116  1.00  0.00     0.282 C 
ATOM     14  C   UNL     1     -18.463  13.348   9.284  1.00  0.00     0.202 C 
ATOM     15  O   UNL     1     -17.267  14.657  10.979  1.00  0.00    -0.341 OA
ATOM     16  C   UNL     1     -17.146  13.078   8.529  1.00  0.00     0.179 C 
ATOM     17  C   UNL     1     -16.051  14.540  10.257  1.00  0.00     0.178 C 
ATOM     18  C   UNL     1     -15.964  13.189   9.508  1.00  0.00     0.177 C 
BRANCH  14  19
ATOM     19  O   UNL     1     -19.570  13.337   8.416  1.00  0.00    -0.385 OA
ATOM     20  H   UNL     1     -19.787  14.275   8.176  1.00  0.00     0.211 HD
ENDBRANCH  14  19
BRANCH  16  21
ATOM     21  O   UNL     1     -16.992  13.997   7.477  1.00  0.00    -0.387 OA
ATOM     22  H   UNL     1     -17.688  13.781   6.802  1.00  0.00     0.211 HD
ENDBRANCH  16  21
BRANCH  17  23
ATOM     23  C   UNL     1     -14.872  14.747  11.217  1.00  0.00     0.191 C 
BRANCH  23  24
ATOM     24  O   UNL     1     -13.906  13.749  11.036  1.00  0.00    -0.394 OA
ATOM     25  H   UNL     1     -14.117  13.039  11.697  1.00  0.00     0.210 HD
ENDBRANCH  23  24
ENDBRANCH  17  23
BRANCH  18  26
ATOM     26  O   UNL     1     -16.014  12.115  10.416  1.00  0.00    -0.387 OA
ATOM     27  H   UNL     1     -16.915  12.125  10.833  1.00  0.00     0.211 HD
ENDBRANCH  18  26
ENDBRANCH  12  13
ENDBRANCH   7  12
BRANCH   4  28
ATOM     28  O   UNL     1     -22.850  19.036   9.501  1.00  0.00    -0.365 OA
ATOM     29  H   UNL     1     -23.273  19.091   8.605  1.00  0.00     0.214 HD
ENDBRANCH   4  28
BRANCH   8  30
ATOM     30  C   UNL     1     -19.846  16.445   6.782  1.00  0.00     0.249 C 
BRANCH  30  31
ATOM     31  O   UNL     1     -20.862  16.762   5.829  1.00  0.00    -0.461 OA
BRANCH  31  32
ATOM     32  C   UNL     1     -20.906  17.951   5.091  1.00  0.00     0.338 C 
ATOM     33  O   UNL     1     -20.001  18.213   4.252  1.00  0.00    -0.246 OA
BRANCH  32  34
ATOM     34  C   UNL     1     -22.024  18.898   5.295  1.00  0.00     0.060 A 
ATOM     35  C   UNL     1     -23.261  18.439   5.782  1.00  0.00     0.015 A 
ATOM     36  C   UNL     1     -21.868  20.267   5.012  1.00  0.00     0.015 A 
ATOM     37  C   UNL     1     -24.320  19.332   5.978  1.00  0.00     0.001 A 
ATOM     38  C   UNL     1     -22.930  21.156   5.210  1.00  0.00     0.001 A 
ATOM     39  C   UNL     1     -24.154  20.690   5.693  1.00  0.00     0.000 A 
ENDBRANCH  32  34
ENDBRANCH  31  32
ENDBRANCH  30  31
ENDBRANCH   8  30
TORSDOF 12
ENDMDL
MODEL 6
REMARK VINA RESULT:    -5.141      2.210      5.575
REMARK INTER + INTRA:         -10.089
REMARK INTER:                  -8.330
REMARK INTRA:                  -1.759
REMARK UNBOUND:                -2.094
REMARK SMILES C[C@@]12C[C@@]3(O)O[C@@H](O1)[C@]1(COC(=O)c4ccccc4)[C@H]3C[C@@]12O[C@@H]1O[C@@H](CO)[C@@H](O)[C@H](O)[C@@H]1O
REMARK SMILES IDX 1 1 2 2 3 3 4 4 20 5 21 6 22 7 9 8 7 9 8 10 6 11 23 12 24 13
REMARK SMILES IDX 33 14 25 15 31 16 26 17 29 18 34 19 32 21 27 23 28 24 30 26
REMARK SMILES IDX 5 28 10 30 11 31 12 32 13 33 14 34 15 35 19 36 16 37 18 38
REMARK SMILES IDX 17 39
REMARK H PARENT 34 20 32 22 28 25 30 27 5 29
REMARK Flexibility Score: inf
ROOT
ATOM      1  C   UNL     1     -22.167  20.156   4.335  1.00  0.00     0.046 C 
ATOM      2  C   UNL     1     -22.603  19.880   5.773  1.00  0.00     0.104 C 
ATOM      3  C   UNL     1     -23.772  20.839   6.206  1.00  0.00     0.104 C 
ATOM      4  C   UNL     1     -24.008  20.467   7.711  1.00  0.00     0.175 C 
ATOM      5  C   UNL     1     -22.652  20.438   8.488  1.00  0.00     0.070 C 
ATOM      6  C   UNL     1     -21.521  21.184   7.752  1.00  0.00     0.050 C 
ATOM      7  C   UNL     1     -21.434  19.936   6.831  1.00  0.00     0.115 C 
ATOM      8  C   UNL     1     -22.113  19.123   7.934  1.00  0.00     0.096 C 
ATOM      9  C   UNL     1     -23.290  18.409   7.291  1.00  0.00     0.267 C 
ATOM     10  O   UNL     1     -23.124  18.571   5.892  1.00  0.00    -0.342 OA
ATOM     11  O   UNL     1     -24.443  19.122   7.709  1.00  0.00    -0.320 OA
ENDROOT
BRANCH   7  12
ATOM     12  O   UNL     1     -20.203  19.375   6.366  1.00  0.00    -0.339 OA
BRANCH  12  13
ATOM     13  C   UNL     1     -19.093  20.261   6.376  1.00  0.00     0.282 C 
ATOM     14  C   UNL     1     -17.814  19.537   6.862  1.00  0.00     0.202 C 
ATOM     15  O   UNL     1     -18.890  20.872   5.106  1.00  0.00    -0.341 OA
ATOM     16  C   UNL     1     -17.277  18.545   5.811  1.00  0.00     0.179 C 
ATOM     17  C   UNL     1     -18.523  19.923   4.117  1.00  0.00     0.178 C 
ATOM     18  C   UNL     1     -17.169  19.253   4.449  1.00  0.00     0.177 C 
BRANCH  14  19
ATOM     19  O   UNL     1     -18.007  18.917   8.110  1.00  0.00    -0.385 OA
ATOM     20  H   UNL     1     -17.475  18.080   8.128  1.00  0.00     0.211 HD
ENDBRANCH  14  19
BRANCH  16  21
ATOM     21  O   UNL     1     -18.129  17.432   5.713  1.00  0.00    -0.387 OA
ATOM     22  H   UNL     1     -17.828  16.907   4.925  1.00  0.00     0.211 HD
ENDBRANCH  16  21
BRANCH  17  23
ATOM     23  C   UNL     1     -18.509  20.606   2.744  1.00  0.00     0.191 C 
BRANCH  23  24
ATOM     24  O   UNL     1     -17.914  19.777   1.785  1.00  0.00    -0.394 OA
ATOM     25  H   UNL     1     -17.346  19.138   2.289  1.00  0.00     0.210 HD
ENDBRANCH  23  24
ENDBRANCH  17  23
BRANCH  18  26
ATOM     26  O   UNL     1     -16.141  20.213   4.507  1.00  0.00    -0.387 OA
ATOM     27  H   UNL     1     -15.444  19.859   5.119  1.00  0.00     0.211 HD
ENDBRANCH  18  26
ENDBRANCH  12  13
ENDBRANCH   7  12
BRANCH   4  28
ATOM     28  O   UNL     1     -24.960  21.292   8.323  1.00  0.00    -0.365 OA
ATOM     29  H   UNL     1     -25.317  21.889   7.615  1.00  0.00     0.214 HD
ENDBRANCH   4  28
BRANCH   8  30
ATOM     30  C   UNL     1     -21.234  18.308   8.904  1.00  0.00     0.249 C 
BRANCH  30  31
ATOM     31  O   UNL     1     -21.383  16.910   8.656  1.00  0.00    -0.461 OA
BRANCH  31  32
ATOM     32  C   UNL     1     -20.413  16.111   8.038  1.00  0.00     0.338 C 
ATOM     33  O   UNL     1     -20.322  16.080   6.780  1.00  0.00    -0.246 OA
BRANCH  32  34
ATOM     34  C   UNL     1     -19.490  15.308   8.869  1.00  0.00     0.060 A 
ATOM     35  C   UNL     1     -19.953  14.681  10.040  1.00  0.00     0.015 A 
ATOM     36  C   UNL     1     -18.140  15.153   8.501  1.00  0.00     0.015 A 
ATOM     37  C   UNL     1     -19.083  13.918  10.827  1.00  0.00     0.001 A 
ATOM     38  C   UNL     1     -17.275  14.390   9.291  1.00  0.00     0.001 A 
ATOM     39  C   UNL     1     -17.745  13.773  10.452  1.00  0.00     0.000 A 
ENDBRANCH  32  34
ENDBRANCH  31  32
ENDBRANCH  30  31
ENDBRANCH   8  30
TORSDOF 12
ENDMDL
MODEL 7
REMARK VINA RESULT:    -5.122      2.980      5.997
REMARK INTER + INTRA:         -10.061
REMARK INTER:                  -8.648
REMARK INTRA:                  -1.413
REMARK UNBOUND:                -2.094
REMARK SMILES C[C@@]12C[C@@]3(O)O[C@@H](O1)[C@]1(COC(=O)c4ccccc4)[C@H]3C[C@@]12O[C@@H]1O[C@@H](CO)[C@@H](O)[C@H](O)[C@@H]1O
REMARK SMILES IDX 1 1 2 2 3 3 4 4 20 5 21 6 22 7 9 8 7 9 8 10 6 11 23 12 24 13
REMARK SMILES IDX 33 14 25 15 31 16 26 17 29 18 34 19 32 21 27 23 28 24 30 26
REMARK SMILES IDX 5 28 10 30 11 31 12 32 13 33 14 34 15 35 19 36 16 37 18 38
REMARK SMILES IDX 17 39
REMARK H PARENT 34 20 32 22 28 25 30 27 5 29
REMARK Flexibility Score: inf
ROOT
ATOM      1  C   UNL     1     -23.800  22.049   4.821  1.00  0.00     0.046 C 
ATOM      2  C   UNL     1     -22.865  21.000   5.420  1.00  0.00     0.104 C 
ATOM      3  C   UNL     1     -22.080  20.229   4.296  1.00  0.00     0.104 C 
ATOM      4  C   UNL     1     -21.260  19.158   5.095  1.00  0.00     0.175 C 
ATOM      5  C   UNL     1     -22.184  18.400   6.103  1.00  0.00     0.070 C 
ATOM      6  C   UNL     1     -23.682  18.552   5.776  1.00  0.00     0.050 C 
ATOM      7  C   UNL     1     -23.570  19.974   6.390  1.00  0.00     0.115 C 
ATOM      8  C   UNL     1     -22.322  19.509   7.142  1.00  0.00     0.096 C 
ATOM      9  C   UNL     1     -21.228  20.520   6.846  1.00  0.00     0.267 C 
ATOM     10  O   UNL     1     -21.873  21.616   6.219  1.00  0.00    -0.342 OA
ATOM     11  O   UNL     1     -20.368  19.888   5.912  1.00  0.00    -0.320 OA
ENDROOT
BRANCH   7  12
ATOM     12  O   UNL     1     -24.570  20.561   7.227  1.00  0.00    -0.339 OA
BRANCH  12  13
ATOM     13  C   UNL     1     -25.727  19.763   7.437  1.00  0.00     0.282 C 
ATOM     14  C   UNL     1     -26.405  20.118   8.782  1.00  0.00     0.202 C 
ATOM     15  O   UNL     1     -26.644  19.864   6.353  1.00  0.00    -0.341 OA
ATOM     16  C   UNL     1     -27.107  21.490   8.731  1.00  0.00     0.179 C 
ATOM     17  C   UNL     1     -27.185  21.171   6.238  1.00  0.00     0.178 C 
ATOM     18  C   UNL     1     -28.012  21.554   7.488  1.00  0.00     0.177 C 
BRANCH  14  19
ATOM     19  O   UNL     1     -25.503  20.037   9.859  1.00  0.00    -0.385 OA
ATOM     20  H   UNL     1     -25.976  20.323  10.683  1.00  0.00     0.211 HD
ENDBRANCH  14  19
BRANCH  16  21
ATOM     21  O   UNL     1     -26.155  22.523   8.692  1.00  0.00    -0.387 OA
ATOM     22  H   UNL     1     -26.372  23.142   9.438  1.00  0.00     0.211 HD
ENDBRANCH  16  21
BRANCH  17  23
ATOM     23  C   UNL     1     -28.008  21.264   4.948  1.00  0.00     0.191 C 
BRANCH  23  24
ATOM     24  O   UNL     1     -28.659  20.051   4.688  1.00  0.00    -0.394 OA
ATOM     25  H   UNL     1     -29.419  20.005   5.325  1.00  0.00     0.210 HD
ENDBRANCH  23  24
ENDBRANCH  17  23
BRANCH  18  26
ATOM     26  O   UNL     1     -29.094  20.671   7.657  1.00  0.00    -0.387 OA
ATOM     27  H   UNL     1     -29.041  20.317   8.583  1.00  0.00     0.211 HD
ENDBRANCH  18  26
ENDBRANCH  12  13
ENDBRANCH   7  12
BRANCH   4  28
ATOM     28  O   UNL     1     -20.556  18.286   4.253  1.00  0.00    -0.365 OA
ATOM     29  H   UNL     1     -21.168  17.533   4.047  1.00  0.00     0.214 HD
ENDBRANCH   4  28
BRANCH   8  30
ATOM     30  C   UNL     1     -22.470  19.031   8.602  1.00  0.00     0.249 C 
BRANCH  30  31
ATOM     31  O   UNL     1     -21.405  19.543   9.403  1.00  0.00    -0.461 OA
BRANCH  31  32
ATOM     32  C   UNL     1     -20.394  18.756   9.966  1.00  0.00     0.338 C 
ATOM     33  O   UNL     1     -19.773  19.153  10.990  1.00  0.00    -0.246 OA
BRANCH  32  34
ATOM     34  C   UNL     1     -20.059  17.450   9.357  1.00  0.00     0.060 A 
ATOM     35  C   UNL     1     -20.591  16.262   9.891  1.00  0.00     0.015 A 
ATOM     36  C   UNL     1     -19.212  17.373   8.236  1.00  0.00     0.015 A 
ATOM     37  C   UNL     1     -20.280  15.025   9.317  1.00  0.00     0.001 A 
ATOM     38  C   UNL     1     -18.903  16.134   7.666  1.00  0.00     0.001 A 
ATOM     39  C   UNL     1     -19.436  14.961   8.205  1.00  0.00     0.000 A 
ENDBRANCH  32  34
ENDBRANCH  31  32
ENDBRANCH  30  31
ENDBRANCH   8  30
TORSDOF 12
ENDMDL
MODEL 8
REMARK VINA RESULT:    -5.121      2.077      4.892
REMARK INTER + INTRA:         -10.060
REMARK INTER:                  -8.683
REMARK INTRA:                  -1.377
REMARK UNBOUND:                -2.094
REMARK SMILES C[C@@]12C[C@@]3(O)O[C@@H](O1)[C@]1(COC(=O)c4ccccc4)[C@H]3C[C@@]12O[C@@H]1O[C@@H](CO)[C@@H](O)[C@H](O)[C@@H]1O
REMARK SMILES IDX 1 1 2 2 3 3 4 4 20 5 21 6 22 7 9 8 7 9 8 10 6 11 23 12 24 13
REMARK SMILES IDX 33 14 25 15 31 16 26 17 29 18 34 19 32 21 27 23 28 24 30 26
REMARK SMILES IDX 5 28 10 30 11 31 12 32 13 33 14 34 15 35 19 36 16 37 18 38
REMARK SMILES IDX 17 39
REMARK H PARENT 34 20 32 22 28 25 30 27 5 29
REMARK Flexibility Score: inf
ROOT
ATOM      1  C   UNL     1     -22.608  21.702   4.971  1.00  0.00     0.046 C 
ATOM      2  C   UNL     1     -22.834  20.578   5.982  1.00  0.00     0.104 C 
ATOM      3  C   UNL     1     -23.684  21.079   7.207  1.00  0.00     0.104 C 
ATOM      4  C   UNL     1     -23.727  19.829   8.154  1.00  0.00     0.175 C 
ATOM      5  C   UNL     1     -22.292  19.241   8.349  1.00  0.00     0.070 C 
ATOM      6  C   UNL     1     -21.177  20.233   7.962  1.00  0.00     0.050 C 
ATOM      7  C   UNL     1     -21.513  19.880   6.488  1.00  0.00     0.115 C 
ATOM      8  C   UNL     1     -22.143  18.578   6.983  1.00  0.00     0.096 C 
ATOM      9  C   UNL     1     -23.536  18.508   6.381  1.00  0.00     0.267 C 
ATOM     10  O   UNL     1     -23.587  19.532   5.402  1.00  0.00    -0.342 OA
ATOM     11  O   UNL     1     -24.425  18.831   7.439  1.00  0.00    -0.320 OA
ENDROOT
BRANCH   7  12
ATOM     12  O   UNL     1     -20.526  19.699   5.468  1.00  0.00    -0.339 OA
BRANCH  12  13
ATOM     13  C   UNL     1     -19.261  20.284   5.742  1.00  0.00     0.282 C 
ATOM     14  C   UNL     1     -18.112  19.347   5.297  1.00  0.00     0.202 C 
ATOM     15  O   UNL     1     -19.133  21.573   5.152  1.00  0.00    -0.341 OA
ATOM     16  C   UNL     1     -17.981  19.281   3.762  1.00  0.00     0.179 C 
ATOM     17  C   UNL     1     -19.146  21.509   3.734  1.00  0.00     0.178 C 
ATOM     18  C   UNL     1     -17.938  20.709   3.191  1.00  0.00     0.177 C 
BRANCH  14  19
ATOM     19  O   UNL     1     -18.236  18.065   5.863  1.00  0.00    -0.385 OA
ATOM     20  H   UNL     1     -19.003  17.606   5.432  1.00  0.00     0.211 HD
ENDBRANCH  14  19
BRANCH  16  21
ATOM     21  O   UNL     1     -19.062  18.571   3.212  1.00  0.00    -0.387 OA
ATOM     22  H   UNL     1     -19.031  17.656   3.598  1.00  0.00     0.211 HD
ENDBRANCH  16  21
BRANCH  17  23
ATOM     23  C   UNL     1     -19.201  22.932   3.165  1.00  0.00     0.191 C 
BRANCH  23  24
ATOM     24  O   UNL     1     -18.670  22.967   1.869  1.00  0.00    -0.394 OA
ATOM     25  H   UNL     1     -19.234  22.359   1.324  1.00  0.00     0.210 HD
ENDBRANCH  23  24
ENDBRANCH  17  23
BRANCH  18  26
ATOM     26  O   UNL     1     -16.729  21.321   3.569  1.00  0.00    -0.387 OA
ATOM     27  H   UNL     1     -16.465  20.935   4.444  1.00  0.00     0.211 HD
ENDBRANCH  18  26
ENDBRANCH  12  13
ENDBRANCH   7  12
BRANCH   4  28
ATOM     28  O   UNL     1     -24.365  20.102   9.370  1.00  0.00    -0.365 OA
ATOM     29  H   UNL     1     -25.062  19.405   9.490  1.00  0.00     0.214 HD
ENDBRANCH   4  28
BRANCH   8  30
ATOM     30  C   UNL     1     -21.297  17.288   6.963  1.00  0.00     0.249 C 
BRANCH  30  31
ATOM     31  O   UNL     1     -21.614  16.468   8.088  1.00  0.00    -0.461 OA
BRANCH  31  32
ATOM     32  C   UNL     1     -20.665  15.949   8.977  1.00  0.00     0.338 C 
ATOM     33  O   UNL     1     -20.746  14.751   9.366  1.00  0.00    -0.246 OA
BRANCH  32  34
ATOM     34  C   UNL     1     -19.562  16.810   9.455  1.00  0.00     0.060 A 
ATOM     35  C   UNL     1     -19.820  17.854  10.363  1.00  0.00     0.015 A 
ATOM     36  C   UNL     1     -18.242  16.599   9.017  1.00  0.00     0.015 A 
ATOM     37  C   UNL     1     -18.780  18.670  10.819  1.00  0.00     0.001 A 
ATOM     38  C   UNL     1     -17.205  17.418   9.476  1.00  0.00     0.001 A 
ATOM     39  C   UNL     1     -17.472  18.451  10.376  1.00  0.00     0.000 A 
ENDBRANCH  32  34
ENDBRANCH  31  32
ENDBRANCH  30  31
ENDBRANCH   8  30
TORSDOF 12
ENDMDL
MODEL 9
REMARK VINA RESULT:    -5.043      1.971      6.592
REMARK INTER + INTRA:          -9.937
REMARK INTER:                  -8.468
REMARK INTRA:                  -1.470
REMARK UNBOUND:                -2.094
REMARK SMILES C[C@@]12C[C@@]3(O)O[C@@H](O1)[C@]1(COC(=O)c4ccccc4)[C@H]3C[C@@]12O[C@@H]1O[C@@H](CO)[C@@H](O)[C@H](O)[C@@H]1O
REMARK SMILES IDX 1 1 2 2 3 3 4 4 20 5 21 6 22 7 9 8 7 9 8 10 6 11 23 12 24 13
REMARK SMILES IDX 33 14 25 15 31 16 26 17 29 18 34 19 32 21 27 23 28 24 30 26
REMARK SMILES IDX 5 28 10 30 11 31 12 32 13 33 14 34 15 35 19 36 16 37 18 38
REMARK SMILES IDX 17 39
REMARK H PARENT 34 20 32 22 28 25 30 27 5 29
REMARK Flexibility Score: inf
ROOT
ATOM      1  C   UNL     1     -20.237  19.334  10.425  1.00  0.00     0.046 C 
ATOM      2  C   UNL     1     -21.042  19.075   9.152  1.00  0.00     0.104 C 
ATOM      3  C   UNL     1     -22.569  19.383   9.372  1.00  0.00     0.104 C 
ATOM      4  C   UNL     1     -23.222  18.975   8.007  1.00  0.00     0.175 C 
ATOM      5  C   UNL     1     -22.736  17.555   7.569  1.00  0.00     0.070 C 
ATOM      6  C   UNL     1     -22.126  16.744   8.730  1.00  0.00     0.050 C 
ATOM      7  C   UNL     1     -20.862  17.628   8.550  1.00  0.00     0.115 C 
ATOM      8  C   UNL     1     -21.327  17.937   7.126  1.00  0.00     0.096 C 
ATOM      9  C   UNL     1     -21.313  19.448   6.978  1.00  0.00     0.267 C 
ATOM     10  O   UNL     1     -20.627  19.943   8.116  1.00  0.00    -0.342 OA
ATOM     11  O   UNL     1     -22.673  19.850   7.043  1.00  0.00    -0.320 OA
ENDROOT
BRANCH   7  12
ATOM     12  O   UNL     1     -19.524  17.129   8.631  1.00  0.00    -0.339 OA
BRANCH  12  13
ATOM     13  C   UNL     1     -19.307  16.140   9.627  1.00  0.00     0.282 C 
ATOM     14  C   UNL     1     -18.942  14.780   8.984  1.00  0.00     0.202 C 
ATOM     15  O   UNL     1     -18.323  16.545  10.572  1.00  0.00    -0.341 OA
ATOM     16  C   UNL     1     -17.520  14.786   8.387  1.00  0.00     0.179 C 
ATOM     17  C   UNL     1     -17.041  16.674   9.977  1.00  0.00     0.178 C 
ATOM     18  C   UNL     1     -16.528  15.318   9.436  1.00  0.00     0.177 C 
BRANCH  14  19
ATOM     19  O   UNL     1     -19.900  14.376   8.037  1.00  0.00    -0.385 OA
ATOM     20  H   UNL     1     -19.496  14.448   7.134  1.00  0.00     0.211 HD
ENDBRANCH  14  19
BRANCH  16  21
ATOM     21  O   UNL     1     -17.481  15.586   7.233  1.00  0.00    -0.387 OA
ATOM     22  H   UNL     1     -17.435  16.530   7.537  1.00  0.00     0.211 HD
ENDBRANCH  16  21
BRANCH  17  23
ATOM     23  C   UNL     1     -16.074  17.295  10.993  1.00  0.00     0.191 C 
BRANCH  23  24
ATOM     24  O   UNL     1     -14.778  16.795  10.812  1.00  0.00    -0.394 OA
ATOM     25  H   UNL     1     -14.540  16.335  11.660  1.00  0.00     0.210 HD
ENDBRANCH  23  24
ENDBRANCH  17  23
BRANCH  18  26
ATOM     26  O   UNL     1     -16.411  14.380  10.479  1.00  0.00    -0.387 OA
ATOM     27  H   UNL     1     -17.232  13.823  10.466  1.00  0.00     0.211 HD
ENDBRANCH  18  26
ENDBRANCH  12  13
ENDBRANCH   7  12
BRANCH   4  28
ATOM     28  O   UNL     1     -24.619  19.081   8.029  1.00  0.00    -0.365 OA
ATOM     29  H   UNL     1     -24.948  18.694   7.177  1.00  0.00     0.214 HD
ENDBRANCH   4  28
BRANCH   8  30
ATOM     30  C   UNL     1     -20.753  17.105   5.960  1.00  0.00     0.249 C 
BRANCH  30  31
ATOM     31  O   UNL     1     -20.231  17.964   4.946  1.00  0.00    -0.461 OA
BRANCH  31  32
ATOM     32  C   UNL     1     -18.923  18.464   4.934  1.00  0.00     0.338 C 
ATOM     33  O   UNL     1     -18.028  17.921   5.637  1.00  0.00    -0.246 OA
BRANCH  32  34
ATOM     34  C   UNL     1     -18.594  19.630   4.086  1.00  0.00     0.060 A 
ATOM     35  C   UNL     1     -17.337  19.719   3.460  1.00  0.00     0.015 A 
ATOM     36  C   UNL     1     -19.528  20.663   3.887  1.00  0.00     0.015 A 
ATOM     37  C   UNL     1     -17.022  20.819   2.656  1.00  0.00     0.001 A 
ATOM     38  C   UNL     1     -19.209  21.761   3.082  1.00  0.00     0.001 A 
ATOM     39  C   UNL     1     -17.958  21.839   2.467  1.00  0.00     0.000 A 
ENDBRANCH  32  34
ENDBRANCH  31  32
ENDBRANCH  30  31
ENDBRANCH   8  30
TORSDOF 12
ENDMDL
