MODEL 1
REMARK VINA RESULT:    -2.950      0.000      0.000
REMARK INTER + INTRA:          -3.519
REMARK INTER:                  -3.468
REMARK INTRA:                  -0.052
REMARK UNBOUND:                -0.052
REMARK SMILES O=C([O-])CCC(=O)[O-]
REMARK SMILES IDX 4 1 2 2 1 3 3 4 5 5 6 6 7 7 8 8
REMARK H PARENT
REMARK Flexibility Score: inf
ROOT
ATOM      1  C   UNL     1      14.256   8.370 -26.291  1.00  0.00     0.059 C 
ENDROOT
BRANCH   1   2
ATOM      2  C   UNL     1      15.235   7.382 -25.739  1.00  0.00     0.042 C 
ATOM      3  O   UNL     1      14.847   6.241 -25.377  1.00  0.00    -0.550 OA
ATOM      4  O   UNL     1      16.568   7.739 -25.578  1.00  0.00    -0.550 OA
ENDBRANCH   1   2
BRANCH   1   5
ATOM      5  C   UNL     1      14.989   9.498 -27.019  1.00  0.00     0.059 C 
BRANCH   5   6
ATOM      6  C   UNL     1      14.333   9.785 -28.333  1.00  0.00     0.042 C 
ATOM      7  O   UNL     1      13.188   9.326 -28.583  1.00  0.00    -0.550 OA
ATOM      8  O   UNL     1      14.966  10.602 -29.263  1.00  0.00    -0.550 OA
ENDBRANCH   5   6
ENDBRANCH   1   5
TORSDOF 3
ENDMDL
MODEL 2
REMARK VINA RESULT:    -2.944      1.308      4.115
REMARK INTER + INTRA:          -3.512
REMARK INTER:                  -3.409
REMARK INTRA:                  -0.104
REMARK UNBOUND:                -0.052
REMARK SMILES O=C([O-])CCC(=O)[O-]
REMARK SMILES IDX 4 1 2 2 1 3 3 4 5 5 6 6 7 7 8 8
REMARK H PARENT
REMARK Flexibility Score: inf
ROOT
ATOM      1  C   UNL     1      15.304   9.210 -26.576  1.00  0.00     0.059 C 
ENDROOT
BRANCH   1   2
ATOM      2  C   UNL     1      13.990   9.089 -27.282  1.00  0.00     0.042 C 
ATOM      3  O   UNL     1      13.398  10.118 -27.699  1.00  0.00    -0.550 OA
ATOM      4  O   UNL     1      13.395   7.842 -27.436  1.00  0.00    -0.550 OA
ENDBRANCH   1   2
BRANCH   1   5
ATOM      5  C   UNL     1      15.332   8.306 -25.342  1.00  0.00     0.059 C 
BRANCH   5   6
ATOM      6  C   UNL     1      16.323   7.200 -25.527  1.00  0.00     0.042 C 
ATOM      7  O   UNL     1      17.556   7.431 -25.430  1.00  0.00    -0.550 OA
ATOM      8  O   UNL     1      15.881   5.902 -25.759  1.00  0.00    -0.550 OA
ENDBRANCH   5   6
ENDBRANCH   1   5
TORSDOF 3
ENDMDL
MODEL 3
REMARK VINA RESULT:    -2.932      1.698      1.787
REMARK INTER + INTRA:          -3.498
REMARK INTER:                  -3.385
REMARK INTRA:                  -0.113
REMARK UNBOUND:                -0.052
REMARK SMILES O=C([O-])CCC(=O)[O-]
REMARK SMILES IDX 4 1 2 2 1 3 3 4 5 5 6 6 7 7 8 8
REMARK H PARENT
REMARK Flexibility Score: inf
ROOT
ATOM      1  C   UNL     1      14.427   8.322 -26.327  1.00  0.00     0.059 C 
ENDROOT
BRANCH   1   2
ATOM      2  C   UNL     1      13.854   8.738 -25.009  1.00  0.00     0.042 C 
ATOM      3  O   UNL     1      12.689   9.209 -24.945  1.00  0.00    -0.550 OA
ATOM      4  O   UNL     1      14.627   8.653 -23.856  1.00  0.00    -0.550 OA
ENDBRANCH   1   2
BRANCH   1   5
ATOM      5  C   UNL     1      15.055   9.521 -27.039  1.00  0.00     0.059 C 
BRANCH   5   6
ATOM      6  C   UNL     1      14.342   9.795 -28.327  1.00  0.00     0.042 C 
ATOM      7  O   UNL     1      13.181   9.347 -28.516  1.00  0.00    -0.550 OA
ATOM      8  O   UNL     1      14.941  10.588 -29.298  1.00  0.00    -0.550 OA
ENDBRANCH   5   6
ENDBRANCH   1   5
TORSDOF 3
ENDMDL
MODEL 4
REMARK VINA RESULT:    -2.906      1.301      1.682
REMARK INTER + INTRA:          -3.467
REMARK INTER:                  -3.368
REMARK INTRA:                  -0.099
REMARK UNBOUND:                -0.052
REMARK SMILES O=C([O-])CCC(=O)[O-]
REMARK SMILES IDX 4 1 2 2 1 3 3 4 5 5 6 6 7 7 8 8
REMARK H PARENT
REMARK Flexibility Score: inf
ROOT
ATOM      1  C   UNL     1      15.280   8.258 -25.291  1.00  0.00     0.059 C 
ENDROOT
BRANCH   1   2
ATOM      2  C   UNL     1      16.262   7.151 -25.517  1.00  0.00     0.042 C 
ATOM      3  O   UNL     1      15.861   5.966 -25.649  1.00  0.00    -0.550 OA
ATOM      4  O   UNL     1      17.625   7.424 -25.534  1.00  0.00    -0.550 OA
ENDBRANCH   1   2
BRANCH   1   5
ATOM      5  C   UNL     1      15.264   9.211 -26.487  1.00  0.00     0.059 C 
BRANCH   5   6
ATOM      6  C   UNL     1      13.976   9.084 -27.239  1.00  0.00     0.042 C 
ATOM      7  O   UNL     1      13.420  10.106 -27.718  1.00  0.00    -0.550 OA
ATOM      8  O   UNL     1      13.417   7.830 -27.453  1.00  0.00    -0.550 OA
ENDBRANCH   5   6
ENDBRANCH   1   5
TORSDOF 3
ENDMDL
MODEL 5
REMARK VINA RESULT:    -2.900      1.013      3.820
REMARK INTER + INTRA:          -3.461
REMARK INTER:                  -3.373
REMARK INTRA:                  -0.087
REMARK UNBOUND:                -0.052
REMARK SMILES O=C([O-])CCC(=O)[O-]
REMARK SMILES IDX 4 1 2 2 1 3 3 4 5 5 6 6 7 7 8 8
REMARK H PARENT
REMARK Flexibility Score: inf
ROOT
ATOM      1  C   UNL     1      15.267   9.356 -26.655  1.00  0.00     0.059 C 
ENDROOT
BRANCH   1   2
ATOM      2  C   UNL     1      14.168   9.140 -27.648  1.00  0.00     0.042 C 
ATOM      3  O   UNL     1      13.397   8.152 -27.534  1.00  0.00    -0.550 OA
ATOM      4  O   UNL     1      14.026  10.004 -28.727  1.00  0.00    -0.550 OA
ENDBRANCH   1   2
BRANCH   1   5
ATOM      5  C   UNL     1      15.094   8.423 -25.455  1.00  0.00     0.059 C 
BRANCH   5   6
ATOM      6  C   UNL     1      16.039   7.267 -25.551  1.00  0.00     0.042 C 
ATOM      7  O   UNL     1      15.597   6.101 -25.720  1.00  0.00    -0.550 OA
ATOM      8  O   UNL     1      17.411   7.484 -25.504  1.00  0.00    -0.550 OA
ENDBRANCH   5   6
ENDBRANCH   1   5
TORSDOF 3
ENDMDL
MODEL 6
REMARK VINA RESULT:    -2.899      1.759      3.933
REMARK INTER + INTRA:          -3.459
REMARK INTER:                  -3.353
REMARK INTRA:                  -0.106
REMARK UNBOUND:                -0.052
REMARK SMILES O=C([O-])CCC(=O)[O-]
REMARK SMILES IDX 4 1 2 2 1 3 3 4 5 5 6 6 7 7 8 8
REMARK H PARENT
REMARK Flexibility Score: inf
ROOT
ATOM      1  C   UNL     1      15.016   9.426 -27.005  1.00  0.00     0.059 C 
ENDROOT
BRANCH   1   2
ATOM      2  C   UNL     1      14.329   9.779 -28.286  1.00  0.00     0.042 C 
ATOM      3  O   UNL     1      13.185   9.319 -28.540  1.00  0.00    -0.550 OA
ATOM      4  O   UNL     1      14.972  10.580 -29.222  1.00  0.00    -0.550 OA
ENDBRANCH   1   2
BRANCH   1   5
ATOM      5  C   UNL     1      14.239   8.336 -26.265  1.00  0.00     0.059 C 
BRANCH   5   6
ATOM      6  C   UNL     1      13.716   8.859 -24.963  1.00  0.00     0.042 C 
ATOM      7  O   UNL     1      12.559   9.349 -24.897  1.00  0.00    -0.550 OA
ATOM      8  O   UNL     1      14.490   8.759 -23.813  1.00  0.00    -0.550 OA
ENDBRANCH   5   6
ENDBRANCH   1   5
TORSDOF 3
ENDMDL
MODEL 7
REMARK VINA RESULT:    -2.864      3.001      5.425
REMARK INTER + INTRA:          -3.418
REMARK INTER:                  -3.387
REMARK INTRA:                  -0.031
REMARK UNBOUND:                -0.052
REMARK SMILES O=C([O-])CCC(=O)[O-]
REMARK SMILES IDX 4 1 2 2 1 3 3 4 5 5 6 6 7 7 8 8
REMARK H PARENT
REMARK Flexibility Score: inf
ROOT
ATOM      1  C   UNL     1      17.212   7.193 -25.410  1.00  0.00     0.059 C 
ENDROOT
BRANCH   1   2
ATOM      2  C   UNL     1      15.905   7.919 -25.334  1.00  0.00     0.042 C 
ATOM      3  O   UNL     1      15.508   8.611 -26.307  1.00  0.00    -0.550 OA
ATOM      4  O   UNL     1      15.150   7.872 -24.168  1.00  0.00    -0.550 OA
ENDBRANCH   1   2
BRANCH   1   5
ATOM      5  C   UNL     1      17.854   7.103 -24.025  1.00  0.00     0.059 C 
BRANCH   5   6
ATOM      6  C   UNL     1      19.343   6.997 -24.145  1.00  0.00     0.042 C 
ATOM      7  O   UNL     1      20.089   7.648 -23.369  1.00  0.00    -0.550 OA
ATOM      8  O   UNL     1      19.904   6.139 -25.084  1.00  0.00    -0.550 OA
ENDBRANCH   5   6
ENDBRANCH   1   5
TORSDOF 3
ENDMDL
MODEL 8
REMARK VINA RESULT:    -2.838      2.886      4.093
REMARK INTER + INTRA:          -3.388
REMARK INTER:                  -3.354
REMARK INTRA:                  -0.034
REMARK UNBOUND:                -0.052
REMARK SMILES O=C([O-])CCC(=O)[O-]
REMARK SMILES IDX 4 1 2 2 1 3 3 4 5 5 6 6 7 7 8 8
REMARK H PARENT
REMARK Flexibility Score: inf
ROOT
ATOM      1  C   UNL     1      17.702   7.153 -24.125  1.00  0.00     0.059 C 
ENDROOT
BRANCH   1   2
ATOM      2  C   UNL     1      19.176   6.941 -24.280  1.00  0.00     0.042 C 
ATOM      3  O   UNL     1      19.611   6.116 -25.125  1.00  0.00    -0.550 OA
ATOM      4  O   UNL     1      20.067   7.619 -23.457  1.00  0.00    -0.550 OA
ENDBRANCH   1   2
BRANCH   1   5
ATOM      5  C   UNL     1      17.021   7.191 -25.494  1.00  0.00     0.059 C 
BRANCH   5   6
ATOM      6  C   UNL     1      15.797   8.051 -25.444  1.00  0.00     0.042 C 
ATOM      7  O   UNL     1      15.074   8.064 -24.414  1.00  0.00    -0.550 OA
ATOM      8  O   UNL     1      15.481   8.874 -26.519  1.00  0.00    -0.550 OA
ENDBRANCH   5   6
ENDBRANCH   1   5
TORSDOF 3
ENDMDL
MODEL 9
REMARK VINA RESULT:    -2.783      2.052      2.913
REMARK INTER + INTRA:          -3.323
REMARK INTER:                  -3.293
REMARK INTRA:                  -0.030
REMARK UNBOUND:                -0.052
REMARK SMILES O=C([O-])CCC(=O)[O-]
REMARK SMILES IDX 4 1 2 2 1 3 3 4 5 5 6 6 7 7 8 8
REMARK H PARENT
REMARK Flexibility Score: inf
ROOT
ATOM      1  C   UNL     1      16.625   7.369 -25.527  1.00  0.00     0.059 C 
ENDROOT
BRANCH   1   2
ATOM      2  C   UNL     1      17.487   7.219 -24.312  1.00  0.00     0.042 C 
ATOM      3  O   UNL     1      18.741   7.215 -24.422  1.00  0.00    -0.550 OA
ATOM      4  O   UNL     1      16.904   7.035 -23.064  1.00  0.00    -0.550 OA
ENDBRANCH   1   2
BRANCH   1   5
ATOM      5  C   UNL     1      15.406   8.237 -25.213  1.00  0.00     0.059 C 
BRANCH   5   6
ATOM      6  C   UNL     1      14.788   8.747 -26.477  1.00  0.00     0.042 C 
ATOM      7  O   UNL     1      15.308   9.715 -27.090  1.00  0.00    -0.550 OA
ATOM      8  O   UNL     1      13.665   8.120 -27.004  1.00  0.00    -0.550 OA
ENDBRANCH   5   6
ENDBRANCH   1   5
TORSDOF 3
ENDMDL
