MODEL 1
REMARK VINA RESULT:    -6.221      0.000      0.000
REMARK INTER + INTRA:          -6.847
REMARK INTER:                  -6.585
REMARK INTRA:                  -0.262
REMARK UNBOUND:                -0.262
REMARK SMILES O=c1cc(-c2ccccc2)oc2ccccc12
REMARK SMILES IDX 4 1 3 2 2 3 1 4 17 5 16 6 15 7 14 8 13 9 12 10 11 11 5 12
REMARK SMILES IDX 8 13 7 14 9 15 6 16 10 17
REMARK H PARENT
REMARK Flexibility Score: inf
ROOT
ATOM      1  C   UNL     1     -16.922  -2.353  -9.450  1.00  0.00     0.138 A 
ATOM      2  C   UNL     1     -18.257  -1.898  -9.492  1.00  0.00     0.100 A 
ATOM      3  C   UNL     1     -18.515  -0.540  -9.695  1.00  0.00     0.193 A 
ATOM      4  O   UNL     1     -19.709  -0.134  -9.734  1.00  0.00    -0.289 OA
ATOM      5  C   UNL     1     -17.444   0.351  -9.852  1.00  0.00     0.065 A 
ATOM      6  C   UNL     1     -17.635   1.729 -10.058  1.00  0.00     0.016 A 
ATOM      7  C   UNL     1     -16.531   2.573 -10.209  1.00  0.00     0.001 A 
ATOM      8  C   UNL     1     -15.235   2.053 -10.154  1.00  0.00     0.004 A 
ATOM      9  C   UNL     1     -15.036   0.684  -9.950  1.00  0.00     0.048 A 
ATOM     10  C   UNL     1     -16.134  -0.170  -9.799  1.00  0.00     0.138 A 
ATOM     11  O   UNL     1     -15.935  -1.470  -9.604  1.00  0.00    -0.456 OA
ENDROOT
BRANCH   1  12
ATOM     12  C   UNL     1     -16.558  -3.788  -9.238  1.00  0.00     0.017 A 
ATOM     13  C   UNL     1     -15.963  -6.513  -8.803  1.00  0.00     0.000 A 
ATOM     14  C   UNL     1     -14.989  -5.660  -9.321  1.00  0.00     0.001 A 
ATOM     15  C   UNL     1     -17.230  -6.018  -8.500  1.00  0.00     0.001 A 
ATOM     16  C   UNL     1     -15.279  -4.308  -9.538  1.00  0.00     0.012 A 
ATOM     17  C   UNL     1     -17.528  -4.669  -8.715  1.00  0.00     0.012 A 
ENDBRANCH   1  12
TORSDOF 1
ENDMDL
MODEL 2
REMARK VINA RESULT:    -5.938      1.990      6.748
REMARK INTER + INTRA:          -6.548
REMARK INTER:                  -6.288
REMARK INTRA:                  -0.259
REMARK UNBOUND:                -0.262
REMARK SMILES O=c1cc(-c2ccccc2)oc2ccccc12
REMARK SMILES IDX 4 1 3 2 2 3 1 4 17 5 16 6 15 7 14 8 13 9 12 10 11 11 5 12
REMARK SMILES IDX 8 13 7 14 9 15 6 16 10 17
REMARK H PARENT
REMARK Flexibility Score: inf
ROOT
ATOM      1  C   UNL     1     -16.968   2.216 -10.185  1.00  0.00     0.138 A 
ATOM      2  C   UNL     1     -18.271   1.691 -10.057  1.00  0.00     0.100 A 
ATOM      3  C   UNL     1     -18.445   0.317  -9.875  1.00  0.00     0.193 A 
ATOM      4  O   UNL     1     -19.610  -0.152  -9.760  1.00  0.00    -0.289 OA
ATOM      5  C   UNL     1     -17.322  -0.520  -9.825  1.00  0.00     0.065 A 
ATOM      6  C   UNL     1     -17.427  -1.912  -9.646  1.00  0.00     0.016 A 
ATOM      7  C   UNL     1     -16.274  -2.701  -9.603  1.00  0.00     0.001 A 
ATOM      8  C   UNL     1     -15.013  -2.112  -9.738  1.00  0.00     0.004 A 
ATOM      9  C   UNL     1     -14.900  -0.730  -9.916  1.00  0.00     0.048 A 
ATOM     10  C   UNL     1     -16.047   0.069  -9.960  1.00  0.00     0.138 A 
ATOM     11  O   UNL     1     -15.929   1.382 -10.131  1.00  0.00    -0.456 OA
ENDROOT
BRANCH   1  12
ATOM     12  C   UNL     1     -16.694   3.673 -10.381  1.00  0.00     0.017 A 
ATOM     13  C   UNL     1     -16.267   6.433 -10.789  1.00  0.00     0.000 A 
ATOM     14  C   UNL     1     -15.259   5.646 -10.234  1.00  0.00     0.001 A 
ATOM     15  C   UNL     1     -17.486   5.856 -11.142  1.00  0.00     0.001 A 
ATOM     16  C   UNL     1     -15.465   4.277 -10.030  1.00  0.00     0.012 A 
ATOM     17  C   UNL     1     -17.700   4.489 -10.941  1.00  0.00     0.012 A 
ENDBRANCH   1  12
TORSDOF 1
ENDMDL
MODEL 3
REMARK VINA RESULT:    -5.614      7.799      9.217
REMARK INTER + INTRA:          -6.205
REMARK INTER:                  -5.947
REMARK INTRA:                  -0.258
REMARK UNBOUND:                -0.262
REMARK SMILES O=c1cc(-c2ccccc2)oc2ccccc12
REMARK SMILES IDX 4 1 3 2 2 3 1 4 17 5 16 6 15 7 14 8 13 9 12 10 11 11 5 12
REMARK SMILES IDX 8 13 7 14 9 15 6 16 10 17
REMARK H PARENT
REMARK Flexibility Score: inf
ROOT
ATOM      1  C   UNL     1     -18.281  -7.175 -15.337  1.00  0.00     0.138 A 
ATOM      2  C   UNL     1     -18.973  -6.289 -16.190  1.00  0.00     0.100 A 
ATOM      3  C   UNL     1     -18.463  -6.018 -17.461  1.00  0.00     0.193 A 
ATOM      4  O   UNL     1     -19.082  -5.227 -18.224  1.00  0.00    -0.289 OA
ATOM      5  C   UNL     1     -17.269  -6.629 -17.871  1.00  0.00     0.065 A 
ATOM      6  C   UNL     1     -16.700  -6.399 -19.137  1.00  0.00     0.016 A 
ATOM      7  C   UNL     1     -15.508  -7.034 -19.494  1.00  0.00     0.001 A 
ATOM      8  C   UNL     1     -14.876  -7.899 -18.597  1.00  0.00     0.004 A 
ATOM      9  C   UNL     1     -15.433  -8.134 -17.337  1.00  0.00     0.048 A 
ATOM     10  C   UNL     1     -16.627  -7.504 -16.969  1.00  0.00     0.138 A 
ATOM     11  O   UNL     1     -17.150  -7.733 -15.768  1.00  0.00    -0.456 OA
ENDROOT
BRANCH   1  12
ATOM     12  C   UNL     1     -18.759  -7.519 -13.962  1.00  0.00     0.017 A 
ATOM     13  C   UNL     1     -19.565  -8.187 -11.341  1.00  0.00     0.000 A 
ATOM     14  C   UNL     1     -20.516  -7.815 -12.290  1.00  0.00     0.001 A 
ATOM     15  C   UNL     1     -18.215  -8.228 -11.688  1.00  0.00     0.001 A 
ATOM     16  C   UNL     1     -20.122  -7.484 -13.591  1.00  0.00     0.012 A 
ATOM     17  C   UNL     1     -17.813  -7.898 -12.985  1.00  0.00     0.012 A 
ENDBRANCH   1  12
TORSDOF 1
ENDMDL
MODEL 4
REMARK VINA RESULT:    -5.556      2.019      6.383
REMARK INTER + INTRA:          -6.143
REMARK INTER:                  -5.891
REMARK INTRA:                  -0.252
REMARK UNBOUND:                -0.262
REMARK SMILES O=c1cc(-c2ccccc2)oc2ccccc12
REMARK SMILES IDX 4 1 3 2 2 3 1 4 17 5 16 6 15 7 14 8 13 9 12 10 11 11 5 12
REMARK SMILES IDX 8 13 7 14 9 15 6 16 10 17
REMARK H PARENT
REMARK Flexibility Score: inf
ROOT
ATOM      1  C   UNL     1     -16.876  -3.845  -9.163  1.00  0.00     0.138 A 
ATOM      2  C   UNL     1     -17.969  -4.447  -8.503  1.00  0.00     0.100 A 
ATOM      3  C   UNL     1     -18.021  -5.837  -8.387  1.00  0.00     0.193 A 
ATOM      4  O   UNL     1     -18.998  -6.376  -7.797  1.00  0.00    -0.289 OA
ATOM      5  C   UNL     1     -16.989  -6.615  -8.930  1.00  0.00     0.065 A 
ATOM      6  C   UNL     1     -16.981  -8.020  -8.849  1.00  0.00     0.016 A 
ATOM      7  C   UNL     1     -15.925  -8.747  -9.407  1.00  0.00     0.001 A 
ATOM      8  C   UNL     1     -14.876  -8.083 -10.047  1.00  0.00     0.004 A 
ATOM      9  C   UNL     1     -14.875  -6.688 -10.132  1.00  0.00     0.048 A 
ATOM     10  C   UNL     1     -15.926  -5.950  -9.577  1.00  0.00     0.138 A 
ATOM     11  O   UNL     1     -15.917  -4.624  -9.663  1.00  0.00    -0.456 OA
ENDROOT
BRANCH   1  12
ATOM     12  C   UNL     1     -16.743  -2.364  -9.330  1.00  0.00     0.017 A 
ATOM     13  C   UNL     1     -16.588   0.435  -9.657  1.00  0.00     0.000 A 
ATOM     14  C   UNL     1     -15.427  -0.308  -9.445  1.00  0.00     0.001 A 
ATOM     15  C   UNL     1     -17.825  -0.206  -9.707  1.00  0.00     0.001 A 
ATOM     16  C   UNL     1     -15.498  -1.696  -9.283  1.00  0.00     0.012 A 
ATOM     17  C   UNL     1     -17.904  -1.593  -9.545  1.00  0.00     0.012 A 
ENDBRANCH   1  12
TORSDOF 1
ENDMDL
MODEL 5
REMARK VINA RESULT:    -5.542      1.335      2.507
REMARK INTER + INTRA:          -6.128
REMARK INTER:                  -5.867
REMARK INTRA:                  -0.261
REMARK UNBOUND:                -0.262
REMARK SMILES O=c1cc(-c2ccccc2)oc2ccccc12
REMARK SMILES IDX 4 1 3 2 2 3 1 4 17 5 16 6 15 7 14 8 13 9 12 10 11 11 5 12
REMARK SMILES IDX 8 13 7 14 9 15 6 16 10 17
REMARK H PARENT
REMARK Flexibility Score: inf
ROOT
ATOM      1  C   UNL     1     -16.879  -3.049  -9.324  1.00  0.00     0.138 A 
ATOM      2  C   UNL     1     -15.738  -2.233  -9.476  1.00  0.00     0.100 A 
ATOM      3  C   UNL     1     -15.895  -0.861  -9.685  1.00  0.00     0.193 A 
ATOM      4  O   UNL     1     -14.875  -0.131  -9.821  1.00  0.00    -0.289 OA
ATOM      5  C   UNL     1     -17.185  -0.315  -9.743  1.00  0.00     0.065 A 
ATOM      6  C   UNL     1     -17.414   1.058  -9.952  1.00  0.00     0.016 A 
ATOM      7  C   UNL     1     -18.721   1.550 -10.001  1.00  0.00     0.001 A 
ATOM      8  C   UNL     1     -19.805   0.682  -9.843  1.00  0.00     0.004 A 
ATOM      9  C   UNL     1     -19.588  -0.683  -9.635  1.00  0.00     0.048 A 
ATOM     10  C   UNL     1     -18.283  -1.186  -9.584  1.00  0.00     0.138 A 
ATOM     11  O   UNL     1     -18.086  -2.486  -9.386  1.00  0.00    -0.456 OA
ENDROOT
BRANCH   1  12
ATOM     12  C   UNL     1     -16.799  -4.525  -9.097  1.00  0.00     0.017 A 
ATOM     13  C   UNL     1     -16.740  -7.307  -8.628  1.00  0.00     0.000 A 
ATOM     14  C   UNL     1     -15.642  -6.674  -9.209  1.00  0.00     0.001 A 
ATOM     15  C   UNL     1     -17.867  -6.565  -8.279  1.00  0.00     0.001 A 
ATOM     16  C   UNL     1     -15.666  -5.295  -9.443  1.00  0.00     0.012 A 
ATOM     17  C   UNL     1     -17.899  -5.186  -8.511  1.00  0.00     0.012 A 
ENDBRANCH   1  12
TORSDOF 1
ENDMDL
MODEL 6
REMARK VINA RESULT:    -5.365      1.738      6.503
REMARK INTER + INTRA:          -5.941
REMARK INTER:                  -5.675
REMARK INTRA:                  -0.266
REMARK UNBOUND:                -0.262
REMARK SMILES O=c1cc(-c2ccccc2)oc2ccccc12
REMARK SMILES IDX 4 1 3 2 2 3 1 4 17 5 16 6 15 7 14 8 13 9 12 10 11 11 5 12
REMARK SMILES IDX 8 13 7 14 9 15 6 16 10 17
REMARK H PARENT
REMARK Flexibility Score: inf
ROOT
ATOM      1  C   UNL     1     -16.895  -2.997  -9.629  1.00  0.00     0.138 A 
ATOM      2  C   UNL     1     -15.847  -3.825 -10.084  1.00  0.00     0.100 A 
ATOM      3  C   UNL     1     -15.812  -5.166  -9.696  1.00  0.00     0.193 A 
ATOM      4  O   UNL     1     -14.875  -5.907 -10.104  1.00  0.00    -0.289 OA
ATOM      5  C   UNL     1     -16.816  -5.670  -8.859  1.00  0.00     0.065 A 
ATOM      6  C   UNL     1     -16.839  -7.010  -8.430  1.00  0.00     0.016 A 
ATOM      7  C   UNL     1     -17.866  -7.460  -7.595  1.00  0.00     0.001 A 
ATOM      8  C   UNL     1     -18.872  -6.582  -7.182  1.00  0.00     0.004 A 
ATOM      9  C   UNL     1     -18.858  -5.249  -7.603  1.00  0.00     0.048 A 
ATOM     10  C   UNL     1     -17.835  -4.788  -8.439  1.00  0.00     0.138 A 
ATOM     11  O   UNL     1     -17.829  -3.519  -8.834  1.00  0.00    -0.456 OA
ENDROOT
BRANCH   1  12
ATOM     12  C   UNL     1     -17.008  -1.552  -9.997  1.00  0.00     0.017 A 
ATOM     13  C   UNL     1     -17.134   1.169 -10.738  1.00  0.00     0.000 A 
ATOM     14  C   UNL     1     -18.164   0.601  -9.988  1.00  0.00     0.001 A 
ATOM     15  C   UNL     1     -16.042   0.391 -11.121  1.00  0.00     0.001 A 
ATOM     16  C   UNL     1     -18.106  -0.747  -9.618  1.00  0.00     0.012 A 
ATOM     17  C   UNL     1     -15.977  -0.957 -10.756  1.00  0.00     0.012 A 
ENDBRANCH   1  12
TORSDOF 1
ENDMDL
MODEL 7
REMARK VINA RESULT:    -5.285      9.048     10.894
REMARK INTER + INTRA:          -5.856
REMARK INTER:                  -5.593
REMARK INTRA:                  -0.263
REMARK UNBOUND:                -0.262
REMARK SMILES O=c1cc(-c2ccccc2)oc2ccccc12
REMARK SMILES IDX 4 1 3 2 2 3 1 4 17 5 16 6 15 7 14 8 13 9 12 10 11 11 5 12
REMARK SMILES IDX 8 13 7 14 9 15 6 16 10 17
REMARK H PARENT
REMARK Flexibility Score: inf
ROOT
ATOM      1  C   UNL     1     -17.312   8.084  -9.191  1.00  0.00     0.138 A 
ATOM      2  C   UNL     1     -16.175   8.897  -9.001  1.00  0.00     0.100 A 
ATOM      3  C   UNL     1     -15.892   9.398  -7.728  1.00  0.00     0.193 A 
ATOM      4  O   UNL     1     -14.875  10.124  -7.558  1.00  0.00    -0.289 OA
ATOM      5  C   UNL     1     -16.743   9.087  -6.659  1.00  0.00     0.065 A 
ATOM      6  C   UNL     1     -16.517   9.559  -5.353  1.00  0.00     0.016 A 
ATOM      7  C   UNL     1     -17.398   9.218  -4.323  1.00  0.00     0.001 A 
ATOM      8  C   UNL     1     -18.506   8.408  -4.585  1.00  0.00     0.004 A 
ATOM      9  C   UNL     1     -18.739   7.934  -5.879  1.00  0.00     0.048 A 
ATOM     10  C   UNL     1     -17.864   8.269  -6.917  1.00  0.00     0.138 A 
ATOM     11  O   UNL     1     -18.094   7.814  -8.145  1.00  0.00    -0.456 OA
ENDROOT
BRANCH   1  12
ATOM     12  C   UNL     1     -17.687   7.507 -10.520  1.00  0.00     0.017 A 
ATOM     13  C   UNL     1     -18.455   6.356 -12.979  1.00  0.00     0.000 A 
ATOM     14  C   UNL     1     -17.523   7.393 -12.955  1.00  0.00     0.001 A 
ATOM     15  C   UNL     1     -19.006   5.888 -11.788  1.00  0.00     0.001 A 
ATOM     16  C   UNL     1     -17.138   7.967 -11.738  1.00  0.00     0.012 A 
ATOM     17  C   UNL     1     -18.628   6.457 -10.568  1.00  0.00     0.012 A 
ENDBRANCH   1  12
TORSDOF 1
ENDMDL
MODEL 8
REMARK VINA RESULT:    -5.258      7.301      9.079
REMARK INTER + INTRA:          -5.828
REMARK INTER:                  -5.570
REMARK INTRA:                  -0.258
REMARK UNBOUND:                -0.262
REMARK SMILES O=c1cc(-c2ccccc2)oc2ccccc12
REMARK SMILES IDX 4 1 3 2 2 3 1 4 17 5 16 6 15 7 14 8 13 9 12 10 11 11 5 12
REMARK SMILES IDX 8 13 7 14 9 15 6 16 10 17
REMARK H PARENT
REMARK Flexibility Score: inf
ROOT
ATOM      1  C   UNL     1     -17.389  -7.563 -15.177  1.00  0.00     0.138 A 
ATOM      2  C   UNL     1     -18.736  -7.648 -14.767  1.00  0.00     0.100 A 
ATOM      3  C   UNL     1     -19.033  -7.876 -13.421  1.00  0.00     0.193 A 
ATOM      4  O   UNL     1     -20.238  -7.952 -13.055  1.00  0.00    -0.289 OA
ATOM      5  C   UNL     1     -17.988  -8.020 -12.498  1.00  0.00     0.065 A 
ATOM      6  C   UNL     1     -18.218  -8.253 -11.130  1.00  0.00     0.016 A 
ATOM      7  C   UNL     1     -17.139  -8.388 -10.252  1.00  0.00     0.001 A 
ATOM      8  C   UNL     1     -15.829  -8.294 -10.729  1.00  0.00     0.004 A 
ATOM      9  C   UNL     1     -15.591  -8.062 -12.087  1.00  0.00     0.048 A 
ATOM     10  C   UNL     1     -16.663  -7.925 -12.974  1.00  0.00     0.138 A 
ATOM     11  O   UNL     1     -16.427  -7.706 -14.264  1.00  0.00    -0.456 OA
ENDROOT
BRANCH   1  12
ATOM     12  C   UNL     1     -16.984  -7.320 -16.596  1.00  0.00     0.017 A 
ATOM     13  C   UNL     1     -16.306  -6.816 -19.289  1.00  0.00     0.000 A 
ATOM     14  C   UNL     1     -15.417  -7.504 -18.463  1.00  0.00     0.001 A 
ATOM     15  C   UNL     1     -17.529  -6.379 -18.784  1.00  0.00     0.001 A 
ATOM     16  C   UNL     1     -15.749  -7.756 -17.127  1.00  0.00     0.012 A 
ATOM     17  C   UNL     1     -17.867  -6.627 -17.450  1.00  0.00     0.012 A 
ENDBRANCH   1  12
TORSDOF 1
ENDMDL
