MODEL 1
REMARK VINA RESULT:    -4.556      0.000      0.000
REMARK INTER + INTRA:          -5.805
REMARK INTER:                  -5.621
REMARK INTRA:                  -0.184
REMARK UNBOUND:                -0.184
REMARK SMILES C=CC[C@H](C)C(=O)CC
REMARK SMILES IDX 4 1 5 2 6 3 7 4 8 5 9 6 3 7 2 8 1 9
REMARK H PARENT
REMARK Flexibility Score: inf
ROOT
ATOM      1  C   UNL     1     -19.890 -20.410  14.050  1.00  0.00     0.057 C 
ATOM      2  C   UNL     1     -20.061 -21.766  13.356  1.00  0.00     0.016 C 
ENDROOT
BRANCH   1   3
ATOM      3  C   UNL     1     -20.482 -20.465  15.445  1.00  0.00     0.135 C 
ATOM      4  O   UNL     1     -21.240 -19.581  15.817  1.00  0.00    -0.299 OA
BRANCH   3   5
ATOM      5  C   UNL     1     -20.166 -21.604  16.379  1.00  0.00     0.072 C 
ATOM      6  C   UNL     1     -21.316 -21.851  17.349  1.00  0.00     0.012 C 
ENDBRANCH   3   5
ENDBRANCH   1   3
BRANCH   1   7
ATOM      7  C   UNL     1     -20.539 -19.289  13.211  1.00  0.00     0.038 C 
BRANCH   7   8
ATOM      8  C   UNL     1     -20.682 -19.675  11.762  1.00  0.00    -0.034 C 
ATOM      9  C   UNL     1     -20.574 -18.775  10.780  1.00  0.00     0.004 C 
ENDBRANCH   7   8
ENDBRANCH   1   7
TORSDOF 4
ENDMDL
MODEL 2
REMARK VINA RESULT:    -4.329      1.866      4.349
REMARK INTER + INTRA:          -5.525
REMARK INTER:                  -5.304
REMARK INTRA:                  -0.221
REMARK UNBOUND:                -0.184
REMARK SMILES C=CC[C@H](C)C(=O)CC
REMARK SMILES IDX 4 1 5 2 6 3 7 4 8 5 9 6 3 7 2 8 1 9
REMARK H PARENT
REMARK Flexibility Score: inf
ROOT
ATOM      1  C   UNL     1     -20.022 -20.204  14.341  1.00  0.00     0.057 C 
ATOM      2  C   UNL     1     -21.021 -19.063  14.570  1.00  0.00     0.016 C 
ENDROOT
BRANCH   1   3
ATOM      3  C   UNL     1     -20.097 -20.673  12.901  1.00  0.00     0.135 C 
ATOM      4  O   UNL     1     -20.507 -19.912  12.036  1.00  0.00    -0.299 OA
BRANCH   3   5
ATOM      5  C   UNL     1     -19.661 -22.062  12.512  1.00  0.00     0.072 C 
ATOM      6  C   UNL     1     -18.168 -22.099  12.204  1.00  0.00     0.012 C 
ENDBRANCH   3   5
ENDBRANCH   1   3
BRANCH   1   7
ATOM      7  C   UNL     1     -20.291 -21.363  15.323  1.00  0.00     0.038 C 
BRANCH   7   8
ATOM      8  C   UNL     1     -20.967 -20.893  16.585  1.00  0.00    -0.034 C 
ATOM      9  C   UNL     1     -21.657 -21.728  17.366  1.00  0.00     0.004 C 
ENDBRANCH   7   8
ENDBRANCH   1   7
TORSDOF 4
ENDMDL
MODEL 3
REMARK VINA RESULT:    -4.280     10.948     12.741
REMARK INTER + INTRA:          -5.464
REMARK INTER:                  -5.324
REMARK INTRA:                  -0.140
REMARK UNBOUND:                -0.184
REMARK SMILES C=CC[C@H](C)C(=O)CC
REMARK SMILES IDX 4 1 5 2 6 3 7 4 8 5 9 6 3 7 2 8 1 9
REMARK H PARENT
REMARK Flexibility Score: inf
ROOT
ATOM      1  C   UNL     1     -17.256 -14.605  24.787  1.00  0.00     0.057 C 
ATOM      2  C   UNL     1     -17.880 -13.875  25.983  1.00  0.00     0.016 C 
ENDROOT
BRANCH   1   3
ATOM      3  C   UNL     1     -18.312 -15.430  24.079  1.00  0.00     0.135 C 
ATOM      4  O   UNL     1     -19.314 -15.784  24.686  1.00  0.00    -0.299 OA
BRANCH   3   5
ATOM      5  C   UNL     1     -18.159 -15.812  22.629  1.00  0.00     0.072 C 
ATOM      6  C   UNL     1     -19.470 -15.627  21.874  1.00  0.00     0.012 C 
ENDBRANCH   3   5
ENDBRANCH   1   3
BRANCH   1   7
ATOM      7  C   UNL     1     -16.075 -15.484  25.248  1.00  0.00     0.038 C 
BRANCH   7   8
ATOM      8  C   UNL     1     -15.018 -14.685  25.965  1.00  0.00    -0.034 C 
ATOM      9  C   UNL     1     -13.858 -15.231  26.343  1.00  0.00     0.004 C 
ENDBRANCH   7   8
ENDBRANCH   1   7
TORSDOF 4
ENDMDL
MODEL 4
REMARK VINA RESULT:    -4.091      8.938      9.928
REMARK INTER + INTRA:          -5.231
REMARK INTER:                  -5.069
REMARK INTRA:                  -0.162
REMARK UNBOUND:                -0.184
REMARK SMILES C=CC[C@H](C)C(=O)CC
REMARK SMILES IDX 4 1 5 2 6 3 7 4 8 5 9 6 3 7 2 8 1 9
REMARK H PARENT
REMARK Flexibility Score: inf
ROOT
ATOM      1  C   UNL     1     -15.054 -22.205  21.350  1.00  0.00     0.057 C 
ATOM      2  C   UNL     1     -14.635 -22.635  22.760  1.00  0.00     0.016 C 
ENDROOT
BRANCH   1   3
ATOM      3  C   UNL     1     -13.829 -21.828  20.540  1.00  0.00     0.135 C 
ATOM      4  O   UNL     1     -13.188 -20.830  20.840  1.00  0.00    -0.299 OA
BRANCH   3   5
ATOM      5  C   UNL     1     -13.373 -22.671  19.378  1.00  0.00     0.072 C 
ATOM      6  C   UNL     1     -11.884 -22.981  19.478  1.00  0.00     0.012 C 
ENDBRANCH   3   5
ENDBRANCH   1   3
BRANCH   1   7
ATOM      7  C   UNL     1     -16.061 -21.038  21.418  1.00  0.00     0.038 C 
BRANCH   7   8
ATOM      8  C   UNL     1     -17.376 -21.457  22.021  1.00  0.00    -0.034 C 
ATOM      9  C   UNL     1     -17.867 -20.870  23.117  1.00  0.00     0.004 C 
ENDBRANCH   7   8
ENDBRANCH   1   7
TORSDOF 4
ENDMDL
MODEL 5
REMARK VINA RESULT:    -4.001      0.931      4.392
REMARK INTER + INTRA:          -5.120
REMARK INTER:                  -4.963
REMARK INTRA:                  -0.158
REMARK UNBOUND:                -0.184
REMARK SMILES C=CC[C@H](C)C(=O)CC
REMARK SMILES IDX 4 1 5 2 6 3 7 4 8 5 9 6 3 7 2 8 1 9
REMARK H PARENT
REMARK Flexibility Score: inf
ROOT
ATOM      1  C   UNL     1     -20.371 -20.972  13.926  1.00  0.00     0.057 C 
ATOM      2  C   UNL     1     -19.161 -21.674  13.298  1.00  0.00     0.016 C 
ENDROOT
BRANCH   1   3
ATOM      3  C   UNL     1     -20.779 -19.787  13.073  1.00  0.00     0.135 C 
ATOM      4  O   UNL     1     -21.112 -18.740  13.610  1.00  0.00    -0.299 OA
BRANCH   3   5
ATOM      5  C   UNL     1     -20.766 -19.869  11.569  1.00  0.00     0.072 C 
ATOM      6  C   UNL     1     -20.496 -18.503  10.948  1.00  0.00     0.012 C 
ENDBRANCH   3   5
ENDBRANCH   1   3
BRANCH   1   7
ATOM      7  C   UNL     1     -20.052 -20.538  15.372  1.00  0.00     0.038 C 
BRANCH   7   8
ATOM      8  C   UNL     1     -20.308 -21.640  16.366  1.00  0.00    -0.034 C 
ATOM      9  C   UNL     1     -21.397 -21.652  17.139  1.00  0.00     0.004 C 
ENDBRANCH   7   8
ENDBRANCH   1   7
TORSDOF 4
ENDMDL
MODEL 6
REMARK VINA RESULT:    -3.810     11.049     11.706
REMARK INTER + INTRA:          -4.885
REMARK INTER:                  -4.403
REMARK INTRA:                  -0.482
REMARK UNBOUND:                -0.184
REMARK SMILES C=CC[C@H](C)C(=O)CC
REMARK SMILES IDX 4 1 5 2 6 3 7 4 8 5 9 6 3 7 2 8 1 9
REMARK H PARENT
REMARK Flexibility Score: inf
ROOT
ATOM      1  C   UNL     1     -10.928 -22.211  20.792  1.00  0.00     0.057 C 
ATOM      2  C   UNL     1     -11.462 -23.174  21.859  1.00  0.00     0.016 C 
ENDROOT
BRANCH   1   3
ATOM      3  C   UNL     1     -11.795 -20.968  20.742  1.00  0.00     0.135 C 
ATOM      4  O   UNL     1     -13.013 -21.075  20.777  1.00  0.00    -0.299 OA
BRANCH   3   5
ATOM      5  C   UNL     1     -11.181 -19.594  20.663  1.00  0.00     0.072 C 
ATOM      6  C   UNL     1      -9.725 -19.619  21.116  1.00  0.00     0.012 C 
ENDBRANCH   3   5
ENDBRANCH   1   3
BRANCH   1   7
ATOM      7  C   UNL     1     -10.868 -22.907  19.417  1.00  0.00     0.038 C 
BRANCH   7   8
ATOM      8  C   UNL     1      -9.612 -22.561  18.660  1.00  0.00    -0.034 C 
ATOM      9  C   UNL     1      -9.580 -21.566  17.769  1.00  0.00     0.004 C 
ENDBRANCH   7   8
ENDBRANCH   1   7
TORSDOF 4
ENDMDL
MODEL 7
REMARK VINA RESULT:    -3.769     10.694     12.109
REMARK INTER + INTRA:          -4.835
REMARK INTER:                  -4.387
REMARK INTRA:                  -0.448
REMARK UNBOUND:                -0.184
REMARK SMILES C=CC[C@H](C)C(=O)CC
REMARK SMILES IDX 4 1 5 2 6 3 7 4 8 5 9 6 3 7 2 8 1 9
REMARK H PARENT
REMARK Flexibility Score: inf
ROOT
ATOM      1  C   UNL     1     -11.367 -21.778  19.591  1.00  0.00     0.057 C 
ATOM      2  C   UNL     1     -12.475 -22.837  19.610  1.00  0.00     0.016 C 
ENDROOT
BRANCH   1   3
ATOM      3  C   UNL     1     -10.009 -22.453  19.564  1.00  0.00     0.135 C 
ATOM      4  O   UNL     1      -9.602 -23.036  20.559  1.00  0.00    -0.299 OA
BRANCH   3   5
ATOM      5  C   UNL     1      -9.155 -22.433  18.323  1.00  0.00     0.072 C 
ATOM      6  C   UNL     1      -9.606 -21.336  17.366  1.00  0.00     0.012 C 
ENDBRANCH   3   5
ENDBRANCH   1   3
BRANCH   1   7
ATOM      7  C   UNL     1     -11.499 -20.836  20.806  1.00  0.00     0.038 C 
BRANCH   7   8
ATOM      8  C   UNL     1     -10.694 -19.574  20.637  1.00  0.00    -0.034 C 
ATOM      9  C   UNL     1      -9.691 -19.264  21.463  1.00  0.00     0.004 C 
ENDBRANCH   7   8
ENDBRANCH   1   7
TORSDOF 4
ENDMDL
MODEL 8
REMARK VINA RESULT:    -3.735      9.454     10.791
REMARK INTER + INTRA:          -4.792
REMARK INTER:                  -4.570
REMARK INTRA:                  -0.222
REMARK UNBOUND:                -0.184
REMARK SMILES C=CC[C@H](C)C(=O)CC
REMARK SMILES IDX 4 1 5 2 6 3 7 4 8 5 9 6 3 7 2 8 1 9
REMARK H PARENT
REMARK Flexibility Score: inf
ROOT
ATOM      1  C   UNL     1     -11.256 -22.045  20.309  1.00  0.00     0.057 C 
ATOM      2  C   UNL     1     -10.918 -22.534  21.723  1.00  0.00     0.016 C 
ENDROOT
BRANCH   1   3
ATOM      3  C   UNL     1     -12.759 -22.048  20.109  1.00  0.00     0.135 C 
ATOM      4  O   UNL     1     -13.243 -22.654  19.163  1.00  0.00    -0.299 OA
BRANCH   3   5
ATOM      5  C   UNL     1     -13.673 -21.327  21.065  1.00  0.00     0.072 C 
ATOM      6  C   UNL     1     -15.014 -22.043  21.184  1.00  0.00     0.012 C 
ENDBRANCH   3   5
ENDBRANCH   1   3
BRANCH   1   7
ATOM      7  C   UNL     1     -10.549 -22.918  19.252  1.00  0.00     0.038 C 
BRANCH   7   8
ATOM      8  C   UNL     1      -9.534 -22.137  18.458  1.00  0.00    -0.034 C 
ATOM      9  C   UNL     1      -9.900 -21.252  17.526  1.00  0.00     0.004 C 
ENDBRANCH   7   8
ENDBRANCH   1   7
TORSDOF 4
ENDMDL
MODEL 9
REMARK VINA RESULT:    -3.729     13.848     15.367
REMARK INTER + INTRA:          -4.784
REMARK INTER:                  -4.618
REMARK INTRA:                  -0.166
REMARK UNBOUND:                -0.184
REMARK SMILES C=CC[C@H](C)C(=O)CC
REMARK SMILES IDX 4 1 5 2 6 3 7 4 8 5 9 6 3 7 2 8 1 9
REMARK H PARENT
REMARK Flexibility Score: inf
ROOT
ATOM      1  C   UNL     1     -18.176 -30.264  25.975  1.00  0.00     0.057 C 
ATOM      2  C   UNL     1     -16.770 -30.321  26.584  1.00  0.00     0.016 C 
ENDROOT
BRANCH   1   3
ATOM      3  C   UNL     1     -18.252 -31.178  24.767  1.00  0.00     0.135 C 
ATOM      4  O   UNL     1     -19.335 -31.409  24.248  1.00  0.00    -0.299 OA
BRANCH   3   5
ATOM      5  C   UNL     1     -17.010 -31.798  24.181  1.00  0.00     0.072 C 
ATOM      6  C   UNL     1     -16.981 -33.303  24.428  1.00  0.00     0.012 C 
ENDBRANCH   3   5
ENDBRANCH   1   3
BRANCH   1   7
ATOM      7  C   UNL     1     -18.545 -28.814  25.603  1.00  0.00     0.038 C 
BRANCH   7   8
ATOM      8  C   UNL     1     -19.900 -28.419  26.130  1.00  0.00    -0.034 C 
ATOM      9  C   UNL     1     -20.516 -27.304  25.726  1.00  0.00     0.004 C 
ENDBRANCH   7   8
ENDBRANCH   1   7
TORSDOF 4
ENDMDL
