MODEL 1
REMARK VINA RESULT:    -5.767      0.000      0.000
REMARK INTER + INTRA:          -9.602
REMARK INTER:                  -7.958
REMARK INTRA:                  -1.644
REMARK UNBOUND:                -1.644
REMARK SMILES O=C([O-])[C@@H]1O[C@H](Oc2cc3oc(-c4ccccc4)cc(=O)c3c(O)c2O)[C@@H](O)[C@H](O)[C@@H]1O
REMARK SMILES IDX 7 1 6 2 4 3 31 4 5 5 29 6 27 7 2 8 1 9 3 10 32 11 30 13
REMARK SMILES IDX 28 15 8 17 25 18 9 19 23 20 10 21 22 22 11 23 20 24 12 25
REMARK SMILES IDX 19 26 21 27 26 28 24 30 13 32 14 33 18 34 15 35 17 36 16 37
REMARK H PARENT 32 12 30 14 28 16 26 29 24 31
REMARK Flexibility Score: inf
ROOT
ATOM      1  O   UNL     1      19.550  17.763  27.876  1.00  0.00    -0.458 OA
ENDROOT
BRANCH   1   2
ATOM      2  C   UNL     1      18.575  18.742  27.511  1.00  0.00     0.339 C 
ATOM      3  C   UNL     1      16.422  18.220  28.451  1.00  0.00     0.199 C 
ATOM      4  C   UNL     1      17.142  18.194  29.818  1.00  0.00     0.180 C 
ATOM      5  O   UNL     1      17.304  18.115  27.340  1.00  0.00    -0.328 OA
ATOM      6  C   UNL     1      18.117  19.392  29.933  1.00  0.00     0.181 C 
ATOM      7  C   UNL     1      18.595  19.886  28.545  1.00  0.00     0.214 C 
BRANCH   3   8
ATOM      8  C   UNL     1      15.420  17.105  28.377  1.00  0.00     0.073 C 
ATOM      9  O   UNL     1      14.969  16.589  29.433  1.00  0.00    -0.547 OA
ATOM     10  O   UNL     1      15.015  16.611  27.143  1.00  0.00    -0.547 OA
ENDBRANCH   3   8
BRANCH   4  11
ATOM     11  O   UNL     1      17.826  16.970  29.965  1.00  0.00    -0.387 OA
ATOM     12  H   UNL     1      18.760  17.189  30.224  1.00  0.00     0.211 HD
ENDBRANCH   4  11
BRANCH   6  13
ATOM     13  O   UNL     1      19.221  19.039  30.728  1.00  0.00    -0.387 OA
ATOM     14  H   UNL     1      19.189  19.610  31.539  1.00  0.00     0.211 HD
ENDBRANCH   6  13
BRANCH   7  15
ATOM     15  O   UNL     1      17.756  20.924  28.096  1.00  0.00    -0.384 OA
ATOM     16  H   UNL     1      16.839  20.555  28.009  1.00  0.00     0.211 HD
ENDBRANCH   7  15
ENDBRANCH   1   2
BRANCH   1  17
ATOM     17  C   UNL     1      20.941  17.923  27.781  1.00  0.00     0.172 A 
ATOM     18  C   UNL     1      21.722  17.573  28.892  1.00  0.00     0.201 A 
ATOM     19  C   UNL     1      21.558  18.428  26.625  1.00  0.00     0.098 A 
ATOM     20  C   UNL     1      23.133  17.713  28.845  1.00  0.00     0.176 A 
ATOM     21  C   UNL     1      22.941  18.584  26.569  1.00  0.00     0.146 A 
ATOM     22  C   UNL     1      23.745  18.229  27.675  1.00  0.00     0.111 A 
ATOM     23  O   UNL     1      23.490  19.068  25.458  1.00  0.00    -0.456 OA
ATOM     24  C   UNL     1      25.139  18.416  27.550  1.00  0.00     0.197 A 
ATOM     25  C   UNL     1      24.798  19.247  25.306  1.00  0.00     0.138 A 
ATOM     26  C   UNL     1      25.665  18.927  26.363  1.00  0.00     0.100 A 
ATOM     27  O   UNL     1      25.928  18.133  28.492  1.00  0.00    -0.289 OA
BRANCH  18  28
ATOM     28  O   UNL     1      21.053  17.098  30.023  1.00  0.00    -0.502 OA
ATOM     29  H   UNL     1      21.191  16.184  30.428  1.00  0.00     0.293 HD
ENDBRANCH  18  28
BRANCH  20  30
ATOM     30  O   UNL     1      23.936  17.346  29.930  1.00  0.00    -0.504 OA
ATOM     31  H   UNL     1      24.313  16.421  30.078  1.00  0.00     0.293 HD
ENDBRANCH  20  30
BRANCH  25  32
ATOM     32  C   UNL     1      25.299  19.789  24.018  1.00  0.00     0.017 A 
ATOM     33  C   UNL     1      24.490  20.592  23.188  1.00  0.00     0.012 A 
ATOM     34  C   UNL     1      26.628  19.538  23.630  1.00  0.00     0.012 A 
ATOM     35  C   UNL     1      24.999  21.114  21.996  1.00  0.00     0.001 A 
ATOM     36  C   UNL     1      27.130  20.060  22.435  1.00  0.00     0.001 A 
ATOM     37  C   UNL     1      26.317  20.847  21.618  1.00  0.00     0.000 A 
ENDBRANCH  25  32
ENDBRANCH   1  17
TORSDOF 9
ENDMDL
MODEL 2
REMARK VINA RESULT:    -5.529     12.653     14.442
REMARK INTER + INTRA:          -9.273
REMARK INTER:                  -7.718
REMARK INTRA:                  -1.555
REMARK UNBOUND:                -1.644
REMARK SMILES O=C([O-])[C@@H]1O[C@H](Oc2cc3oc(-c4ccccc4)cc(=O)c3c(O)c2O)[C@@H](O)[C@H](O)[C@@H]1O
REMARK SMILES IDX 7 1 6 2 4 3 31 4 5 5 29 6 27 7 2 8 1 9 3 10 32 11 30 13
REMARK SMILES IDX 28 15 8 17 25 18 9 19 23 20 10 21 22 22 11 23 20 24 12 25
REMARK SMILES IDX 19 26 21 27 26 28 24 30 13 32 14 33 18 34 15 35 17 36 16 37
REMARK H PARENT 32 12 30 14 28 16 26 29 24 31
REMARK Flexibility Score: inf
ROOT
ATOM      1  O   UNL     1      22.311   7.583  30.737  1.00  0.00    -0.458 OA
ENDROOT
BRANCH   1   2
ATOM      2  C   UNL     1      23.419   8.480  30.837  1.00  0.00     0.339 C 
ATOM      3  C   UNL     1      22.815  10.482  32.027  1.00  0.00     0.199 C 
ATOM      4  C   UNL     1      22.366   9.543  33.168  1.00  0.00     0.180 C 
ATOM      5  O   UNL     1      22.954   9.828  30.771  1.00  0.00    -0.328 OA
ATOM      6  C   UNL     1      23.415   8.425  33.385  1.00  0.00     0.181 C 
ATOM      7  C   UNL     1      24.234   8.140  32.102  1.00  0.00     0.214 C 
BRANCH   3   8
ATOM      8  C   UNL     1      21.837  11.610  31.874  1.00  0.00     0.073 C 
ATOM      9  O   UNL     1      22.048  12.520  31.029  1.00  0.00    -0.547 OA
ATOM     10  O   UNL     1      20.715  11.678  32.692  1.00  0.00    -0.547 OA
ENDBRANCH   3   8
BRANCH   4  11
ATOM     11  O   UNL     1      21.103   8.999  32.859  1.00  0.00    -0.387 OA
ATOM     12  H   UNL     1      20.879   8.357  33.583  1.00  0.00     0.211 HD
ENDBRANCH   4  11
BRANCH   6  13
ATOM     13  O   UNL     1      22.781   7.250  33.826  1.00  0.00    -0.387 OA
ATOM     14  H   UNL     1      22.108   7.008  33.137  1.00  0.00     0.211 HD
ENDBRANCH   6  13
BRANCH   7  15
ATOM     15  O   UNL     1      25.412   8.911  32.109  1.00  0.00    -0.384 OA
ATOM     16  H   UNL     1      25.530   9.274  33.025  1.00  0.00     0.211 HD
ENDBRANCH   7  15
ENDBRANCH   1   2
BRANCH   1  17
ATOM     17  C   UNL     1      22.398   6.200  30.515  1.00  0.00     0.172 A 
ATOM     18  C   UNL     1      21.667   5.350  31.355  1.00  0.00     0.201 A 
ATOM     19  C   UNL     1      23.197   5.657  29.496  1.00  0.00     0.098 A 
ATOM     20  C   UNL     1      21.718   3.944  31.169  1.00  0.00     0.176 A 
ATOM     21  C   UNL     1      23.269   4.278  29.309  1.00  0.00     0.146 A 
ATOM     22  C   UNL     1      22.533   3.406  30.141  1.00  0.00     0.111 A 
ATOM     23  O   UNL     1      24.038   3.799  28.335  1.00  0.00    -0.456 OA
ATOM     24  C   UNL     1      22.655   2.020  29.897  1.00  0.00     0.197 A 
ATOM     25  C   UNL     1      24.167   2.502  28.075  1.00  0.00     0.138 A 
ATOM     26  C   UNL     1      23.475   1.569  28.863  1.00  0.00     0.100 A 
ATOM     27  O   UNL     1      22.039   1.172  30.598  1.00  0.00    -0.289 OA
BRANCH  18  28
ATOM     28  O   UNL     1      20.908   5.944  32.367  1.00  0.00    -0.502 OA
ATOM     29  H   UNL     1      20.955   6.921  32.619  1.00  0.00     0.293 HD
ENDBRANCH  18  28
BRANCH  20  30
ATOM     30  O   UNL     1      20.977   3.076  31.978  1.00  0.00    -0.504 OA
ATOM     31  H   UNL     1      19.990   2.894  31.871  1.00  0.00     0.293 HD
ENDBRANCH  20  30
BRANCH  25  32
ATOM     32  C   UNL     1      25.050   2.084  26.957  1.00  0.00     0.017 A 
ATOM     33  C   UNL     1      24.613   2.114  25.617  1.00  0.00     0.012 A 
ATOM     34  C   UNL     1      26.373   1.689  27.230  1.00  0.00     0.012 A 
ATOM     35  C   UNL     1      25.477   1.744  24.583  1.00  0.00     0.001 A 
ATOM     36  C   UNL     1      27.231   1.317  26.192  1.00  0.00     0.001 A 
ATOM     37  C   UNL     1      26.785   1.344  24.870  1.00  0.00     0.000 A 
ENDBRANCH  25  32
ENDBRANCH   1  17
TORSDOF 9
ENDMDL
MODEL 3
REMARK VINA RESULT:    -5.395     12.514     15.763
REMARK INTER + INTRA:          -9.088
REMARK INTER:                  -7.612
REMARK INTRA:                  -1.476
REMARK UNBOUND:                -1.644
REMARK SMILES O=C([O-])[C@@H]1O[C@H](Oc2cc3oc(-c4ccccc4)cc(=O)c3c(O)c2O)[C@@H](O)[C@H](O)[C@@H]1O
REMARK SMILES IDX 7 1 6 2 4 3 31 4 5 5 29 6 27 7 2 8 1 9 3 10 32 11 30 13
REMARK SMILES IDX 28 15 8 17 25 18 9 19 23 20 10 21 22 22 11 23 20 24 12 25
REMARK SMILES IDX 19 26 21 27 26 28 24 30 13 32 14 33 18 34 15 35 17 36 16 37
REMARK H PARENT 32 12 30 14 28 16 26 29 24 31
REMARK Flexibility Score: inf
ROOT
ATOM      1  O   UNL     1       9.793  14.352  23.227  1.00  0.00    -0.458 OA
ENDROOT
BRANCH   1   2
ATOM      2  C   UNL     1       8.943  14.896  22.216  1.00  0.00     0.339 C 
ATOM      3  C   UNL     1       9.398  17.231  21.857  1.00  0.00     0.199 C 
ATOM      4  C   UNL     1      10.861  16.801  21.609  1.00  0.00     0.180 C 
ATOM      5  O   UNL     1       8.622  16.249  22.534  1.00  0.00    -0.328 OA
ATOM      6  C   UNL     1      10.902  15.536  20.716  1.00  0.00     0.181 C 
ATOM      7  C   UNL     1       9.606  14.697  20.837  1.00  0.00     0.214 C 
BRANCH   3   8
ATOM      8  C   UNL     1       9.365  18.502  22.654  1.00  0.00     0.073 C 
ATOM      9  O   UNL     1       8.880  19.551  22.153  1.00  0.00    -0.547 OA
ATOM     10  O   UNL     1       9.905  18.539  23.935  1.00  0.00    -0.547 OA
ENDBRANCH   3   8
BRANCH   4  11
ATOM     11  O   UNL     1      11.498  16.568  22.844  1.00  0.00    -0.387 OA
ATOM     12  H   UNL     1      12.141  17.312  22.983  1.00  0.00     0.211 HD
ENDBRANCH   4  11
BRANCH   6  13
ATOM     13  O   UNL     1      12.020  14.750  21.047  1.00  0.00    -0.387 OA
ATOM     14  H   UNL     1      12.790  15.368  21.144  1.00  0.00     0.211 HD
ENDBRANCH   6  13
BRANCH   7  15
ATOM     15  O   UNL     1       8.696  15.081  19.832  1.00  0.00    -0.384 OA
ATOM     16  H   UNL     1       8.274  14.257  19.477  1.00  0.00     0.211 HD
ENDBRANCH   7  15
ENDBRANCH   1   2
BRANCH   1  17
ATOM     17  C   UNL     1       9.373  13.894  24.487  1.00  0.00     0.172 A 
ATOM     18  C   UNL     1       9.114  14.847  25.481  1.00  0.00     0.201 A 
ATOM     19  C   UNL     1       9.220  12.528  24.771  1.00  0.00     0.098 A 
ATOM     20  C   UNL     1       8.684  14.436  26.769  1.00  0.00     0.176 A 
ATOM     21  C   UNL     1       8.810  12.108  26.035  1.00  0.00     0.146 A 
ATOM     22  C   UNL     1       8.538  13.053  27.048  1.00  0.00     0.111 A 
ATOM     23  O   UNL     1       8.679  10.805  26.269  1.00  0.00    -0.456 OA
ATOM     24  C   UNL     1       8.130  12.557  28.306  1.00  0.00     0.197 A 
ATOM     25  C   UNL     1       8.289  10.307  27.438  1.00  0.00     0.138 A 
ATOM     26  C   UNL     1       8.008  11.181  28.500  1.00  0.00     0.100 A 
ATOM     27  O   UNL     1       7.875  13.332  29.268  1.00  0.00    -0.289 OA
BRANCH  18  28
ATOM     28  O   UNL     1       9.306  16.191  25.149  1.00  0.00    -0.502 OA
ATOM     29  H   UNL     1       9.542  16.916  25.810  1.00  0.00     0.293 HD
ENDBRANCH  18  28
BRANCH  20  30
ATOM     30  O   UNL     1       8.394  15.369  27.771  1.00  0.00    -0.504 OA
ATOM     31  H   UNL     1       8.532  15.211  28.759  1.00  0.00     0.293 HD
ENDBRANCH  20  30
BRANCH  25  32
ATOM     32  C   UNL     1       8.171   8.835  27.582  1.00  0.00     0.017 A 
ATOM     33  C   UNL     1       8.070   7.987  26.461  1.00  0.00     0.012 A 
ATOM     34  C   UNL     1       8.206   8.259  28.865  1.00  0.00     0.012 A 
ATOM     35  C   UNL     1       7.992   6.601  26.626  1.00  0.00     0.001 A 
ATOM     36  C   UNL     1       8.125   6.873  29.025  1.00  0.00     0.001 A 
ATOM     37  C   UNL     1       8.017   6.044  27.907  1.00  0.00     0.000 A 
ENDBRANCH  25  32
ENDBRANCH   1  17
TORSDOF 9
ENDMDL
MODEL 4
REMARK VINA RESULT:    -5.281     11.344     13.543
REMARK INTER + INTRA:          -8.931
REMARK INTER:                  -7.628
REMARK INTRA:                  -1.304
REMARK UNBOUND:                -1.644
REMARK SMILES O=C([O-])[C@@H]1O[C@H](Oc2cc3oc(-c4ccccc4)cc(=O)c3c(O)c2O)[C@@H](O)[C@H](O)[C@@H]1O
REMARK SMILES IDX 7 1 6 2 4 3 31 4 5 5 29 6 27 7 2 8 1 9 3 10 32 11 30 13
REMARK SMILES IDX 28 15 8 17 25 18 9 19 23 20 10 21 22 22 11 23 20 24 12 25
REMARK SMILES IDX 19 26 21 27 26 28 24 30 13 32 14 33 18 34 15 35 17 36 16 37
REMARK H PARENT 32 12 30 14 28 16 26 29 24 31
REMARK Flexibility Score: inf
ROOT
ATOM      1  O   UNL     1      23.290   9.196  30.211  1.00  0.00    -0.458 OA
ENDROOT
BRANCH   1   2
ATOM      2  C   UNL     1      24.583   9.800  30.289  1.00  0.00     0.339 C 
ATOM      3  C   UNL     1      24.492  12.132  29.703  1.00  0.00     0.199 C 
ATOM      4  C   UNL     1      23.417  12.259  30.806  1.00  0.00     0.180 C 
ATOM      5  O   UNL     1      24.711  10.794  29.273  1.00  0.00    -0.328 OA
ATOM      6  C   UNL     1      23.848  11.472  32.067  1.00  0.00     0.181 C 
ATOM      7  C   UNL     1      24.816  10.313  31.725  1.00  0.00     0.214 C 
BRANCH   3   8
ATOM      8  C   UNL     1      24.108  12.962  28.513  1.00  0.00     0.073 C 
ATOM      9  O   UNL     1      24.773  13.990  28.219  1.00  0.00    -0.547 OA
ATOM     10  O   UNL     1      22.994  12.623  27.754  1.00  0.00    -0.547 OA
ENDBRANCH   3   8
BRANCH   4  11
ATOM     11  O   UNL     1      22.183  11.790  30.314  1.00  0.00    -0.387 OA
ATOM     12  H   UNL     1      21.497  12.468  30.554  1.00  0.00     0.211 HD
ENDBRANCH   4  11
BRANCH   6  13
ATOM     13  O   UNL     1      22.715  10.976  32.735  1.00  0.00    -0.387 OA
ATOM     14  H   UNL     1      23.001  10.741  33.656  1.00  0.00     0.211 HD
ENDBRANCH   6  13
BRANCH   7  15
ATOM     15  O   UNL     1      26.148  10.755  31.843  1.00  0.00    -0.384 OA
ATOM     16  H   UNL     1      26.393  10.724  32.804  1.00  0.00     0.211 HD
ENDBRANCH   7  15
ENDBRANCH   1   2
BRANCH   1  17
ATOM     17  C   UNL     1      23.032   7.816  30.234  1.00  0.00     0.172 A 
ATOM     18  C   UNL     1      22.007   7.351  31.068  1.00  0.00     0.201 A 
ATOM     19  C   UNL     1      23.772   6.906  29.461  1.00  0.00     0.098 A 
ATOM     20  C   UNL     1      21.705   5.966  31.124  1.00  0.00     0.176 A 
ATOM     21  C   UNL     1      23.495   5.541  29.514  1.00  0.00     0.146 A 
ATOM     22  C   UNL     1      22.461   5.054  30.344  1.00  0.00     0.111 A 
ATOM     23  O   UNL     1      24.218   4.709  28.771  1.00  0.00    -0.456 OA
ATOM     24  C   UNL     1      22.238   3.660  30.352  1.00  0.00     0.197 A 
ATOM     25  C   UNL     1      24.027   3.393  28.749  1.00  0.00     0.138 A 
ATOM     26  C   UNL     1      23.025   2.829  29.554  1.00  0.00     0.100 A 
ATOM     27  O   UNL     1      21.341   3.141  31.070  1.00  0.00    -0.289 OA
BRANCH  18  28
ATOM     28  O   UNL     1      21.321   8.299  31.831  1.00  0.00    -0.502 OA
ATOM     29  H   UNL     1      20.440   8.132  32.295  1.00  0.00     0.293 HD
ENDBRANCH  18  28
BRANCH  20  30
ATOM     30  O   UNL     1      20.669   5.479  31.929  1.00  0.00    -0.504 OA
ATOM     31  H   UNL     1      20.633   5.568  32.934  1.00  0.00     0.293 HD
ENDBRANCH  20  30
BRANCH  25  32
ATOM     32  C   UNL     1      24.892   2.561  27.875  1.00  0.00     0.017 A 
ATOM     33  C   UNL     1      24.401   1.975  26.691  1.00  0.00     0.012 A 
ATOM     34  C   UNL     1      26.248   2.387  28.206  1.00  0.00     0.012 A 
ATOM     35  C   UNL     1      25.247   1.223  25.871  1.00  0.00     0.001 A 
ATOM     36  C   UNL     1      27.089   1.632  27.384  1.00  0.00     0.001 A 
ATOM     37  C   UNL     1      26.589   1.049  26.218  1.00  0.00     0.000 A 
ENDBRANCH  25  32
ENDBRANCH   1  17
TORSDOF 9
ENDMDL
MODEL 5
REMARK VINA RESULT:    -5.253     10.344     13.419
REMARK INTER + INTRA:          -8.893
REMARK INTER:                  -7.029
REMARK INTRA:                  -1.864
REMARK UNBOUND:                -1.644
REMARK SMILES O=C([O-])[C@@H]1O[C@H](Oc2cc3oc(-c4ccccc4)cc(=O)c3c(O)c2O)[C@@H](O)[C@H](O)[C@@H]1O
REMARK SMILES IDX 7 1 6 2 4 3 31 4 5 5 29 6 27 7 2 8 1 9 3 10 32 11 30 13
REMARK SMILES IDX 28 15 8 17 25 18 9 19 23 20 10 21 22 22 11 23 20 24 12 25
REMARK SMILES IDX 19 26 21 27 26 28 24 30 13 32 14 33 18 34 15 35 17 36 16 37
REMARK H PARENT 32 12 30 14 28 16 26 29 24 31
REMARK Flexibility Score: inf
ROOT
ATOM      1  O   UNL     1      23.238  10.498  31.061  1.00  0.00    -0.458 OA
ENDROOT
BRANCH   1   2
ATOM      2  C   UNL     1      24.265  11.069  31.874  1.00  0.00     0.339 C 
ATOM      3  C   UNL     1      25.339  12.908  30.755  1.00  0.00     0.199 C 
ATOM      4  C   UNL     1      23.923  13.511  30.611  1.00  0.00     0.180 C 
ATOM      5  O   UNL     1      25.339  11.516  31.047  1.00  0.00    -0.328 OA
ATOM      6  C   UNL     1      23.138  13.354  31.937  1.00  0.00     0.181 C 
ATOM      7  C   UNL     1      23.650  12.158  32.777  1.00  0.00     0.214 C 
BRANCH   3   8
ATOM      8  C   UNL     1      26.124  13.135  29.496  1.00  0.00     0.073 C 
ATOM      9  O   UNL     1      26.116  12.269  28.581  1.00  0.00    -0.547 OA
ATOM     10  O   UNL     1      26.895  14.282  29.349  1.00  0.00    -0.547 OA
ENDBRANCH   3   8
BRANCH   4  11
ATOM     11  O   UNL     1      23.250  12.879  29.547  1.00  0.00    -0.387 OA
ATOM     12  H   UNL     1      23.777  13.056  28.724  1.00  0.00     0.211 HD
ENDBRANCH   4  11
BRANCH   6  13
ATOM     13  O   UNL     1      21.766  13.206  31.668  1.00  0.00    -0.387 OA
ATOM     14  H   UNL     1      21.442  12.452  32.224  1.00  0.00     0.211 HD
ENDBRANCH   6  13
BRANCH   7  15
ATOM     15  O   UNL     1      24.626  12.601  33.689  1.00  0.00    -0.384 OA
ATOM     16  H   UNL     1      25.516  12.426  33.288  1.00  0.00     0.211 HD
ENDBRANCH   7  15
ENDBRANCH   1   2
BRANCH   1  17
ATOM     17  C   UNL     1      23.312   9.259  30.404  1.00  0.00     0.172 A 
ATOM     18  C   UNL     1      23.639   9.255  29.042  1.00  0.00     0.201 A 
ATOM     19  C   UNL     1      23.059   8.047  31.066  1.00  0.00     0.098 A 
ATOM     20  C   UNL     1      23.731   8.029  28.333  1.00  0.00     0.176 A 
ATOM     21  C   UNL     1      23.132   6.835  30.381  1.00  0.00     0.146 A 
ATOM     22  C   UNL     1      23.467   6.811  29.009  1.00  0.00     0.111 A 
ATOM     23  O   UNL     1      22.882   5.708  31.039  1.00  0.00    -0.456 OA
ATOM     24  C   UNL     1      23.520   5.549  28.377  1.00  0.00     0.197 A 
ATOM     25  C   UNL     1      22.932   4.504  30.476  1.00  0.00     0.138 A 
ATOM     26  C   UNL     1      23.250   4.395  29.113  1.00  0.00     0.100 A 
ATOM     27  O   UNL     1      23.804   5.437  27.153  1.00  0.00    -0.289 OA
BRANCH  18  28
ATOM     28  O   UNL     1      23.858  10.492  28.430  1.00  0.00    -0.502 OA
ATOM     29  H   UNL     1      23.461  11.365  28.745  1.00  0.00     0.293 HD
ENDBRANCH  18  28
BRANCH  20  30
ATOM     30  O   UNL     1      24.082   7.996  26.979  1.00  0.00    -0.504 OA
ATOM     31  H   UNL     1      24.697   8.658  26.529  1.00  0.00     0.293 HD
ENDBRANCH  20  30
BRANCH  25  32
ATOM     32  C   UNL     1      22.641   3.313  31.311  1.00  0.00     0.017 A 
ATOM     33  C   UNL     1      23.021   2.016  30.910  1.00  0.00     0.012 A 
ATOM     34  C   UNL     1      22.011   3.478  32.558  1.00  0.00     0.012 A 
ATOM     35  C   UNL     1      22.761   0.916  31.732  1.00  0.00     0.001 A 
ATOM     36  C   UNL     1      21.750   2.375  33.375  1.00  0.00     0.001 A 
ATOM     37  C   UNL     1      22.125   1.095  32.963  1.00  0.00     0.000 A 
ENDBRANCH  25  32
ENDBRANCH   1  17
TORSDOF 9
ENDMDL
MODEL 6
REMARK VINA RESULT:    -5.212     11.462     13.478
REMARK INTER + INTRA:          -8.836
REMARK INTER:                  -7.160
REMARK INTRA:                  -1.676
REMARK UNBOUND:                -1.644
REMARK SMILES O=C([O-])[C@@H]1O[C@H](Oc2cc3oc(-c4ccccc4)cc(=O)c3c(O)c2O)[C@@H](O)[C@H](O)[C@@H]1O
REMARK SMILES IDX 7 1 6 2 4 3 31 4 5 5 29 6 27 7 2 8 1 9 3 10 32 11 30 13
REMARK SMILES IDX 28 15 8 17 25 18 9 19 23 20 10 21 22 22 11 23 20 24 12 25
REMARK SMILES IDX 19 26 21 27 26 28 24 30 13 32 14 33 18 34 15 35 17 36 16 37
REMARK H PARENT 32 12 30 14 28 16 26 29 24 31
REMARK Flexibility Score: inf
ROOT
ATOM      1  O   UNL     1      24.390   9.009  30.313  1.00  0.00    -0.458 OA
ENDROOT
BRANCH   1   2
ATOM      2  C   UNL     1      23.964  10.122  29.524  1.00  0.00     0.339 C 
ATOM      3  C   UNL     1      22.910  11.802  30.886  1.00  0.00     0.199 C 
ATOM      4  C   UNL     1      24.208  11.790  31.723  1.00  0.00     0.180 C 
ATOM      5  O   UNL     1      22.754  10.656  30.059  1.00  0.00    -0.328 OA
ATOM      6  C   UNL     1      25.445  11.765  30.792  1.00  0.00     0.181 C 
ATOM      7  C   UNL     1      25.122  11.136  29.414  1.00  0.00     0.214 C 
BRANCH   3   8
ATOM      8  C   UNL     1      21.716  11.909  31.790  1.00  0.00     0.073 C 
ATOM      9  O   UNL     1      21.081  12.993  31.874  1.00  0.00    -0.547 OA
ATOM     10  O   UNL     1      21.330  10.824  32.569  1.00  0.00    -0.547 OA
ENDBRANCH   3   8
BRANCH   4  11
ATOM     11  O   UNL     1      24.201  10.674  32.584  1.00  0.00    -0.387 OA
ATOM     12  H   UNL     1      24.520  10.989  33.471  1.00  0.00     0.211 HD
ENDBRANCH   4  11
BRANCH   6  13
ATOM     13  O   UNL     1      26.497  11.066  31.409  1.00  0.00    -0.387 OA
ATOM     14  H   UNL     1      26.440  11.255  32.381  1.00  0.00     0.211 HD
ENDBRANCH   6  13
BRANCH   7  15
ATOM     15  O   UNL     1      24.759  12.147  28.504  1.00  0.00    -0.384 OA
ATOM     16  H   UNL     1      25.160  12.997  28.822  1.00  0.00     0.211 HD
ENDBRANCH   7  15
ENDBRANCH   1   2
BRANCH   1  17
ATOM     17  C   UNL     1      23.937   7.688  30.170  1.00  0.00     0.172 A 
ATOM     18  C   UNL     1      22.789   7.304  30.876  1.00  0.00     0.201 A 
ATOM     19  C   UNL     1      24.604   6.755  29.359  1.00  0.00     0.098 A 
ATOM     20  C   UNL     1      22.290   5.981  30.761  1.00  0.00     0.176 A 
ATOM     21  C   UNL     1      24.133   5.448  29.246  1.00  0.00     0.146 A 
ATOM     22  C   UNL     1      22.973   5.045  29.944  1.00  0.00     0.111 A 
ATOM     23  O   UNL     1      24.792   4.591  28.471  1.00  0.00    -0.456 OA
ATOM     24  C   UNL     1      22.555   3.705  29.787  1.00  0.00     0.197 A 
ATOM     25  C   UNL     1      24.419   3.327  28.295  1.00  0.00     0.138 A 
ATOM     26  C   UNL     1      23.281   2.846  28.962  1.00  0.00     0.100 A 
ATOM     27  O   UNL     1      21.535   3.260  30.380  1.00  0.00    -0.289 OA
BRANCH  18  28
ATOM     28  O   UNL     1      22.181   8.267  31.685  1.00  0.00    -0.502 OA
ATOM     29  H   UNL     1      22.160   9.255  31.481  1.00  0.00     0.293 HD
ENDBRANCH  18  28
BRANCH  20  30
ATOM     30  O   UNL     1      21.131   5.580  31.435  1.00  0.00    -0.504 OA
ATOM     31  H   UNL     1      20.298   6.143  31.529  1.00  0.00     0.293 HD
ENDBRANCH  20  30
BRANCH  25  32
ATOM     32  C   UNL     1      25.228   2.463  27.401  1.00  0.00     0.017 A 
ATOM     33  C   UNL     1      24.737   2.021  26.156  1.00  0.00     0.012 A 
ATOM     34  C   UNL     1      26.537   2.109  27.777  1.00  0.00     0.012 A 
ATOM     35  C   UNL     1      25.534   1.233  25.320  1.00  0.00     0.001 A 
ATOM     36  C   UNL     1      27.328   1.319  26.939  1.00  0.00     0.001 A 
ATOM     37  C   UNL     1      26.828   0.881  25.712  1.00  0.00     0.000 A 
ENDBRANCH  25  32
ENDBRANCH   1  17
TORSDOF 9
ENDMDL
MODEL 7
REMARK VINA RESULT:    -5.162     10.330     12.926
REMARK INTER + INTRA:          -8.767
REMARK INTER:                  -6.960
REMARK INTRA:                  -1.807
REMARK UNBOUND:                -1.644
REMARK SMILES O=C([O-])[C@@H]1O[C@H](Oc2cc3oc(-c4ccccc4)cc(=O)c3c(O)c2O)[C@@H](O)[C@H](O)[C@@H]1O
REMARK SMILES IDX 7 1 6 2 4 3 31 4 5 5 29 6 27 7 2 8 1 9 3 10 32 11 30 13
REMARK SMILES IDX 28 15 8 17 25 18 9 19 23 20 10 21 22 22 11 23 20 24 12 25
REMARK SMILES IDX 19 26 21 27 26 28 24 30 13 32 14 33 18 34 15 35 17 36 16 37
REMARK H PARENT 32 12 30 14 28 16 26 29 24 31
REMARK Flexibility Score: inf
ROOT
ATOM      1  O   UNL     1      24.783  10.167  30.466  1.00  0.00    -0.458 OA
ENDROOT
BRANCH   1   2
ATOM      2  C   UNL     1      24.545  11.206  29.514  1.00  0.00     0.339 C 
ATOM      3  C   UNL     1      23.967  13.272  30.605  1.00  0.00     0.199 C 
ATOM      4  C   UNL     1      25.291  13.109  31.386  1.00  0.00     0.180 C 
ATOM      5  O   UNL     1      23.515  12.070  29.993  1.00  0.00    -0.328 OA
ATOM      6  C   UNL     1      26.425  12.665  30.429  1.00  0.00     0.181 C 
ATOM      7  C   UNL     1      25.879  11.911  29.191  1.00  0.00     0.214 C 
BRANCH   3   8
ATOM      8  C   UNL     1      22.891  13.780  31.520  1.00  0.00     0.073 C 
ATOM      9  O   UNL     1      22.447  13.046  32.442  1.00  0.00    -0.547 OA
ATOM     10  O   UNL     1      22.351  15.046  31.329  1.00  0.00    -0.547 OA
ENDBRANCH   3   8
BRANCH   4  11
ATOM     11  O   UNL     1      25.111  12.173  32.424  1.00  0.00    -0.387 OA
ATOM     12  H   UNL     1      25.787  12.381  33.122  1.00  0.00     0.211 HD
ENDBRANCH   4  11
BRANCH   6  13
ATOM     13  O   UNL     1      27.348  11.860  31.118  1.00  0.00    -0.387 OA
ATOM     14  H   UNL     1      28.114  11.707  30.505  1.00  0.00     0.211 HD
ENDBRANCH   6  13
BRANCH   7  15
ATOM     15  O   UNL     1      25.672  12.819  28.135  1.00  0.00    -0.384 OA
ATOM     16  H   UNL     1      26.357  12.635  27.441  1.00  0.00     0.211 HD
ENDBRANCH   7  15
ENDBRANCH   1   2
BRANCH   1  17
ATOM     17  C   UNL     1      24.009   9.005  30.615  1.00  0.00     0.172 A 
ATOM     18  C   UNL     1      22.931   9.041  31.509  1.00  0.00     0.201 A 
ATOM     19  C   UNL     1      24.292   7.825  29.909  1.00  0.00     0.098 A 
ATOM     20  C   UNL     1      22.116   7.894  31.692  1.00  0.00     0.176 A 
ATOM     21  C   UNL     1      23.510   6.686  30.088  1.00  0.00     0.146 A 
ATOM     22  C   UNL     1      22.414   6.705  30.979  1.00  0.00     0.111 A 
ATOM     23  O   UNL     1      23.810   5.585  29.405  1.00  0.00    -0.456 OA
ATOM     24  C   UNL     1      21.666   5.515  31.114  1.00  0.00     0.197 A 
ATOM     25  C   UNL     1      23.120   4.452  29.502  1.00  0.00     0.138 A 
ATOM     26  C   UNL     1      22.023   4.387  30.374  1.00  0.00     0.100 A 
ATOM     27  O   UNL     1      20.678   5.443  31.894  1.00  0.00    -0.289 OA
BRANCH  18  28
ATOM     28  O   UNL     1      22.710  10.235  32.201  1.00  0.00    -0.502 OA
ATOM     29  H   UNL     1      23.418  10.737  32.716  1.00  0.00     0.293 HD
ENDBRANCH  18  28
BRANCH  20  30
ATOM     30  O   UNL     1      21.018   7.912  32.560  1.00  0.00    -0.504 OA
ATOM     31  H   UNL     1      20.220   7.299  32.488  1.00  0.00     0.293 HD
ENDBRANCH  20  30
BRANCH  25  32
ATOM     32  C   UNL     1      23.544   3.288  28.685  1.00  0.00     0.017 A 
ATOM     33  C   UNL     1      23.194   1.969  29.039  1.00  0.00     0.012 A 
ATOM     34  C   UNL     1      24.274   3.500  27.502  1.00  0.00     0.012 A 
ATOM     35  C   UNL     1      23.580   0.894  28.234  1.00  0.00     0.001 A 
ATOM     36  C   UNL     1      24.661   2.421  26.702  1.00  0.00     0.001 A 
ATOM     37  C   UNL     1      24.315   1.119  27.067  1.00  0.00     0.000 A 
ENDBRANCH  25  32
ENDBRANCH   1  17
TORSDOF 9
ENDMDL
MODEL 8
REMARK VINA RESULT:    -5.102     12.288     14.469
REMARK INTER + INTRA:          -8.685
REMARK INTER:                  -7.280
REMARK INTRA:                  -1.404
REMARK UNBOUND:                -1.644
REMARK SMILES O=C([O-])[C@@H]1O[C@H](Oc2cc3oc(-c4ccccc4)cc(=O)c3c(O)c2O)[C@@H](O)[C@H](O)[C@@H]1O
REMARK SMILES IDX 7 1 6 2 4 3 31 4 5 5 29 6 27 7 2 8 1 9 3 10 32 11 30 13
REMARK SMILES IDX 28 15 8 17 25 18 9 19 23 20 10 21 22 22 11 23 20 24 12 25
REMARK SMILES IDX 19 26 21 27 26 28 24 30 13 32 14 33 18 34 15 35 17 36 16 37
REMARK H PARENT 32 12 30 14 28 16 26 29 24 31
REMARK Flexibility Score: inf
ROOT
ATOM      1  O   UNL     1      22.380   3.851  30.371  1.00  0.00    -0.458 OA
ENDROOT
BRANCH   1   2
ATOM      2  C   UNL     1      23.600   3.260  29.919  1.00  0.00     0.339 C 
ATOM      3  C   UNL     1      24.649   1.983  31.669  1.00  0.00     0.199 C 
ATOM      4  C   UNL     1      23.310   1.218  31.770  1.00  0.00     0.180 C 
ATOM      5  O   UNL     1      24.544   3.228  30.989  1.00  0.00    -0.328 OA
ATOM      6  C   UNL     1      22.775   0.888  30.355  1.00  0.00     0.181 C 
ATOM      7  C   UNL     1      23.294   1.885  29.290  1.00  0.00     0.214 C 
BRANCH   3   8
ATOM      8  C   UNL     1      25.204   2.230  33.041  1.00  0.00     0.073 C 
ATOM      9  O   UNL     1      24.740   1.607  34.032  1.00  0.00    -0.547 OA
ATOM     10  O   UNL     1      26.206   3.174  33.230  1.00  0.00    -0.547 OA
ENDBRANCH   3   8
BRANCH   4  11
ATOM     11  O   UNL     1      22.381   1.992  32.494  1.00  0.00    -0.387 OA
ATOM     12  H   UNL     1      22.828   2.267  33.337  1.00  0.00     0.211 HD
ENDBRANCH   4  11
BRANCH   6  13
ATOM     13  O   UNL     1      21.369   0.876  30.363  1.00  0.00    -0.387 OA
ATOM     14  H   UNL     1      21.087  -0.068  30.478  1.00  0.00     0.211 HD
ENDBRANCH   6  13
BRANCH   7  15
ATOM     15  O   UNL     1      24.468   1.381  28.699  1.00  0.00    -0.384 OA
ATOM     16  H   UNL     1      24.721   1.992  27.959  1.00  0.00     0.211 HD
ENDBRANCH   7  15
ENDBRANCH   1   2
BRANCH   1  17
ATOM     17  C   UNL     1      22.242   5.156  30.871  1.00  0.00     0.172 A 
ATOM     18  C   UNL     1      21.430   5.347  31.997  1.00  0.00     0.201 A 
ATOM     19  C   UNL     1      22.879   6.255  30.273  1.00  0.00     0.098 A 
ATOM     20  C   UNL     1      21.262   6.646  32.543  1.00  0.00     0.176 A 
ATOM     21  C   UNL     1      22.713   7.539  30.790  1.00  0.00     0.146 A 
ATOM     22  C   UNL     1      21.904   7.750  31.929  1.00  0.00     0.111 A 
ATOM     23  O   UNL     1      23.328   8.556  30.196  1.00  0.00    -0.456 OA
ATOM     24  C   UNL     1      21.777   9.077  32.396  1.00  0.00     0.197 A 
ATOM     25  C   UNL     1      23.237   9.814  30.617  1.00  0.00     0.138 A 
ATOM     26  C   UNL     1      22.444  10.110  31.737  1.00  0.00     0.100 A 
ATOM     27  O   UNL     1      21.068   9.355  33.402  1.00  0.00    -0.289 OA
BRANCH  18  28
ATOM     28  O   UNL     1      20.803   4.221  32.536  1.00  0.00    -0.502 OA
ATOM     29  H   UNL     1      20.130   4.244  33.287  1.00  0.00     0.293 HD
ENDBRANCH  18  28
BRANCH  20  30
ATOM     30  O   UNL     1      20.477   6.860  33.682  1.00  0.00    -0.504 OA
ATOM     31  H   UNL     1      19.504   7.126  33.667  1.00  0.00     0.293 HD
ENDBRANCH  20  30
BRANCH  25  32
ATOM     32  C   UNL     1      23.974  10.869  29.878  1.00  0.00     0.017 A 
ATOM     33  C   UNL     1      23.311  11.786  29.038  1.00  0.00     0.012 A 
ATOM     34  C   UNL     1      25.365  10.993  30.050  1.00  0.00     0.012 A 
ATOM     35  C   UNL     1      24.028  12.789  28.379  1.00  0.00     0.001 A 
ATOM     36  C   UNL     1      26.078  11.995  29.387  1.00  0.00     0.001 A 
ATOM     37  C   UNL     1      25.410  12.892  28.551  1.00  0.00     0.000 A 
ENDBRANCH  25  32
ENDBRANCH   1  17
TORSDOF 9
ENDMDL
MODEL 9
REMARK VINA RESULT:    -5.076     11.463     14.078
REMARK INTER + INTRA:          -8.648
REMARK INTER:                  -7.149
REMARK INTRA:                  -1.499
REMARK UNBOUND:                -1.644
REMARK SMILES O=C([O-])[C@@H]1O[C@H](Oc2cc3oc(-c4ccccc4)cc(=O)c3c(O)c2O)[C@@H](O)[C@H](O)[C@@H]1O
REMARK SMILES IDX 7 1 6 2 4 3 31 4 5 5 29 6 27 7 2 8 1 9 3 10 32 11 30 13
REMARK SMILES IDX 28 15 8 17 25 18 9 19 23 20 10 21 22 22 11 23 20 24 12 25
REMARK SMILES IDX 19 26 21 27 26 28 24 30 13 32 14 33 18 34 15 35 17 36 16 37
REMARK H PARENT 32 12 30 14 28 16 26 29 24 31
REMARK Flexibility Score: inf
ROOT
ATOM      1  O   UNL     1      23.373   5.028  30.529  1.00  0.00    -0.458 OA
ENDROOT
BRANCH   1   2
ATOM      2  C   UNL     1      22.524   4.163  29.771  1.00  0.00     0.339 C 
ATOM      3  C   UNL     1      23.759   2.307  28.866  1.00  0.00     0.199 C 
ATOM      4  C   UNL     1      24.194   2.022  30.320  1.00  0.00     0.180 C 
ATOM      5  O   UNL     1      23.252   3.621  28.669  1.00  0.00    -0.328 OA
ATOM      6  C   UNL     1      22.985   2.160  31.278  1.00  0.00     0.181 C 
ATOM      7  C   UNL     1      21.902   3.111  30.712  1.00  0.00     0.214 C 
BRANCH   3   8
ATOM      8  C   UNL     1      24.914   2.093  27.932  1.00  0.00     0.073 C 
ATOM      9  O   UNL     1      24.899   1.133  27.117  1.00  0.00    -0.547 OA
ATOM     10  O   UNL     1      26.024   2.928  27.990  1.00  0.00    -0.547 OA
ENDBRANCH   3   8
BRANCH   4  11
ATOM     11  O   UNL     1      25.229   2.908  30.682  1.00  0.00    -0.387 OA
ATOM     12  H   UNL     1      25.978   2.354  31.028  1.00  0.00     0.211 HD
ENDBRANCH   4  11
BRANCH   6  13
ATOM     13  O   UNL     1      23.418   2.611  32.537  1.00  0.00    -0.387 OA
ATOM     14  H   UNL     1      24.307   2.203  32.702  1.00  0.00     0.211 HD
ENDBRANCH   6  13
BRANCH   7  15
ATOM     15  O   UNL     1      20.943   2.368  29.998  1.00  0.00    -0.384 OA
ATOM     16  H   UNL     1      21.429   1.747  29.396  1.00  0.00     0.211 HD
ENDBRANCH   7  15
ENDBRANCH   1   2
BRANCH   1  17
ATOM     17  C   UNL     1      23.509   6.412  30.336  1.00  0.00     0.172 A 
ATOM     18  C   UNL     1      24.408   6.855  29.357  1.00  0.00     0.201 A 
ATOM     19  C   UNL     1      22.786   7.346  31.095  1.00  0.00     0.098 A 
ATOM     20  C   UNL     1      24.579   8.243  29.120  1.00  0.00     0.176 A 
ATOM     21  C   UNL     1      22.952   8.713  30.884  1.00  0.00     0.146 A 
ATOM     22  C   UNL     1      23.849   9.179  29.897  1.00  0.00     0.111 A 
ATOM     23  O   UNL     1      22.253   9.569  31.624  1.00  0.00    -0.456 OA
ATOM     24  C   UNL     1      23.970  10.577  29.738  1.00  0.00     0.197 A 
ATOM     25  C   UNL     1      22.338  10.889  31.493  1.00  0.00     0.138 A 
ATOM     26  C   UNL     1      23.214  11.432  30.540  1.00  0.00     0.100 A 
ATOM     27  O   UNL     1      24.754  11.077  28.886  1.00  0.00    -0.289 OA
BRANCH  18  28
ATOM     28  O   UNL     1      25.117   5.881  28.649  1.00  0.00    -0.502 OA
ATOM     29  H   UNL     1      24.701   5.224  28.006  1.00  0.00     0.293 HD
ENDBRANCH  18  28
BRANCH  20  30
ATOM     30  O   UNL     1      25.451   8.711  28.131  1.00  0.00    -0.504 OA
ATOM     31  H   UNL     1      26.245   8.198  27.777  1.00  0.00     0.293 HD
ENDBRANCH  20  30
BRANCH  25  32
ATOM     32  C   UNL     1      21.504  11.747  32.371  1.00  0.00     0.017 A 
ATOM     33  C   UNL     1      21.518  13.153  32.261  1.00  0.00     0.012 A 
ATOM     34  C   UNL     1      20.640  11.150  33.307  1.00  0.00     0.012 A 
ATOM     35  C   UNL     1      20.698  13.934  33.080  1.00  0.00     0.001 A 
ATOM     36  C   UNL     1      19.825  11.935  34.125  1.00  0.00     0.001 A 
ATOM     37  C   UNL     1      19.853  13.327  34.013  1.00  0.00     0.000 A 
ENDBRANCH  25  32
ENDBRANCH   1  17
TORSDOF 9
ENDMDL
