MODEL 1
REMARK VINA RESULT:    12.273      0.000      0.000
REMARK INTER + INTRA:          15.758
REMARK INTER:                  14.784
REMARK INTRA:                   0.974
REMARK UNBOUND:                 0.974
REMARK SMILES O=c1ccn([C@H]2O[C@H](CO)[C@H](O)[C@H]2O)c(=O)[nH]1
REMARK SMILES IDX 6 1 13 2 11 3 8 4 7 5 5 6 3 7 4 8 2 9 17 10 1 11 15 12 16 14
REMARK SMILES IDX 14 15 12 17 9 19 10 20
REMARK H PARENT 17 13 14 16 12 18 10 21
REMARK Flexibility Score: inf
ROOT
ATOM      1  C   UNL     1      28.537 -36.569  48.535  1.00  0.00     0.255 C 
ATOM      2  C   UNL     1      27.058 -36.460  48.938  1.00  0.00     0.196 C 
ATOM      3  C   UNL     1      26.351 -36.974  47.707  1.00  0.00     0.179 C 
ATOM      4  C   UNL     1      27.384 -37.940  47.120  1.00  0.00     0.178 C 
ATOM      5  O   UNL     1      28.674 -37.488  47.467  1.00  0.00    -0.347 OA
ENDROOT
BRANCH   1   6
ATOM      6  N   UNL     1      29.402 -36.942  49.676  1.00  0.00    -0.271 N 
ATOM      7  C   UNL     1      29.722 -38.124  51.740  1.00  0.00     0.090 A 
ATOM      8  C   UNL     1      28.930 -37.785  50.647  1.00  0.00     0.099 A 
ATOM      9  C   UNL     1      30.997 -37.576  51.836  1.00  0.00     0.253 A 
ATOM     10  N   UNL     1      31.440 -36.725  50.874  1.00  0.00    -0.274 N 
ATOM     11  O   UNL     1      31.735 -37.865  52.814  1.00  0.00    -0.269 OA
ATOM     12  C   UNL     1      30.657 -36.398  49.807  1.00  0.00     0.330 A 
ATOM     13  H   UNL     1      32.396 -36.309  50.956  1.00  0.00     0.175 HD
ATOM     14  O   UNL     1      31.098 -35.588  48.947  1.00  0.00    -0.248 OA
ENDBRANCH   1   6
BRANCH   2  15
ATOM     15  O   UNL     1      26.756 -37.293  50.030  1.00  0.00    -0.386 OA
ATOM     16  H   UNL     1      27.365 -37.028  50.768  1.00  0.00     0.211 HD
ENDBRANCH   2  15
BRANCH   3  17
ATOM     17  O   UNL     1      26.026 -35.919  46.829  1.00  0.00    -0.387 OA
ATOM     18  H   UNL     1      25.327 -35.358  47.255  1.00  0.00     0.211 HD
ENDBRANCH   3  17
BRANCH   4  19
ATOM     19  C   UNL     1      27.280 -38.125  45.598  1.00  0.00     0.191 C 
BRANCH  19  20
ATOM     20  O   UNL     1      28.533 -37.955  44.989  1.00  0.00    -0.394 OA
ATOM     21  H   UNL     1      28.815 -38.851  44.667  1.00  0.00     0.210 HD
ENDBRANCH  19  20
ENDBRANCH   4  19
TORSDOF 5
ENDMDL
MODEL 2
REMARK VINA RESULT:    12.747      1.520      2.940
REMARK INTER + INTRA:          16.329
REMARK INTER:                  14.976
REMARK INTRA:                   1.353
REMARK UNBOUND:                 0.974
REMARK SMILES O=c1ccn([C@H]2O[C@H](CO)[C@H](O)[C@H]2O)c(=O)[nH]1
REMARK SMILES IDX 6 1 13 2 11 3 8 4 7 5 5 6 3 7 4 8 2 9 17 10 1 11 15 12 16 14
REMARK SMILES IDX 14 15 12 17 9 19 10 20
REMARK H PARENT 17 13 14 16 12 18 10 21
REMARK Flexibility Score: inf
ROOT
ATOM      1  C   UNL     1      28.242 -37.924  49.469  1.00  0.00     0.255 C 
ATOM      2  C   UNL     1      28.937 -37.579  48.143  1.00  0.00     0.196 C 
ATOM      3  C   UNL     1      27.843 -36.871  47.381  1.00  0.00     0.179 C 
ATOM      4  C   UNL     1      27.005 -36.263  48.510  1.00  0.00     0.178 C 
ATOM      5  O   UNL     1      27.115 -37.086  49.649  1.00  0.00    -0.347 OA
ENDROOT
BRANCH   1   6
ATOM      6  N   UNL     1      29.164 -37.835  50.624  1.00  0.00    -0.271 N 
ATOM      7  C   UNL     1      31.393 -37.641  51.491  1.00  0.00     0.090 A 
ATOM      8  C   UNL     1      30.511 -37.698  50.417  1.00  0.00     0.099 A 
ATOM      9  C   UNL     1      30.881 -37.743  52.780  1.00  0.00     0.253 A 
ATOM     10  N   UNL     1      29.544 -37.900  52.966  1.00  0.00    -0.274 N 
ATOM     11  O   UNL     1      31.656 -37.694  53.772  1.00  0.00    -0.269 OA
ATOM     12  C   UNL     1      28.688 -37.956  51.907  1.00  0.00     0.330 A 
ATOM     13  H   UNL     1      29.167 -37.985  53.937  1.00  0.00     0.175 HD
ATOM     14  O   UNL     1      27.457 -38.125  52.122  1.00  0.00    -0.248 OA
ENDBRANCH   1   6
BRANCH   2  15
ATOM     15  O   UNL     1      30.015 -36.697  48.337  1.00  0.00    -0.386 OA
ATOM     16  H   UNL     1      30.152 -36.625  49.317  1.00  0.00     0.211 HD
ENDBRANCH   2  15
BRANCH   3  17
ATOM     17  O   UNL     1      27.111 -37.774  46.582  1.00  0.00    -0.387 OA
ATOM     18  H   UNL     1      27.753 -38.338  46.077  1.00  0.00     0.211 HD
ENDBRANCH   3  17
BRANCH   4  19
ATOM     19  C   UNL     1      25.525 -36.050  48.153  1.00  0.00     0.191 C 
BRANCH  19  20
ATOM     20  O   UNL     1      25.177 -34.696  48.259  1.00  0.00    -0.394 OA
ATOM     21  H   UNL     1      24.552 -34.623  49.028  1.00  0.00     0.210 HD
ENDBRANCH  19  20
ENDBRANCH   4  19
TORSDOF 5
ENDMDL
MODEL 3
REMARK VINA RESULT:    12.846      1.735      3.248
REMARK INTER + INTRA:          16.449
REMARK INTER:                  15.671
REMARK INTRA:                   0.778
REMARK UNBOUND:                 0.974
REMARK SMILES O=c1ccn([C@H]2O[C@H](CO)[C@H](O)[C@H]2O)c(=O)[nH]1
REMARK SMILES IDX 6 1 13 2 11 3 8 4 7 5 5 6 3 7 4 8 2 9 17 10 1 11 15 12 16 14
REMARK SMILES IDX 14 15 12 17 9 19 10 20
REMARK H PARENT 17 13 14 16 12 18 10 21
REMARK Flexibility Score: inf
ROOT
ATOM      1  C   UNL     1      27.560 -37.003  49.497  1.00  0.00     0.255 C 
ATOM      2  C   UNL     1      27.268 -37.409  48.044  1.00  0.00     0.196 C 
ATOM      3  C   UNL     1      26.032 -36.603  47.728  1.00  0.00     0.179 C 
ATOM      4  C   UNL     1      26.197 -35.384  48.640  1.00  0.00     0.178 C 
ATOM      5  O   UNL     1      26.921 -35.772  49.786  1.00  0.00    -0.347 OA
ENDROOT
BRANCH   1   6
ATOM      6  N   UNL     1      29.011 -36.930  49.777  1.00  0.00    -0.271 N 
ATOM      7  C   UNL     1      31.223 -36.272  49.118  1.00  0.00     0.090 A 
ATOM      8  C   UNL     1      29.853 -36.324  48.882  1.00  0.00     0.099 A 
ATOM      9  C   UNL     1      31.724 -36.863  50.273  1.00  0.00     0.253 A 
ATOM     10  N   UNL     1      30.877 -37.478  51.139  1.00  0.00    -0.274 N 
ATOM     11  O   UNL     1      32.960 -36.831  50.512  1.00  0.00    -0.269 OA
ATOM     12  C   UNL     1      29.536 -37.525  50.899  1.00  0.00     0.330 A 
ATOM     13  H   UNL     1      31.260 -37.928  52.001  1.00  0.00     0.175 HD
ATOM     14  O   UNL     1      28.786 -38.124  51.717  1.00  0.00    -0.248 OA
ENDBRANCH   1   6
BRANCH   2  15
ATOM     15  O   UNL     1      28.308 -37.025  47.179  1.00  0.00    -0.386 OA
ATOM     16  H   UNL     1      28.583 -36.111  47.452  1.00  0.00     0.211 HD
ENDBRANCH   2  15
BRANCH   3  17
ATOM     17  O   UNL     1      24.859 -37.338  48.004  1.00  0.00    -0.387 OA
ATOM     18  H   UNL     1      24.368 -36.883  48.736  1.00  0.00     0.211 HD
ENDBRANCH   3  17
BRANCH   4  19
ATOM     19  C   UNL     1      24.874 -34.719  49.051  1.00  0.00     0.191 C 
BRANCH  19  20
ATOM     20  O   UNL     1      24.729 -34.719  50.446  1.00  0.00    -0.394 OA
ATOM     21  H   UNL     1      23.820 -34.369  50.637  1.00  0.00     0.210 HD
ENDBRANCH  19  20
ENDBRANCH   4  19
TORSDOF 5
ENDMDL
MODEL 4
REMARK VINA RESULT:    13.314      1.941      5.245
REMARK INTER + INTRA:          17.012
REMARK INTER:                  16.613
REMARK INTRA:                   0.399
REMARK UNBOUND:                 0.974
REMARK SMILES O=c1ccn([C@H]2O[C@H](CO)[C@H](O)[C@H]2O)c(=O)[nH]1
REMARK SMILES IDX 6 1 13 2 11 3 8 4 7 5 5 6 3 7 4 8 2 9 17 10 1 11 15 12 16 14
REMARK SMILES IDX 14 15 12 17 9 19 10 20
REMARK H PARENT 17 13 14 16 12 18 10 21
REMARK Flexibility Score: inf
ROOT
ATOM      1  C   UNL     1      29.187 -36.996  48.728  1.00  0.00     0.255 C 
ATOM      2  C   UNL     1      29.456 -37.748  50.041  1.00  0.00     0.196 C 
ATOM      3  C   UNL     1      30.837 -37.264  50.411  1.00  0.00     0.179 C 
ATOM      4  C   UNL     1      30.871 -35.869  49.779  1.00  0.00     0.178 C 
ATOM      5  O   UNL     1      30.037 -35.868  48.642  1.00  0.00    -0.347 OA
ENDROOT
BRANCH   1   6
ATOM      6  N   UNL     1      27.765 -36.606  48.589  1.00  0.00    -0.271 N 
ATOM      7  C   UNL     1      25.862 -35.377  49.381  1.00  0.00     0.090 A 
ATOM      8  C   UNL     1      27.204 -35.733  49.482  1.00  0.00     0.099 A 
ATOM      9  C   UNL     1      25.098 -35.940  48.363  1.00  0.00     0.253 A 
ATOM     10  N   UNL     1      25.668 -36.820  47.499  1.00  0.00    -0.274 N 
ATOM     11  O   UNL     1      23.882 -35.636  48.247  1.00  0.00    -0.269 OA
ATOM     12  C   UNL     1      26.982 -37.163  47.607  1.00  0.00     0.330 A 
ATOM     13  H   UNL     1      25.086 -37.247  46.742  1.00  0.00     0.175 HD
ATOM     14  O   UNL     1      27.467 -38.001  46.798  1.00  0.00    -0.248 OA
ENDBRANCH   1   6
BRANCH   2  15
ATOM     15  O   UNL     1      28.547 -37.376  51.048  1.00  0.00    -0.386 OA
ATOM     16  H   UNL     1      27.638 -37.565  50.696  1.00  0.00     0.211 HD
ENDBRANCH   2  15
BRANCH   3  17
ATOM     17  O   UNL     1      31.832 -38.122  49.898  1.00  0.00    -0.387 OA
ATOM     18  H   UNL     1      31.421 -39.006  49.713  1.00  0.00     0.211 HD
ENDBRANCH   3  17
BRANCH   4  19
ATOM     19  C   UNL     1      32.279 -35.382  49.402  1.00  0.00     0.191 C 
BRANCH  19  20
ATOM     20  O   UNL     1      32.218 -34.430  48.374  1.00  0.00    -0.394 OA
ATOM     21  H   UNL     1      31.998 -33.562  48.803  1.00  0.00     0.210 HD
ENDBRANCH  19  20
ENDBRANCH   4  19
TORSDOF 5
ENDMDL
MODEL 5
REMARK VINA RESULT:    13.624      1.744      2.803
REMARK INTER + INTRA:          17.386
REMARK INTER:                  16.647
REMARK INTRA:                   0.740
REMARK UNBOUND:                 0.974
REMARK SMILES O=c1ccn([C@H]2O[C@H](CO)[C@H](O)[C@H]2O)c(=O)[nH]1
REMARK SMILES IDX 6 1 13 2 11 3 8 4 7 5 5 6 3 7 4 8 2 9 17 10 1 11 15 12 16 14
REMARK SMILES IDX 14 15 12 17 9 19 10 20
REMARK H PARENT 17 13 14 16 12 18 10 21
REMARK Flexibility Score: inf
ROOT
ATOM      1  C   UNL     1      27.167 -36.691  49.489  1.00  0.00     0.255 C 
ATOM      2  C   UNL     1      26.730 -37.284  48.140  1.00  0.00     0.196 C 
ATOM      3  C   UNL     1      25.742 -36.257  47.643  1.00  0.00     0.179 C 
ATOM      4  C   UNL     1      26.255 -34.971  48.298  1.00  0.00     0.178 C 
ATOM      5  O   UNL     1      26.888 -35.304  49.513  1.00  0.00    -0.347 OA
ENDROOT
BRANCH   1   6
ATOM      6  N   UNL     1      28.594 -36.955  49.780  1.00  0.00    -0.271 N 
ATOM      7  C   UNL     1      30.278 -38.125  51.026  1.00  0.00     0.090 A 
ATOM      8  C   UNL     1      28.942 -37.886  50.722  1.00  0.00     0.099 A 
ATOM      9  C   UNL     1      31.255 -37.387  50.365  1.00  0.00     0.253 A 
ATOM     10  N   UNL     1      30.891 -36.453  49.449  1.00  0.00    -0.274 N 
ATOM     11  O   UNL     1      32.473 -37.583  50.620  1.00  0.00    -0.269 OA
ATOM     12  C   UNL     1      29.579 -36.225  49.158  1.00  0.00     0.330 A 
ATOM     13  H   UNL     1      31.629 -35.895  48.962  1.00  0.00     0.175 HD
ATOM     14  O   UNL     1      29.282 -35.333  48.317  1.00  0.00    -0.248 OA
ENDBRANCH   1   6
BRANCH   2  15
ATOM     15  O   UNL     1      27.806 -37.370  47.238  1.00  0.00    -0.386 OA
ATOM     16  H   UNL     1      28.548 -37.818  47.722  1.00  0.00     0.211 HD
ENDBRANCH   2  15
BRANCH   3  17
ATOM     17  O   UNL     1      24.427 -36.583  48.035  1.00  0.00    -0.387 OA
ATOM     18  H   UNL     1      24.433 -37.494  48.430  1.00  0.00     0.211 HD
ENDBRANCH   3  17
BRANCH   4  19
ATOM     19  C   UNL     1      25.170 -33.910  48.540  1.00  0.00     0.191 C 
BRANCH  19  20
ATOM     20  O   UNL     1      25.306 -32.844  47.639  1.00  0.00    -0.394 OA
ATOM     21  H   UNL     1      25.656 -32.074  48.161  1.00  0.00     0.210 HD
ENDBRANCH  19  20
ENDBRANCH   4  19
TORSDOF 5
ENDMDL
