MODEL 1
REMARK VINA RESULT:    -3.175      0.000      0.000
REMARK INTER + INTRA:          -4.867
REMARK INTER:                  -4.475
REMARK INTRA:                  -0.393
REMARK UNBOUND:                -0.393
REMARK SMILES CCCCCCCCC(=O)[O-]
REMARK SMILES IDX 6 1 7 2 8 3 9 4 10 5 11 6 5 7 4 8 3 9 2 10 1 11
REMARK H PARENT
REMARK Flexibility Score: inf
ROOT
ATOM      1  C   UNL     1     -24.133   5.730 -29.338  1.00  0.00     0.000 C 
ENDROOT
BRANCH   1   2
ATOM      2  C   UNL     1     -23.742   5.554 -30.811  1.00  0.00     0.006 C 
BRANCH   2   3
ATOM      3  C   UNL     1     -24.981   5.342 -31.687  1.00  0.00     0.053 C 
BRANCH   3   4
ATOM      4  C   UNL     1     -24.582   5.118 -33.111  1.00  0.00     0.041 C 
ATOM      5  O   UNL     1     -23.435   4.679 -33.386  1.00  0.00    -0.550 OA
ATOM      6  O   UNL     1     -25.461   5.440 -34.138  1.00  0.00    -0.550 OA
ENDBRANCH   3   4
ENDBRANCH   2   3
ENDBRANCH   1   2
BRANCH   1   7
ATOM      7  C   UNL     1     -23.903   7.178 -28.879  1.00  0.00     0.000 C 
BRANCH   7   8
ATOM      8  C   UNL     1     -25.061   8.115 -29.264  1.00  0.00    -0.000 C 
BRANCH   8   9
ATOM      9  C   UNL     1     -26.436   7.437 -29.137  1.00  0.00    -0.000 C 
BRANCH   9  10
ATOM     10  C   UNL     1     -27.334   8.120 -28.093  1.00  0.00    -0.003 C 
ATOM     11  C   UNL     1     -26.719   8.125 -26.693  1.00  0.00     0.004 C 
ENDBRANCH   9  10
ENDBRANCH   8   9
ENDBRANCH   7   8
ENDBRANCH   1   7
TORSDOF 7
ENDMDL
MODEL 2
REMARK VINA RESULT:    -3.088     14.615     15.842
REMARK INTER + INTRA:          -4.744
REMARK INTER:                  -4.235
REMARK INTRA:                  -0.509
REMARK UNBOUND:                -0.393
REMARK SMILES CCCCCCCCC(=O)[O-]
REMARK SMILES IDX 6 1 7 2 8 3 9 4 10 5 11 6 5 7 4 8 3 9 2 10 1 11
REMARK H PARENT
REMARK Flexibility Score: inf
ROOT
ATOM      1  C   UNL     1     -34.715  -5.839 -31.694  1.00  0.00     0.000 C 
ENDROOT
BRANCH   1   2
ATOM      2  C   UNL     1     -34.385  -7.334 -31.596  1.00  0.00     0.006 C 
BRANCH   2   3
ATOM      3  C   UNL     1     -33.012  -7.552 -30.952  1.00  0.00     0.053 C 
BRANCH   3   4
ATOM      4  C   UNL     1     -32.766  -9.010 -30.726  1.00  0.00     0.041 C 
ATOM      5  O   UNL     1     -32.081  -9.392 -29.741  1.00  0.00    -0.550 OA
ATOM      6  O   UNL     1     -33.252  -9.946 -31.631  1.00  0.00    -0.550 OA
ENDBRANCH   3   4
ENDBRANCH   2   3
ENDBRANCH   1   2
BRANCH   1   7
ATOM      7  C   UNL     1     -34.818  -5.395 -33.161  1.00  0.00     0.000 C 
BRANCH   7   8
ATOM      8  C   UNL     1     -33.942  -4.171 -33.474  1.00  0.00    -0.000 C 
BRANCH   8   9
ATOM      9  C   UNL     1     -32.834  -3.954 -32.429  1.00  0.00    -0.000 C 
BRANCH   9  10
ATOM     10  C   UNL     1     -31.461  -4.441 -32.919  1.00  0.00    -0.003 C 
ATOM     11  C   UNL     1     -30.968  -3.683 -34.151  1.00  0.00     0.004 C 
ENDBRANCH   9  10
ENDBRANCH   8   9
ENDBRANCH   7   8
ENDBRANCH   1   7
TORSDOF 7
ENDMDL
MODEL 3
REMARK VINA RESULT:    -3.050     13.159     14.246
REMARK INTER + INTRA:          -4.691
REMARK INTER:                  -4.056
REMARK INTRA:                  -0.635
REMARK UNBOUND:                -0.393
REMARK SMILES CCCCCCCCC(=O)[O-]
REMARK SMILES IDX 6 1 7 2 8 3 9 4 10 5 11 6 5 7 4 8 3 9 2 10 1 11
REMARK H PARENT
REMARK Flexibility Score: inf
ROOT
ATOM      1  C   UNL     1     -34.719  -5.131 -33.570  1.00  0.00     0.000 C 
ENDROOT
BRANCH   1   2
ATOM      2  C   UNL     1     -33.957  -3.800 -33.533  1.00  0.00     0.006 C 
BRANCH   2   3
ATOM      3  C   UNL     1     -32.447  -4.034 -33.413  1.00  0.00     0.053 C 
BRANCH   3   4
ATOM      4  C   UNL     1     -31.693  -2.985 -34.166  1.00  0.00     0.041 C 
ATOM      5  O   UNL     1     -32.213  -1.857 -34.372  1.00  0.00    -0.550 OA
ATOM      6  O   UNL     1     -30.435  -3.269 -34.683  1.00  0.00    -0.550 OA
ENDBRANCH   3   4
ENDBRANCH   2   3
ENDBRANCH   1   2
BRANCH   1   7
ATOM      7  C   UNL     1     -34.328  -6.020 -32.379  1.00  0.00     0.000 C 
BRANCH   7   8
ATOM      8  C   UNL     1     -35.532  -6.405 -31.504  1.00  0.00    -0.000 C 
BRANCH   8   9
ATOM      9  C   UNL     1     -35.509  -5.714 -30.130  1.00  0.00    -0.000 C 
BRANCH   9  10
ATOM     10  C   UNL     1     -34.274  -4.818 -29.944  1.00  0.00    -0.003 C 
ATOM     11  C   UNL     1     -34.630  -3.339 -29.796  1.00  0.00     0.004 C 
ENDBRANCH   9  10
ENDBRANCH   8   9
ENDBRANCH   7   8
ENDBRANCH   1   7
TORSDOF 7
ENDMDL
MODEL 4
REMARK VINA RESULT:    -3.043     13.977     15.159
REMARK INTER + INTRA:          -4.680
REMARK INTER:                  -4.095
REMARK INTRA:                  -0.585
REMARK UNBOUND:                -0.393
REMARK SMILES CCCCCCCCC(=O)[O-]
REMARK SMILES IDX 6 1 7 2 8 3 9 4 10 5 11 6 5 7 4 8 3 9 2 10 1 11
REMARK H PARENT
REMARK Flexibility Score: inf
ROOT
ATOM      1  C   UNL     1     -34.785  -4.114 -30.258  1.00  0.00     0.000 C 
ENDROOT
BRANCH   1   2
ATOM      2  C   UNL     1     -33.410  -3.816 -30.868  1.00  0.00     0.006 C 
BRANCH   2   3
ATOM      3  C   UNL     1     -33.531  -2.850 -32.051  1.00  0.00     0.053 C 
BRANCH   3   4
ATOM      4  C   UNL     1     -33.333  -3.577 -33.342  1.00  0.00     0.041 C 
ATOM      5  O   UNL     1     -34.219  -4.361 -33.771  1.00  0.00    -0.550 OA
ATOM      6  O   UNL     1     -32.146  -3.426 -34.050  1.00  0.00    -0.550 OA
ENDBRANCH   3   4
ENDBRANCH   2   3
ENDBRANCH   1   2
BRANCH   1   7
ATOM      7  C   UNL     1     -34.923  -5.607 -29.919  1.00  0.00     0.000 C 
BRANCH   7   8
ATOM      8  C   UNL     1     -35.337  -6.455 -31.133  1.00  0.00    -0.000 C 
BRANCH   8   9
ATOM      9  C   UNL     1     -34.230  -7.426 -31.580  1.00  0.00    -0.000 C 
BRANCH   9  10
ATOM     10  C   UNL     1     -33.100  -7.544 -30.545  1.00  0.00    -0.003 C 
ATOM     11  C   UNL     1     -32.684  -8.992 -30.283  1.00  0.00     0.004 C 
ENDBRANCH   9  10
ENDBRANCH   8   9
ENDBRANCH   7   8
ENDBRANCH   1   7
TORSDOF 7
ENDMDL
MODEL 5
REMARK VINA RESULT:    -3.018      1.520      2.407
REMARK INTER + INTRA:          -4.646
REMARK INTER:                  -4.112
REMARK INTRA:                  -0.534
REMARK UNBOUND:                -0.393
REMARK SMILES CCCCCCCCC(=O)[O-]
REMARK SMILES IDX 6 1 7 2 8 3 9 4 10 5 11 6 5 7 4 8 3 9 2 10 1 11
REMARK H PARENT
REMARK Flexibility Score: inf
ROOT
ATOM      1  C   UNL     1     -25.306   7.071 -29.738  1.00  0.00     0.000 C 
ENDROOT
BRANCH   1   2
ATOM      2  C   UNL     1     -24.416   6.274 -30.700  1.00  0.00     0.006 C 
BRANCH   2   3
ATOM      3  C   UNL     1     -25.245   5.278 -31.517  1.00  0.00     0.053 C 
BRANCH   3   4
ATOM      4  C   UNL     1     -24.692   5.148 -32.901  1.00  0.00     0.041 C 
ATOM      5  O   UNL     1     -23.511   4.749 -33.076  1.00  0.00    -0.550 OA
ATOM      6  O   UNL     1     -25.464   5.516 -33.996  1.00  0.00    -0.550 OA
ENDBRANCH   3   4
ENDBRANCH   2   3
ENDBRANCH   1   2
BRANCH   1   7
ATOM      7  C   UNL     1     -24.459   7.977 -28.830  1.00  0.00     0.000 C 
BRANCH   7   8
ATOM      8  C   UNL     1     -24.652   7.670 -27.336  1.00  0.00    -0.000 C 
BRANCH   8   9
ATOM      9  C   UNL     1     -23.666   6.608 -26.819  1.00  0.00    -0.000 C 
BRANCH   9  10
ATOM     10  C   UNL     1     -24.370   5.308 -26.398  1.00  0.00    -0.003 C 
ATOM     11  C   UNL     1     -24.421   4.271 -27.519  1.00  0.00     0.004 C 
ENDBRANCH   9  10
ENDBRANCH   8   9
ENDBRANCH   7   8
ENDBRANCH   1   7
TORSDOF 7
ENDMDL
MODEL 6
REMARK VINA RESULT:    -2.980     13.510     14.542
REMARK INTER + INTRA:          -4.592
REMARK INTER:                  -3.738
REMARK INTRA:                  -0.854
REMARK UNBOUND:                -0.393
REMARK SMILES CCCCCCCCC(=O)[O-]
REMARK SMILES IDX 6 1 7 2 8 3 9 4 10 5 11 6 5 7 4 8 3 9 2 10 1 11
REMARK H PARENT
REMARK Flexibility Score: inf
ROOT
ATOM      1  C   UNL     1     -33.096  -3.559 -30.561  1.00  0.00     0.000 C 
ENDROOT
BRANCH   1   2
ATOM      2  C   UNL     1     -32.033  -3.604 -31.665  1.00  0.00     0.006 C 
BRANCH   2   3
ATOM      3  C   UNL     1     -32.468  -4.526 -32.809  1.00  0.00     0.053 C 
BRANCH   3   4
ATOM      4  C   UNL     1     -33.669  -3.968 -33.503  1.00  0.00     0.041 C 
ATOM      5  O   UNL     1     -34.609  -4.728 -33.853  1.00  0.00    -0.550 OA
ATOM      6  O   UNL     1     -33.728  -2.613 -33.809  1.00  0.00    -0.550 OA
ENDBRANCH   3   4
ENDBRANCH   2   3
ENDBRANCH   1   2
BRANCH   1   7
ATOM      7  C   UNL     1     -32.768  -4.561 -29.442  1.00  0.00     0.000 C 
BRANCH   7   8
ATOM      8  C   UNL     1     -33.765  -5.730 -29.380  1.00  0.00    -0.000 C 
BRANCH   8   9
ATOM      9  C   UNL     1     -35.087  -5.418 -30.102  1.00  0.00    -0.000 C 
BRANCH   9  10
ATOM     10  C   UNL     1     -35.499  -6.530 -31.080  1.00  0.00    -0.003 C 
ATOM     11  C   UNL     1     -34.326  -7.415 -31.501  1.00  0.00     0.004 C 
ENDBRANCH   9  10
ENDBRANCH   8   9
ENDBRANCH   7   8
ENDBRANCH   1   7
TORSDOF 7
ENDMDL
MODEL 7
REMARK VINA RESULT:    -2.950     15.265     16.360
REMARK INTER + INTRA:          -4.549
REMARK INTER:                  -4.061
REMARK INTRA:                  -0.489
REMARK UNBOUND:                -0.393
REMARK SMILES CCCCCCCCC(=O)[O-]
REMARK SMILES IDX 6 1 7 2 8 3 9 4 10 5 11 6 5 7 4 8 3 9 2 10 1 11
REMARK H PARENT
REMARK Flexibility Score: inf
ROOT
ATOM      1  C   UNL     1     -33.765  -6.329 -30.336  1.00  0.00     0.000 C 
ENDROOT
BRANCH   1   2
ATOM      2  C   UNL     1     -32.469  -7.131 -30.160  1.00  0.00     0.006 C 
BRANCH   2   3
ATOM      3  C   UNL     1     -32.704  -8.621 -30.433  1.00  0.00     0.053 C 
BRANCH   3   4
ATOM      4  C   UNL     1     -32.006  -9.457 -29.409  1.00  0.00     0.041 C 
ATOM      5  O   UNL     1     -32.615  -9.829 -28.373  1.00  0.00    -0.550 OA
ATOM      6  O   UNL     1     -30.665  -9.785 -29.576  1.00  0.00    -0.550 OA
ENDBRANCH   3   4
ENDBRANCH   2   3
ENDBRANCH   1   2
BRANCH   1   7
ATOM      7  C   UNL     1     -34.608  -6.895 -31.489  1.00  0.00     0.000 C 
BRANCH   7   8
ATOM      8  C   UNL     1     -35.426  -5.814 -32.214  1.00  0.00    -0.000 C 
BRANCH   8   9
ATOM      9  C   UNL     1     -34.761  -5.347 -33.521  1.00  0.00    -0.000 C 
BRANCH   9  10
ATOM     10  C   UNL     1     -33.997  -4.024 -33.352  1.00  0.00    -0.003 C 
ATOM     11  C   UNL     1     -32.481  -4.214 -33.315  1.00  0.00     0.004 C 
ENDBRANCH   9  10
ENDBRANCH   8   9
ENDBRANCH   7   8
ENDBRANCH   1   7
TORSDOF 7
ENDMDL
MODEL 8
REMARK VINA RESULT:    -2.942     14.698     16.044
REMARK INTER + INTRA:          -4.539
REMARK INTER:                  -3.920
REMARK INTRA:                  -0.619
REMARK UNBOUND:                -0.393
REMARK SMILES CCCCCCCCC(=O)[O-]
REMARK SMILES IDX 6 1 7 2 8 3 9 4 10 5 11 6 5 7 4 8 3 9 2 10 1 11
REMARK H PARENT
REMARK Flexibility Score: inf
ROOT
ATOM      1  C   UNL     1     -33.695  -6.902 -30.449  1.00  0.00     0.000 C 
ENDROOT
BRANCH   1   2
ATOM      2  C   UNL     1     -34.047  -5.519 -31.013  1.00  0.00     0.006 C 
BRANCH   2   3
ATOM      3  C   UNL     1     -33.191  -5.193 -32.242  1.00  0.00     0.053 C 
BRANCH   3   4
ATOM      4  C   UNL     1     -34.030  -4.573 -33.314  1.00  0.00     0.041 C 
ATOM      5  O   UNL     1     -34.956  -5.233 -33.854  1.00  0.00    -0.550 OA
ATOM      6  O   UNL     1     -33.757  -3.283 -33.751  1.00  0.00    -0.550 OA
ENDBRANCH   3   4
ENDBRANCH   2   3
ENDBRANCH   1   2
BRANCH   1   7
ATOM      7  C   UNL     1     -33.907  -7.996 -31.507  1.00  0.00     0.000 C 
BRANCH   7   8
ATOM      8  C   UNL     1     -33.131  -9.286 -31.191  1.00  0.00    -0.000 C 
BRANCH   8   9
ATOM      9  C   UNL     1     -32.032  -9.071 -30.137  1.00  0.00    -0.000 C 
BRANCH   9  10
ATOM     10  C   UNL     1     -30.621  -9.100 -30.745  1.00  0.00    -0.003 C 
ATOM     11  C   UNL     1     -30.169  -7.734 -31.263  1.00  0.00     0.004 C 
ENDBRANCH   9  10
ENDBRANCH   8   9
ENDBRANCH   7   8
ENDBRANCH   1   7
TORSDOF 7
ENDMDL
MODEL 9
REMARK VINA RESULT:    -2.894     13.757     14.827
REMARK INTER + INTRA:          -4.472
REMARK INTER:                  -3.677
REMARK INTRA:                  -0.795
REMARK UNBOUND:                -0.393
REMARK SMILES CCCCCCCCC(=O)[O-]
REMARK SMILES IDX 6 1 7 2 8 3 9 4 10 5 11 6 5 7 4 8 3 9 2 10 1 11
REMARK H PARENT
REMARK Flexibility Score: inf
ROOT
ATOM      1  C   UNL     1     -34.373  -3.468 -29.748  1.00  0.00     0.000 C 
ENDROOT
BRANCH   1   2
ATOM      2  C   UNL     1     -35.024  -4.845 -29.936  1.00  0.00     0.006 C 
BRANCH   2   3
ATOM      3  C   UNL     1     -33.978  -5.900 -30.310  1.00  0.00     0.053 C 
BRANCH   3   4
ATOM      4  C   UNL     1     -34.597  -6.979 -31.140  1.00  0.00     0.041 C 
ATOM      5  O   UNL     1     -35.810  -6.908 -31.469  1.00  0.00    -0.550 OA
ATOM      6  O   UNL     1     -33.846  -8.088 -31.511  1.00  0.00    -0.550 OA
ENDBRANCH   3   4
ENDBRANCH   2   3
ENDBRANCH   1   2
BRANCH   1   7
ATOM      7  C   UNL     1     -32.906  -3.488 -30.204  1.00  0.00     0.000 C 
BRANCH   7   8
ATOM      8  C   UNL     1     -32.563  -2.330 -31.155  1.00  0.00    -0.000 C 
BRANCH   8   9
ATOM      9  C   UNL     1     -33.397  -2.361 -32.447  1.00  0.00    -0.000 C 
BRANCH   9  10
ATOM     10  C   UNL     1     -33.069  -3.576 -33.329  1.00  0.00    -0.003 C 
ATOM     11  C   UNL     1     -34.302  -4.418 -33.662  1.00  0.00     0.004 C 
ENDBRANCH   9  10
ENDBRANCH   8   9
ENDBRANCH   7   8
ENDBRANCH   1   7
TORSDOF 7
ENDMDL
