MODEL 1
REMARK VINA RESULT:    -5.936      0.000      0.000
REMARK INTER + INTRA:         -12.262
REMARK INTER:                 -10.794
REMARK INTRA:                  -1.468
REMARK UNBOUND:                -1.468
REMARK SMILES CCCCCCCCCCCCCC[C@@H](C)C(=O)[O-]
REMARK SMILES IDX 9 1 10 2 11 3 12 4 13 5 14 6 15 7 16 8 17 9 18 10 19 11 8 12
REMARK SMILES IDX 7 13 6 14 5 15 4 16 3 17 2 18 1 19
REMARK H PARENT
REMARK Flexibility Score: inf
ROOT
ATOM      1  C   UNL     1       4.209   4.346   7.907  1.00  0.00     0.000 C 
ENDROOT
BRANCH   1   2
ATOM      2  C   UNL     1       5.650   3.930   8.245  1.00  0.00     0.000 C 
BRANCH   2   3
ATOM      3  C   UNL     1       6.646   4.568   7.265  1.00  0.00     0.000 C 
BRANCH   3   4
ATOM      4  C   UNL     1       7.866   5.181   7.972  1.00  0.00     0.000 C 
BRANCH   4   5
ATOM      5  C   UNL     1       8.057   6.670   7.637  1.00  0.00     0.001 C 
BRANCH   5   6
ATOM      6  C   UNL     1       6.721   7.417   7.456  1.00  0.00     0.009 C 
BRANCH   6   7
ATOM      7  C   UNL     1       6.536   8.061   6.063  1.00  0.00     0.032 C 
ATOM      8  C   UNL     1       7.872   8.104   5.315  1.00  0.00     0.014 C 
BRANCH   7   9
ATOM      9  C   UNL     1       5.520   7.315   5.242  1.00  0.00     0.044 C 
ATOM     10  O   UNL     1       5.857   6.779   4.154  1.00  0.00    -0.550 OA
ATOM     11  O   UNL     1       4.203   7.213   5.677  1.00  0.00    -0.550 OA
ENDBRANCH   7   9
ENDBRANCH   6   7
ENDBRANCH   5   6
ENDBRANCH   4   5
ENDBRANCH   3   4
ENDBRANCH   2   3
ENDBRANCH   1   2
BRANCH   1  12
ATOM     12  C   UNL     1       3.688   5.475   8.813  1.00  0.00     0.000 C 
BRANCH  12  13
ATOM     13  C   UNL     1       2.627   4.986   9.813  1.00  0.00    -0.000 C 
BRANCH  13  14
ATOM     14  C   UNL     1       1.428   4.303   9.129  1.00  0.00    -0.000 C 
BRANCH  14  15
ATOM     15  C   UNL     1       0.049   4.887   9.488  1.00  0.00    -0.000 C 
BRANCH  15  16
ATOM     16  C   UNL     1       0.139   6.173  10.324  1.00  0.00    -0.000 C 
BRANCH  16  17
ATOM     17  C   UNL     1      -0.362   5.934  11.756  1.00  0.00    -0.000 C 
BRANCH  17  18
ATOM     18  C   UNL     1       0.480   6.673  12.807  1.00  0.00    -0.003 C 
ATOM     19  C   UNL     1       1.211   7.887  12.233  1.00  0.00     0.004 C 
ENDBRANCH  17  18
ENDBRANCH  16  17
ENDBRANCH  15  16
ENDBRANCH  14  15
ENDBRANCH  13  14
ENDBRANCH  12  13
ENDBRANCH   1  12
TORSDOF 14
ENDMDL
MODEL 2
REMARK VINA RESULT:    -5.902      1.873      2.817
REMARK INTER + INTRA:         -12.200
REMARK INTER:                  -9.612
REMARK INTRA:                  -2.587
REMARK UNBOUND:                -1.468
REMARK SMILES CCCCCCCCCCCCCC[C@@H](C)C(=O)[O-]
REMARK SMILES IDX 9 1 10 2 11 3 12 4 13 5 14 6 15 7 16 8 17 9 18 10 19 11 8 12
REMARK SMILES IDX 7 13 6 14 5 15 4 16 3 17 2 18 1 19
REMARK H PARENT
REMARK Flexibility Score: inf
ROOT
ATOM      1  C   UNL     1       1.934   6.103   6.691  1.00  0.00     0.000 C 
ENDROOT
BRANCH   1   2
ATOM      2  C   UNL     1       2.817   7.252   6.178  1.00  0.00     0.000 C 
BRANCH   2   3
ATOM      3  C   UNL     1       2.698   8.482   7.092  1.00  0.00     0.000 C 
BRANCH   3   4
ATOM      4  C   UNL     1       4.041   8.888   7.720  1.00  0.00     0.000 C 
BRANCH   4   5
ATOM      5  C   UNL     1       4.938   7.678   8.032  1.00  0.00     0.001 C 
BRANCH   5   6
ATOM      6  C   UNL     1       6.381   7.857   7.524  1.00  0.00     0.009 C 
BRANCH   6   7
ATOM      7  C   UNL     1       6.780   6.890   6.386  1.00  0.00     0.032 C 
ATOM      8  C   UNL     1       6.241   5.484   6.668  1.00  0.00     0.014 C 
BRANCH   7   9
ATOM      9  C   UNL     1       6.271   7.368   5.053  1.00  0.00     0.044 C 
ATOM     10  O   UNL     1       6.016   6.540   4.140  1.00  0.00    -0.550 OA
ATOM     11  O   UNL     1       6.080   8.725   4.819  1.00  0.00    -0.550 OA
ENDBRANCH   7   9
ENDBRANCH   6   7
ENDBRANCH   5   6
ENDBRANCH   4   5
ENDBRANCH   3   4
ENDBRANCH   2   3
ENDBRANCH   1   2
BRANCH   1  12
ATOM     12  C   UNL     1       2.754   4.923   7.241  1.00  0.00     0.000 C 
BRANCH  12  13
ATOM     13  C   UNL     1       2.608   4.764   8.764  1.00  0.00    -0.000 C 
BRANCH  13  14
ATOM     14  C   UNL     1       1.184   4.367   9.192  1.00  0.00    -0.000 C 
BRANCH  14  15
ATOM     15  C   UNL     1       0.515   5.316  10.204  1.00  0.00    -0.000 C 
BRANCH  15  16
ATOM     16  C   UNL     1      -0.460   6.305   9.547  1.00  0.00    -0.000 C 
BRANCH  16  17
ATOM     17  C   UNL     1       0.100   7.735   9.584  1.00  0.00    -0.000 C 
BRANCH  17  18
ATOM     18  C   UNL     1       1.292   7.878  10.542  1.00  0.00    -0.003 C 
ATOM     19  C   UNL     1       1.794   9.318  10.652  1.00  0.00     0.004 C 
ENDBRANCH  17  18
ENDBRANCH  16  17
ENDBRANCH  15  16
ENDBRANCH  14  15
ENDBRANCH  13  14
ENDBRANCH  12  13
ENDBRANCH   1  12
TORSDOF 14
ENDMDL
MODEL 3
REMARK VINA RESULT:    -5.889      1.893      3.276
REMARK INTER + INTRA:         -12.176
REMARK INTER:                  -9.562
REMARK INTRA:                  -2.615
REMARK UNBOUND:                -1.468
REMARK SMILES CCCCCCCCCCCCCC[C@@H](C)C(=O)[O-]
REMARK SMILES IDX 9 1 10 2 11 3 12 4 13 5 14 6 15 7 16 8 17 9 18 10 19 11 8 12
REMARK SMILES IDX 7 13 6 14 5 15 4 16 3 17 2 18 1 19
REMARK H PARENT
REMARK Flexibility Score: inf
ROOT
ATOM      1  C   UNL     1       2.175   4.387   8.535  1.00  0.00     0.000 C 
ENDROOT
BRANCH   1   2
ATOM      2  C   UNL     1       2.835   4.986   7.283  1.00  0.00     0.000 C 
BRANCH   2   3
ATOM      3  C   UNL     1       1.842   5.866   6.509  1.00  0.00     0.000 C 
BRANCH   3   4
ATOM      4  C   UNL     1       2.438   7.224   6.107  1.00  0.00     0.000 C 
BRANCH   4   5
ATOM      5  C   UNL     1       3.969   7.180   5.969  1.00  0.00     0.001 C 
BRANCH   5   6
ATOM      6  C   UNL     1       4.676   8.266   6.802  1.00  0.00     0.009 C 
BRANCH   6   7
ATOM      7  C   UNL     1       6.136   7.930   7.179  1.00  0.00     0.032 C 
ATOM      8  C   UNL     1       6.251   6.465   7.614  1.00  0.00     0.014 C 
BRANCH   7   9
ATOM      9  C   UNL     1       7.076   8.192   6.034  1.00  0.00     0.044 C 
ATOM     10  O   UNL     1       6.718   8.932   5.080  1.00  0.00    -0.550 OA
ATOM     11  O   UNL     1       8.343   7.620   6.019  1.00  0.00    -0.550 OA
ENDBRANCH   7   9
ENDBRANCH   6   7
ENDBRANCH   5   6
ENDBRANCH   4   5
ENDBRANCH   3   4
ENDBRANCH   2   3
ENDBRANCH   1   2
BRANCH   1  12
ATOM     12  C   UNL     1       2.731   4.978   9.841  1.00  0.00     0.000 C 
BRANCH  12  13
ATOM     13  C   UNL     1       3.160   6.448   9.687  1.00  0.00    -0.000 C 
BRANCH  13  14
ATOM     14  C   UNL     1       2.156   7.434  10.312  1.00  0.00    -0.000 C 
BRANCH  14  15
ATOM     15  C   UNL     1       1.092   7.987   9.345  1.00  0.00    -0.000 C 
BRANCH  15  16
ATOM     16  C   UNL     1      -0.344   7.653   9.776  1.00  0.00    -0.000 C 
BRANCH  16  17
ATOM     17  C   UNL     1      -0.884   6.444   8.999  1.00  0.00    -0.000 C 
BRANCH  17  18
ATOM     18  C   UNL     1      -0.997   5.184   9.871  1.00  0.00    -0.003 C 
ATOM     19  C   UNL     1      -1.006   5.499  11.367  1.00  0.00     0.004 C 
ENDBRANCH  17  18
ENDBRANCH  16  17
ENDBRANCH  15  16
ENDBRANCH  14  15
ENDBRANCH  13  14
ENDBRANCH  12  13
ENDBRANCH   1  12
TORSDOF 14
ENDMDL
MODEL 4
REMARK VINA RESULT:    -5.855      2.520      6.886
REMARK INTER + INTRA:         -12.114
REMARK INTER:                  -9.524
REMARK INTRA:                  -2.590
REMARK UNBOUND:                -1.468
REMARK SMILES CCCCCCCCCCCCCC[C@@H](C)C(=O)[O-]
REMARK SMILES IDX 9 1 10 2 11 3 12 4 13 5 14 6 15 7 16 8 17 9 18 10 19 11 8 12
REMARK SMILES IDX 7 13 6 14 5 15 4 16 3 17 2 18 1 19
REMARK H PARENT
REMARK Flexibility Score: inf
ROOT
ATOM      1  C   UNL     1       4.906   5.428   7.992  1.00  0.00     0.000 C 
ENDROOT
BRANCH   1   2
ATOM      2  C   UNL     1       3.629   5.649   7.166  1.00  0.00     0.000 C 
BRANCH   2   3
ATOM      3  C   UNL     1       3.199   7.123   7.209  1.00  0.00     0.000 C 
BRANCH   3   4
ATOM      4  C   UNL     1       3.767   7.874   8.425  1.00  0.00     0.000 C 
BRANCH   4   5
ATOM      5  C   UNL     1       2.695   8.178   9.485  1.00  0.00     0.001 C 
BRANCH   5   6
ATOM      6  C   UNL     1       2.334   6.948  10.340  1.00  0.00     0.009 C 
BRANCH   6   7
ATOM      7  C   UNL     1       0.833   6.582  10.327  1.00  0.00     0.032 C 
ATOM      8  C   UNL     1       0.051   7.568   9.453  1.00  0.00     0.014 C 
BRANCH   7   9
ATOM      9  C   UNL     1       0.612   5.179   9.829  1.00  0.00     0.044 C 
ATOM     10  O   UNL     1       1.577   4.375   9.758  1.00  0.00    -0.550 OA
ATOM     11  O   UNL     1      -0.657   4.762   9.443  1.00  0.00    -0.550 OA
ENDBRANCH   7   9
ENDBRANCH   6   7
ENDBRANCH   5   6
ENDBRANCH   4   5
ENDBRANCH   3   4
ENDBRANCH   2   3
ENDBRANCH   1   2
BRANCH   1  12
ATOM     12  C   UNL     1       5.839   4.373   7.374  1.00  0.00     0.000 C 
BRANCH  12  13
ATOM     13  C   UNL     1       7.323   4.656   7.664  1.00  0.00    -0.000 C 
BRANCH  13  14
ATOM     14  C   UNL     1       7.562   6.057   8.256  1.00  0.00    -0.000 C 
BRANCH  14  15
ATOM     15  C   UNL     1       8.644   6.892   7.547  1.00  0.00    -0.000 C 
BRANCH  15  16
ATOM     16  C   UNL     1       8.188   7.435   6.184  1.00  0.00    -0.000 C 
BRANCH  16  17
ATOM     17  C   UNL     1       6.870   8.213   6.315  1.00  0.00    -0.000 C 
BRANCH  17  18
ATOM     18  C   UNL     1       5.959   8.041   5.091  1.00  0.00    -0.003 C 
ATOM     19  C   UNL     1       6.088   6.661   4.446  1.00  0.00     0.004 C 
ENDBRANCH  17  18
ENDBRANCH  16  17
ENDBRANCH  15  16
ENDBRANCH  14  15
ENDBRANCH  13  14
ENDBRANCH  12  13
ENDBRANCH   1  12
TORSDOF 14
ENDMDL
MODEL 5
REMARK VINA RESULT:    -5.824      3.219      7.005
REMARK INTER + INTRA:         -12.058
REMARK INTER:                  -9.557
REMARK INTRA:                  -2.501
REMARK UNBOUND:                -1.468
REMARK SMILES CCCCCCCCCCCCCC[C@@H](C)C(=O)[O-]
REMARK SMILES IDX 9 1 10 2 11 3 12 4 13 5 14 6 15 7 16 8 17 9 18 10 19 11 8 12
REMARK SMILES IDX 7 13 6 14 5 15 4 16 3 17 2 18 1 19
REMARK H PARENT
REMARK Flexibility Score: inf
ROOT
ATOM      1  C   UNL     1       2.453   7.259   6.259  1.00  0.00     0.000 C 
ENDROOT
BRANCH   1   2
ATOM      2  C   UNL     1       1.752   6.059   6.916  1.00  0.00     0.000 C 
BRANCH   2   3
ATOM      3  C   UNL     1       2.564   5.541   8.113  1.00  0.00     0.000 C 
BRANCH   3   4
ATOM      4  C   UNL     1       1.747   5.504   9.415  1.00  0.00     0.000 C 
BRANCH   4   5
ATOM      5  C   UNL     1       0.354   6.137   9.257  1.00  0.00     0.001 C 
BRANCH   5   6
ATOM      6  C   UNL     1       0.197   7.443  10.060  1.00  0.00     0.009 C 
BRANCH   6   7
ATOM      7  C   UNL     1       1.426   7.813  10.921  1.00  0.00     0.032 C 
ATOM      8  C   UNL     1       1.847   9.261  10.654  1.00  0.00     0.014 C 
BRANCH   7   9
ATOM      9  C   UNL     1       1.146   7.629  12.388  1.00  0.00     0.044 C 
ATOM     10  O   UNL     1       1.747   8.335  13.239  1.00  0.00    -0.550 OA
ATOM     11  O   UNL     1       0.224   6.680  12.814  1.00  0.00    -0.550 OA
ENDBRANCH   7   9
ENDBRANCH   6   7
ENDBRANCH   5   6
ENDBRANCH   4   5
ENDBRANCH   3   4
ENDBRANCH   2   3
ENDBRANCH   1   2
BRANCH   1  12
ATOM     12  C   UNL     1       2.759   8.388   7.256  1.00  0.00     0.000 C 
BRANCH  12  13
ATOM     13  C   UNL     1       4.196   8.920   7.122  1.00  0.00    -0.000 C 
BRANCH  13  14
ATOM     14  C   UNL     1       5.195   8.186   8.035  1.00  0.00    -0.000 C 
BRANCH  14  15
ATOM     15  C   UNL     1       6.459   7.657   7.332  1.00  0.00    -0.000 C 
BRANCH  15  16
ATOM     16  C   UNL     1       6.160   6.981   5.985  1.00  0.00    -0.000 C 
BRANCH  16  17
ATOM     17  C   UNL     1       5.753   5.514   6.185  1.00  0.00    -0.000 C 
BRANCH  17  18
ATOM     18  C   UNL     1       6.636   4.791   7.213  1.00  0.00    -0.003 C 
ATOM     19  C   UNL     1       5.833   3.891   8.153  1.00  0.00     0.004 C 
ENDBRANCH  17  18
ENDBRANCH  16  17
ENDBRANCH  15  16
ENDBRANCH  14  15
ENDBRANCH  13  14
ENDBRANCH  12  13
ENDBRANCH   1  12
TORSDOF 14
ENDMDL
MODEL 6
REMARK VINA RESULT:    -5.808      2.885      6.912
REMARK INTER + INTRA:         -12.029
REMARK INTER:                  -9.940
REMARK INTRA:                  -2.089
REMARK UNBOUND:                -1.468
REMARK SMILES CCCCCCCCCCCCCC[C@@H](C)C(=O)[O-]
REMARK SMILES IDX 9 1 10 2 11 3 12 4 13 5 14 6 15 7 16 8 17 9 18 10 19 11 8 12
REMARK SMILES IDX 7 13 6 14 5 15 4 16 3 17 2 18 1 19
REMARK H PARENT
REMARK Flexibility Score: inf
ROOT
ATOM      1  C   UNL     1       4.527   7.456   6.092  1.00  0.00     0.000 C 
ENDROOT
BRANCH   1   2
ATOM      2  C   UNL     1       4.516   8.778   6.877  1.00  0.00     0.000 C 
BRANCH   2   3
ATOM      3  C   UNL     1       4.100   8.544   8.337  1.00  0.00     0.000 C 
BRANCH   3   4
ATOM      4  C   UNL     1       4.286   7.084   8.782  1.00  0.00     0.000 C 
BRANCH   4   5
ATOM      5  C   UNL     1       3.129   6.582   9.661  1.00  0.00     0.001 C 
BRANCH   5   6
ATOM      6  C   UNL     1       1.745   6.859   9.043  1.00  0.00     0.009 C 
BRANCH   6   7
ATOM      7  C   UNL     1       0.969   5.589   8.624  1.00  0.00     0.032 C 
ATOM      8  C   UNL     1       1.693   4.334   9.121  1.00  0.00     0.014 C 
BRANCH   7   9
ATOM      9  C   UNL     1      -0.439   5.604   9.153  1.00  0.00     0.044 C 
ATOM     10  O   UNL     1      -1.230   6.525   8.819  1.00  0.00    -0.550 OA
ATOM     11  O   UNL     1      -0.877   4.604  10.015  1.00  0.00    -0.550 OA
ENDBRANCH   7   9
ENDBRANCH   6   7
ENDBRANCH   5   6
ENDBRANCH   4   5
ENDBRANCH   3   4
ENDBRANCH   2   3
ENDBRANCH   1   2
BRANCH   1  12
ATOM     12  C   UNL     1       5.669   7.384   5.065  1.00  0.00     0.000 C 
BRANCH  12  13
ATOM     13  C   UNL     1       6.830   8.334   5.407  1.00  0.00    -0.000 C 
BRANCH  13  14
ATOM     14  C   UNL     1       8.025   7.612   6.058  1.00  0.00    -0.000 C 
BRANCH  14  15
ATOM     15  C   UNL     1       7.801   7.154   7.511  1.00  0.00    -0.000 C 
BRANCH  15  16
ATOM     16  C   UNL     1       8.632   5.919   7.887  1.00  0.00    -0.000 C 
BRANCH  16  17
ATOM     17  C   UNL     1       7.725   4.755   8.315  1.00  0.00    -0.000 C 
BRANCH  17  18
ATOM     18  C   UNL     1       6.523   4.568   7.378  1.00  0.00    -0.003 C 
ATOM     19  C   UNL     1       5.438   3.675   7.978  1.00  0.00     0.004 C 
ENDBRANCH  17  18
ENDBRANCH  16  17
ENDBRANCH  15  16
ENDBRANCH  14  15
ENDBRANCH  13  14
ENDBRANCH  12  13
ENDBRANCH   1  12
TORSDOF 14
ENDMDL
MODEL 7
REMARK VINA RESULT:    -5.793      2.954      7.022
REMARK INTER + INTRA:         -12.003
REMARK INTER:                  -9.782
REMARK INTRA:                  -2.221
REMARK UNBOUND:                -1.468
REMARK SMILES CCCCCCCCCCCCCC[C@@H](C)C(=O)[O-]
REMARK SMILES IDX 9 1 10 2 11 3 12 4 13 5 14 6 15 7 16 8 17 9 18 10 19 11 8 12
REMARK SMILES IDX 7 13 6 14 5 15 4 16 3 17 2 18 1 19
REMARK H PARENT
REMARK Flexibility Score: inf
ROOT
ATOM      1  C   UNL     1       2.898   7.467   6.498  1.00  0.00     0.000 C 
ENDROOT
BRANCH   1   2
ATOM      2  C   UNL     1       3.500   8.619   7.318  1.00  0.00     0.000 C 
BRANCH   2   3
ATOM      3  C   UNL     1       3.265   8.401   8.821  1.00  0.00     0.000 C 
BRANCH   3   4
ATOM      4  C   UNL     1       2.338   9.461   9.438  1.00  0.00     0.000 C 
BRANCH   4   5
ATOM      5  C   UNL     1       1.552   8.926  10.647  1.00  0.00     0.001 C 
BRANCH   5   6
ATOM      6  C   UNL     1       0.601   7.771  10.279  1.00  0.00     0.009 C 
BRANCH   6   7
ATOM      7  C   UNL     1       0.794   6.493  11.127  1.00  0.00     0.032 C 
ATOM      8  C   UNL     1       0.599   6.806  12.614  1.00  0.00     0.014 C 
BRANCH   7   9
ATOM      9  C   UNL     1      -0.159   5.406  10.709  1.00  0.00     0.044 C 
ATOM     10  O   UNL     1       0.087   4.706   9.692  1.00  0.00    -0.550 OA
ATOM     11  O   UNL     1      -1.316   5.167  11.442  1.00  0.00    -0.550 OA
ENDBRANCH   7   9
ENDBRANCH   6   7
ENDBRANCH   5   6
ENDBRANCH   4   5
ENDBRANCH   3   4
ENDBRANCH   2   3
ENDBRANCH   1   2
BRANCH   1  12
ATOM     12  C   UNL     1       2.368   6.323   7.379  1.00  0.00     0.000 C 
BRANCH  12  13
ATOM     13  C   UNL     1       3.142   5.010   7.169  1.00  0.00    -0.000 C 
BRANCH  13  14
ATOM     14  C   UNL     1       4.024   4.635   8.374  1.00  0.00    -0.000 C 
BRANCH  14  15
ATOM     15  C   UNL     1       5.518   4.436   8.056  1.00  0.00    -0.000 C 
BRANCH  15  16
ATOM     16  C   UNL     1       5.950   5.117   6.748  1.00  0.00    -0.000 C 
BRANCH  16  17
ATOM     17  C   UNL     1       6.550   6.504   7.023  1.00  0.00    -0.000 C 
BRANCH  17  18
ATOM     18  C   UNL     1       6.839   7.288   5.735  1.00  0.00    -0.003 C 
ATOM     19  C   UNL     1       6.012   6.799   4.546  1.00  0.00     0.004 C 
ENDBRANCH  17  18
ENDBRANCH  16  17
ENDBRANCH  15  16
ENDBRANCH  14  15
ENDBRANCH  13  14
ENDBRANCH  12  13
ENDBRANCH   1  12
TORSDOF 14
ENDMDL
MODEL 8
REMARK VINA RESULT:    -5.780      1.665      3.613
REMARK INTER + INTRA:         -11.978
REMARK INTER:                  -9.661
REMARK INTRA:                  -2.317
REMARK UNBOUND:                -1.468
REMARK SMILES CCCCCCCCCCCCCC[C@@H](C)C(=O)[O-]
REMARK SMILES IDX 9 1 10 2 11 3 12 4 13 5 14 6 15 7 16 8 17 9 18 10 19 11 8 12
REMARK SMILES IDX 7 13 6 14 5 15 4 16 3 17 2 18 1 19
REMARK H PARENT
REMARK Flexibility Score: inf
ROOT
ATOM      1  C   UNL     1       2.792   7.962   9.474  1.00  0.00     0.000 C 
ENDROOT
BRANCH   1   2
ATOM      2  C   UNL     1       2.087   7.706   8.132  1.00  0.00     0.000 C 
BRANCH   2   3
ATOM      3  C   UNL     1       2.487   6.338   7.557  1.00  0.00     0.000 C 
BRANCH   3   4
ATOM      4  C   UNL     1       3.390   5.534   8.507  1.00  0.00     0.000 C 
BRANCH   4   5
ATOM      5  C   UNL     1       4.687   5.061   7.830  1.00  0.00     0.001 C 
BRANCH   5   6
ATOM      6  C   UNL     1       5.164   6.017   6.720  1.00  0.00     0.009 C 
BRANCH   6   7
ATOM      7  C   UNL     1       5.949   7.246   7.232  1.00  0.00     0.032 C 
ATOM      8  C   UNL     1       7.457   6.987   7.152  1.00  0.00     0.014 C 
BRANCH   7   9
ATOM      9  C   UNL     1       5.607   8.485   6.449  1.00  0.00     0.044 C 
ATOM     10  O   UNL     1       4.917   9.396   6.976  1.00  0.00    -0.550 OA
ATOM     11  O   UNL     1       6.047   8.631   5.138  1.00  0.00    -0.550 OA
ENDBRANCH   7   9
ENDBRANCH   6   7
ENDBRANCH   5   6
ENDBRANCH   4   5
ENDBRANCH   3   4
ENDBRANCH   2   3
ENDBRANCH   1   2
BRANCH   1  12
ATOM     12  C   UNL     1       2.186   9.145  10.247  1.00  0.00     0.000 C 
BRANCH  12  13
ATOM     13  C   UNL     1       0.940   8.744  11.055  1.00  0.00    -0.000 C 
BRANCH  13  14
ATOM     14  C   UNL     1       1.285   8.111  12.416  1.00  0.00    -0.000 C 
BRANCH  14  15
ATOM     15  C   UNL     1       0.754   6.681  12.627  1.00  0.00    -0.000 C 
BRANCH  15  16
ATOM     16  C   UNL     1      -0.365   6.304  11.645  1.00  0.00    -0.000 C 
BRANCH  16  17
ATOM     17  C   UNL     1       0.131   5.276  10.616  1.00  0.00    -0.000 C 
BRANCH  17  18
ATOM     18  C   UNL     1      -0.606   5.383   9.273  1.00  0.00    -0.003 C 
ATOM     19  C   UNL     1      -1.354   6.706   9.111  1.00  0.00     0.004 C 
ENDBRANCH  17  18
ENDBRANCH  16  17
ENDBRANCH  15  16
ENDBRANCH  14  15
ENDBRANCH  13  14
ENDBRANCH  12  13
ENDBRANCH   1  12
TORSDOF 14
ENDMDL
MODEL 9
REMARK VINA RESULT:    -5.753      3.081      6.541
REMARK INTER + INTRA:         -11.930
REMARK INTER:                  -9.500
REMARK INTRA:                  -2.429
REMARK UNBOUND:                -1.468
REMARK SMILES CCCCCCCCCCCCCC[C@@H](C)C(=O)[O-]
REMARK SMILES IDX 9 1 10 2 11 3 12 4 13 5 14 6 15 7 16 8 17 9 18 10 19 11 8 12
REMARK SMILES IDX 7 13 6 14 5 15 4 16 3 17 2 18 1 19
REMARK H PARENT
REMARK Flexibility Score: inf
ROOT
ATOM      1  C   UNL     1       5.254   4.023   8.003  1.00  0.00     0.000 C 
ENDROOT
BRANCH   1   2
ATOM      2  C   UNL     1       4.002   4.839   8.363  1.00  0.00     0.000 C 
BRANCH   2   3
ATOM      3  C   UNL     1       3.285   5.328   7.095  1.00  0.00     0.000 C 
BRANCH   3   4
ATOM      4  C   UNL     1       1.876   5.871   7.381  1.00  0.00     0.000 C 
BRANCH   4   5
ATOM      5  C   UNL     1       1.434   5.632   8.834  1.00  0.00     0.001 C 
BRANCH   5   6
ATOM      6  C   UNL     1       0.724   6.853   9.451  1.00  0.00     0.009 C 
BRANCH   6   7
ATOM      7  C   UNL     1       1.256   7.262  10.844  1.00  0.00     0.032 C 
ATOM      8  C   UNL     1       1.221   8.785  11.002  1.00  0.00     0.014 C 
BRANCH   7   9
ATOM      9  C   UNL     1       0.459   6.621  11.947  1.00  0.00     0.044 C 
ATOM     10  O   UNL     1      -0.350   5.692  11.686  1.00  0.00    -0.550 OA
ATOM     11  O   UNL     1       0.608   7.049  13.262  1.00  0.00    -0.550 OA
ENDBRANCH   7   9
ENDBRANCH   6   7
ENDBRANCH   5   6
ENDBRANCH   4   5
ENDBRANCH   3   4
ENDBRANCH   2   3
ENDBRANCH   1   2
BRANCH   1  12
ATOM     12  C   UNL     1       6.163   4.744   6.993  1.00  0.00     0.000 C 
BRANCH  12  13
ATOM     13  C   UNL     1       7.327   5.485   7.671  1.00  0.00    -0.000 C 
BRANCH  13  14
ATOM     14  C   UNL     1       7.434   6.959   7.238  1.00  0.00    -0.000 C 
BRANCH  14  15
ATOM     15  C   UNL     1       6.528   7.363   6.060  1.00  0.00    -0.000 C 
BRANCH  15  16
ATOM     16  C   UNL     1       5.441   8.374   6.456  1.00  0.00    -0.000 C 
BRANCH  16  17
ATOM     17  C   UNL     1       5.405   8.574   7.979  1.00  0.00    -0.000 C 
BRANCH  17  18
ATOM     18  C   UNL     1       3.975   8.600   8.537  1.00  0.00    -0.003 C 
ATOM     19  C   UNL     1       3.016   9.418   7.672  1.00  0.00     0.004 C 
ENDBRANCH  17  18
ENDBRANCH  16  17
ENDBRANCH  15  16
ENDBRANCH  14  15
ENDBRANCH  13  14
ENDBRANCH  12  13
ENDBRANCH   1  12
TORSDOF 14
ENDMDL
