MODEL 1
REMARK VINA RESULT:    -3.668      0.000      0.000
REMARK INTER + INTRA:          -7.066
REMARK INTER:                  -5.813
REMARK INTRA:                  -1.253
REMARK UNBOUND:                -1.253
REMARK SMILES CCCCCCCCCCCC(=O)[O-]
REMARK SMILES IDX 7 1 8 2 9 3 10 4 11 5 12 6 13 7 14 8 6 9 5 10 4 11 3 12 2 13
REMARK SMILES IDX 1 14
REMARK H PARENT
REMARK Flexibility Score: inf
ROOT
ATOM      1  C   UNL     1       5.033  -0.180 400.106  1.00  0.00     0.000 C 
ENDROOT
BRANCH   1   2
ATOM      2  C   UNL     1       5.018  -1.680 400.423  1.00  0.00     0.000 C 
BRANCH   2   3
ATOM      3  C   UNL     1       3.654  -2.299 400.096  1.00  0.00     0.000 C 
BRANCH   3   4
ATOM      4  C   UNL     1       3.302  -3.413 401.093  1.00  0.00     0.006 C 
BRANCH   4   5
ATOM      5  C   UNL     1       4.545  -3.989 401.784  1.00  0.00     0.053 C 
BRANCH   5   6
ATOM      6  C   UNL     1       4.194  -5.109 402.715  1.00  0.00     0.041 C 
ATOM      7  O   UNL     1       3.757  -6.199 402.260  1.00  0.00    -0.550 OA
ATOM      8  O   UNL     1       4.381  -4.960 404.083  1.00  0.00    -0.550 OA
ENDBRANCH   5   6
ENDBRANCH   4   5
ENDBRANCH   3   4
ENDBRANCH   2   3
ENDBRANCH   1   2
BRANCH   1   9
ATOM      9  C   UNL     1       3.614   0.398 400.114  1.00  0.00     0.000 C 
BRANCH   9  10
ATOM     10  C   UNL     1       3.613   1.849 400.618  1.00  0.00    -0.000 C 
BRANCH  10  11
ATOM     11  C   UNL     1       4.199   1.991 402.034  1.00  0.00    -0.000 C 
BRANCH  11  12
ATOM     12  C   UNL     1       3.575   1.065 403.097  1.00  0.00    -0.000 C 
BRANCH  12  13
ATOM     13  C   UNL     1       4.565   0.116 403.794  1.00  0.00    -0.003 C 
ATOM     14  C   UNL     1       3.938  -1.225 404.173  1.00  0.00     0.004 C 
ENDBRANCH  12  13
ENDBRANCH  11  12
ENDBRANCH  10  11
ENDBRANCH   9  10
ENDBRANCH   1   9
TORSDOF 10
ENDMDL
MODEL 2
REMARK VINA RESULT:    -3.665      1.567      3.557
REMARK INTER + INTRA:          -7.062
REMARK INTER:                  -5.734
REMARK INTRA:                  -1.328
REMARK UNBOUND:                -1.253
REMARK SMILES CCCCCCCCCCCC(=O)[O-]
REMARK SMILES IDX 7 1 8 2 9 3 10 4 11 5 12 6 13 7 14 8 6 9 5 10 4 11 3 12 2 13
REMARK SMILES IDX 1 14
REMARK H PARENT
REMARK Flexibility Score: inf
ROOT
ATOM      1  C   UNL     1       5.177   2.248 402.616  1.00  0.00     0.000 C 
ENDROOT
BRANCH   1   2
ATOM      2  C   UNL     1       4.785   1.557 403.928  1.00  0.00     0.000 C 
BRANCH   2   3
ATOM      3  C   UNL     1       5.196   0.080 403.917  1.00  0.00     0.000 C 
BRANCH   3   4
ATOM      4  C   UNL     1       3.964  -0.834 403.986  1.00  0.00     0.006 C 
BRANCH   4   5
ATOM      5  C   UNL     1       4.125  -2.092 403.122  1.00  0.00     0.053 C 
BRANCH   5   6
ATOM      6  C   UNL     1       3.438  -3.276 403.733  1.00  0.00     0.041 C 
ATOM      7  O   UNL     1       2.703  -3.131 404.745  1.00  0.00    -0.550 OA
ATOM      8  O   UNL     1       3.585  -4.534 403.163  1.00  0.00    -0.550 OA
ENDBRANCH   5   6
ENDBRANCH   4   5
ENDBRANCH   3   4
ENDBRANCH   2   3
ENDBRANCH   1   2
BRANCH   1   9
ATOM      9  C   UNL     1       3.954   2.877 401.939  1.00  0.00     0.000 C 
BRANCH   9  10
ATOM     10  C   UNL     1       3.669   2.207 400.587  1.00  0.00    -0.000 C 
BRANCH  10  11
ATOM     11  C   UNL     1       3.377   0.702 400.714  1.00  0.00    -0.000 C 
BRANCH  11  12
ATOM     12  C   UNL     1       4.211  -0.207 399.788  1.00  0.00    -0.000 C 
BRANCH  12  13
ATOM     13  C   UNL     1       5.696  -0.336 400.171  1.00  0.00    -0.003 C 
ATOM     14  C   UNL     1       6.605   0.571 399.343  1.00  0.00     0.004 C 
ENDBRANCH  12  13
ENDBRANCH  11  12
ENDBRANCH  10  11
ENDBRANCH   9  10
ENDBRANCH   1   9
TORSDOF 10
ENDMDL
MODEL 3
REMARK VINA RESULT:    -3.637      1.741      2.349
REMARK INTER + INTRA:          -7.017
REMARK INTER:                  -5.639
REMARK INTRA:                  -1.378
REMARK UNBOUND:                -1.253
REMARK SMILES CCCCCCCCCCCC(=O)[O-]
REMARK SMILES IDX 7 1 8 2 9 3 10 4 11 5 12 6 13 7 14 8 6 9 5 10 4 11 3 12 2 13
REMARK SMILES IDX 1 14
REMARK H PARENT
REMARK Flexibility Score: inf
ROOT
ATOM      1  C   UNL     1       5.080  -1.519 400.500  1.00  0.00     0.000 C 
ENDROOT
BRANCH   1   2
ATOM      2  C   UNL     1       3.762  -2.270 400.276  1.00  0.00     0.000 C 
BRANCH   2   3
ATOM      3  C   UNL     1       3.418  -3.150 401.483  1.00  0.00     0.000 C 
BRANCH   3   4
ATOM      4  C   UNL     1       4.329  -2.829 402.677  1.00  0.00     0.006 C 
BRANCH   4   5
ATOM      5  C   UNL     1       3.927  -3.603 403.940  1.00  0.00     0.053 C 
BRANCH   5   6
ATOM      6  C   UNL     1       2.851  -2.895 404.706  1.00  0.00     0.041 C 
ATOM      7  O   UNL     1       1.643  -3.209 404.541  1.00  0.00    -0.550 OA
ATOM      8  O   UNL     1       3.187  -1.912 405.627  1.00  0.00    -0.550 OA
ENDBRANCH   5   6
ENDBRANCH   4   5
ENDBRANCH   3   4
ENDBRANCH   2   3
ENDBRANCH   1   2
BRANCH   1   9
ATOM      9  C   UNL     1       4.964  -0.058 400.053  1.00  0.00     0.000 C 
BRANCH   9  10
ATOM     10  C   UNL     1       3.599   0.530 400.443  1.00  0.00    -0.000 C 
BRANCH  10  11
ATOM     11  C   UNL     1       3.685   1.513 401.623  1.00  0.00    -0.000 C 
BRANCH  11  12
ATOM     12  C   UNL     1       3.624   0.864 403.021  1.00  0.00    -0.000 C 
BRANCH  12  13
ATOM     13  C   UNL     1       4.975   0.767 403.752  1.00  0.00    -0.003 C 
ATOM     14  C   UNL     1       6.009   1.760 403.224  1.00  0.00     0.004 C 
ENDBRANCH  12  13
ENDBRANCH  11  12
ENDBRANCH  10  11
ENDBRANCH   9  10
ENDBRANCH   1   9
TORSDOF 10
ENDMDL
MODEL 4
REMARK VINA RESULT:    -3.586      3.467      5.129
REMARK INTER + INTRA:          -6.935
REMARK INTER:                  -5.978
REMARK INTRA:                  -0.957
REMARK UNBOUND:                -1.253
REMARK SMILES CCCCCCCCCCCC(=O)[O-]
REMARK SMILES IDX 7 1 8 2 9 3 10 4 11 5 12 6 13 7 14 8 6 9 5 10 4 11 3 12 2 13
REMARK SMILES IDX 1 14
REMARK H PARENT
REMARK Flexibility Score: inf
ROOT
ATOM      1  C   UNL     1       3.721  -2.438 399.997  1.00  0.00     0.000 C 
ENDROOT
BRANCH   1   2
ATOM      2  C   UNL     1       5.000  -1.667 400.344  1.00  0.00     0.000 C 
BRANCH   2   3
ATOM      3  C   UNL     1       4.851  -0.177 400.018  1.00  0.00     0.000 C 
BRANCH   3   4
ATOM      4  C   UNL     1       3.546   0.387 400.599  1.00  0.00     0.006 C 
BRANCH   4   5
ATOM      5  C   UNL     1       3.750   1.013 401.985  1.00  0.00     0.053 C 
BRANCH   5   6
ATOM      6  C   UNL     1       4.067   2.475 401.893  1.00  0.00     0.041 C 
ATOM      7  O   UNL     1       3.497   3.194 401.030  1.00  0.00    -0.550 OA
ATOM      8  O   UNL     1       4.968   3.047 402.781  1.00  0.00    -0.550 OA
ENDBRANCH   5   6
ENDBRANCH   4   5
ENDBRANCH   3   4
ENDBRANCH   2   3
ENDBRANCH   1   2
BRANCH   1   9
ATOM      9  C   UNL     1       3.306  -3.362 401.147  1.00  0.00     0.000 C 
BRANCH   9  10
ATOM     10  C   UNL     1       4.129  -3.071 402.411  1.00  0.00    -0.000 C 
BRANCH  10  11
ATOM     11  C   UNL     1       3.253  -2.814 403.649  1.00  0.00    -0.000 C 
BRANCH  11  12
ATOM     12  C   UNL     1       3.807  -1.767 404.637  1.00  0.00    -0.000 C 
BRANCH  12  13
ATOM     13  C   UNL     1       4.330  -2.340 405.965  1.00  0.00    -0.003 C 
ATOM     14  C   UNL     1       3.284  -2.311 407.079  1.00  0.00     0.004 C 
ENDBRANCH  12  13
ENDBRANCH  11  12
ENDBRANCH  10  11
ENDBRANCH   9  10
ENDBRANCH   1   9
TORSDOF 10
ENDMDL
MODEL 5
REMARK VINA RESULT:    -3.556      1.852      3.880
REMARK INTER + INTRA:          -6.889
REMARK INTER:                  -5.718
REMARK INTRA:                  -1.171
REMARK UNBOUND:                -1.253
REMARK SMILES CCCCCCCCCCCC(=O)[O-]
REMARK SMILES IDX 7 1 8 2 9 3 10 4 11 5 12 6 13 7 14 8 6 9 5 10 4 11 3 12 2 13
REMARK SMILES IDX 1 14
REMARK H PARENT
REMARK Flexibility Score: inf
ROOT
ATOM      1  C   UNL     1       3.971   1.771 402.522  1.00  0.00     0.000 C 
ENDROOT
BRANCH   1   2
ATOM      2  C   UNL     1       5.407   1.615 403.036  1.00  0.00     0.000 C 
BRANCH   2   3
ATOM      3  C   UNL     1       5.521   0.432 404.005  1.00  0.00     0.000 C 
BRANCH   3   4
ATOM      4  C   UNL     1       4.265  -0.449 403.947  1.00  0.00     0.006 C 
BRANCH   4   5
ATOM      5  C   UNL     1       4.470  -1.800 404.646  1.00  0.00     0.053 C 
BRANCH   5   6
ATOM      6  C   UNL     1       3.244  -2.230 405.394  1.00  0.00     0.041 C 
ATOM      7  O   UNL     1       3.216  -2.173 406.652  1.00  0.00    -0.550 OA
ATOM      8  O   UNL     1       2.123  -2.662 404.699  1.00  0.00    -0.550 OA
ENDBRANCH   5   6
ENDBRANCH   4   5
ENDBRANCH   3   4
ENDBRANCH   2   3
ENDBRANCH   1   2
BRANCH   1   9
ATOM      9  C   UNL     1       3.923   1.688 400.992  1.00  0.00     0.000 C 
BRANCH   9  10
ATOM     10  C   UNL     1       5.277   1.239 400.422  1.00  0.00    -0.000 C 
BRANCH  10  11
ATOM     11  C   UNL     1       5.243  -0.189 399.851  1.00  0.00    -0.000 C 
BRANCH  11  12
ATOM     12  C   UNL     1       3.959  -0.986 400.158  1.00  0.00    -0.000 C 
BRANCH  12  13
ATOM     13  C   UNL     1       4.138  -2.514 400.207  1.00  0.00    -0.003 C 
ATOM     14  C   UNL     1       3.250  -3.184 401.254  1.00  0.00     0.004 C 
ENDBRANCH  12  13
ENDBRANCH  11  12
ENDBRANCH  10  11
ENDBRANCH   9  10
ENDBRANCH   1   9
TORSDOF 10
ENDMDL
MODEL 6
REMARK VINA RESULT:    -3.544      1.282      1.928
REMARK INTER + INTRA:          -6.870
REMARK INTER:                  -5.967
REMARK INTRA:                  -0.902
REMARK UNBOUND:                -1.253
REMARK SMILES CCCCCCCCCCCC(=O)[O-]
REMARK SMILES IDX 7 1 8 2 9 3 10 4 11 5 12 6 13 7 14 8 6 9 5 10 4 11 3 12 2 13
REMARK SMILES IDX 1 14
REMARK H PARENT
REMARK Flexibility Score: inf
ROOT
ATOM      1  C   UNL     1       5.089  -1.725 400.439  1.00  0.00     0.000 C 
ENDROOT
BRANCH   1   2
ATOM      2  C   UNL     1       3.734  -2.281 399.984  1.00  0.00     0.000 C 
BRANCH   2   3
ATOM      3  C   UNL     1       3.198  -3.314 400.981  1.00  0.00     0.000 C 
BRANCH   3   4
ATOM      4  C   UNL     1       4.244  -3.632 402.060  1.00  0.00     0.006 C 
BRANCH   4   5
ATOM      5  C   UNL     1       3.930  -4.935 402.808  1.00  0.00     0.053 C 
BRANCH   5   6
ATOM      6  C   UNL     1       4.314  -6.142 402.006  1.00  0.00     0.041 C 
ATOM      7  O   UNL     1       3.511  -7.104 401.884  1.00  0.00    -0.550 OA
ATOM      8  O   UNL     1       5.546  -6.188 401.369  1.00  0.00    -0.550 OA
ENDBRANCH   5   6
ENDBRANCH   4   5
ENDBRANCH   3   4
ENDBRANCH   2   3
ENDBRANCH   1   2
BRANCH   1   9
ATOM      9  C   UNL     1       5.173  -0.214 400.199  1.00  0.00     0.000 C 
BRANCH   9  10
ATOM     10  C   UNL     1       3.775   0.422 400.204  1.00  0.00    -0.000 C 
BRANCH  10  11
ATOM     11  C   UNL     1       3.622   1.523 401.268  1.00  0.00    -0.000 C 
BRANCH  11  12
ATOM     12  C   UNL     1       3.616   1.026 402.728  1.00  0.00    -0.000 C 
BRANCH  12  13
ATOM     13  C   UNL     1       4.751   1.579 403.607  1.00  0.00    -0.003 C 
ATOM     14  C   UNL     1       5.470   2.768 402.972  1.00  0.00     0.004 C 
ENDBRANCH  12  13
ENDBRANCH  11  12
ENDBRANCH  10  11
ENDBRANCH   9  10
ENDBRANCH   1   9
TORSDOF 10
ENDMDL
MODEL 7
REMARK VINA RESULT:    -3.523      3.025      5.608
REMARK INTER + INTRA:          -6.835
REMARK INTER:                  -6.112
REMARK INTRA:                  -0.724
REMARK UNBOUND:                -1.253
REMARK SMILES CCCCCCCCCCCC(=O)[O-]
REMARK SMILES IDX 7 1 8 2 9 3 10 4 11 5 12 6 13 7 14 8 6 9 5 10 4 11 3 12 2 13
REMARK SMILES IDX 1 14
REMARK H PARENT
REMARK Flexibility Score: inf
ROOT
ATOM      1  C   UNL     1       3.926  -1.000 400.122  1.00  0.00     0.000 C 
ENDROOT
BRANCH   1   2
ATOM      2  C   UNL     1       5.335  -0.408 400.250  1.00  0.00     0.000 C 
BRANCH   2   3
ATOM      3  C   UNL     1       5.292   1.124 400.247  1.00  0.00     0.000 C 
BRANCH   3   4
ATOM      4  C   UNL     1       3.881   1.637 400.570  1.00  0.00     0.006 C 
BRANCH   4   5
ATOM      5  C   UNL     1       3.902   2.813 401.555  1.00  0.00     0.053 C 
BRANCH   5   6
ATOM      6  C   UNL     1       4.659   2.478 402.804  1.00  0.00     0.041 C 
ATOM      7  O   UNL     1       4.248   1.566 403.570  1.00  0.00    -0.550 OA
ATOM      8  O   UNL     1       5.836   3.151 403.104  1.00  0.00    -0.550 OA
ENDBRANCH   5   6
ENDBRANCH   4   5
ENDBRANCH   3   4
ENDBRANCH   2   3
ENDBRANCH   1   2
BRANCH   1   9
ATOM      9  C   UNL     1       3.980  -2.524 399.968  1.00  0.00     0.000 C 
BRANCH   9  10
ATOM     10  C   UNL     1       3.142  -3.216 401.053  1.00  0.00    -0.000 C 
BRANCH  10  11
ATOM     11  C   UNL     1       3.755  -3.088 402.457  1.00  0.00    -0.000 C 
BRANCH  11  12
ATOM     12  C   UNL     1       4.643  -4.271 402.895  1.00  0.00    -0.000 C 
BRANCH  12  13
ATOM     13  C   UNL     1       4.027  -5.663 402.670  1.00  0.00    -0.003 C 
ATOM     14  C   UNL     1       4.810  -6.504 401.663  1.00  0.00     0.004 C 
ENDBRANCH  12  13
ENDBRANCH  11  12
ENDBRANCH  10  11
ENDBRANCH   9  10
ENDBRANCH   1   9
TORSDOF 10
ENDMDL
MODEL 8
REMARK VINA RESULT:    -3.476      2.014      3.475
REMARK INTER + INTRA:          -6.761
REMARK INTER:                  -5.171
REMARK INTRA:                  -1.590
REMARK UNBOUND:                -1.253
REMARK SMILES CCCCCCCCCCCC(=O)[O-]
REMARK SMILES IDX 7 1 8 2 9 3 10 4 11 5 12 6 13 7 14 8 6 9 5 10 4 11 3 12 2 13
REMARK SMILES IDX 1 14
REMARK H PARENT
REMARK Flexibility Score: inf
ROOT
ATOM      1  C   UNL     1       3.915   2.673 401.634  1.00  0.00     0.000 C 
ENDROOT
BRANCH   1   2
ATOM      2  C   UNL     1       3.905   1.659 400.483  1.00  0.00     0.000 C 
BRANCH   2   3
ATOM      3  C   UNL     1       5.302   1.074 400.252  1.00  0.00     0.000 C 
BRANCH   3   4
ATOM      4  C   UNL     1       5.236  -0.447 400.050  1.00  0.00     0.006 C 
BRANCH   4   5
ATOM      5  C   UNL     1       3.850  -1.017 400.381  1.00  0.00     0.053 C 
BRANCH   5   6
ATOM      6  C   UNL     1       3.934  -2.429 400.876  1.00  0.00     0.041 C 
ATOM      7  O   UNL     1       2.954  -3.208 400.740  1.00  0.00    -0.550 OA
ATOM      8  O   UNL     1       5.107  -2.892 401.457  1.00  0.00    -0.550 OA
ENDBRANCH   5   6
ENDBRANCH   4   5
ENDBRANCH   3   4
ENDBRANCH   2   3
ENDBRANCH   1   2
BRANCH   1   9
ATOM      9  C   UNL     1       4.983   2.315 402.673  1.00  0.00     0.000 C 
BRANCH   9  10
ATOM     10  C   UNL     1       4.375   1.511 403.832  1.00  0.00    -0.000 C 
BRANCH  10  11
ATOM     11  C   UNL     1       4.822   0.039 403.840  1.00  0.00    -0.000 C 
BRANCH  11  12
ATOM     12  C   UNL     1       6.284  -0.199 404.269  1.00  0.00    -0.000 C 
BRANCH  12  13
ATOM     13  C   UNL     1       7.220  -0.680 403.147  1.00  0.00    -0.003 C 
ATOM     14  C   UNL     1       8.123   0.429 402.608  1.00  0.00     0.004 C 
ENDBRANCH  12  13
ENDBRANCH  11  12
ENDBRANCH  10  11
ENDBRANCH   9  10
ENDBRANCH   1   9
TORSDOF 10
ENDMDL
MODEL 9
REMARK VINA RESULT:    -3.474      2.118      4.568
REMARK INTER + INTRA:          -6.758
REMARK INTER:                  -5.572
REMARK INTRA:                  -1.186
REMARK UNBOUND:                -1.253
REMARK SMILES CCCCCCCCCCCC(=O)[O-]
REMARK SMILES IDX 7 1 8 2 9 3 10 4 11 5 12 6 13 7 14 8 6 9 5 10 4 11 3 12 2 13
REMARK SMILES IDX 1 14
REMARK H PARENT
REMARK Flexibility Score: inf
ROOT
ATOM      1  C   UNL     1       5.503   1.196 400.391  1.00  0.00     0.000 C 
ENDROOT
BRANCH   1   2
ATOM      2  C   UNL     1       4.120   1.838 400.555  1.00  0.00     0.000 C 
BRANCH   2   3
ATOM      3  C   UNL     1       3.954   2.441 401.954  1.00  0.00     0.000 C 
BRANCH   3   4
ATOM      4  C   UNL     1       5.183   2.152 402.828  1.00  0.00     0.006 C 
BRANCH   4   5
ATOM      5  C   UNL     1       4.835   1.305 404.059  1.00  0.00     0.053 C 
BRANCH   5   6
ATOM      6  C   UNL     1       4.758  -0.154 403.726  1.00  0.00     0.041 C 
ATOM      7  O   UNL     1       3.652  -0.755 403.760  1.00  0.00    -0.550 OA
ATOM      8  O   UNL     1       5.904  -0.840 403.347  1.00  0.00    -0.550 OA
ENDBRANCH   5   6
ENDBRANCH   4   5
ENDBRANCH   3   4
ENDBRANCH   2   3
ENDBRANCH   1   2
BRANCH   1   9
ATOM      9  C   UNL     1       5.384  -0.247 399.888  1.00  0.00     0.000 C 
BRANCH   9  10
ATOM     10  C   UNL     1       3.966  -0.792 400.110  1.00  0.00    -0.000 C 
BRANCH  10  11
ATOM     11  C   UNL     1       3.948  -2.292 400.453  1.00  0.00    -0.000 C 
BRANCH  11  12
ATOM     12  C   UNL     1       5.328  -2.980 400.452  1.00  0.00    -0.000 C 
BRANCH  12  13
ATOM     13  C   UNL     1       5.420  -4.251 401.315  1.00  0.00    -0.003 C 
ATOM     14  C   UNL     1       4.056  -4.740 401.802  1.00  0.00     0.004 C 
ENDBRANCH  12  13
ENDBRANCH  11  12
ENDBRANCH  10  11
ENDBRANCH   9  10
ENDBRANCH   1   9
TORSDOF 10
ENDMDL
