MODEL 1
REMARK VINA RESULT:    -3.891      0.000      0.000
REMARK INTER + INTRA:          -6.276
REMARK INTER:                  -5.939
REMARK INTRA:                  -0.337
REMARK UNBOUND:                -0.337
REMARK SMILES CC1=CCC[C@@H](C)C(=O)C[C@H](C(C)C)C(=O)C1
REMARK SMILES IDX 8 1 9 2 6 3 7 4 5 5 4 6 3 7 2 8 1 9 10 11 11 12 15 13 16 14
REMARK SMILES IDX 17 15 12 17 13 18 14 19
REMARK H PARENT
REMARK Flexibility Score: 70.00
ROOT
ATOM      1  C   UNL     1       1.352 -24.772  23.092  1.00  0.00     0.136 C 
ATOM      2  O   UNL     1       1.359 -24.593  21.881  1.00  0.00    -0.299 OA
ENDROOT
BRANCH   1   3
ATOM      3  C   UNL     1       0.405 -23.963  23.957  1.00  0.00     0.053 C 
ATOM      4  C   UNL     1      -1.037 -24.117  23.455  1.00  0.00     0.016 C 
BRANCH   3   5
ATOM      5  C   UNL     1       0.827 -22.475  23.977  1.00  0.00     0.015 C 
BRANCH   5   6
ATOM      6  C   UNL     1       1.722 -22.156  25.190  1.00  0.00     0.028 C 
BRANCH   6   7
ATOM      7  C   UNL     1       1.301 -22.872  26.451  1.00  0.00    -0.028 C 
ATOM      8  C   UNL     1       2.021 -23.821  27.100  1.00  0.00    -0.070 CG0
ATOM      9  C   UNL     1       1.378 -24.495  28.287  1.00  0.00     0.039 C 
ATOM     10  G   UNL     1       3.448 -24.203  26.728  1.00  0.00     0.000 G0
ENDBRANCH   6   7
ENDBRANCH   5   6
ENDBRANCH   3   5
ENDBRANCH   1   3
BRANCH   1  11
ATOM     11  C   UNL     1       2.276 -25.814  23.681  1.00  0.00     0.087 C 
BRANCH  11  12
ATOM     12  C   UNL     1       3.553 -25.179  24.297  1.00  0.00     0.066 C 
BRANCH  12  13
ATOM     13  C   UNL     1       3.549 -25.395  25.803  1.00  0.00     0.140 C 
ATOM     14  O   UNL     1       3.665 -26.526  26.259  1.00  0.00    -0.299 OA
BRANCH  13  15
ATOM     15  C   UNL     1       3.451 -24.215  26.738  1.00  0.00     0.106 CG0
ATOM     16  G   UNL     1       2.024 -23.813  27.086  1.00  0.00     0.000 G0
ENDBRANCH  13  15
ENDBRANCH  12  13
BRANCH  12  17
ATOM     17  C   UNL     1       4.876 -25.708  23.652  1.00  0.00    -0.006 C 
ATOM     18  C   UNL     1       5.654 -24.565  22.970  1.00  0.00     0.008 C 
ATOM     19  C   UNL     1       4.627 -26.818  22.614  1.00  0.00     0.008 C 
ENDBRANCH  12  17
ENDBRANCH  11  12
ENDBRANCH   1  11
TORSDOF 1
ENDMDL
MODEL 2
REMARK VINA RESULT:    -3.873     10.049     11.520
REMARK INTER + INTRA:          -6.248
REMARK INTER:                  -6.038
REMARK INTRA:                  -0.210
REMARK UNBOUND:                -0.337
REMARK SMILES CC1=CCC[C@@H](C)C(=O)C[C@H](C(C)C)C(=O)C1
REMARK SMILES IDX 8 1 9 2 6 3 7 4 5 5 4 6 3 7 2 8 1 9 10 11 11 12 15 13 16 14
REMARK SMILES IDX 17 15 12 17 13 18 14 19
REMARK H PARENT
REMARK Flexibility Score: 70.00
ROOT
ATOM      1  C   UNL     1       9.131 -15.748  20.970  1.00  0.00     0.136 C 
ATOM      2  O   UNL     1       9.615 -14.934  20.195  1.00  0.00    -0.299 OA
ENDROOT
BRANCH   1   3
ATOM      3  C   UNL     1       9.122 -15.446  22.456  1.00  0.00     0.053 C 
ATOM      4  C   UNL     1       8.543 -14.048  22.712  1.00  0.00     0.016 C 
BRANCH   3   5
ATOM      5  C   UNL     1      10.549 -15.569  23.041  1.00  0.00     0.015 C 
BRANCH   5   6
ATOM      6  C   UNL     1      10.829 -16.993  23.559  1.00  0.00     0.028 C 
BRANCH   6   7
ATOM      7  C   UNL     1      11.821 -17.754  22.714  1.00  0.00    -0.028 C 
ATOM      8  C   UNL     1      11.549 -18.864  21.982  1.00  0.00    -0.070 CG0
ATOM      9  C   UNL     1      12.705 -19.542  21.287  1.00  0.00     0.039 C 
ATOM     10  G   UNL     1      10.148 -19.427  21.786  1.00  0.00     0.000 G0
ENDBRANCH   6   7
ENDBRANCH   5   6
ENDBRANCH   3   5
ENDBRANCH   1   3
BRANCH   1  11
ATOM     11  C   UNL     1       8.535 -17.022  20.412  1.00  0.00     0.087 C 
BRANCH  11  12
ATOM     12  C   UNL     1       9.602 -17.905  19.710  1.00  0.00     0.066 C 
BRANCH  12  13
ATOM     13  C   UNL     1       9.624 -19.282  20.358  1.00  0.00     0.140 C 
ATOM     14  O   UNL     1       9.250 -20.262  19.725  1.00  0.00    -0.299 OA
BRANCH  13  15
ATOM     15  C   UNL     1      10.150 -19.451  21.762  1.00  0.00     0.106 CG0
ATOM     16  G   UNL     1      11.539 -18.867  21.981  1.00  0.00     0.000 G0
ENDBRANCH  13  15
ENDBRANCH  12  13
BRANCH  12  17
ATOM     17  C   UNL     1       9.394 -18.011  18.164  1.00  0.00    -0.006 C 
ATOM     18  C   UNL     1      10.321 -17.034  17.414  1.00  0.00     0.008 C 
ATOM     19  C   UNL     1       7.939 -17.728  17.742  1.00  0.00     0.008 C 
ENDBRANCH  12  17
ENDBRANCH  11  12
ENDBRANCH   1  11
TORSDOF 1
ENDMDL
MODEL 3
REMARK VINA RESULT:    -3.810     10.168     11.929
REMARK INTER + INTRA:          -6.152
REMARK INTER:                  -6.032
REMARK INTRA:                  -0.120
REMARK UNBOUND:                -0.337
REMARK SMILES CC1=CCC[C@@H](C)C(=O)C[C@H](C(C)C)C(=O)C1
REMARK SMILES IDX 8 1 9 2 6 3 7 4 5 5 4 6 3 7 2 8 1 9 10 11 11 12 15 13 16 14
REMARK SMILES IDX 17 15 12 17 13 18 14 19
REMARK H PARENT
REMARK Flexibility Score: 70.00
ROOT
ATOM      1  C   UNL     1       6.830 -12.372  25.155  1.00  0.00     0.136 C 
ATOM      2  O   UNL     1       5.777 -11.921  25.586  1.00  0.00    -0.299 OA
ENDROOT
BRANCH   1   3
ATOM      3  C   UNL     1       7.535 -11.656  24.019  1.00  0.00     0.053 C 
ATOM      4  C   UNL     1       6.514 -11.158  22.987  1.00  0.00     0.016 C 
BRANCH   3   5
ATOM      5  C   UNL     1       8.579 -12.587  23.358  1.00  0.00     0.015 C 
BRANCH   5   6
ATOM      6  C   UNL     1       7.945 -13.459  22.257  1.00  0.00     0.028 C 
BRANCH   6   7
ATOM      7  C   UNL     1       8.391 -14.900  22.301  1.00  0.00    -0.028 C 
ATOM      8  C   UNL     1       7.780 -15.897  22.988  1.00  0.00    -0.070 CG0
ATOM      9  C   UNL     1       8.444 -17.252  22.990  1.00  0.00     0.039 C 
ATOM     10  G   UNL     1       6.448 -15.736  23.708  1.00  0.00     0.000 G0
ENDBRANCH   6   7
ENDBRANCH   5   6
ENDBRANCH   3   5
ENDBRANCH   1   3
BRANCH   1  11
ATOM     11  C   UNL     1       7.404 -13.619  25.789  1.00  0.00     0.087 C 
BRANCH  11  12
ATOM     12  C   UNL     1       6.305 -14.671  26.104  1.00  0.00     0.066 C 
BRANCH  12  13
ATOM     13  C   UNL     1       6.501 -15.890  25.215  1.00  0.00     0.140 C 
ATOM     14  O   UNL     1       6.677 -16.992  25.719  1.00  0.00    -0.299 OA
BRANCH  13  15
ATOM     15  C   UNL     1       6.433 -15.752  23.714  1.00  0.00     0.106 CG0
ATOM     16  G   UNL     1       7.779 -15.892  23.014  1.00  0.00     0.000 G0
ENDBRANCH  13  15
ENDBRANCH  12  13
BRANCH  12  17
ATOM     17  C   UNL     1       6.253 -15.074  27.614  1.00  0.00    -0.006 C 
ATOM     18  C   UNL     1       4.804 -15.351  28.064  1.00  0.00     0.008 C 
ATOM     19  C   UNL     1       6.855 -13.996  28.536  1.00  0.00     0.008 C 
ENDBRANCH  12  17
ENDBRANCH  11  12
ENDBRANCH   1  11
TORSDOF 1
ENDMDL
MODEL 4
REMARK VINA RESULT:    -3.774     10.514     12.714
REMARK INTER + INTRA:          -6.096
REMARK INTER:                  -5.917
REMARK INTRA:                  -0.179
REMARK UNBOUND:                -0.337
REMARK SMILES CC1=CCC[C@@H](C)C(=O)C[C@H](C(C)C)C(=O)C1
REMARK SMILES IDX 8 1 9 2 6 3 7 4 5 5 4 6 3 7 2 8 1 9 10 11 11 12 15 13 16 14
REMARK SMILES IDX 17 15 12 17 13 18 14 19
REMARK H PARENT
REMARK Flexibility Score: 70.00
ROOT
ATOM      1  C   UNL     1      12.169 -18.040  21.752  1.00  0.00     0.136 C 
ATOM      2  O   UNL     1      13.190 -18.484  22.260  1.00  0.00    -0.299 OA
ENDROOT
BRANCH   1   3
ATOM      3  C   UNL     1      10.831 -18.314  22.411  1.00  0.00     0.053 C 
ATOM      4  C   UNL     1      10.467 -19.798  22.280  1.00  0.00     0.016 C 
BRANCH   3   5
ATOM      5  C   UNL     1       9.731 -17.418  21.794  1.00  0.00     0.015 C 
BRANCH   5   6
ATOM      6  C   UNL     1       8.758 -18.236  20.922  1.00  0.00     0.028 C 
BRANCH   6   7
ATOM      7  C   UNL     1       8.280 -17.492  19.698  1.00  0.00    -0.028 C 
ATOM      8  C   UNL     1       8.882 -17.500  18.483  1.00  0.00    -0.070 CG0
ATOM      9  C   UNL     1       8.306 -16.605  17.413  1.00  0.00     0.039 C 
ATOM     10  G   UNL     1      10.064 -18.392  18.129  1.00  0.00     0.000 G0
ENDBRANCH   6   7
ENDBRANCH   5   6
ENDBRANCH   3   5
ENDBRANCH   1   3
BRANCH   1  11
ATOM     11  C   UNL     1      12.282 -17.209  20.492  1.00  0.00     0.087 C 
BRANCH  11  12
ATOM     12  C   UNL     1      12.448 -18.093  19.226  1.00  0.00     0.066 C 
BRANCH  12  13
ATOM     13  C   UNL     1      11.415 -17.685  18.186  1.00  0.00     0.140 C 
ATOM     14  O   UNL     1      11.681 -16.811  17.370  1.00  0.00    -0.299 OA
BRANCH  13  15
ATOM     15  C   UNL     1      10.081 -18.387  18.126  1.00  0.00     0.106 CG0
ATOM     16  G   UNL     1       8.894 -17.498  18.474  1.00  0.00     0.000 G0
ENDBRANCH  13  15
ENDBRANCH  12  13
BRANCH  12  17
ATOM     17  C   UNL     1      13.895 -18.053  18.633  1.00  0.00    -0.006 C 
ATOM     18  C   UNL     1      14.781 -19.145  19.264  1.00  0.00     0.008 C 
ATOM     19  C   UNL     1      14.580 -16.688  18.835  1.00  0.00     0.008 C 
ENDBRANCH  12  17
ENDBRANCH  11  12
ENDBRANCH   1  11
TORSDOF 1
ENDMDL
MODEL 5
REMARK VINA RESULT:    -3.674      9.794     11.495
REMARK INTER + INTRA:          -5.945
REMARK INTER:                  -5.684
REMARK INTRA:                  -0.261
REMARK UNBOUND:                -0.337
REMARK SMILES CC1=CCC[C@@H](C)C(=O)C[C@H](C(C)C)C(=O)C1
REMARK SMILES IDX 8 1 9 2 6 3 7 4 5 5 4 6 3 7 2 8 1 9 10 11 11 12 15 13 16 14
REMARK SMILES IDX 17 15 12 17 13 18 14 19
REMARK H PARENT
REMARK Flexibility Score: 70.00
ROOT
ATOM      1  C   UNL     1       9.275 -15.497  19.531  1.00  0.00     0.136 C 
ATOM      2  O   UNL     1       8.854 -14.611  18.799  1.00  0.00    -0.299 OA
ENDROOT
BRANCH   1   3
ATOM      3  C   UNL     1       9.415 -16.906  18.989  1.00  0.00     0.053 C 
ATOM      4  C   UNL     1      10.169 -16.890  17.652  1.00  0.00     0.016 C 
BRANCH   3   5
ATOM      5  C   UNL     1       8.025 -17.566  18.831  1.00  0.00     0.015 C 
BRANCH   5   6
ATOM      6  C   UNL     1       7.848 -18.753  19.797  1.00  0.00     0.028 C 
BRANCH   6   7
ATOM      7  C   UNL     1       9.156 -19.352  20.256  1.00  0.00    -0.028 C 
ATOM      8  C   UNL     1       9.744 -19.137  21.459  1.00  0.00    -0.070 CG0
ATOM      9  C   UNL     1      11.106 -19.745  21.689  1.00  0.00     0.039 C 
ATOM     10  G   UNL     1       9.089 -18.366  22.598  1.00  0.00     0.000 G0
ENDBRANCH   6   7
ENDBRANCH   5   6
ENDBRANCH   3   5
ENDBRANCH   1   3
BRANCH   1  11
ATOM     11  C   UNL     1       9.666 -15.147  20.950  1.00  0.00     0.087 C 
BRANCH  11  12
ATOM     12  C   UNL     1       8.750 -15.842  21.994  1.00  0.00     0.066 C 
BRANCH  12  13
ATOM     13  C   UNL     1       9.538 -16.927  22.714  1.00  0.00     0.140 C 
ATOM     14  O   UNL     1      10.501 -16.626  23.408  1.00  0.00    -0.299 OA
BRANCH  13  15
ATOM     15  C   UNL     1       9.108 -18.370  22.611  1.00  0.00     0.106 CG0
ATOM     16  G   UNL     1       9.754 -19.132  21.462  1.00  0.00     0.000 G0
ENDBRANCH  13  15
ENDBRANCH  12  13
BRANCH  12  17
ATOM     17  C   UNL     1       8.105 -14.844  23.010  1.00  0.00    -0.006 C 
ATOM     18  C   UNL     1       6.747 -15.371  23.516  1.00  0.00     0.008 C 
ATOM     19  C   UNL     1       7.893 -13.441  22.408  1.00  0.00     0.008 C 
ENDBRANCH  12  17
ENDBRANCH  11  12
ENDBRANCH   1  11
TORSDOF 1
ENDMDL
MODEL 6
REMARK VINA RESULT:    -3.670     10.488     11.965
REMARK INTER + INTRA:          -5.938
REMARK INTER:                  -5.860
REMARK INTRA:                  -0.077
REMARK UNBOUND:                -0.337
REMARK SMILES CC1=CCC[C@@H](C)C(=O)C[C@H](C(C)C)C(=O)C1
REMARK SMILES IDX 8 1 9 2 6 3 7 4 5 5 4 6 3 7 2 8 1 9 10 11 11 12 15 13 16 14
REMARK SMILES IDX 17 15 12 17 13 18 14 19
REMARK H PARENT
REMARK Flexibility Score: 70.00
ROOT
ATOM      1  C   UNL     1      10.322 -18.562  18.739  1.00  0.00     0.136 C 
ATOM      2  O   UNL     1      10.588 -17.941  17.718  1.00  0.00    -0.299 OA
ENDROOT
BRANCH   1   3
ATOM      3  C   UNL     1       8.874 -18.861  19.072  1.00  0.00     0.053 C 
ATOM      4  C   UNL     1       7.943 -18.179  18.061  1.00  0.00     0.016 C 
BRANCH   3   5
ATOM      5  C   UNL     1       8.546 -18.411  20.515  1.00  0.00     0.015 C 
BRANCH   5   6
ATOM      6  C   UNL     1       8.430 -16.878  20.618  1.00  0.00     0.028 C 
BRANCH   6   7
ATOM      7  C   UNL     1       8.868 -16.332  21.956  1.00  0.00    -0.028 C 
ATOM      8  C   UNL     1      10.138 -15.996  22.295  1.00  0.00    -0.070 CG0
ATOM      9  C   UNL     1      10.389 -15.566  23.720  1.00  0.00     0.039 C 
ATOM     10  G   UNL     1      11.301 -15.981  21.313  1.00  0.00     0.000 G0
ENDBRANCH   6   7
ENDBRANCH   5   6
ENDBRANCH   3   5
ENDBRANCH   1   3
BRANCH   1  11
ATOM     11  C   UNL     1      11.457 -19.030  19.623  1.00  0.00     0.087 C 
BRANCH  11  12
ATOM     12  C   UNL     1      12.460 -17.888  19.938  1.00  0.00     0.066 C 
BRANCH  12  13
ATOM     13  C   UNL     1      12.106 -17.258  21.277  1.00  0.00     0.140 C 
ATOM     14  O   UNL     1      12.501 -17.771  22.317  1.00  0.00    -0.299 OA
BRANCH  13  15
ATOM     15  C   UNL     1      11.309 -15.978  21.326  1.00  0.00     0.106 CG0
ATOM     16  G   UNL     1      10.143 -16.008  22.306  1.00  0.00     0.000 G0
ENDBRANCH  13  15
ENDBRANCH  12  13
BRANCH  12  17
ATOM     17  C   UNL     1      13.953 -18.354  19.908  1.00  0.00    -0.006 C 
ATOM     18  C   UNL     1      14.640 -17.926  18.596  1.00  0.00     0.008 C 
ATOM     19  C   UNL     1      14.100 -19.879  20.064  1.00  0.00     0.008 C 
ENDBRANCH  12  17
ENDBRANCH  11  12
ENDBRANCH   1  11
TORSDOF 1
ENDMDL
MODEL 7
REMARK VINA RESULT:    -3.646     10.160     12.420
REMARK INTER + INTRA:          -5.902
REMARK INTER:                  -5.625
REMARK INTRA:                  -0.277
REMARK UNBOUND:                -0.337
REMARK SMILES CC1=CCC[C@@H](C)C(=O)C[C@H](C(C)C)C(=O)C1
REMARK SMILES IDX 8 1 9 2 6 3 7 4 5 5 4 6 3 7 2 8 1 9 10 11 11 12 15 13 16 14
REMARK SMILES IDX 17 15 12 17 13 18 14 19
REMARK H PARENT
REMARK Flexibility Score: 70.00
ROOT
ATOM      1  C   UNL     1       8.496 -17.655  19.764  1.00  0.00     0.136 C 
ATOM      2  O   UNL     1       7.600 -18.442  20.038  1.00  0.00    -0.299 OA
ENDROOT
BRANCH   1   3
ATOM      3  C   UNL     1       8.660 -17.183  18.332  1.00  0.00     0.053 C 
ATOM      4  C   UNL     1       7.407 -17.521  17.513  1.00  0.00     0.016 C 
BRANCH   3   5
ATOM      5  C   UNL     1       9.922 -17.813  17.696  1.00  0.00     0.015 C 
BRANCH   5   6
ATOM      6  C   UNL     1      10.986 -16.747  17.373  1.00  0.00     0.028 C 
BRANCH   6   7
ATOM      7  C   UNL     1      12.383 -17.154  17.775  1.00  0.00    -0.028 C 
ATOM      8  C   UNL     1      12.935 -16.984  19.003  1.00  0.00    -0.070 CG0
ATOM      9  C   UNL     1      14.385 -17.363  19.175  1.00  0.00     0.039 C 
ATOM     10  G   UNL     1      12.161 -16.485  20.216  1.00  0.00     0.000 G0
ENDBRANCH   6   7
ENDBRANCH   5   6
ENDBRANCH   3   5
ENDBRANCH   1   3
BRANCH   1  11
ATOM     11  C   UNL     1       9.398 -17.161  20.874  1.00  0.00     0.087 C 
BRANCH  11  12
ATOM     12  C   UNL     1      10.478 -18.209  21.256  1.00  0.00     0.066 C 
BRANCH  12  13
ATOM     13  C   UNL     1      11.849 -17.549  21.246  1.00  0.00     0.140 C 
ATOM     14  O   UNL     1      12.708 -17.912  22.040  1.00  0.00    -0.299 OA
BRANCH  13  15
ATOM     15  C   UNL     1      12.169 -16.482  20.229  1.00  0.00     0.106 CG0
ATOM     16  G   UNL     1      12.922 -16.992  19.007  1.00  0.00     0.000 G0
ENDBRANCH  13  15
ENDBRANCH  12  13
BRANCH  12  17
ATOM     17  C   UNL     1      10.198 -18.911  22.626  1.00  0.00    -0.006 C 
ATOM     18  C   UNL     1       9.736 -20.367  22.417  1.00  0.00     0.008 C 
ATOM     19  C   UNL     1       9.134 -18.174  23.461  1.00  0.00     0.008 C 
ENDBRANCH  12  17
ENDBRANCH  11  12
ENDBRANCH   1  11
TORSDOF 1
ENDMDL
MODEL 8
REMARK VINA RESULT:    -3.608      9.818     11.748
REMARK INTER + INTRA:          -5.843
REMARK INTER:                  -5.595
REMARK INTRA:                  -0.249
REMARK UNBOUND:                -0.337
REMARK SMILES CC1=CCC[C@@H](C)C(=O)C[C@H](C(C)C)C(=O)C1
REMARK SMILES IDX 8 1 9 2 6 3 7 4 5 5 4 6 3 7 2 8 1 9 10 11 11 12 15 13 16 14
REMARK SMILES IDX 17 15 12 17 13 18 14 19
REMARK H PARENT
REMARK Flexibility Score: 70.00
ROOT
ATOM      1  C   UNL     1      11.353 -19.232  21.804  1.00  0.00     0.136 C 
ATOM      2  O   UNL     1      12.023 -20.215  21.514  1.00  0.00    -0.299 OA
ENDROOT
BRANCH   1   3
ATOM      3  C   UNL     1       9.854 -19.378  21.976  1.00  0.00     0.053 C 
ATOM      4  C   UNL     1       9.528 -20.668  22.740  1.00  0.00     0.016 C 
BRANCH   3   5
ATOM      5  C   UNL     1       9.147 -19.358  20.600  1.00  0.00     0.015 C 
BRANCH   5   6
ATOM      6  C   UNL     1       8.215 -18.139  20.459  1.00  0.00     0.028 C 
BRANCH   6   7
ATOM      7  C   UNL     1       7.960 -17.425  21.765  1.00  0.00    -0.028 C 
ATOM      8  C   UNL     1       8.563 -16.281  22.173  1.00  0.00    -0.070 CG0
ATOM      9  C   UNL     1       8.247 -15.782  23.561  1.00  0.00     0.039 C 
ATOM     10  G   UNL     1       9.493 -15.454  21.294  1.00  0.00     0.000 G0
ENDBRANCH   6   7
ENDBRANCH   5   6
ENDBRANCH   3   5
ENDBRANCH   1   3
BRANCH   1  11
ATOM     11  C   UNL     1      12.054 -17.906  22.005  1.00  0.00     0.087 C 
BRANCH  11  12
ATOM     12  C   UNL     1      11.672 -16.874  20.909  1.00  0.00     0.066 C 
BRANCH  12  13
ATOM     13  C   UNL     1      10.968 -15.689  21.554  1.00  0.00     0.140 C 
ATOM     14  O   UNL     1      11.602 -14.907  22.251  1.00  0.00    -0.299 OA
BRANCH  13  15
ATOM     15  C   UNL     1       9.501 -15.449  21.299  1.00  0.00     0.106 CG0
ATOM     16  G   UNL     1       8.572 -16.276  22.178  1.00  0.00     0.000 G0
ENDBRANCH  13  15
ENDBRANCH  12  13
BRANCH  12  17
ATOM     17  C   UNL     1      12.892 -16.409  20.050  1.00  0.00    -0.006 C 
ATOM     18  C   UNL     1      12.426 -15.781  18.721  1.00  0.00     0.008 C 
ATOM     19  C   UNL     1      13.866 -17.560  19.732  1.00  0.00     0.008 C 
ENDBRANCH  12  17
ENDBRANCH  11  12
ENDBRANCH   1  11
TORSDOF 1
ENDMDL
MODEL 9
REMARK VINA RESULT:    -3.601     10.830     13.528
REMARK INTER + INTRA:          -5.834
REMARK INTER:                  -5.599
REMARK INTRA:                  -0.234
REMARK UNBOUND:                -0.337
REMARK SMILES CC1=CCC[C@@H](C)C(=O)C[C@H](C(C)C)C(=O)C1
REMARK SMILES IDX 8 1 9 2 6 3 7 4 5 5 4 6 3 7 2 8 1 9 10 11 11 12 15 13 16 14
REMARK SMILES IDX 17 15 12 17 13 18 14 19
REMARK H PARENT
REMARK Flexibility Score: 70.00
ROOT
ATOM      1  C   UNL     1      11.351 -19.069  19.682  1.00  0.00     0.136 C 
ATOM      2  O   UNL     1      11.186 -19.843  20.615  1.00  0.00    -0.299 OA
ENDROOT
BRANCH   1   3
ATOM      3  C   UNL     1      12.719 -18.453  19.460  1.00  0.00     0.053 C 
ATOM      4  C   UNL     1      13.819 -19.491  19.721  1.00  0.00     0.016 C 
BRANCH   3   5
ATOM      5  C   UNL     1      12.906 -17.211  20.363  1.00  0.00     0.015 C 
BRANCH   5   6
ATOM      6  C   UNL     1      12.988 -15.915  19.534  1.00  0.00     0.028 C 
BRANCH   6   7
ATOM      7  C   UNL     1      12.930 -16.151  18.044  1.00  0.00    -0.028 C 
ATOM      8  C   UNL     1      11.828 -16.018  17.264  1.00  0.00    -0.070 CG0
ATOM      9  C   UNL     1      11.951 -16.403  15.810  1.00  0.00     0.039 C 
ATOM     10  G   UNL     1      10.502 -15.457  17.760  1.00  0.00     0.000 G0
ENDBRANCH   6   7
ENDBRANCH   5   6
ENDBRANCH   3   5
ENDBRANCH   1   3
BRANCH   1  11
ATOM     11  C   UNL     1      10.185 -18.771  18.765  1.00  0.00     0.087 C 
BRANCH  11  12
ATOM     12  C   UNL     1       9.465 -17.449  19.149  1.00  0.00     0.066 C 
BRANCH  12  13
ATOM     13  C   UNL     1       9.432 -16.523  17.942  1.00  0.00     0.140 C 
ATOM     14  O   UNL     1       8.516 -16.606  17.133  1.00  0.00    -0.299 OA
BRANCH  13  15
ATOM     15  C   UNL     1      10.498 -15.471  17.764  1.00  0.00     0.106 CG0
ATOM     16  G   UNL     1      11.832 -16.015  17.270  1.00  0.00     0.000 G0
ENDBRANCH  13  15
ENDBRANCH  12  13
BRANCH  12  17
ATOM     17  C   UNL     1       8.031 -17.675  19.730  1.00  0.00    -0.006 C 
ATOM     18  C   UNL     1       8.004 -17.421  21.250  1.00  0.00     0.008 C 
ATOM     19  C   UNL     1       7.500 -19.096  19.461  1.00  0.00     0.008 C 
ENDBRANCH  12  17
ENDBRANCH  11  12
ENDBRANCH   1  11
TORSDOF 1
ENDMDL
