MODEL 1
REMARK VINA RESULT:     2.024      0.000      0.000
REMARK INTER + INTRA:           4.896
REMARK INTER:                   3.680
REMARK INTRA:                   1.216
REMARK UNBOUND:                 1.216
REMARK SMILES CCCCCC=CCC=CCCCCCCCC(=O)[O-]
REMARK SMILES IDX 11 1 12 2 13 3 14 4 15 5 16 6 17 7 18 8 19 9 20 10 10 11
REMARK SMILES IDX 9 12 8 13 7 14 6 15 5 16 4 17 3 18 2 19 1 20
REMARK H PARENT
REMARK Flexibility Score: inf
ROOT
ATOM      1  C   UNL     1      14.042  10.592  35.845  1.00  0.00     0.027 C 
ENDROOT
BRANCH   1   2
ATOM      2  C   UNL     1      12.920  10.672  34.803  1.00  0.00     0.004 C 
BRANCH   2   3
ATOM      3  C   UNL     1      13.417  11.316  33.504  1.00  0.00     0.000 C 
BRANCH   3   4
ATOM      4  C   UNL     1      14.880  11.753  33.632  1.00  0.00     0.000 C 
BRANCH   4   5
ATOM      5  C   UNL     1      15.257  12.750  32.531  1.00  0.00     0.000 C 
BRANCH   5   6
ATOM      6  C   UNL     1      14.616  14.122  32.789  1.00  0.00     0.006 C 
BRANCH   6   7
ATOM      7  C   UNL     1      13.557  14.069  33.898  1.00  0.00     0.053 C 
BRANCH   7   8
ATOM      8  C   UNL     1      12.167  14.072  33.341  1.00  0.00     0.041 C 
ATOM      9  O   UNL     1      11.174  14.093  34.116  1.00  0.00    -0.550 OA
ATOM     10  O   UNL     1      11.967  14.021  31.967  1.00  0.00    -0.550 OA
ENDBRANCH   7   8
ENDBRANCH   6   7
ENDBRANCH   5   6
ENDBRANCH   4   5
ENDBRANCH   3   4
ENDBRANCH   2   3
ENDBRANCH   1   2
BRANCH   1  11
ATOM     11  C   UNL     1      14.441  11.963  36.314  1.00  0.00    -0.031 C 
ATOM     12  C   UNL     1      13.927  12.500  37.431  1.00  0.00    -0.027 C 
BRANCH  12  13
ATOM     13  C   UNL     1      14.310  13.880  37.887  1.00  0.00     0.054 C 
BRANCH  13  14
ATOM     14  C   UNL     1      14.562  13.908  39.368  1.00  0.00    -0.027 C 
ATOM     15  C   UNL     1      15.790  14.119  39.866  1.00  0.00    -0.031 C 
BRANCH  15  16
ATOM     16  C   UNL     1      16.052  14.123  41.347  1.00  0.00     0.027 C 
BRANCH  16  17
ATOM     17  C   UNL     1      17.543  13.907  41.647  1.00  0.00     0.004 C 
BRANCH  17  18
ATOM     18  C   UNL     1      17.826  13.755  43.150  1.00  0.00     0.000 C 
BRANCH  18  19
ATOM     19  C   UNL     1      19.289  14.057  43.509  1.00  0.00    -0.003 C 
ATOM     20  C   UNL     1      20.089  12.769  43.676  1.00  0.00     0.004 C 
ENDBRANCH  18  19
ENDBRANCH  17  18
ENDBRANCH  16  17
ENDBRANCH  15  16
ENDBRANCH  13  14
ENDBRANCH  12  13
ENDBRANCH   1  11
TORSDOF 14
ENDMDL
MODEL 2
REMARK VINA RESULT:     2.219      3.997      9.492
REMARK INTER + INTRA:           5.251
REMARK INTER:                   5.963
REMARK INTRA:                  -0.712
REMARK UNBOUND:                 1.216
REMARK SMILES CCCCCC=CCC=CCCCCCCCC(=O)[O-]
REMARK SMILES IDX 11 1 12 2 13 3 14 4 15 5 16 6 17 7 18 8 19 9 20 10 10 11
REMARK SMILES IDX 9 12 8 13 7 14 6 15 5 16 4 17 3 18 2 19 1 20
REMARK H PARENT
REMARK Flexibility Score: inf
ROOT
ATOM      1  C   UNL     1      13.683  10.639  36.517  1.00  0.00     0.027 C 
ENDROOT
BRANCH   1   2
ATOM      2  C   UNL     1      13.858  11.252  37.912  1.00  0.00     0.004 C 
BRANCH   2   3
ATOM      3  C   UNL     1      15.157  12.059  38.003  1.00  0.00     0.000 C 
BRANCH   3   4
ATOM      4  C   UNL     1      14.870  13.524  38.354  1.00  0.00     0.000 C 
BRANCH   4   5
ATOM      5  C   UNL     1      15.783  14.009  39.485  1.00  0.00     0.000 C 
BRANCH   5   6
ATOM      6  C   UNL     1      15.798  13.005  40.648  1.00  0.00     0.006 C 
BRANCH   6   7
ATOM      7  C   UNL     1      17.197  12.425  40.896  1.00  0.00     0.053 C 
BRANCH   7   8
ATOM      8  C   UNL     1      18.128  13.445  41.475  1.00  0.00     0.041 C 
ATOM      9  O   UNL     1      19.049  13.935  40.770  1.00  0.00    -0.550 OA
ATOM     10  O   UNL     1      17.997  13.833  42.804  1.00  0.00    -0.550 OA
ENDBRANCH   7   8
ENDBRANCH   6   7
ENDBRANCH   5   6
ENDBRANCH   4   5
ENDBRANCH   3   4
ENDBRANCH   2   3
ENDBRANCH   1   2
BRANCH   1  11
ATOM     11  C   UNL     1      14.314  11.507  35.465  1.00  0.00    -0.031 C 
ATOM     12  C   UNL     1      13.802  12.705  35.143  1.00  0.00    -0.027 C 
BRANCH  12  13
ATOM     13  C   UNL     1      14.421  13.561  34.075  1.00  0.00     0.054 C 
BRANCH  13  14
ATOM     14  C   UNL     1      13.443  13.833  32.966  1.00  0.00    -0.027 C 
ATOM     15  C   UNL     1      12.122  13.879  33.195  1.00  0.00    -0.031 C 
BRANCH  15  16
ATOM     16  C   UNL     1      11.137  14.125  32.084  1.00  0.00     0.027 C 
BRANCH  16  17
ATOM     17  C   UNL     1      11.831  14.114  30.714  1.00  0.00     0.004 C 
BRANCH  17  18
ATOM     18  C   UNL     1      10.838  13.965  29.551  1.00  0.00     0.000 C 
BRANCH  18  19
ATOM     19  C   UNL     1      11.302  12.940  28.505  1.00  0.00    -0.003 C 
ATOM     20  C   UNL     1      11.295  11.528  29.080  1.00  0.00     0.004 C 
ENDBRANCH  18  19
ENDBRANCH  17  18
ENDBRANCH  16  17
ENDBRANCH  15  16
ENDBRANCH  13  14
ENDBRANCH  12  13
ENDBRANCH   1  11
TORSDOF 14
ENDMDL
MODEL 3
REMARK VINA RESULT:     2.752      1.822      2.617
REMARK INTER + INTRA:           6.221
REMARK INTER:                   3.500
REMARK INTRA:                   2.720
REMARK UNBOUND:                 1.216
REMARK SMILES CCCCCC=CCC=CCCCCCCCC(=O)[O-]
REMARK SMILES IDX 11 1 12 2 13 3 14 4 15 5 16 6 17 7 18 8 19 9 20 10 10 11
REMARK SMILES IDX 9 12 8 13 7 14 6 15 5 16 4 17 3 18 2 19 1 20
REMARK H PARENT
REMARK Flexibility Score: inf
ROOT
ATOM      1  C   UNL     1      15.753  12.924  35.616  1.00  0.00     0.027 C 
ENDROOT
BRANCH   1   2
ATOM      2  C   UNL     1      15.174  14.073  34.780  1.00  0.00     0.004 C 
BRANCH   2   3
ATOM      3  C   UNL     1      15.068  13.682  33.302  1.00  0.00     0.000 C 
BRANCH   3   4
ATOM      4  C   UNL     1      13.724  14.124  32.713  1.00  0.00     0.000 C 
BRANCH   4   5
ATOM      5  C   UNL     1      12.706  12.978  32.738  1.00  0.00     0.000 C 
BRANCH   5   6
ATOM      6  C   UNL     1      11.883  13.003  34.035  1.00  0.00     0.006 C 
BRANCH   6   7
ATOM      7  C   UNL     1      12.632  12.360  35.210  1.00  0.00     0.053 C 
BRANCH   7   8
ATOM      8  C   UNL     1      13.263  11.058  34.823  1.00  0.00     0.041 C 
ATOM      9  O   UNL     1      13.144  10.621  33.648  1.00  0.00    -0.550 OA
ATOM     10  O   UNL     1      13.956  10.311  35.769  1.00  0.00    -0.550 OA
ENDBRANCH   7   8
ENDBRANCH   6   7
ENDBRANCH   5   6
ENDBRANCH   4   5
ENDBRANCH   3   4
ENDBRANCH   2   3
ENDBRANCH   1   2
BRANCH   1  11
ATOM     11  C   UNL     1      15.257  12.986  37.033  1.00  0.00    -0.031 C 
ATOM     12  C   UNL     1      14.042  13.471  37.331  1.00  0.00    -0.027 C 
BRANCH  12  13
ATOM     13  C   UNL     1      13.557  13.553  38.751  1.00  0.00     0.054 C 
BRANCH  13  14
ATOM     14  C   UNL     1      14.616  14.125  39.651  1.00  0.00    -0.027 C 
ATOM     15  C   UNL     1      15.781  13.490  39.853  1.00  0.00    -0.031 C 
BRANCH  15  16
ATOM     16  C   UNL     1      16.834  14.045  40.773  1.00  0.00     0.027 C 
BRANCH  16  17
ATOM     17  C   UNL     1      17.777  12.938  41.268  1.00  0.00     0.004 C 
BRANCH  17  18
ATOM     18  C   UNL     1      19.090  13.495  41.842  1.00  0.00     0.000 C 
BRANCH  18  19
ATOM     19  C   UNL     1      18.996  13.795  43.346  1.00  0.00    -0.003 C 
ATOM     20  C   UNL     1      20.377  14.049  43.941  1.00  0.00     0.004 C 
ENDBRANCH  18  19
ENDBRANCH  17  18
ENDBRANCH  16  17
ENDBRANCH  15  16
ENDBRANCH  13  14
ENDBRANCH  12  13
ENDBRANCH   1  11
TORSDOF 14
ENDMDL
MODEL 4
REMARK VINA RESULT:     3.749      4.723     10.336
REMARK INTER + INTRA:           8.034
REMARK INTER:                   8.725
REMARK INTRA:                  -0.691
REMARK UNBOUND:                 1.216
REMARK SMILES CCCCCC=CCC=CCCCCCCCC(=O)[O-]
REMARK SMILES IDX 11 1 12 2 13 3 14 4 15 5 16 6 17 7 18 8 19 9 20 10 10 11
REMARK SMILES IDX 9 12 8 13 7 14 6 15 5 16 4 17 3 18 2 19 1 20
REMARK H PARENT
REMARK Flexibility Score: inf
ROOT
ATOM      1  C   UNL     1      15.063  12.027  37.326  1.00  0.00     0.027 C 
ENDROOT
BRANCH   1   2
ATOM      2  C   UNL     1      16.077  13.098  37.745  1.00  0.00     0.004 C 
BRANCH   2   3
ATOM      3  C   UNL     1      15.628  13.814  39.024  1.00  0.00     0.000 C 
BRANCH   3   4
ATOM      4  C   UNL     1      16.748  13.825  40.070  1.00  0.00     0.000 C 
BRANCH   4   5
ATOM      5  C   UNL     1      16.481  12.798  41.176  1.00  0.00     0.000 C 
BRANCH   5   6
ATOM      6  C   UNL     1      17.747  12.546  42.009  1.00  0.00     0.006 C 
BRANCH   6   7
ATOM      7  C   UNL     1      18.590  13.817  42.184  1.00  0.00     0.053 C 
BRANCH   7   8
ATOM      8  C   UNL     1      19.790  13.574  43.047  1.00  0.00     0.041 C 
ATOM      9  O   UNL     1      19.680  12.921  44.117  1.00  0.00    -0.550 OA
ATOM     10  O   UNL     1      21.026  14.094  42.682  1.00  0.00    -0.550 OA
ENDBRANCH   7   8
ENDBRANCH   6   7
ENDBRANCH   5   6
ENDBRANCH   4   5
ENDBRANCH   3   4
ENDBRANCH   2   3
ENDBRANCH   1   2
BRANCH   1  11
ATOM     11  C   UNL     1      13.951  12.628  36.513  1.00  0.00    -0.031 C 
ATOM     12  C   UNL     1      14.192  13.265  35.357  1.00  0.00    -0.027 C 
BRANCH  12  13
ATOM     13  C   UNL     1      13.081  13.884  34.556  1.00  0.00     0.054 C 
BRANCH  13  14
ATOM     14  C   UNL     1      13.165  13.477  33.112  1.00  0.00    -0.027 C 
ATOM     15  C   UNL     1      12.472  14.123  32.161  1.00  0.00    -0.031 C 
BRANCH  15  16
ATOM     16  C   UNL     1      12.533  13.703  30.717  1.00  0.00     0.027 C 
BRANCH  16  17
ATOM     17  C   UNL     1      11.232  14.058  29.982  1.00  0.00     0.004 C 
BRANCH  17  18
ATOM     18  C   UNL     1      10.662  12.874  29.185  1.00  0.00     0.000 C 
BRANCH  18  19
ATOM     19  C   UNL     1      11.688  11.748  28.985  1.00  0.00    -0.003 C 
ATOM     20  C   UNL     1      11.346  10.535  29.844  1.00  0.00     0.004 C 
ENDBRANCH  18  19
ENDBRANCH  17  18
ENDBRANCH  16  17
ENDBRANCH  15  16
ENDBRANCH  13  14
ENDBRANCH  12  13
ENDBRANCH   1  11
TORSDOF 14
ENDMDL
