MODEL 1
REMARK VINA RESULT:    -4.256      0.000      0.000
REMARK INTER + INTRA:          -8.200
REMARK INTER:                  -7.241
REMARK INTRA:                  -0.959
REMARK UNBOUND:                -0.959
REMARK SMILES CCCCCCCCCCCCCC(=O)[O-]
REMARK SMILES IDX 8 1 9 2 10 3 11 4 12 5 13 6 14 7 15 8 16 9 7 10 6 11 5 12
REMARK SMILES IDX 4 13 3 14 2 15 1 16
REMARK H PARENT
REMARK Flexibility Score: inf
ROOT
ATOM      1  C   UNL     1     -32.374 -23.426 -35.100  1.00  0.00     0.000 C 
ENDROOT
BRANCH   1   2
ATOM      2  C   UNL     1     -31.470 -22.546 -34.221  1.00  0.00     0.000 C 
BRANCH   2   3
ATOM      3  C   UNL     1     -32.035 -21.129 -34.030  1.00  0.00     0.000 C 
BRANCH   3   4
ATOM      4  C   UNL     1     -31.105 -20.226 -33.200  1.00  0.00     0.000 C 
BRANCH   4   5
ATOM      5  C   UNL     1     -29.725 -20.859 -32.963  1.00  0.00     0.006 C 
BRANCH   5   6
ATOM      6  C   UNL     1     -29.307 -20.824 -31.487  1.00  0.00     0.053 C 
BRANCH   6   7
ATOM      7  C   UNL     1     -30.320 -21.529 -30.641  1.00  0.00     0.041 C 
ATOM      8  O   UNL     1     -30.491 -22.771 -30.759  1.00  0.00    -0.550 OA
ATOM      9  O   UNL     1     -31.041 -20.823 -29.687  1.00  0.00    -0.550 OA
ENDBRANCH   6   7
ENDBRANCH   5   6
ENDBRANCH   4   5
ENDBRANCH   3   4
ENDBRANCH   2   3
ENDBRANCH   1   2
BRANCH   1  10
ATOM     10  C   UNL     1     -32.672 -22.787 -36.467  1.00  0.00     0.000 C 
BRANCH  10  11
ATOM     11  C   UNL     1     -31.625 -23.147 -37.532  1.00  0.00    -0.000 C 
BRANCH  11  12
ATOM     12  C   UNL     1     -31.089 -24.568 -37.318  1.00  0.00    -0.000 C 
BRANCH  12  13
ATOM     13  C   UNL     1     -31.717 -25.551 -38.317  1.00  0.00    -0.000 C 
BRANCH  13  14
ATOM     14  C   UNL     1     -32.863 -26.370 -37.688  1.00  0.00    -0.000 C 
BRANCH  14  15
ATOM     15  C   UNL     1     -33.070 -27.745 -38.343  1.00  0.00    -0.003 C 
ATOM     16  C   UNL     1     -31.785 -28.328 -38.927  1.00  0.00     0.004 C 
ENDBRANCH  14  15
ENDBRANCH  13  14
ENDBRANCH  12  13
ENDBRANCH  11  12
ENDBRANCH  10  11
ENDBRANCH   1  10
TORSDOF 12
ENDMDL
MODEL 2
REMARK VINA RESULT:    -4.191      3.850      7.713
REMARK INTER + INTRA:          -8.091
REMARK INTER:                  -7.048
REMARK INTRA:                  -1.043
REMARK UNBOUND:                -0.959
REMARK SMILES CCCCCCCCCCCCCC(=O)[O-]
REMARK SMILES IDX 8 1 9 2 10 3 11 4 12 5 13 6 14 7 15 8 16 9 7 10 6 11 5 12
REMARK SMILES IDX 4 13 3 14 2 15 1 16
REMARK H PARENT
REMARK Flexibility Score: inf
ROOT
ATOM      1  C   UNL     1     -32.300 -23.240 -34.953  1.00  0.00     0.000 C 
ENDROOT
BRANCH   1   2
ATOM      2  C   UNL     1     -32.739 -22.453 -36.199  1.00  0.00     0.000 C 
BRANCH   2   3
ATOM      3  C   UNL     1     -32.480 -23.223 -37.504  1.00  0.00     0.000 C 
BRANCH   3   4
ATOM      4  C   UNL     1     -31.214 -24.097 -37.436  1.00  0.00     0.000 C 
BRANCH   4   5
ATOM      5  C   UNL     1     -31.404 -25.465 -38.110  1.00  0.00     0.006 C 
BRANCH   5   6
ATOM      6  C   UNL     1     -32.686 -26.174 -37.653  1.00  0.00     0.053 C 
BRANCH   6   7
ATOM      7  C   UNL     1     -32.845 -27.477 -38.371  1.00  0.00     0.041 C 
ATOM      8  O   UNL     1     -33.994 -27.907 -38.656  1.00  0.00    -0.550 OA
ATOM      9  O   UNL     1     -31.724 -28.193 -38.770  1.00  0.00    -0.550 OA
ENDBRANCH   6   7
ENDBRANCH   5   6
ENDBRANCH   4   5
ENDBRANCH   3   4
ENDBRANCH   2   3
ENDBRANCH   1   2
BRANCH   1  10
ATOM     10  C   UNL     1     -31.415 -22.408 -34.010  1.00  0.00     0.000 C 
BRANCH  10  11
ATOM     11  C   UNL     1     -31.918 -20.966 -33.842  1.00  0.00    -0.000 C 
BRANCH  11  12
ATOM     12  C   UNL     1     -30.774 -20.030 -33.435  1.00  0.00    -0.000 C 
BRANCH  12  13
ATOM     13  C   UNL     1     -29.536 -20.827 -32.998  1.00  0.00    -0.000 C 
BRANCH  13  14
ATOM     14  C   UNL     1     -29.082 -20.464 -31.569  1.00  0.00    -0.000 C 
BRANCH  14  15
ATOM     15  C   UNL     1     -30.049 -20.943 -30.474  1.00  0.00    -0.003 C 
ATOM     16  C   UNL     1     -30.347 -22.438 -30.552  1.00  0.00     0.004 C 
ENDBRANCH  14  15
ENDBRANCH  13  14
ENDBRANCH  12  13
ENDBRANCH  11  12
ENDBRANCH  10  11
ENDBRANCH   1  10
TORSDOF 12
ENDMDL
MODEL 3
REMARK VINA RESULT:    -3.997      0.855      1.849
REMARK INTER + INTRA:          -7.761
REMARK INTER:                  -6.835
REMARK INTRA:                  -0.926
REMARK UNBOUND:                -0.959
REMARK SMILES CCCCCCCCCCCCCC(=O)[O-]
REMARK SMILES IDX 8 1 9 2 10 3 11 4 12 5 13 6 14 7 15 8 16 9 7 10 6 11 5 12
REMARK SMILES IDX 4 13 3 14 2 15 1 16
REMARK H PARENT
REMARK Flexibility Score: inf
ROOT
ATOM      1  C   UNL     1     -31.392 -22.248 -34.019  1.00  0.00     0.000 C 
ENDROOT
BRANCH   1   2
ATOM      2  C   UNL     1     -31.865 -20.793 -33.863  1.00  0.00     0.000 C 
BRANCH   2   3
ATOM      3  C   UNL     1     -30.771 -19.875 -33.294  1.00  0.00     0.000 C 
BRANCH   3   4
ATOM      4  C   UNL     1     -29.417 -20.590 -33.141  1.00  0.00     0.000 C 
BRANCH   4   5
ATOM      5  C   UNL     1     -28.879 -20.534 -31.702  1.00  0.00     0.006 C 
BRANCH   5   6
ATOM      6  C   UNL     1     -29.880 -19.908 -30.723  1.00  0.00     0.053 C 
BRANCH   6   7
ATOM      7  C   UNL     1     -30.623 -20.975 -29.983  1.00  0.00     0.041 C 
ATOM      8  O   UNL     1     -30.379 -22.190 -30.208  1.00  0.00    -0.550 OA
ATOM      9  O   UNL     1     -31.551 -20.628 -29.008  1.00  0.00    -0.550 OA
ENDBRANCH   6   7
ENDBRANCH   5   6
ENDBRANCH   4   5
ENDBRANCH   3   4
ENDBRANCH   2   3
ENDBRANCH   1   2
BRANCH   1  10
ATOM     10  C   UNL     1     -32.240 -23.040 -35.027  1.00  0.00     0.000 C 
BRANCH  10  11
ATOM     11  C   UNL     1     -33.035 -22.133 -35.977  1.00  0.00    -0.000 C 
BRANCH  11  12
ATOM     12  C   UNL     1     -32.807 -22.534 -37.440  1.00  0.00    -0.000 C 
BRANCH  12  13
ATOM     13  C   UNL     1     -31.460 -23.253 -37.611  1.00  0.00    -0.000 C 
BRANCH  13  14
ATOM     14  C   UNL     1     -31.560 -24.460 -38.567  1.00  0.00    -0.000 C 
BRANCH  14  15
ATOM     15  C   UNL     1     -31.794 -25.799 -37.848  1.00  0.00    -0.003 C 
ATOM     16  C   UNL     1     -32.235 -26.915 -38.792  1.00  0.00     0.004 C 
ENDBRANCH  14  15
ENDBRANCH  13  14
ENDBRANCH  12  13
ENDBRANCH  11  12
ENDBRANCH  10  11
ENDBRANCH   1  10
TORSDOF 12
ENDMDL
MODEL 4
REMARK VINA RESULT:    -3.951      3.365      7.576
REMARK INTER + INTRA:          -7.682
REMARK INTER:                  -6.784
REMARK INTRA:                  -0.899
REMARK UNBOUND:                -0.959
REMARK SMILES CCCCCCCCCCCCCC(=O)[O-]
REMARK SMILES IDX 8 1 9 2 10 3 11 4 12 5 13 6 14 7 15 8 16 9 7 10 6 11 5 12
REMARK SMILES IDX 4 13 3 14 2 15 1 16
REMARK H PARENT
REMARK Flexibility Score: inf
ROOT
ATOM      1  C   UNL     1     -31.510 -22.393 -33.969  1.00  0.00     0.000 C 
ENDROOT
BRANCH   1   2
ATOM      2  C   UNL     1     -32.283 -23.274 -34.965  1.00  0.00     0.000 C 
BRANCH   2   3
ATOM      3  C   UNL     1     -32.716 -22.501 -36.221  1.00  0.00     0.000 C 
BRANCH   3   4
ATOM      4  C   UNL     1     -32.238 -23.168 -37.523  1.00  0.00     0.000 C 
BRANCH   4   5
ATOM      5  C   UNL     1     -31.495 -24.489 -37.271  1.00  0.00     0.006 C 
BRANCH   5   6
ATOM      6  C   UNL     1     -31.427 -25.374 -38.522  1.00  0.00     0.053 C 
BRANCH   6   7
ATOM      7  C   UNL     1     -32.164 -26.657 -38.295  1.00  0.00     0.041 C 
ATOM      8  O   UNL     1     -33.241 -26.662 -37.642  1.00  0.00    -0.550 OA
ATOM      9  O   UNL     1     -31.686 -27.840 -38.845  1.00  0.00    -0.550 OA
ENDBRANCH   6   7
ENDBRANCH   5   6
ENDBRANCH   4   5
ENDBRANCH   3   4
ENDBRANCH   2   3
ENDBRANCH   1   2
BRANCH   1  10
ATOM     10  C   UNL     1     -31.843 -20.900 -34.119  1.00  0.00     0.000 C 
BRANCH  10  11
ATOM     11  C   UNL     1     -31.111 -20.022 -33.092  1.00  0.00    -0.000 C 
BRANCH  11  12
ATOM     12  C   UNL     1     -29.615 -20.355 -33.053  1.00  0.00    -0.000 C 
BRANCH  12  13
ATOM     13  C   UNL     1     -29.067 -20.266 -31.621  1.00  0.00    -0.000 C 
BRANCH  13  14
ATOM     14  C   UNL     1     -30.192 -20.160 -30.571  1.00  0.00    -0.000 C 
BRANCH  14  15
ATOM     15  C   UNL     1     -30.409 -21.453 -29.767  1.00  0.00    -0.003 C 
ATOM     16  C   UNL     1     -30.359 -22.710 -30.632  1.00  0.00     0.004 C 
ENDBRANCH  14  15
ENDBRANCH  13  14
ENDBRANCH  12  13
ENDBRANCH  11  12
ENDBRANCH  10  11
ENDBRANCH   1  10
TORSDOF 12
ENDMDL
MODEL 5
REMARK VINA RESULT:    -3.269      1.206      2.409
REMARK INTER + INTRA:          -6.521
REMARK INTER:                  -5.688
REMARK INTRA:                  -0.833
REMARK UNBOUND:                -0.959
REMARK SMILES CCCCCCCCCCCCCC(=O)[O-]
REMARK SMILES IDX 8 1 9 2 10 3 11 4 12 5 13 6 14 7 15 8 16 9 7 10 6 11 5 12
REMARK SMILES IDX 4 13 3 14 2 15 1 16
REMARK H PARENT
REMARK Flexibility Score: inf
ROOT
ATOM      1  C   UNL     1     -31.210 -22.474 -34.056  1.00  0.00     0.000 C 
ENDROOT
BRANCH   1   2
ATOM      2  C   UNL     1     -31.220 -20.974 -33.716  1.00  0.00     0.000 C 
BRANCH   2   3
ATOM      3  C   UNL     1     -29.834 -20.456 -33.296  1.00  0.00     0.000 C 
BRANCH   3   4
ATOM      4  C   UNL     1     -29.802 -19.963 -31.838  1.00  0.00     0.000 C 
BRANCH   4   5
ATOM      5  C   UNL     1     -31.157 -20.122 -31.131  1.00  0.00     0.006 C 
BRANCH   5   6
ATOM      6  C   UNL     1     -31.021 -20.722 -29.726  1.00  0.00     0.053 C 
BRANCH   6   7
ATOM      7  C   UNL     1     -30.330 -22.047 -29.789  1.00  0.00     0.041 C 
ATOM      8  O   UNL     1     -29.537 -22.393 -28.873  1.00  0.00    -0.550 OA
ATOM      9  O   UNL     1     -30.596 -22.922 -30.835  1.00  0.00    -0.550 OA
ENDBRANCH   6   7
ENDBRANCH   5   6
ENDBRANCH   4   5
ENDBRANCH   3   4
ENDBRANCH   2   3
ENDBRANCH   1   2
BRANCH   1  10
ATOM     10  C   UNL     1     -32.542 -22.952 -34.656  1.00  0.00     0.000 C 
BRANCH  10  11
ATOM     11  C   UNL     1     -33.043 -22.045 -35.790  1.00  0.00    -0.000 C 
BRANCH  11  12
ATOM     12  C   UNL     1     -33.426 -22.870 -37.025  1.00  0.00    -0.000 C 
BRANCH  12  13
ATOM     13  C   UNL     1     -32.542 -22.507 -38.228  1.00  0.00    -0.000 C 
BRANCH  13  14
ATOM     14  C   UNL     1     -31.590 -23.655 -38.621  1.00  0.00    -0.000 C 
BRANCH  14  15
ATOM     15  C   UNL     1     -31.638 -24.853 -37.658  1.00  0.00    -0.003 C 
ATOM     16  C   UNL     1     -31.967 -26.169 -38.359  1.00  0.00     0.004 C 
ENDBRANCH  14  15
ENDBRANCH  13  14
ENDBRANCH  12  13
ENDBRANCH  11  12
ENDBRANCH  10  11
ENDBRANCH   1  10
TORSDOF 12
ENDMDL
MODEL 6
REMARK VINA RESULT:    -3.130      3.253      7.223
REMARK INTER + INTRA:          -6.285
REMARK INTER:                  -5.589
REMARK INTRA:                  -0.696
REMARK UNBOUND:                -0.959
REMARK SMILES CCCCCCCCCCCCCC(=O)[O-]
REMARK SMILES IDX 8 1 9 2 10 3 11 4 12 5 13 6 14 7 15 8 16 9 7 10 6 11 5 12
REMARK SMILES IDX 4 13 3 14 2 15 1 16
REMARK H PARENT
REMARK Flexibility Score: inf
ROOT
ATOM      1  C   UNL     1     -31.279 -22.451 -33.896  1.00  0.00     0.000 C 
ENDROOT
BRANCH   1   2
ATOM      2  C   UNL     1     -32.551 -22.618 -34.743  1.00  0.00     0.000 C 
BRANCH   2   3
ATOM      3  C   UNL     1     -33.036 -21.289 -35.346  1.00  0.00     0.000 C 
BRANCH   3   4
ATOM      4  C   UNL     1     -34.010 -21.491 -36.521  1.00  0.00     0.000 C 
BRANCH   4   5
ATOM      5  C   UNL     1     -33.681 -22.741 -37.352  1.00  0.00     0.006 C 
BRANCH   5   6
ATOM      6  C   UNL     1     -32.440 -22.552 -38.234  1.00  0.00     0.053 C 
BRANCH   6   7
ATOM      7  C   UNL     1     -31.587 -23.781 -38.205  1.00  0.00     0.041 C 
ATOM      8  O   UNL     1     -31.678 -24.637 -39.124  1.00  0.00    -0.550 OA
ATOM      9  O   UNL     1     -30.657 -23.958 -37.189  1.00  0.00    -0.550 OA
ENDBRANCH   6   7
ENDBRANCH   5   6
ENDBRANCH   4   5
ENDBRANCH   3   4
ENDBRANCH   2   3
ENDBRANCH   1   2
BRANCH   1  10
ATOM     10  C   UNL     1     -30.923 -20.975 -33.650  1.00  0.00     0.000 C 
BRANCH  10  11
ATOM     11  C   UNL     1     -29.440 -20.772 -33.305  1.00  0.00    -0.000 C 
BRANCH  11  12
ATOM     12  C   UNL     1     -29.268 -20.355 -31.839  1.00  0.00    -0.000 C 
BRANCH  12  13
ATOM     13  C   UNL     1     -30.605 -19.898 -31.236  1.00  0.00    -0.000 C 
BRANCH  13  14
ATOM     14  C   UNL     1     -30.817 -20.440 -29.807  1.00  0.00    -0.000 C 
BRANCH  14  15
ATOM     15  C   UNL     1     -30.067 -21.754 -29.529  1.00  0.00    -0.003 C 
ATOM     16  C   UNL     1     -30.508 -22.897 -30.440  1.00  0.00     0.004 C 
ENDBRANCH  14  15
ENDBRANCH  13  14
ENDBRANCH  12  13
ENDBRANCH  11  12
ENDBRANCH  10  11
ENDBRANCH   1  10
TORSDOF 12
ENDMDL
MODEL 7
REMARK VINA RESULT:    -1.681      3.914      8.125
REMARK INTER + INTRA:          -3.819
REMARK INTER:                  -3.193
REMARK INTRA:                  -0.626
REMARK UNBOUND:                -0.959
REMARK SMILES CCCCCCCCCCCCCC(=O)[O-]
REMARK SMILES IDX 8 1 9 2 10 3 11 4 12 5 13 6 14 7 15 8 16 9 7 10 6 11 5 12
REMARK SMILES IDX 4 13 3 14 2 15 1 16
REMARK H PARENT
REMARK Flexibility Score: inf
ROOT
ATOM      1  C   UNL     1     -31.159 -23.685 -37.246  1.00  0.00     0.000 C 
ENDROOT
BRANCH   1   2
ATOM      2  C   UNL     1     -31.681 -24.779 -38.192  1.00  0.00     0.000 C 
BRANCH   2   3
ATOM      3  C   UNL     1     -32.777 -25.642 -37.546  1.00  0.00     0.000 C 
BRANCH   3   4
ATOM      4  C   UNL     1     -32.865 -27.049 -38.163  1.00  0.00     0.000 C 
BRANCH   4   5
ATOM      5  C   UNL     1     -31.505 -27.560 -38.665  1.00  0.00     0.006 C 
BRANCH   5   6
ATOM      6  C   UNL     1     -31.558 -29.023 -39.123  1.00  0.00     0.053 C 
BRANCH   6   7
ATOM      7  C   UNL     1     -30.299 -29.735 -38.741  1.00  0.00     0.041 C 
ATOM      8  O   UNL     1     -30.101 -30.920 -39.118  1.00  0.00    -0.550 OA
ATOM      9  O   UNL     1     -29.320 -29.073 -38.009  1.00  0.00    -0.550 OA
ENDBRANCH   6   7
ENDBRANCH   5   6
ENDBRANCH   4   5
ENDBRANCH   3   4
ENDBRANCH   2   3
ENDBRANCH   1   2
BRANCH   1  10
ATOM     10  C   UNL     1     -31.944 -23.622 -35.925  1.00  0.00     0.000 C 
BRANCH  10  11
ATOM     11  C   UNL     1     -32.972 -22.481 -35.899  1.00  0.00    -0.000 C 
BRANCH  11  12
ATOM     12  C   UNL     1     -32.519 -21.355 -34.961  1.00  0.00    -0.000 C 
BRANCH  12  13
ATOM     13  C   UNL     1     -31.506 -21.870 -33.928  1.00  0.00    -0.000 C 
BRANCH  13  14
ATOM     14  C   UNL     1     -30.841 -20.723 -33.139  1.00  0.00    -0.000 C 
BRANCH  14  15
ATOM     15  C   UNL     1     -30.577 -21.062 -31.663  1.00  0.00    -0.003 C 
ATOM     16  C   UNL     1     -30.589 -22.563 -31.383  1.00  0.00     0.004 C 
ENDBRANCH  14  15
ENDBRANCH  13  14
ENDBRANCH  12  13
ENDBRANCH  11  12
ENDBRANCH  10  11
ENDBRANCH   1  10
TORSDOF 12
ENDMDL
MODEL 8
REMARK VINA RESULT:    -1.598      3.269      7.662
REMARK INTER + INTRA:          -3.678
REMARK INTER:                  -4.249
REMARK INTRA:                   0.571
REMARK UNBOUND:                -0.959
REMARK SMILES CCCCCCCCCCCCCC(=O)[O-]
REMARK SMILES IDX 8 1 9 2 10 3 11 4 12 5 13 6 14 7 15 8 16 9 7 10 6 11 5 12
REMARK SMILES IDX 4 13 3 14 2 15 1 16
REMARK H PARENT
REMARK Flexibility Score: inf
ROOT
ATOM      1  C   UNL     1     -32.409 -20.109 -34.177  1.00  0.00     0.000 C 
ENDROOT
BRANCH   1   2
ATOM      2  C   UNL     1     -33.252 -20.527 -35.394  1.00  0.00     0.000 C 
BRANCH   2   3
ATOM      3  C   UNL     1     -33.557 -22.033 -35.410  1.00  0.00     0.000 C 
BRANCH   3   4
ATOM      4  C   UNL     1     -32.500 -22.845 -36.179  1.00  0.00     0.000 C 
BRANCH   4   5
ATOM      5  C   UNL     1     -33.049 -24.180 -36.706  1.00  0.00     0.006 C 
BRANCH   5   6
ATOM      6  C   UNL     1     -32.574 -24.491 -38.131  1.00  0.00     0.053 C 
BRANCH   6   7
ATOM      7  C   UNL     1     -31.446 -25.473 -38.102  1.00  0.00     0.041 C 
ATOM      8  O   UNL     1     -30.301 -25.113 -37.721  1.00  0.00    -0.550 OA
ATOM      9  O   UNL     1     -31.669 -26.800 -38.450  1.00  0.00    -0.550 OA
ENDBRANCH   6   7
ENDBRANCH   5   6
ENDBRANCH   4   5
ENDBRANCH   3   4
ENDBRANCH   2   3
ENDBRANCH   1   2
BRANCH   1  10
ATOM     10  C   UNL     1     -31.164 -20.992 -33.990  1.00  0.00     0.000 C 
BRANCH  10  11
ATOM     11  C   UNL     1     -30.538 -20.848 -32.595  1.00  0.00    -0.000 C 
BRANCH  11  12
ATOM     12  C   UNL     1     -30.512 -22.195 -31.862  1.00  0.00    -0.000 C 
BRANCH  12  13
ATOM     13  C   UNL     1     -30.322 -21.998 -30.351  1.00  0.00    -0.000 C 
BRANCH  13  14
ATOM     14  C   UNL     1     -30.350 -20.509 -29.948  1.00  0.00    -0.000 C 
BRANCH  14  15
ATOM     15  C   UNL     1     -28.953 -19.876 -29.834  1.00  0.00    -0.003 C 
ATOM     16  C   UNL     1     -28.170 -19.917 -31.144  1.00  0.00     0.004 C 
ENDBRANCH  14  15
ENDBRANCH  13  14
ENDBRANCH  12  13
ENDBRANCH  11  12
ENDBRANCH  10  11
ENDBRANCH   1  10
TORSDOF 12
ENDMDL
