MODEL 1
REMARK VINA RESULT:     2.685      0.000      0.000
REMARK INTER + INTRA:           3.572
REMARK INTER:                   4.098
REMARK INTRA:                  -0.526
REMARK UNBOUND:                -0.526
REMARK SMILES CCCCCCCCCCC(=O)[O-]
REMARK SMILES IDX 7 1 8 2 9 3 10 4 11 5 12 6 13 7 6 8 5 9 4 10 3 11 2 12 1 13
REMARK H PARENT
REMARK Flexibility Score: inf
ROOT
ATOM      1  C   UNL     1       3.365  -7.856  10.945  1.00  0.00     0.000 C 
ENDROOT
BRANCH   1   2
ATOM      2  C   UNL     1       2.155  -6.936  11.183  1.00  0.00     0.000 C 
BRANCH   2   3
ATOM      3  C   UNL     1       1.206  -7.480  12.263  1.00  0.00     0.006 C 
BRANCH   3   4
ATOM      4  C   UNL     1      -0.264  -7.460  11.825  1.00  0.00     0.053 C 
BRANCH   4   5
ATOM      5  C   UNL     1      -0.423  -8.135  10.500  1.00  0.00     0.041 C 
ATOM      6  O   UNL     1       0.037  -9.293  10.320  1.00  0.00    -0.550 OA
ATOM      7  O   UNL     1      -1.125  -7.507   9.480  1.00  0.00    -0.550 OA
ENDBRANCH   4   5
ENDBRANCH   3   4
ENDBRANCH   2   3
ENDBRANCH   1   2
BRANCH   1   8
ATOM      8  C   UNL     1       3.870  -8.512  12.241  1.00  0.00     0.000 C 
BRANCH   8   9
ATOM      9  C   UNL     1       4.929  -7.662  12.964  1.00  0.00    -0.000 C 
BRANCH   9  10
ATOM     10  C   UNL     1       5.703  -6.740  12.007  1.00  0.00    -0.000 C 
BRANCH  10  11
ATOM     11  C   UNL     1       7.195  -6.635  12.368  1.00  0.00    -0.000 C 
BRANCH  11  12
ATOM     12  C   UNL     1       7.449  -6.800  13.874  1.00  0.00    -0.003 C 
ATOM     13  C   UNL     1       7.495  -5.465  14.618  1.00  0.00     0.004 C 
ENDBRANCH  11  12
ENDBRANCH  10  11
ENDBRANCH   9  10
ENDBRANCH   8   9
ENDBRANCH   1   8
TORSDOF 9
ENDMDL
MODEL 2
REMARK VINA RESULT:     2.982      1.507      2.430
REMARK INTER + INTRA:           4.025
REMARK INTER:                   4.728
REMARK INTRA:                  -0.703
REMARK UNBOUND:                -0.526
REMARK SMILES CCCCCCCCCCC(=O)[O-]
REMARK SMILES IDX 7 1 8 2 9 3 10 4 11 5 12 6 13 7 6 8 5 9 4 10 3 11 2 12 1 13
REMARK H PARENT
REMARK Flexibility Score: inf
ROOT
ATOM      1  C   UNL     1       2.719  -6.552  10.896  1.00  0.00     0.000 C 
ENDROOT
BRANCH   1   2
ATOM      2  C   UNL     1       1.702  -6.337  12.030  1.00  0.00     0.000 C 
BRANCH   2   3
ATOM      3  C   UNL     1       0.975  -7.634  12.423  1.00  0.00     0.006 C 
BRANCH   3   4
ATOM      4  C   UNL     1      -0.472  -7.680  11.915  1.00  0.00     0.053 C 
BRANCH   4   5
ATOM      5  C   UNL     1      -0.509  -8.100  10.480  1.00  0.00     0.041 C 
ATOM      6  O   UNL     1      -1.026  -7.348   9.613  1.00  0.00    -0.550 OA
ATOM      7  O   UNL     1       0.073  -9.300  10.093  1.00  0.00    -0.550 OA
ENDBRANCH   4   5
ENDBRANCH   3   4
ENDBRANCH   2   3
ENDBRANCH   1   2
BRANCH   1   8
ATOM      8  C   UNL     1       3.112  -8.029  10.730  1.00  0.00     0.000 C 
BRANCH   8   9
ATOM      9  C   UNL     1       4.632  -8.254  10.828  1.00  0.00    -0.000 C 
BRANCH   9  10
ATOM     10  C   UNL     1       5.298  -7.347  11.875  1.00  0.00    -0.000 C 
BRANCH  10  11
ATOM     11  C   UNL     1       4.872  -7.691  13.312  1.00  0.00    -0.000 C 
BRANCH  11  12
ATOM     12  C   UNL     1       4.418  -9.152  13.457  1.00  0.00    -0.003 C 
ATOM     13  C   UNL     1       3.415  -9.352  14.593  1.00  0.00     0.004 C 
ENDBRANCH  11  12
ENDBRANCH  10  11
ENDBRANCH   9  10
ENDBRANCH   8   9
ENDBRANCH   1   8
TORSDOF 9
ENDMDL
MODEL 3
REMARK VINA RESULT:     3.694      4.056      7.178
REMARK INTER + INTRA:           5.112
REMARK INTER:                   5.582
REMARK INTRA:                  -0.470
REMARK UNBOUND:                -0.526
REMARK SMILES CCCCCCCCCCC(=O)[O-]
REMARK SMILES IDX 7 1 8 2 9 3 10 4 11 5 12 6 13 7 6 8 5 9 4 10 3 11 2 12 1 13
REMARK H PARENT
REMARK Flexibility Score: inf
ROOT
ATOM      1  C   UNL     1       4.933  -7.678  13.073  1.00  0.00     0.000 C 
ENDROOT
BRANCH   1   2
ATOM      2  C   UNL     1       5.702  -6.963  11.948  1.00  0.00     0.000 C 
BRANCH   2   3
ATOM      3  C   UNL     1       7.070  -6.436  12.413  1.00  0.00     0.006 C 
BRANCH   3   4
ATOM      4  C   UNL     1       7.393  -6.822  13.862  1.00  0.00     0.053 C 
BRANCH   4   5
ATOM      5  C   UNL     1       7.858  -5.625  14.630  1.00  0.00     0.041 C 
ATOM      6  O   UNL     1       7.033  -4.926  15.274  1.00  0.00    -0.550 OA
ATOM      7  O   UNL     1       9.210  -5.311  14.676  1.00  0.00    -0.550 OA
ENDBRANCH   4   5
ENDBRANCH   3   4
ENDBRANCH   2   3
ENDBRANCH   1   2
BRANCH   1   8
ATOM      8  C   UNL     1       3.770  -8.531  12.541  1.00  0.00     0.000 C 
BRANCH   8   9
ATOM      9  C   UNL     1       3.180  -7.981  11.231  1.00  0.00    -0.000 C 
BRANCH   9  10
ATOM     10  C   UNL     1       2.138  -6.876  11.468  1.00  0.00    -0.000 C 
BRANCH  10  11
ATOM     11  C   UNL     1       0.735  -7.439  11.753  1.00  0.00    -0.000 C 
BRANCH  11  12
ATOM     12  C   UNL     1       0.272  -8.436  10.679  1.00  0.00    -0.003 C 
ATOM     13  C   UNL     1      -1.124  -8.124  10.141  1.00  0.00     0.004 C 
ENDBRANCH  11  12
ENDBRANCH  10  11
ENDBRANCH   9  10
ENDBRANCH   8   9
ENDBRANCH   1   8
TORSDOF 9
ENDMDL
MODEL 4
REMARK VINA RESULT:     3.837      3.742      6.947
REMARK INTER + INTRA:           5.330
REMARK INTER:                   5.657
REMARK INTRA:                  -0.327
REMARK UNBOUND:                -0.526
REMARK SMILES CCCCCCCCCCC(=O)[O-]
REMARK SMILES IDX 7 1 8 2 9 3 10 4 11 5 12 6 13 7 6 8 5 9 4 10 3 11 2 12 1 13
REMARK H PARENT
REMARK Flexibility Score: inf
ROOT
ATOM      1  C   UNL     1       3.956  -8.596  11.021  1.00  0.00     0.000 C 
ENDROOT
BRANCH   1   2
ATOM      2  C   UNL     1       4.518  -8.297  12.422  1.00  0.00     0.000 C 
BRANCH   2   3
ATOM      3  C   UNL     1       5.002  -6.844  12.564  1.00  0.00     0.006 C 
BRANCH   3   4
ATOM      4  C   UNL     1       6.470  -6.666  12.154  1.00  0.00     0.053 C 
BRANCH   4   5
ATOM      5  C   UNL     1       7.340  -6.550  13.364  1.00  0.00     0.041 C 
ATOM      6  O   UNL     1       7.157  -5.617  14.190  1.00  0.00    -0.550 OA
ATOM      7  O   UNL     1       8.321  -7.502  13.609  1.00  0.00    -0.550 OA
ENDBRANCH   4   5
ENDBRANCH   3   4
ENDBRANCH   2   3
ENDBRANCH   1   2
BRANCH   1   8
ATOM      8  C   UNL     1       2.723  -7.740  10.686  1.00  0.00     0.000 C 
BRANCH   8   9
ATOM      9  C   UNL     1       1.871  -7.415  11.925  1.00  0.00    -0.000 C 
BRANCH   9  10
ATOM     10  C   UNL     1       0.364  -7.392  11.618  1.00  0.00    -0.000 C 
BRANCH  10  11
ATOM     11  C   UNL     1      -0.103  -8.647  10.862  1.00  0.00    -0.000 C 
BRANCH  11  12
ATOM     12  C   UNL     1      -1.125  -8.323   9.760  1.00  0.00    -0.003 C 
ATOM     13  C   UNL     1      -1.121  -6.847   9.363  1.00  0.00     0.004 C 
ENDBRANCH  11  12
ENDBRANCH  10  11
ENDBRANCH   9  10
ENDBRANCH   8   9
ENDBRANCH   1   8
TORSDOF 9
ENDMDL
MODEL 5
REMARK VINA RESULT:     4.893      2.612      5.904
REMARK INTER + INTRA:           6.942
REMARK INTER:                   7.308
REMARK INTRA:                  -0.367
REMARK UNBOUND:                -0.526
REMARK SMILES CCCCCCCCCCC(=O)[O-]
REMARK SMILES IDX 7 1 8 2 9 3 10 4 11 5 12 6 13 7 6 8 5 9 4 10 3 11 2 12 1 13
REMARK H PARENT
REMARK Flexibility Score: inf
ROOT
ATOM      1  C   UNL     1       4.486  -7.950  11.071  1.00  0.00     0.000 C 
ENDROOT
BRANCH   1   2
ATOM      2  C   UNL     1       4.810  -7.049  12.275  1.00  0.00     0.000 C 
BRANCH   2   3
ATOM      3  C   UNL     1       4.981  -7.847  13.579  1.00  0.00     0.006 C 
BRANCH   3   4
ATOM      4  C   UNL     1       4.485  -9.293  13.458  1.00  0.00     0.053 C 
BRANCH   4   5
ATOM      5  C   UNL     1       3.420  -9.566  14.473  1.00  0.00     0.041 C 
ATOM      6  O   UNL     1       3.711 -10.125  15.563  1.00  0.00    -0.550 OA
ATOM      7  O   UNL     1       2.114  -9.158  14.236  1.00  0.00    -0.550 OA
ENDBRANCH   4   5
ENDBRANCH   3   4
ENDBRANCH   2   3
ENDBRANCH   1   2
BRANCH   1   8
ATOM      8  C   UNL     1       2.993  -7.923  10.700  1.00  0.00     0.000 C 
BRANCH   8   9
ATOM      9  C   UNL     1       2.131  -7.214  11.759  1.00  0.00    -0.000 C 
BRANCH   9  10
ATOM     10  C   UNL     1       0.638  -7.196  11.393  1.00  0.00    -0.000 C 
BRANCH  10  11
ATOM     11  C   UNL     1       0.123  -8.576  10.949  1.00  0.00    -0.000 C 
BRANCH  11  12
ATOM     12  C   UNL     1      -0.885  -8.484   9.793  1.00  0.00    -0.003 C 
ATOM     13  C   UNL     1      -1.119  -7.048   9.324  1.00  0.00     0.004 C 
ENDBRANCH  11  12
ENDBRANCH  10  11
ENDBRANCH   9  10
ENDBRANCH   8   9
ENDBRANCH   1   8
TORSDOF 9
ENDMDL
MODEL 6
REMARK VINA RESULT:     5.444      1.923      2.254
REMARK INTER + INTRA:           7.783
REMARK INTER:                   7.960
REMARK INTRA:                  -0.177
REMARK UNBOUND:                -0.526
REMARK SMILES CCCCCCCCCCC(=O)[O-]
REMARK SMILES IDX 7 1 8 2 9 3 10 4 11 5 12 6 13 7 6 8 5 9 4 10 3 11 2 12 1 13
REMARK H PARENT
REMARK Flexibility Score: inf
ROOT
ATOM      1  C   UNL     1       3.749  -8.479  10.896  1.00  0.00     0.000 C 
ENDROOT
BRANCH   1   2
ATOM      2  C   UNL     1       2.305  -8.805  10.479  1.00  0.00     0.000 C 
BRANCH   2   3
ATOM      3  C   UNL     1       1.263  -8.130  11.386  1.00  0.00     0.006 C 
BRANCH   3   4
ATOM      4  C   UNL     1       0.793  -6.775  10.842  1.00  0.00     0.053 C 
BRANCH   4   5
ATOM      5  C   UNL     1       1.927  -5.800  10.818  1.00  0.00     0.041 C 
ATOM      6  O   UNL     1       2.176  -5.145   9.772  1.00  0.00    -0.550 OA
ATOM      7  O   UNL     1       2.676  -5.576  11.965  1.00  0.00    -0.550 OA
ENDBRANCH   4   5
ENDBRANCH   3   4
ENDBRANCH   2   3
ENDBRANCH   1   2
BRANCH   1   8
ATOM      8  C   UNL     1       3.958  -8.565  12.417  1.00  0.00     0.000 C 
BRANCH   8   9
ATOM      9  C   UNL     1       4.947  -7.510  12.942  1.00  0.00    -0.000 C 
BRANCH   9  10
ATOM     10  C   UNL     1       5.840  -6.932  11.833  1.00  0.00    -0.000 C 
BRANCH  10  11
ATOM     11  C   UNL     1       7.225  -6.508  12.351  1.00  0.00    -0.000 C 
BRANCH  11  12
ATOM     12  C   UNL     1       7.396  -6.770  13.856  1.00  0.00    -0.003 C 
ATOM     13  C   UNL     1       7.732  -5.504  14.644  1.00  0.00     0.004 C 
ENDBRANCH  11  12
ENDBRANCH  10  11
ENDBRANCH   9  10
ENDBRANCH   8   9
ENDBRANCH   1   8
TORSDOF 9
ENDMDL
