MODEL 1
REMARK VINA RESULT:    -3.401      0.000      0.000
REMARK INTER + INTRA:          -3.699
REMARK INTER:                  -3.699
REMARK INTRA:                   0.000
REMARK UNBOUND:                 0.000
REMARK SMILES Oc1cccc(O)c1O
REMARK SMILES IDX 4 1 5 2 6 3 8 4 2 5 3 6 7 7 1 9 9 11
REMARK H PARENT 7 8 1 10 9 12
REMARK Flexibility Score: inf
ROOT
ATOM      1  C   UNL     1       7.503  12.507  29.178  1.00  0.00     0.008 A 
ATOM      2  C   UNL     1       7.207  13.864  29.048  1.00  0.00     0.050 A 
ATOM      3  C   UNL     1       6.315  14.488  29.930  1.00  0.00     0.161 A 
ATOM      4  C   UNL     1       5.711  13.730  30.964  1.00  0.00     0.200 A 
ATOM      5  C   UNL     1       6.018  12.360  31.087  1.00  0.00     0.161 A 
ATOM      6  C   UNL     1       6.911  11.759  30.194  1.00  0.00     0.050 A 
ENDROOT
BRANCH   3   7
ATOM      7  O   UNL     1       6.063  15.848  29.745  1.00  0.00    -0.504 OA
ATOM      8  H   UNL     1       5.798  16.261  28.863  1.00  0.00     0.293 HD
ENDBRANCH   3   7
BRANCH   5   9
ATOM      9  O   UNL     1       5.446  11.579  32.090  1.00  0.00    -0.504 OA
ATOM     10  H   UNL     1       5.068  10.656  31.909  1.00  0.00     0.293 HD
ENDBRANCH   5   9
BRANCH   4  11
ATOM     11  O   UNL     1       4.815  14.293  31.876  1.00  0.00    -0.502 OA
ATOM     12  H   UNL     1       4.583  15.276  31.910  1.00  0.00     0.293 HD
ENDBRANCH   4  11
TORSDOF 3
ENDMDL
MODEL 2
REMARK VINA RESULT:    -3.381      1.759      2.384
REMARK INTER + INTRA:          -3.678
REMARK INTER:                  -3.678
REMARK INTRA:                   0.000
REMARK UNBOUND:                 0.000
REMARK SMILES Oc1cccc(O)c1O
REMARK SMILES IDX 4 1 5 2 6 3 8 4 2 5 3 6 7 7 1 9 9 11
REMARK H PARENT 7 8 1 10 9 12
REMARK Flexibility Score: inf
ROOT
ATOM      1  C   UNL     1       7.271  12.747  30.299  1.00  0.00     0.008 A 
ATOM      2  C   UNL     1       6.660  13.573  31.243  1.00  0.00     0.050 A 
ATOM      3  C   UNL     1       5.580  13.110  32.005  1.00  0.00     0.161 A 
ATOM      4  C   UNL     1       5.108  11.787  31.813  1.00  0.00     0.200 A 
ATOM      5  C   UNL     1       5.733  10.961  30.858  1.00  0.00     0.161 A 
ATOM      6  C   UNL     1       6.809  11.446  30.108  1.00  0.00     0.050 A 
ENDROOT
BRANCH   3   7
ATOM      7  O   UNL     1       5.014  13.987  32.931  1.00  0.00    -0.504 OA
ATOM      8  H   UNL     1       4.325  14.688  32.702  1.00  0.00     0.293 HD
ENDBRANCH   3   7
BRANCH   5   9
ATOM      9  O   UNL     1       5.299   9.654  30.640  1.00  0.00    -0.504 OA
ATOM     10  H   UNL     1       5.164   9.277  29.709  1.00  0.00     0.293 HD
ENDBRANCH   5   9
BRANCH   4  11
ATOM     11  O   UNL     1       4.036  11.265  32.542  1.00  0.00    -0.502 OA
ATOM     12  H   UNL     1       3.399  11.824  33.093  1.00  0.00     0.293 HD
ENDBRANCH   4  11
TORSDOF 3
ENDMDL
MODEL 3
REMARK VINA RESULT:    -3.379      1.704      3.125
REMARK INTER + INTRA:          -3.675
REMARK INTER:                  -3.675
REMARK INTRA:                   0.000
REMARK UNBOUND:                 0.000
REMARK SMILES Oc1cccc(O)c1O
REMARK SMILES IDX 4 1 5 2 6 3 8 4 2 5 3 6 7 7 1 9 9 11
REMARK H PARENT 7 8 1 10 9 12
REMARK Flexibility Score: inf
ROOT
ATOM      1  C   UNL     1       7.264  12.775  30.265  1.00  0.00     0.008 A 
ATOM      2  C   UNL     1       6.810  11.467  30.091  1.00  0.00     0.050 A 
ATOM      3  C   UNL     1       5.712  10.990  30.818  1.00  0.00     0.161 A 
ATOM      4  C   UNL     1       5.057  11.849  31.737  1.00  0.00     0.200 A 
ATOM      5  C   UNL     1       5.524  13.168  31.903  1.00  0.00     0.161 A 
ATOM      6  C   UNL     1       6.623  13.621  31.167  1.00  0.00     0.050 A 
ENDROOT
BRANCH   3   7
ATOM      7  O   UNL     1       5.309   9.672  30.596  1.00  0.00    -0.504 OA
ATOM      8  H   UNL     1       4.757   9.131  31.246  1.00  0.00     0.293 HD
ENDBRANCH   3   7
BRANCH   5   9
ATOM      9  O   UNL     1       4.908  14.044  32.797  1.00  0.00    -0.504 OA
ATOM     10  H   UNL     1       4.039  13.816  33.265  1.00  0.00     0.293 HD
ENDBRANCH   5   9
BRANCH   4  11
ATOM     11  O   UNL     1       3.957  11.434  32.490  1.00  0.00    -0.502 OA
ATOM     12  H   UNL     1       3.885  10.533  32.942  1.00  0.00     0.293 HD
ENDBRANCH   4  11
TORSDOF 3
ENDMDL
MODEL 4
REMARK VINA RESULT:    -3.353     11.776     12.521
REMARK INTER + INTRA:          -3.647
REMARK INTER:                  -3.647
REMARK INTRA:                   0.000
REMARK UNBOUND:                 0.000
REMARK SMILES Oc1cccc(O)c1O
REMARK SMILES IDX 4 1 5 2 6 3 8 4 2 5 3 6 7 7 1 9 9 11
REMARK H PARENT 7 8 1 10 9 12
REMARK Flexibility Score: inf
ROOT
ATOM      1  C   UNL     1       4.248  12.317  17.550  1.00  0.00     0.008 A 
ATOM      2  C   UNL     1       4.265  11.008  17.070  1.00  0.00     0.050 A 
ATOM      3  C   UNL     1       3.910   9.938  17.900  1.00  0.00     0.161 A 
ATOM      4  C   UNL     1       3.528  10.192  19.242  1.00  0.00     0.200 A 
ATOM      5  C   UNL     1       3.514  11.519  19.716  1.00  0.00     0.161 A 
ATOM      6  C   UNL     1       3.874  12.571  18.869  1.00  0.00     0.050 A 
ENDROOT
BRANCH   3   7
ATOM      7  O   UNL     1       3.948   8.652  17.357  1.00  0.00    -0.504 OA
ATOM      8  H   UNL     1       4.476   8.400  16.534  1.00  0.00     0.293 HD
ENDBRANCH   3   7
BRANCH   5   9
ATOM      9  O   UNL     1       3.145  11.812  21.029  1.00  0.00    -0.504 OA
ATOM     10  H   UNL     1       2.181  11.977  21.296  1.00  0.00     0.293 HD
ENDBRANCH   5   9
BRANCH   4  11
ATOM     11  O   UNL     1       3.162   9.169  20.120  1.00  0.00    -0.502 OA
ATOM     12  H   UNL     1       3.255   8.184  19.914  1.00  0.00     0.293 HD
ENDBRANCH   4  11
TORSDOF 3
ENDMDL
MODEL 5
REMARK VINA RESULT:    -3.347      0.991      2.896
REMARK INTER + INTRA:          -3.640
REMARK INTER:                  -3.640
REMARK INTRA:                   0.000
REMARK UNBOUND:                 0.000
REMARK SMILES Oc1cccc(O)c1O
REMARK SMILES IDX 4 1 5 2 6 3 8 4 2 5 3 6 7 7 1 9 9 11
REMARK H PARENT 7 8 1 10 9 12
REMARK Flexibility Score: inf
ROOT
ATOM      1  C   UNL     1       7.287  11.847  29.904  1.00  0.00     0.008 A 
ATOM      2  C   UNL     1       6.479  12.354  30.922  1.00  0.00     0.050 A 
ATOM      3  C   UNL     1       6.052  13.688  30.897  1.00  0.00     0.161 A 
ATOM      4  C   UNL     1       6.448  14.527  29.825  1.00  0.00     0.200 A 
ATOM      5  C   UNL     1       7.264  14.004  28.803  1.00  0.00     0.161 A 
ATOM      6  C   UNL     1       7.678  12.670  28.849  1.00  0.00     0.050 A 
ENDROOT
BRANCH   3   7
ATOM      7  O   UNL     1       5.245  14.132  31.946  1.00  0.00    -0.504 OA
ATOM      8  H   UNL     1       5.336  15.034  32.390  1.00  0.00     0.293 HD
ENDBRANCH   3   7
BRANCH   5   9
ATOM      9  O   UNL     1       7.675  14.797  27.731  1.00  0.00    -0.504 OA
ATOM     10  H   UNL     1       7.031  15.116  27.016  1.00  0.00     0.293 HD
ENDBRANCH   5   9
BRANCH   4  11
ATOM     11  O   UNL     1       6.055  15.866  29.743  1.00  0.00    -0.502 OA
ATOM     12  H   UNL     1       5.648  16.288  28.920  1.00  0.00     0.293 HD
ENDBRANCH   4  11
TORSDOF 3
ENDMDL
MODEL 6
REMARK VINA RESULT:    -3.336     11.803     12.491
REMARK INTER + INTRA:          -3.628
REMARK INTER:                  -3.628
REMARK INTRA:                   0.000
REMARK UNBOUND:                 0.000
REMARK SMILES Oc1cccc(O)c1O
REMARK SMILES IDX 4 1 5 2 6 3 8 4 2 5 3 6 7 7 1 9 9 11
REMARK H PARENT 7 8 1 10 9 12
REMARK Flexibility Score: inf
ROOT
ATOM      1  C   UNL     1       4.239  12.348  17.481  1.00  0.00     0.008 A 
ATOM      2  C   UNL     1       3.865  12.625  18.796  1.00  0.00     0.050 A 
ATOM      3  C   UNL     1       3.507  11.590  19.669  1.00  0.00     0.161 A 
ATOM      4  C   UNL     1       3.530  10.249  19.209  1.00  0.00     0.200 A 
ATOM      5  C   UNL     1       3.911   9.981  17.879  1.00  0.00     0.161 A 
ATOM      6  C   UNL     1       4.262  11.031  17.025  1.00  0.00     0.050 A 
ENDROOT
BRANCH   3   7
ATOM      7  O   UNL     1       3.143  11.936  20.972  1.00  0.00    -0.504 OA
ATOM      8  H   UNL     1       3.792  12.248  21.679  1.00  0.00     0.293 HD
ENDBRANCH   3   7
BRANCH   5   9
ATOM      9  O   UNL     1       3.946   8.676  17.388  1.00  0.00    -0.504 OA
ATOM     10  H   UNL     1       4.694   8.343  16.791  1.00  0.00     0.293 HD
ENDBRANCH   5   9
BRANCH   4  11
ATOM     11  O   UNL     1       3.186   9.173  20.031  1.00  0.00    -0.502 OA
ATOM     12  H   UNL     1       3.855   8.592  20.516  1.00  0.00     0.293 HD
ENDBRANCH   4  11
TORSDOF 3
ENDMDL
MODEL 7
REMARK VINA RESULT:    -3.323      3.958      5.416
REMARK INTER + INTRA:          -3.615
REMARK INTER:                  -3.615
REMARK INTRA:                   0.000
REMARK UNBOUND:                 0.000
REMARK SMILES Oc1cccc(O)c1O
REMARK SMILES IDX 4 1 5 2 6 3 8 4 2 5 3 6 7 7 1 9 9 11
REMARK H PARENT 7 8 1 10 9 12
REMARK Flexibility Score: inf
ROOT
ATOM      1  C   UNL     1       1.789  10.170  32.704  1.00  0.00     0.008 A 
ATOM      2  C   UNL     1       2.951   9.412  32.846  1.00  0.00     0.050 A 
ATOM      3  C   UNL     1       4.198  10.035  32.985  1.00  0.00     0.161 A 
ATOM      4  C   UNL     1       4.275  11.451  32.982  1.00  0.00     0.200 A 
ATOM      5  C   UNL     1       3.094  12.206  32.838  1.00  0.00     0.161 A 
ATOM      6  C   UNL     1       1.861  11.562  32.700  1.00  0.00     0.050 A 
ENDROOT
BRANCH   3   7
ATOM      7  O   UNL     1       5.321   9.218  33.124  1.00  0.00    -0.504 OA
ATOM      8  H   UNL     1       6.248   9.558  33.333  1.00  0.00     0.293 HD
ENDBRANCH   3   7
BRANCH   5   9
ATOM      9  O   UNL     1       3.126  13.601  32.830  1.00  0.00    -0.504 OA
ATOM     10  H   UNL     1       2.284  14.162  32.876  1.00  0.00     0.293 HD
ENDBRANCH   5   9
BRANCH   4  11
ATOM     11  O   UNL     1       5.487  12.132  33.117  1.00  0.00    -0.502 OA
ATOM     12  H   UNL     1       5.988  12.556  32.350  1.00  0.00     0.293 HD
ENDBRANCH   4  11
TORSDOF 3
ENDMDL
MODEL 8
REMARK VINA RESULT:    -3.316     12.167     12.856
REMARK INTER + INTRA:          -3.606
REMARK INTER:                  -3.606
REMARK INTRA:                   0.000
REMARK UNBOUND:                 0.000
REMARK SMILES Oc1cccc(O)c1O
REMARK SMILES IDX 4 1 5 2 6 3 8 4 2 5 3 6 7 7 1 9 9 11
REMARK H PARENT 7 8 1 10 9 12
REMARK Flexibility Score: inf
ROOT
ATOM      1  C   UNL     1       4.029  12.316  19.582  1.00  0.00     0.008 A 
ATOM      2  C   UNL     1       3.629  12.510  18.260  1.00  0.00     0.050 A 
ATOM      3  C   UNL     1       3.549  11.430  17.372  1.00  0.00     0.161 A 
ATOM      4  C   UNL     1       3.877  10.128  17.827  1.00  0.00     0.200 A 
ATOM      5  C   UNL     1       4.279   9.943  19.164  1.00  0.00     0.161 A 
ATOM      6  C   UNL     1       4.353  11.037  20.032  1.00  0.00     0.050 A 
ENDROOT
BRANCH   3   7
ATOM      7  O   UNL     1       3.141  11.693  16.063  1.00  0.00    -0.504 OA
ATOM      8  H   UNL     1       2.513  12.439  15.804  1.00  0.00     0.293 HD
ENDBRANCH   3   7
BRANCH   5   9
ATOM      9  O   UNL     1       4.610   8.679  19.650  1.00  0.00    -0.504 OA
ATOM     10  H   UNL     1       4.463   8.415  20.617  1.00  0.00     0.293 HD
ENDBRANCH   5   9
BRANCH   4  11
ATOM     11  O   UNL     1       3.816   9.010  16.991  1.00  0.00    -0.502 OA
ATOM     12  H   UNL     1       3.716   8.060  17.321  1.00  0.00     0.293 HD
ENDBRANCH   4  11
TORSDOF 3
ENDMDL
MODEL 9
REMARK VINA RESULT:    -3.308      3.587      4.587
REMARK INTER + INTRA:          -3.598
REMARK INTER:                  -3.598
REMARK INTRA:                   0.000
REMARK UNBOUND:                 0.000
REMARK SMILES Oc1cccc(O)c1O
REMARK SMILES IDX 4 1 5 2 6 3 8 4 2 5 3 6 7 7 1 9 9 11
REMARK H PARENT 7 8 1 10 9 12
REMARK Flexibility Score: inf
ROOT
ATOM      1  C   UNL     1       3.627   9.862  33.125  1.00  0.00     0.008 A 
ATOM      2  C   UNL     1       4.728  10.717  33.125  1.00  0.00     0.050 A 
ATOM      3  C   UNL     1       4.568  12.088  32.888  1.00  0.00     0.161 A 
ATOM      4  C   UNL     1       3.270  12.608  32.649  1.00  0.00     0.200 A 
ATOM      5  C   UNL     1       2.165  11.734  32.651  1.00  0.00     0.161 A 
ATOM      6  C   UNL     1       2.350  10.369  32.889  1.00  0.00     0.050 A 
ENDROOT
BRANCH   3   7
ATOM      7  O   UNL     1       5.711  12.889  32.902  1.00  0.00    -0.504 OA
ATOM      8  H   UNL     1       5.697  13.898  32.926  1.00  0.00     0.293 HD
ENDBRANCH   3   7
BRANCH   5   9
ATOM      9  O   UNL     1       0.872  12.205  32.420  1.00  0.00    -0.504 OA
ATOM     10  H   UNL     1       0.199  11.688  31.867  1.00  0.00     0.293 HD
ENDBRANCH   5   9
BRANCH   4  11
ATOM     11  O   UNL     1       3.044  13.965  32.407  1.00  0.00    -0.502 OA
ATOM     12  H   UNL     1       3.135  14.404  31.502  1.00  0.00     0.293 HD
ENDBRANCH   4  11
TORSDOF 3
ENDMDL
