MODEL 1
REMARK VINA RESULT:    -5.458      0.000      0.000
REMARK INTER + INTRA:          -7.896
REMARK INTER:                  -6.735
REMARK INTRA:                  -1.162
REMARK UNBOUND:                -1.162
REMARK SMILES CC(C)=CCC[C@H](C)c1ccc(C)cc1
REMARK SMILES IDX 6 1 7 2 8 3 9 4 13 5 12 6 11 7 14 8 10 9 15 10 5 11 4 12
REMARK SMILES IDX 2 13 1 14 3 15
REMARK H PARENT
REMARK Flexibility Score: inf
ROOT
ATOM      1  C   UNL     1     -97.079 195.240 -16.936  1.00  0.00     0.012 C 
ENDROOT
BRANCH   1   2
ATOM      2  C   UNL     1     -97.005 195.188 -15.390  1.00  0.00     0.016 C 
ATOM      3  C   UNL     1     -98.066 194.256 -14.783  1.00  0.00     0.013 C 
BRANCH   2   4
ATOM      4  C   UNL     1     -97.133 196.586 -14.812  1.00  0.00    -0.045 A 
ATOM      5  C   UNL     1     -97.530 200.562 -13.172  1.00  0.00     0.044 C 
ATOM      6  C   UNL     1     -97.399 199.170 -13.713  1.00  0.00    -0.051 A 
ATOM      7  C   UNL     1     -96.152 198.528 -13.717  1.00  0.00     0.004 A 
ATOM      8  C   UNL     1     -98.506 198.524 -14.281  1.00  0.00     0.004 A 
ATOM      9  C   UNL     1     -96.021 197.245 -14.254  1.00  0.00     0.004 A 
ATOM     10  C   UNL     1     -98.377 197.240 -14.818  1.00  0.00     0.004 A 
ENDBRANCH   2   4
ENDBRANCH   1   2
BRANCH   1  11
ATOM     11  C   UNL     1     -95.721 195.077 -17.640  1.00  0.00     0.028 C 
BRANCH  11  12
ATOM     12  C   UNL     1     -94.985 196.388 -17.781  1.00  0.00    -0.028 C 
ATOM     13  C   UNL     1     -93.844 196.704 -17.128  1.00  0.00    -0.080 C 
ATOM     14  C   UNL     1     -93.206 198.041 -17.405  1.00  0.00     0.039 C 
ATOM     15  C   UNL     1     -93.211 195.772 -16.121  1.00  0.00     0.039 C 
ENDBRANCH  11  12
ENDBRANCH   1  11
TORSDOF 4
ENDMDL
MODEL 2
REMARK VINA RESULT:    -5.414      1.166      2.478
REMARK INTER + INTRA:          -7.842
REMARK INTER:                  -6.688
REMARK INTRA:                  -1.153
REMARK UNBOUND:                -1.162
REMARK SMILES CC(C)=CCC[C@H](C)c1ccc(C)cc1
REMARK SMILES IDX 6 1 7 2 8 3 9 4 13 5 12 6 11 7 14 8 10 9 15 10 5 11 4 12
REMARK SMILES IDX 2 13 1 14 3 15
REMARK H PARENT
REMARK Flexibility Score: inf
ROOT
ATOM      1  C   UNL     1     -98.063 195.375 -15.053  1.00  0.00     0.012 C 
ENDROOT
BRANCH   1   2
ATOM      2  C   UNL     1     -98.682 196.794 -15.074  1.00  0.00     0.016 C 
ATOM      3  C   UNL     1     -99.030 197.263 -16.496  1.00  0.00     0.013 C 
BRANCH   2   4
ATOM      4  C   UNL     1     -97.745 197.784 -14.404  1.00  0.00    -0.045 A 
ATOM      5  C   UNL     1     -95.055 200.579 -12.504  1.00  0.00     0.044 C 
ATOM      6  C   UNL     1     -95.983 199.622 -13.191  1.00  0.00    -0.051 A 
ATOM      7  C   UNL     1     -97.344 199.933 -13.329  1.00  0.00     0.004 A 
ATOM      8  C   UNL     1     -95.512 198.381 -13.641  1.00  0.00     0.004 A 
ATOM      9  C   UNL     1     -98.216 199.026 -13.937  1.00  0.00     0.004 A 
ATOM     10  C   UNL     1     -96.383 197.473 -14.250  1.00  0.00     0.004 A 
ENDBRANCH   2   4
ENDBRANCH   1   2
BRANCH   1  11
ATOM     11  C   UNL     1     -97.562 194.885 -16.423  1.00  0.00     0.028 C 
BRANCH  11  12
ATOM     12  C   UNL     1     -96.074 194.629 -16.434  1.00  0.00    -0.028 C 
ATOM     13  C   UNL     1     -95.160 195.437 -17.016  1.00  0.00    -0.080 C 
ATOM     14  C   UNL     1     -93.704 195.065 -16.907  1.00  0.00     0.039 C 
ATOM     15  C   UNL     1     -95.556 196.675 -17.786  1.00  0.00     0.039 C 
ENDBRANCH  11  12
ENDBRANCH   1  11
TORSDOF 4
ENDMDL
MODEL 3
REMARK VINA RESULT:    -5.341      1.607      4.500
REMARK INTER + INTRA:          -7.752
REMARK INTER:                  -6.509
REMARK INTRA:                  -1.243
REMARK UNBOUND:                -1.162
REMARK SMILES CC(C)=CCC[C@H](C)c1ccc(C)cc1
REMARK SMILES IDX 6 1 7 2 8 3 9 4 13 5 12 6 11 7 14 8 10 9 15 10 5 11 4 12
REMARK SMILES IDX 2 13 1 14 3 15
REMARK H PARENT
REMARK Flexibility Score: inf
ROOT
ATOM      1  C   UNL     1     -97.316 197.723 -14.331  1.00  0.00     0.012 C 
ENDROOT
BRANCH   1   2
ATOM      2  C   UNL     1     -97.537 197.444 -15.838  1.00  0.00     0.016 C 
ATOM      3  C   UNL     1     -98.843 198.060 -16.363  1.00  0.00     0.013 C 
BRANCH   2   4
ATOM      4  C   UNL     1     -97.511 195.949 -16.103  1.00  0.00    -0.045 A 
ATOM      5  C   UNL     1     -97.448 191.691 -16.828  1.00  0.00     0.044 C 
ATOM      6  C   UNL     1     -97.500 193.170 -16.585  1.00  0.00    -0.051 A 
ATOM      7  C   UNL     1     -97.167 194.067 -17.611  1.00  0.00     0.004 A 
ATOM      8  C   UNL     1     -97.817 193.667 -15.313  1.00  0.00     0.004 A 
ATOM      9  C   UNL     1     -97.179 195.445 -17.375  1.00  0.00     0.004 A 
ATOM     10  C   UNL     1     -97.830 195.045 -15.076  1.00  0.00     0.004 A 
ENDBRANCH   2   4
ENDBRANCH   1   2
BRANCH   1  11
ATOM     11  C   UNL     1     -95.865 198.074 -13.959  1.00  0.00     0.028 C 
BRANCH  11  12
ATOM     12  C   UNL     1     -94.878 197.630 -15.012  1.00  0.00    -0.028 C 
ATOM     13  C   UNL     1     -94.178 196.475 -14.972  1.00  0.00    -0.080 C 
ATOM     14  C   UNL     1     -93.258 196.155 -16.122  1.00  0.00     0.039 C 
ATOM     15  C   UNL     1     -94.273 195.518 -13.807  1.00  0.00     0.039 C 
ENDBRANCH  11  12
ENDBRANCH   1  11
TORSDOF 4
ENDMDL
MODEL 4
REMARK VINA RESULT:    -5.340      1.608      4.513
REMARK INTER + INTRA:          -7.751
REMARK INTER:                  -6.493
REMARK INTRA:                  -1.257
REMARK UNBOUND:                -1.162
REMARK SMILES CC(C)=CCC[C@H](C)c1ccc(C)cc1
REMARK SMILES IDX 6 1 7 2 8 3 9 4 13 5 12 6 11 7 14 8 10 9 15 10 5 11 4 12
REMARK SMILES IDX 2 13 1 14 3 15
REMARK H PARENT
REMARK Flexibility Score: inf
ROOT
ATOM      1  C   UNL     1     -97.280 197.685 -14.307  1.00  0.00     0.012 C 
ENDROOT
BRANCH   1   2
ATOM      2  C   UNL     1     -97.529 197.414 -15.811  1.00  0.00     0.016 C 
ATOM      3  C   UNL     1     -98.838 198.044 -16.313  1.00  0.00     0.013 C 
BRANCH   2   4
ATOM      4  C   UNL     1     -97.521 195.920 -16.083  1.00  0.00    -0.045 A 
ATOM      5  C   UNL     1     -97.490 191.676 -16.887  1.00  0.00     0.044 C 
ATOM      6  C   UNL     1     -97.471 193.148 -16.600  1.00  0.00    -0.051 A 
ATOM      7  C   UNL     1     -97.799 193.623 -15.322  1.00  0.00     0.004 A 
ATOM      8  C   UNL     1     -97.190 194.064 -17.623  1.00  0.00     0.004 A 
ATOM      9  C   UNL     1     -97.818 194.996 -15.063  1.00  0.00     0.004 A 
ATOM     10  C   UNL     1     -97.207 195.438 -17.366  1.00  0.00     0.004 A 
ENDBRANCH   2   4
ENDBRANCH   1   2
BRANCH   1  11
ATOM     11  C   UNL     1     -95.832 198.078 -13.967  1.00  0.00     0.028 C 
BRANCH  11  12
ATOM     12  C   UNL     1     -94.851 197.630 -15.023  1.00  0.00    -0.028 C 
ATOM     13  C   UNL     1     -94.164 196.466 -14.990  1.00  0.00    -0.080 C 
ATOM     14  C   UNL     1     -93.248 196.142 -16.141  1.00  0.00     0.039 C 
ATOM     15  C   UNL     1     -94.269 195.504 -13.830  1.00  0.00     0.039 C 
ENDBRANCH  11  12
ENDBRANCH   1  11
TORSDOF 4
ENDMDL
MODEL 5
REMARK VINA RESULT:    -5.194      2.262      3.716
REMARK INTER + INTRA:          -7.571
REMARK INTER:                  -7.389
REMARK INTRA:                  -0.182
REMARK UNBOUND:                -1.162
REMARK SMILES CC(C)=CCC[C@H](C)c1ccc(C)cc1
REMARK SMILES IDX 6 1 7 2 8 3 9 4 13 5 12 6 11 7 14 8 10 9 15 10 5 11 4 12
REMARK SMILES IDX 2 13 1 14 3 15
REMARK H PARENT
REMARK Flexibility Score: inf
ROOT
ATOM      1  C   UNL     1     -98.481 195.884 -14.937  1.00  0.00     0.012 C 
ENDROOT
BRANCH   1   2
ATOM      2  C   UNL     1     -98.707 197.406 -15.109  1.00  0.00     0.016 C 
ATOM      3  C   UNL     1     -98.768 197.827 -16.585  1.00  0.00     0.013 C 
BRANCH   2   4
ATOM      4  C   UNL     1     -97.623 198.182 -14.380  1.00  0.00    -0.045 A 
ATOM      5  C   UNL     1     -94.563 200.411 -12.302  1.00  0.00     0.044 C 
ATOM      6  C   UNL     1     -95.633 199.624 -12.997  1.00  0.00    -0.051 A 
ATOM      7  C   UNL     1     -95.336 198.376 -13.564  1.00  0.00     0.004 A 
ATOM      8  C   UNL     1     -96.921 200.157 -13.143  1.00  0.00     0.004 A 
ATOM      9  C   UNL     1     -96.324 197.657 -14.244  1.00  0.00     0.004 A 
ATOM     10  C   UNL     1     -97.911 199.440 -13.822  1.00  0.00     0.004 A 
ENDBRANCH   2   4
ENDBRANCH   1   2
BRANCH   1  11
ATOM     11  C   UNL     1     -97.413 195.293 -15.874  1.00  0.00     0.028 C 
BRANCH  11  12
ATOM     12  C   UNL     1     -97.246 193.804 -15.690  1.00  0.00    -0.028 C 
ATOM     13  C   UNL     1     -97.543 192.876 -16.628  1.00  0.00    -0.080 C 
ATOM     14  C   UNL     1     -97.284 191.426 -16.308  1.00  0.00     0.039 C 
ATOM     15  C   UNL     1     -98.143 193.247 -17.964  1.00  0.00     0.039 C 
ENDBRANCH  11  12
ENDBRANCH   1  11
TORSDOF 4
ENDMDL
MODEL 6
REMARK VINA RESULT:    -4.509      1.802      2.892
REMARK INTER + INTRA:          -6.726
REMARK INTER:                  -5.234
REMARK INTRA:                  -1.492
REMARK UNBOUND:                -1.162
REMARK SMILES CC(C)=CCC[C@H](C)c1ccc(C)cc1
REMARK SMILES IDX 6 1 7 2 8 3 9 4 13 5 12 6 11 7 14 8 10 9 15 10 5 11 4 12
REMARK SMILES IDX 2 13 1 14 3 15
REMARK H PARENT
REMARK Flexibility Score: inf
ROOT
ATOM      1  C   UNL     1     -95.534 195.250 -14.256  1.00  0.00     0.012 C 
ENDROOT
BRANCH   1   2
ATOM      2  C   UNL     1     -96.756 194.616 -14.965  1.00  0.00     0.016 C 
ATOM      3  C   UNL     1     -96.359 193.461 -15.897  1.00  0.00     0.013 C 
BRANCH   2   4
ATOM      4  C   UNL     1     -97.524 195.677 -15.734  1.00  0.00    -0.045 A 
ATOM      5  C   UNL     1     -99.708 198.676 -17.947  1.00  0.00     0.044 C 
ATOM      6  C   UNL     1     -98.976 197.622 -17.171  1.00  0.00    -0.051 A 
ATOM      7  C   UNL     1     -98.660 197.830 -15.820  1.00  0.00     0.004 A 
ATOM      8  C   UNL     1     -98.545 196.449 -17.805  1.00  0.00     0.004 A 
ATOM      9  C   UNL     1     -97.946 196.864 -15.106  1.00  0.00     0.004 A 
ATOM     10  C   UNL     1     -97.831 195.481 -17.092  1.00  0.00     0.004 A 
ENDBRANCH   2   4
ENDBRANCH   1   2
BRANCH   1  11
ATOM     11  C   UNL     1     -94.265 195.320 -15.124  1.00  0.00     0.028 C 
BRANCH  11  12
ATOM     12  C   UNL     1     -94.150 196.629 -15.869  1.00  0.00    -0.028 C 
ATOM     13  C   UNL     1     -94.245 196.761 -17.210  1.00  0.00    -0.080 C 
ATOM     14  C   UNL     1     -94.147 198.143 -17.803  1.00  0.00     0.039 C 
ATOM     15  C   UNL     1     -94.422 195.571 -18.124  1.00  0.00     0.039 C 
ENDBRANCH  11  12
ENDBRANCH   1  11
TORSDOF 4
ENDMDL
MODEL 7
REMARK VINA RESULT:    -4.472      1.898      3.003
REMARK INTER + INTRA:          -6.680
REMARK INTER:                  -5.976
REMARK INTRA:                  -0.704
REMARK UNBOUND:                -1.162
REMARK SMILES CC(C)=CCC[C@H](C)c1ccc(C)cc1
REMARK SMILES IDX 6 1 7 2 8 3 9 4 13 5 12 6 11 7 14 8 10 9 15 10 5 11 4 12
REMARK SMILES IDX 2 13 1 14 3 15
REMARK H PARENT
REMARK Flexibility Score: inf
ROOT
ATOM      1  C   UNL     1     -97.631 196.059 -16.878  1.00  0.00     0.012 C 
ENDROOT
BRANCH   1   2
ATOM      2  C   UNL     1     -97.503 195.821 -15.353  1.00  0.00     0.016 C 
ATOM      3  C   UNL     1     -98.781 195.224 -14.744  1.00  0.00     0.013 C 
BRANCH   2   4
ATOM      4  C   UNL     1     -97.135 197.116 -14.650  1.00  0.00    -0.045 A 
ATOM      5  C   UNL     1     -96.121 200.808 -12.651  1.00  0.00     0.044 C 
ATOM      6  C   UNL     1     -96.479 199.513 -13.317  1.00  0.00    -0.051 A 
ATOM      7  C   UNL     1     -95.491 198.549 -13.565  1.00  0.00     0.004 A 
ATOM      8  C   UNL     1     -97.790 199.284 -13.758  1.00  0.00     0.004 A 
ATOM      9  C   UNL     1     -95.817 197.357 -14.219  1.00  0.00     0.004 A 
ATOM     10  C   UNL     1     -98.118 198.092 -14.411  1.00  0.00     0.004 A 
ENDBRANCH   2   4
ENDBRANCH   1   2
BRANCH   1  11
ATOM     11  C   UNL     1     -96.714 195.168 -17.735  1.00  0.00     0.028 C 
BRANCH  11  12
ATOM     12  C   UNL     1     -97.345 193.835 -18.059  1.00  0.00    -0.028 C 
ATOM     13  C   UNL     1     -97.221 192.722 -17.302  1.00  0.00    -0.080 C 
ATOM     14  C   UNL     1     -97.945 191.475 -17.738  1.00  0.00     0.039 C 
ATOM     15  C   UNL     1     -96.365 192.689 -16.057  1.00  0.00     0.039 C 
ENDBRANCH  11  12
ENDBRANCH   1  11
TORSDOF 4
ENDMDL
MODEL 8
REMARK VINA RESULT:    -4.444     15.242     18.083
REMARK INTER + INTRA:          -6.644
REMARK INTER:                  -5.419
REMARK INTRA:                  -1.225
REMARK UNBOUND:                -1.162
REMARK SMILES CC(C)=CCC[C@H](C)c1ccc(C)cc1
REMARK SMILES IDX 6 1 7 2 8 3 9 4 13 5 12 6 11 7 14 8 10 9 15 10 5 11 4 12
REMARK SMILES IDX 2 13 1 14 3 15
REMARK H PARENT
REMARK Flexibility Score: inf
ROOT
ATOM      1  C   UNL     1    -105.757 196.693   0.783  1.00  0.00     0.012 C 
ENDROOT
BRANCH   1   2
ATOM      2  C   UNL     1    -104.853 196.381  -0.435  1.00  0.00     0.016 C 
ATOM      3  C   UNL     1    -103.365 196.628  -0.139  1.00  0.00     0.013 C 
BRANCH   2   4
ATOM      4  C   UNL     1    -105.296 197.194  -1.639  1.00  0.00    -0.045 A 
ATOM      5  C   UNL     1    -106.585 199.488  -5.064  1.00  0.00     0.044 C 
ATOM      6  C   UNL     1    -106.152 198.711  -3.857  1.00  0.00    -0.051 A 
ATOM      7  C   UNL     1    -104.919 198.985  -3.246  1.00  0.00     0.004 A 
ATOM      8  C   UNL     1    -106.943 197.663  -3.368  1.00  0.00     0.004 A 
ATOM      9  C   UNL     1    -104.498 198.238  -2.142  1.00  0.00     0.004 A 
ATOM     10  C   UNL     1    -106.524 196.915  -2.264  1.00  0.00     0.004 A 
ENDBRANCH   2   4
ENDBRANCH   1   2
BRANCH   1  11
ATOM     11  C   UNL     1    -105.382 197.981   1.535  1.00  0.00     0.028 C 
BRANCH  11  12
ATOM     12  C   UNL     1    -106.595 198.756   1.992  1.00  0.00    -0.028 C 
ATOM     13  C   UNL     1    -107.173 199.760   1.295  1.00  0.00    -0.080 C 
ATOM     14  C   UNL     1    -108.406 200.411   1.867  1.00  0.00     0.039 C 
ATOM     15  C   UNL     1    -106.607 200.259  -0.014  1.00  0.00     0.039 C 
ENDBRANCH  11  12
ENDBRANCH   1  11
TORSDOF 4
ENDMDL
MODEL 9
REMARK VINA RESULT:    -4.410     16.392     18.004
REMARK INTER + INTRA:          -6.603
REMARK INTER:                  -5.200
REMARK INTRA:                  -1.403
REMARK UNBOUND:                -1.162
REMARK SMILES CC(C)=CCC[C@H](C)c1ccc(C)cc1
REMARK SMILES IDX 6 1 7 2 8 3 9 4 13 5 12 6 11 7 14 8 10 9 15 10 5 11 4 12
REMARK SMILES IDX 2 13 1 14 3 15
REMARK H PARENT
REMARK Flexibility Score: inf
ROOT
ATOM      1  C   UNL     1    -107.056 198.839  -1.648  1.00  0.00     0.012 C 
ENDROOT
BRANCH   1   2
ATOM      2  C   UNL     1    -108.015 197.694  -1.237  1.00  0.00     0.016 C 
ATOM      3  C   UNL     1    -108.358 197.726   0.261  1.00  0.00     0.013 C 
BRANCH   2   4
ATOM      4  C   UNL     1    -107.419 196.350  -1.616  1.00  0.00    -0.045 A 
ATOM      5  C   UNL     1    -105.723 192.518  -2.663  1.00  0.00     0.044 C 
ATOM      6  C   UNL     1    -106.340 193.835  -2.301  1.00  0.00    -0.051 A 
ATOM      7  C   UNL     1    -106.679 194.756  -3.303  1.00  0.00     0.004 A 
ATOM      8  C   UNL     1    -106.522 194.185  -0.956  1.00  0.00     0.004 A 
ATOM      9  C   UNL     1    -107.220 196.000  -2.965  1.00  0.00     0.004 A 
ATOM     10  C   UNL     1    -107.064 195.428  -0.615  1.00  0.00     0.004 A 
ENDBRANCH   2   4
ENDBRANCH   1   2
BRANCH   1  11
ATOM     11  C   UNL     1    -105.976 199.165  -0.602  1.00  0.00     0.028 C 
BRANCH  11  12
ATOM     12  C   UNL     1    -104.737 198.318  -0.771  1.00  0.00    -0.028 C 
ATOM     13  C   UNL     1    -104.223 197.509   0.183  1.00  0.00    -0.080 C 
ATOM     14  C   UNL     1    -103.000 196.695  -0.152  1.00  0.00     0.039 C 
ATOM     15  C   UNL     1    -104.820 197.419   1.567  1.00  0.00     0.039 C 
ENDBRANCH  11  12
ENDBRANCH   1  11
TORSDOF 4
ENDMDL
