MODEL 1
REMARK VINA RESULT:    -3.801      0.000      0.000
REMARK INTER + INTRA:          -9.463
REMARK INTER:                  -6.913
REMARK INTRA:                  -2.550
REMARK UNBOUND:                -2.550
REMARK SMILES CCCCCCCCCCCCCCCC(=O)[O-]
REMARK SMILES IDX 9 1 10 2 11 3 12 4 13 5 14 6 15 7 16 8 17 9 18 10 8 11 7 12
REMARK SMILES IDX 6 13 5 14 4 15 3 16 2 17 1 18
REMARK H PARENT
REMARK Flexibility Score: inf
ROOT
ATOM      1  C   UNL     1       8.308  26.423  27.353  1.00  0.00     0.000 C 
ENDROOT
BRANCH   1   2
ATOM      2  C   UNL     1       7.444  27.149  28.397  1.00  0.00     0.000 C 
BRANCH   2   3
ATOM      3  C   UNL     1       7.768  28.650  28.492  1.00  0.00     0.000 C 
BRANCH   3   4
ATOM      4  C   UNL     1       8.927  29.068  27.570  1.00  0.00     0.000 C 
BRANCH   4   5
ATOM      5  C   UNL     1       9.025  30.582  27.293  1.00  0.00     0.000 C 
BRANCH   5   6
ATOM      6  C   UNL     1       8.992  30.979  25.802  1.00  0.00     0.006 C 
BRANCH   6   7
ATOM      7  C   UNL     1       9.779  30.035  24.879  1.00  0.00     0.053 C 
BRANCH   7   8
ATOM      8  C   UNL     1      11.161  30.542  24.606  1.00  0.00     0.041 C 
ATOM      9  O   UNL     1      12.012  30.593  25.532  1.00  0.00    -0.550 OA
ATOM     10  O   UNL     1      11.500  30.990  23.335  1.00  0.00    -0.550 OA
ENDBRANCH   7   8
ENDBRANCH   6   7
ENDBRANCH   5   6
ENDBRANCH   4   5
ENDBRANCH   3   4
ENDBRANCH   2   3
ENDBRANCH   1   2
BRANCH   1  11
ATOM     11  C   UNL     1       7.587  25.220  26.725  1.00  0.00     0.000 C 
BRANCH  11  12
ATOM     12  C   UNL     1       7.285  25.473  25.243  1.00  0.00    -0.000 C 
BRANCH  12  13
ATOM     13  C   UNL     1       7.884  26.810  24.781  1.00  0.00    -0.000 C 
BRANCH  13  14
ATOM     14  C   UNL     1       6.839  27.735  24.138  1.00  0.00    -0.000 C 
BRANCH  14  15
ATOM     15  C   UNL     1       6.136  28.638  25.168  1.00  0.00    -0.000 C 
BRANCH  15  16
ATOM     16  C   UNL     1       4.602  28.559  25.082  1.00  0.00    -0.000 C 
BRANCH  16  17
ATOM     17  C   UNL     1       4.005  27.191  25.463  1.00  0.00    -0.003 C 
ATOM     18  C   UNL     1       4.014  26.933  26.969  1.00  0.00     0.004 C 
ENDBRANCH  16  17
ENDBRANCH  15  16
ENDBRANCH  14  15
ENDBRANCH  13  14
ENDBRANCH  12  13
ENDBRANCH  11  12
ENDBRANCH   1  11
TORSDOF 14
ENDMDL
MODEL 2
REMARK VINA RESULT:    -3.785      2.758      4.888
REMARK INTER + INTRA:          -9.433
REMARK INTER:                  -7.995
REMARK INTRA:                  -1.438
REMARK UNBOUND:                -2.550
REMARK SMILES CCCCCCCCCCCCCCCC(=O)[O-]
REMARK SMILES IDX 9 1 10 2 11 3 12 4 13 5 14 6 15 7 16 8 17 9 18 10 8 11 7 12
REMARK SMILES IDX 6 13 5 14 4 15 3 16 2 17 1 18
REMARK H PARENT
REMARK Flexibility Score: inf
ROOT
ATOM      1  C   UNL     1      11.350  31.810  30.793  1.00  0.00     0.000 C 
ENDROOT
BRANCH   1   2
ATOM      2  C   UNL     1      11.872  30.677  29.896  1.00  0.00     0.000 C 
BRANCH   2   3
ATOM      3  C   UNL     1      12.288  31.172  28.500  1.00  0.00     0.000 C 
BRANCH   3   4
ATOM      4  C   UNL     1      11.557  30.433  27.365  1.00  0.00     0.000 C 
BRANCH   4   5
ATOM      5  C   UNL     1      11.208  31.303  26.140  1.00  0.00     0.000 C 
BRANCH   5   6
ATOM      6  C   UNL     1       9.848  32.029  26.218  1.00  0.00     0.006 C 
BRANCH   6   7
ATOM      7  C   UNL     1       9.508  32.872  24.979  1.00  0.00     0.053 C 
BRANCH   7   8
ATOM      8  C   UNL     1      10.711  33.576  24.432  1.00  0.00     0.041 C 
ATOM      9  O   UNL     1      11.191  34.572  25.034  1.00  0.00    -0.550 OA
ATOM     10  O   UNL     1      11.281  33.154  23.238  1.00  0.00    -0.550 OA
ENDBRANCH   7   8
ENDBRANCH   6   7
ENDBRANCH   5   6
ENDBRANCH   4   5
ENDBRANCH   3   4
ENDBRANCH   2   3
ENDBRANCH   1   2
BRANCH   1  11
ATOM     11  C   UNL     1       9.859  31.654  31.132  1.00  0.00     0.000 C 
BRANCH  11  12
ATOM     12  C   UNL     1       9.005  31.639  29.859  1.00  0.00    -0.000 C 
BRANCH  12  13
ATOM     13  C   UNL     1       8.063  30.426  29.844  1.00  0.00    -0.000 C 
BRANCH  13  14
ATOM     14  C   UNL     1       8.330  29.486  28.657  1.00  0.00    -0.000 C 
BRANCH  14  15
ATOM     15  C   UNL     1       7.143  28.551  28.364  1.00  0.00    -0.000 C 
BRANCH  15  16
ATOM     16  C   UNL     1       7.585  27.126  27.986  1.00  0.00    -0.000 C 
BRANCH  16  17
ATOM     17  C   UNL     1       6.945  26.008  28.829  1.00  0.00    -0.003 C 
ATOM     18  C   UNL     1       6.602  26.453  30.250  1.00  0.00     0.004 C 
ENDBRANCH  16  17
ENDBRANCH  15  16
ENDBRANCH  14  15
ENDBRANCH  13  14
ENDBRANCH  12  13
ENDBRANCH  11  12
ENDBRANCH   1  11
TORSDOF 14
ENDMDL
MODEL 3
REMARK VINA RESULT:    -3.714      2.705      4.511
REMARK INTER + INTRA:          -9.305
REMARK INTER:                  -7.405
REMARK INTRA:                  -1.900
REMARK UNBOUND:                -2.550
REMARK SMILES CCCCCCCCCCCCCCCC(=O)[O-]
REMARK SMILES IDX 9 1 10 2 11 3 12 4 13 5 14 6 15 7 16 8 17 9 18 10 8 11 7 12
REMARK SMILES IDX 6 13 5 14 4 15 3 16 2 17 1 18
REMARK H PARENT
REMARK Flexibility Score: inf
ROOT
ATOM      1  C   UNL     1       8.672  29.503  26.438  1.00  0.00     0.000 C 
ENDROOT
BRANCH   1   2
ATOM      2  C   UNL     1       8.166  30.941  26.241  1.00  0.00     0.000 C 
BRANCH   2   3
ATOM      3  C   UNL     1       9.239  31.869  25.646  1.00  0.00     0.000 C 
BRANCH   3   4
ATOM      4  C   UNL     1      10.416  31.097  25.025  1.00  0.00     0.000 C 
BRANCH   4   5
ATOM      5  C   UNL     1      11.691  31.044  25.892  1.00  0.00     0.000 C 
BRANCH   5   6
ATOM      6  C   UNL     1      11.826  32.182  26.926  1.00  0.00     0.006 C 
BRANCH   6   7
ATOM      7  C   UNL     1      11.698  31.727  28.388  1.00  0.00     0.053 C 
BRANCH   7   8
ATOM      8  C   UNL     1      12.718  30.689  28.744  1.00  0.00     0.041 C 
ATOM      9  O   UNL     1      12.356  29.590  29.240  1.00  0.00    -0.550 OA
ATOM     10  O   UNL     1      14.070  30.951  28.561  1.00  0.00    -0.550 OA
ENDBRANCH   7   8
ENDBRANCH   6   7
ENDBRANCH   5   6
ENDBRANCH   4   5
ENDBRANCH   3   4
ENDBRANCH   2   3
ENDBRANCH   1   2
BRANCH   1  11
ATOM     11  C   UNL     1       9.078  29.215  27.891  1.00  0.00     0.000 C 
BRANCH  11  12
ATOM     12  C   UNL     1       8.369  30.170  28.859  1.00  0.00    -0.000 C 
BRANCH  12  13
ATOM     13  C   UNL     1       7.391  29.408  29.765  1.00  0.00    -0.000 C 
BRANCH  13  14
ATOM     14  C   UNL     1       6.622  28.310  29.012  1.00  0.00    -0.000 C 
BRANCH  14  15
ATOM     15  C   UNL     1       6.783  26.924  29.660  1.00  0.00    -0.000 C 
BRANCH  15  16
ATOM     16  C   UNL     1       6.521  25.771  28.676  1.00  0.00    -0.000 C 
BRANCH  16  17
ATOM     17  C   UNL     1       7.045  26.011  27.248  1.00  0.00    -0.003 C 
ATOM     18  C   UNL     1       8.528  25.678  27.091  1.00  0.00     0.004 C 
ENDBRANCH  16  17
ENDBRANCH  15  16
ENDBRANCH  14  15
ENDBRANCH  13  14
ENDBRANCH  12  13
ENDBRANCH  11  12
ENDBRANCH   1  11
TORSDOF 14
ENDMDL
MODEL 4
REMARK VINA RESULT:    -3.708      2.771      4.274
REMARK INTER + INTRA:          -9.294
REMARK INTER:                  -6.889
REMARK INTRA:                  -2.405
REMARK UNBOUND:                -2.550
REMARK SMILES CCCCCCCCCCCCCCCC(=O)[O-]
REMARK SMILES IDX 9 1 10 2 11 3 12 4 13 5 14 6 15 7 16 8 17 9 18 10 8 11 7 12
REMARK SMILES IDX 6 13 5 14 4 15 3 16 2 17 1 18
REMARK H PARENT
REMARK Flexibility Score: inf
ROOT
ATOM      1  C   UNL     1       7.496  29.113  29.192  1.00  0.00     0.000 C 
ENDROOT
BRANCH   1   2
ATOM      2  C   UNL     1       8.031  30.520  28.881  1.00  0.00     0.000 C 
BRANCH   2   3
ATOM      3  C   UNL     1       8.966  30.539  27.659  1.00  0.00     0.000 C 
BRANCH   3   4
ATOM      4  C   UNL     1      10.066  29.466  27.734  1.00  0.00     0.000 C 
BRANCH   4   5
ATOM      5  C   UNL     1      11.506  30.013  27.810  1.00  0.00     0.000 C 
BRANCH   5   6
ATOM      6  C   UNL     1      12.085  30.141  29.235  1.00  0.00     0.006 C 
BRANCH   6   7
ATOM      7  C   UNL     1      12.369  31.584  29.676  1.00  0.00     0.053 C 
BRANCH   7   8
ATOM      8  C   UNL     1      11.118  32.307  30.071  1.00  0.00     0.041 C 
ATOM      9  O   UNL     1      10.523  32.007  31.139  1.00  0.00    -0.550 OA
ATOM     10  O   UNL     1      10.591  33.289  29.242  1.00  0.00    -0.550 OA
ENDBRANCH   7   8
ENDBRANCH   6   7
ENDBRANCH   5   6
ENDBRANCH   4   5
ENDBRANCH   3   4
ENDBRANCH   2   3
ENDBRANCH   1   2
BRANCH   1  11
ATOM     11  C   UNL     1       6.039  28.923  28.740  1.00  0.00     0.000 C 
BRANCH  11  12
ATOM     12  C   UNL     1       5.484  30.212  28.121  1.00  0.00    -0.000 C 
BRANCH  12  13
ATOM     13  C   UNL     1       5.237  30.036  26.616  1.00  0.00    -0.000 C 
BRANCH  13  14
ATOM     14  C   UNL     1       5.674  28.654  26.103  1.00  0.00    -0.000 C 
BRANCH  14  15
ATOM     15  C   UNL     1       6.836  28.736  25.098  1.00  0.00    -0.000 C 
BRANCH  15  16
ATOM     16  C   UNL     1       7.932  27.689  25.367  1.00  0.00    -0.000 C 
BRANCH  16  17
ATOM     17  C   UNL     1       7.489  26.505  26.246  1.00  0.00    -0.003 C 
ATOM     18  C   UNL     1       8.538  26.105  27.284  1.00  0.00     0.004 C 
ENDBRANCH  16  17
ENDBRANCH  15  16
ENDBRANCH  14  15
ENDBRANCH  13  14
ENDBRANCH  12  13
ENDBRANCH  11  12
ENDBRANCH   1  11
TORSDOF 14
ENDMDL
MODEL 5
REMARK VINA RESULT:    -3.653      3.090      5.113
REMARK INTER + INTRA:          -9.193
REMARK INTER:                  -7.499
REMARK INTRA:                  -1.693
REMARK UNBOUND:                -2.550
REMARK SMILES CCCCCCCCCCCCCCCC(=O)[O-]
REMARK SMILES IDX 9 1 10 2 11 3 12 4 13 5 14 6 15 7 16 8 17 9 18 10 8 11 7 12
REMARK SMILES IDX 6 13 5 14 4 15 3 16 2 17 1 18
REMARK H PARENT
REMARK Flexibility Score: inf
ROOT
ATOM      1  C   UNL     1      11.040  32.244  29.899  1.00  0.00     0.000 C 
ENDROOT
BRANCH   1   2
ATOM      2  C   UNL     1      12.563  32.112  30.054  1.00  0.00     0.000 C 
BRANCH   2   3
ATOM      3  C   UNL     1      13.181  31.150  29.025  1.00  0.00     0.000 C 
BRANCH   3   4
ATOM      4  C   UNL     1      12.129  30.508  28.104  1.00  0.00     0.000 C 
BRANCH   4   5
ATOM      5  C   UNL     1      12.095  31.064  26.665  1.00  0.00     0.000 C 
BRANCH   5   6
ATOM      6  C   UNL     1      10.703  31.077  26.001  1.00  0.00     0.006 C 
BRANCH   6   7
ATOM      7  C   UNL     1      10.056  32.468  25.914  1.00  0.00     0.053 C 
BRANCH   7   8
ATOM      8  C   UNL     1      10.803  33.377  24.986  1.00  0.00     0.041 C 
ATOM      9  O   UNL     1      10.994  33.041  23.788  1.00  0.00    -0.550 OA
ATOM     10  O   UNL     1      11.318  34.579  25.454  1.00  0.00    -0.550 OA
ENDBRANCH   7   8
ENDBRANCH   6   7
ENDBRANCH   5   6
ENDBRANCH   4   5
ENDBRANCH   3   4
ENDBRANCH   2   3
ENDBRANCH   1   2
BRANCH   1  11
ATOM     11  C   UNL     1      10.277  31.768  31.145  1.00  0.00     0.000 C 
BRANCH  11  12
ATOM     12  C   UNL     1       8.916  31.176  30.762  1.00  0.00    -0.000 C 
BRANCH  12  13
ATOM     13  C   UNL     1       8.754  31.112  29.237  1.00  0.00    -0.000 C 
BRANCH  13  14
ATOM     14  C   UNL     1       8.574  29.674  28.722  1.00  0.00    -0.000 C 
BRANCH  14  15
ATOM     15  C   UNL     1       7.121  29.183  28.838  1.00  0.00    -0.000 C 
BRANCH  15  16
ATOM     16  C   UNL     1       6.091  30.291  28.554  1.00  0.00    -0.000 C 
BRANCH  16  17
ATOM     17  C   UNL     1       5.845  30.575  27.061  1.00  0.00    -0.003 C 
ATOM     18  C   UNL     1       4.367  30.526  26.679  1.00  0.00     0.004 C 
ENDBRANCH  16  17
ENDBRANCH  15  16
ENDBRANCH  14  15
ENDBRANCH  13  14
ENDBRANCH  12  13
ENDBRANCH  11  12
ENDBRANCH   1  11
TORSDOF 14
ENDMDL
MODEL 6
REMARK VINA RESULT:    -3.648      1.744      3.373
REMARK INTER + INTRA:          -9.184
REMARK INTER:                  -6.732
REMARK INTRA:                  -2.452
REMARK UNBOUND:                -2.550
REMARK SMILES CCCCCCCCCCCCCCCC(=O)[O-]
REMARK SMILES IDX 9 1 10 2 11 3 12 4 13 5 14 6 15 7 16 8 17 9 18 10 8 11 7 12
REMARK SMILES IDX 6 13 5 14 4 15 3 16 2 17 1 18
REMARK H PARENT
REMARK Flexibility Score: inf
ROOT
ATOM      1  C   UNL     1       5.075  30.351  26.657  1.00  0.00     0.000 C 
ENDROOT
BRANCH   1   2
ATOM      2  C   UNL     1       6.577  30.677  26.629  1.00  0.00     0.000 C 
BRANCH   2   3
ATOM      3  C   UNL     1       7.414  29.674  27.441  1.00  0.00     0.000 C 
BRANCH   3   4
ATOM      4  C   UNL     1       8.628  29.141  26.659  1.00  0.00     0.000 C 
BRANCH   4   5
ATOM      5  C   UNL     1       8.841  29.782  25.272  1.00  0.00     0.000 C 
BRANCH   5   6
ATOM      6  C   UNL     1      10.057  30.727  25.167  1.00  0.00     0.006 C 
BRANCH   6   7
ATOM      7  C   UNL     1       9.841  32.109  25.804  1.00  0.00     0.053 C 
BRANCH   7   8
ATOM      8  C   UNL     1      10.642  32.280  27.058  1.00  0.00     0.041 C 
ATOM      9  O   UNL     1      11.891  32.429  26.997  1.00  0.00    -0.550 OA
ATOM     10  O   UNL     1      10.014  32.240  28.296  1.00  0.00    -0.550 OA
ENDBRANCH   7   8
ENDBRANCH   6   7
ENDBRANCH   5   6
ENDBRANCH   4   5
ENDBRANCH   3   4
ENDBRANCH   2   3
ENDBRANCH   1   2
BRANCH   1  11
ATOM     11  C   UNL     1       4.779  28.897  26.258  1.00  0.00     0.000 C 
BRANCH  11  12
ATOM     12  C   UNL     1       4.750  28.741  24.733  1.00  0.00    -0.000 C 
BRANCH  12  13
ATOM     13  C   UNL     1       5.846  27.777  24.257  1.00  0.00    -0.000 C 
BRANCH  13  14
ATOM     14  C   UNL     1       5.900  26.487  25.092  1.00  0.00    -0.000 C 
BRANCH  14  15
ATOM     15  C   UNL     1       7.340  26.005  25.343  1.00  0.00    -0.000 C 
BRANCH  15  16
ATOM     16  C   UNL     1       7.533  25.409  26.749  1.00  0.00    -0.000 C 
BRANCH  16  17
ATOM     17  C   UNL     1       6.435  25.780  27.762  1.00  0.00    -0.003 C 
ATOM     18  C   UNL     1       6.991  26.359  29.062  1.00  0.00     0.004 C 
ENDBRANCH  16  17
ENDBRANCH  15  16
ENDBRANCH  14  15
ENDBRANCH  13  14
ENDBRANCH  12  13
ENDBRANCH  11  12
ENDBRANCH   1  11
TORSDOF 14
ENDMDL
MODEL 7
REMARK VINA RESULT:    -3.645      2.020      4.271
REMARK INTER + INTRA:          -9.179
REMARK INTER:                  -6.586
REMARK INTRA:                  -2.593
REMARK UNBOUND:                -2.550
REMARK SMILES CCCCCCCCCCCCCCCC(=O)[O-]
REMARK SMILES IDX 9 1 10 2 11 3 12 4 13 5 14 6 15 7 16 8 17 9 18 10 8 11 7 12
REMARK SMILES IDX 6 13 5 14 4 15 3 16 2 17 1 18
REMARK H PARENT
REMARK Flexibility Score: inf
ROOT
ATOM      1  C   UNL     1       5.449  30.220  26.600  1.00  0.00     0.000 C 
ENDROOT
BRANCH   1   2
ATOM      2  C   UNL     1       5.487  29.172  25.476  1.00  0.00     0.000 C 
BRANCH   2   3
ATOM      3  C   UNL     1       6.910  28.657  25.197  1.00  0.00     0.000 C 
BRANCH   3   4
ATOM      4  C   UNL     1       7.999  29.549  25.819  1.00  0.00     0.000 C 
BRANCH   4   5
ATOM      5  C   UNL     1       9.089  28.793  26.607  1.00  0.00     0.000 C 
BRANCH   5   6
ATOM      6  C   UNL     1       9.840  29.636  27.659  1.00  0.00     0.006 C 
BRANCH   6   7
ATOM      7  C   UNL     1       9.435  31.118  27.689  1.00  0.00     0.053 C 
BRANCH   7   8
ATOM      8  C   UNL     1      10.621  32.026  27.584  1.00  0.00     0.041 C 
ATOM      9  O   UNL     1      10.635  33.124  28.200  1.00  0.00    -0.550 OA
ATOM     10  O   UNL     1      11.697  31.675  26.778  1.00  0.00    -0.550 OA
ENDBRANCH   7   8
ENDBRANCH   6   7
ENDBRANCH   5   6
ENDBRANCH   4   5
ENDBRANCH   3   4
ENDBRANCH   2   3
ENDBRANCH   1   2
BRANCH   1  11
ATOM     11  C   UNL     1       4.276  30.003  27.569  1.00  0.00     0.000 C 
BRANCH  11  12
ATOM     12  C   UNL     1       4.781  29.774  28.999  1.00  0.00    -0.000 C 
BRANCH  12  13
ATOM     13  C   UNL     1       6.289  30.046  29.099  1.00  0.00    -0.000 C 
BRANCH  13  14
ATOM     14  C   UNL     1       7.048  28.909  29.801  1.00  0.00    -0.000 C 
BRANCH  14  15
ATOM     15  C   UNL     1       6.152  27.694  30.098  1.00  0.00    -0.000 C 
BRANCH  15  16
ATOM     16  C   UNL     1       6.778  26.364  29.644  1.00  0.00    -0.000 C 
BRANCH  16  17
ATOM     17  C   UNL     1       6.985  26.236  28.123  1.00  0.00    -0.003 C 
ATOM     18  C   UNL     1       5.695  25.919  27.368  1.00  0.00     0.004 C 
ENDBRANCH  16  17
ENDBRANCH  15  16
ENDBRANCH  14  15
ENDBRANCH  13  14
ENDBRANCH  12  13
ENDBRANCH  11  12
ENDBRANCH   1  11
TORSDOF 14
ENDMDL
MODEL 8
REMARK VINA RESULT:    -3.607      2.050      3.365
REMARK INTER + INTRA:          -9.109
REMARK INTER:                  -7.006
REMARK INTRA:                  -2.103
REMARK UNBOUND:                -2.550
REMARK SMILES CCCCCCCCCCCCCCCC(=O)[O-]
REMARK SMILES IDX 9 1 10 2 11 3 12 4 13 5 14 6 15 7 16 8 17 9 18 10 8 11 7 12
REMARK SMILES IDX 6 13 5 14 4 15 3 16 2 17 1 18
REMARK H PARENT
REMARK Flexibility Score: inf
ROOT
ATOM      1  C   UNL     1       8.513  26.251  26.927  1.00  0.00     0.000 C 
ENDROOT
BRANCH   1   2
ATOM      2  C   UNL     1       8.197  27.464  26.040  1.00  0.00     0.000 C 
BRANCH   2   3
ATOM      3  C   UNL     1       8.891  28.749  26.525  1.00  0.00     0.000 C 
BRANCH   3   4
ATOM      4  C   UNL     1       8.632  29.951  25.600  1.00  0.00     0.000 C 
BRANCH   4   5
ATOM      5  C   UNL     1       9.045  31.320  26.179  1.00  0.00     0.000 C 
BRANCH   5   6
ATOM      6  C   UNL     1      10.549  31.471  26.491  1.00  0.00     0.006 C 
BRANCH   6   7
ATOM      7  C   UNL     1      10.878  31.566  27.989  1.00  0.00     0.053 C 
BRANCH   7   8
ATOM      8  C   UNL     1      12.207  30.955  28.311  1.00  0.00     0.041 C 
ATOM      9  O   UNL     1      13.265  31.459  27.852  1.00  0.00    -0.550 OA
ATOM     10  O   UNL     1      12.274  29.806  29.090  1.00  0.00    -0.550 OA
ENDBRANCH   7   8
ENDBRANCH   6   7
ENDBRANCH   5   6
ENDBRANCH   4   5
ENDBRANCH   3   4
ENDBRANCH   2   3
ENDBRANCH   1   2
BRANCH   1  11
ATOM     11  C   UNL     1       7.276  25.380  27.198  1.00  0.00     0.000 C 
BRANCH  11  12
ATOM     12  C   UNL     1       6.250  26.134  28.052  1.00  0.00    -0.000 C 
BRANCH  12  13
ATOM     13  C   UNL     1       6.893  26.666  29.341  1.00  0.00    -0.000 C 
BRANCH  13  14
ATOM     14  C   UNL     1       6.686  28.178  29.524  1.00  0.00    -0.000 C 
BRANCH  14  15
ATOM     15  C   UNL     1       5.640  28.753  28.553  1.00  0.00    -0.000 C 
BRANCH  15  16
ATOM     16  C   UNL     1       5.889  30.234  28.217  1.00  0.00    -0.000 C 
BRANCH  16  17
ATOM     17  C   UNL     1       5.248  30.712  26.901  1.00  0.00    -0.003 C 
ATOM     18  C   UNL     1       4.882  29.564  25.962  1.00  0.00     0.004 C 
ENDBRANCH  16  17
ENDBRANCH  15  16
ENDBRANCH  14  15
ENDBRANCH  13  14
ENDBRANCH  12  13
ENDBRANCH  11  12
ENDBRANCH   1  11
TORSDOF 14
ENDMDL
MODEL 9
REMARK VINA RESULT:    -3.606      1.873      3.073
REMARK INTER + INTRA:          -9.108
REMARK INTER:                  -6.633
REMARK INTRA:                  -2.475
REMARK UNBOUND:                -2.550
REMARK SMILES CCCCCCCCCCCCCCCC(=O)[O-]
REMARK SMILES IDX 9 1 10 2 11 3 12 4 13 5 14 6 15 7 16 8 17 9 18 10 8 11 7 12
REMARK SMILES IDX 6 13 5 14 4 15 3 16 2 17 1 18
REMARK H PARENT
REMARK Flexibility Score: inf
ROOT
ATOM      1  C   UNL     1       5.834  26.218  27.579  1.00  0.00     0.000 C 
ENDROOT
BRANCH   1   2
ATOM      2  C   UNL     1       7.048  25.352  27.207  1.00  0.00     0.000 C 
BRANCH   2   3
ATOM      3  C   UNL     1       8.365  26.146  27.215  1.00  0.00     0.000 C 
BRANCH   3   4
ATOM      4  C   UNL     1       8.194  27.577  27.753  1.00  0.00     0.000 C 
BRANCH   4   5
ATOM      5  C   UNL     1       8.775  28.686  26.852  1.00  0.00     0.000 C 
BRANCH   5   6
ATOM      6  C   UNL     1       8.436  30.128  27.287  1.00  0.00     0.006 C 
BRANCH   6   7
ATOM      7  C   UNL     1       8.429  31.150  26.140  1.00  0.00     0.053 C 
BRANCH   7   8
ATOM      8  C   UNL     1       9.612  32.066  26.197  1.00  0.00     0.041 C 
ATOM      9  O   UNL     1      10.284  32.168  27.257  1.00  0.00    -0.550 OA
ATOM     10  O   UNL     1       9.951  32.835  25.091  1.00  0.00    -0.550 OA
ENDBRANCH   7   8
ENDBRANCH   6   7
ENDBRANCH   5   6
ENDBRANCH   4   5
ENDBRANCH   3   4
ENDBRANCH   2   3
ENDBRANCH   1   2
BRANCH   1  11
ATOM     11  C   UNL     1       4.617  25.945  26.681  1.00  0.00     0.000 C 
BRANCH  11  12
ATOM     12  C   UNL     1       4.057  27.251  26.103  1.00  0.00    -0.000 C 
BRANCH  12  13
ATOM     13  C   UNL     1       5.191  28.173  25.631  1.00  0.00    -0.000 C 
BRANCH  13  14
ATOM     14  C   UNL     1       4.887  29.659  25.884  1.00  0.00    -0.000 C 
BRANCH  14  15
ATOM     15  C   UNL     1       4.060  29.884  27.162  1.00  0.00    -0.000 C 
BRANCH  15  16
ATOM     16  C   UNL     1       4.925  30.281  28.371  1.00  0.00    -0.000 C 
BRANCH  16  17
ATOM     17  C   UNL     1       5.076  29.186  29.443  1.00  0.00    -0.003 C 
ATOM     18  C   UNL     1       6.275  29.410  30.363  1.00  0.00     0.004 C 
ENDBRANCH  16  17
ENDBRANCH  15  16
ENDBRANCH  14  15
ENDBRANCH  13  14
ENDBRANCH  12  13
ENDBRANCH  11  12
ENDBRANCH   1  11
TORSDOF 14
ENDMDL
