MODEL 1
REMARK VINA RESULT:    -4.325      0.000      0.000
REMARK INTER + INTRA:          -4.589
REMARK INTER:                  -4.578
REMARK INTRA:                  -0.011
REMARK UNBOUND:                -0.011
REMARK SMILES O=Cc1ccccc1
REMARK SMILES IDX 6 1 5 2 4 3 3 4 8 5 7 6 2 7 1 8
REMARK H PARENT
REMARK Flexibility Score: inf
ROOT
ATOM      1  C   UNL     1       8.135   0.807  35.986  1.00  0.00     0.000 A 
ATOM      2  C   UNL     1       8.385   0.085  34.816  1.00  0.00     0.001 A 
ATOM      3  C   UNL     1       9.677   0.039  34.282  1.00  0.00     0.011 A 
ATOM      4  C   UNL     1      10.729   0.718  34.917  1.00  0.00     0.014 A 
ATOM      5  C   UNL     1      10.470   1.443  36.094  1.00  0.00     0.011 A 
ATOM      6  C   UNL     1       9.176   1.485  36.624  1.00  0.00     0.001 A 
ENDROOT
BRANCH   4   7
ATOM      7  C   UNL     1      12.086   0.661  34.341  1.00  0.00     0.260 C 
ATOM      8  O   UNL     1      13.104   0.598  35.081  1.00  0.00    -0.298 OA
ENDBRANCH   4   7
TORSDOF 1
ENDMDL
MODEL 2
REMARK VINA RESULT:    -4.321      0.081      1.715
REMARK INTER + INTRA:          -4.584
REMARK INTER:                  -4.572
REMARK INTRA:                  -0.012
REMARK UNBOUND:                -0.011
REMARK SMILES O=Cc1ccccc1
REMARK SMILES IDX 6 1 5 2 4 3 3 4 8 5 7 6 2 7 1 8
REMARK H PARENT
REMARK Flexibility Score: inf
ROOT
ATOM      1  C   UNL     1       8.154   0.771  35.983  1.00  0.00     0.000 A 
ATOM      2  C   UNL     1       9.171   1.476  36.632  1.00  0.00     0.001 A 
ATOM      3  C   UNL     1      10.473   1.459  36.121  1.00  0.00     0.011 A 
ATOM      4  C   UNL     1      10.767   0.733  34.956  1.00  0.00     0.014 A 
ATOM      5  C   UNL     1       9.737   0.025  34.308  1.00  0.00     0.011 A 
ATOM      6  C   UNL     1       8.437   0.046  34.823  1.00  0.00     0.001 A 
ENDROOT
BRANCH   4   7
ATOM      7  C   UNL     1      12.145   0.724  34.431  1.00  0.00     0.260 C 
ATOM      8  O   UNL     1      13.136   0.672  35.208  1.00  0.00    -0.298 OA
ENDBRANCH   4   7
TORSDOF 1
ENDMDL
MODEL 3
REMARK VINA RESULT:    -4.318      2.301      3.367
REMARK INTER + INTRA:          -4.581
REMARK INTER:                  -4.568
REMARK INTRA:                  -0.013
REMARK UNBOUND:                -0.011
REMARK SMILES O=Cc1ccccc1
REMARK SMILES IDX 6 1 5 2 4 3 3 4 8 5 7 6 2 7 1 8
REMARK H PARENT
REMARK Flexibility Score: inf
ROOT
ATOM      1  C   UNL     1      11.929   0.494  34.492  1.00  0.00     0.000 A 
ATOM      2  C   UNL     1      10.851  -0.130  33.858  1.00  0.00     0.001 A 
ATOM      3  C   UNL     1       9.555   0.027  34.362  1.00  0.00     0.011 A 
ATOM      4  C   UNL     1       9.330   0.809  35.506  1.00  0.00     0.014 A 
ATOM      5  C   UNL     1      10.422   1.433  36.138  1.00  0.00     0.011 A 
ATOM      6  C   UNL     1      11.715   1.274  35.631  1.00  0.00     0.001 A 
ENDROOT
BRANCH   4   7
ATOM      7  C   UNL     1       7.959   0.964  36.025  1.00  0.00     0.260 C 
ATOM      8  O   UNL     1       7.065   0.115  35.763  1.00  0.00    -0.298 OA
ENDBRANCH   4   7
TORSDOF 1
ENDMDL
MODEL 4
REMARK VINA RESULT:    -4.093      3.339      4.540
REMARK INTER + INTRA:          -4.343
REMARK INTER:                  -4.329
REMARK INTRA:                  -0.014
REMARK UNBOUND:                -0.011
REMARK SMILES O=Cc1ccccc1
REMARK SMILES IDX 6 1 5 2 4 3 3 4 8 5 7 6 2 7 1 8
REMARK H PARENT
REMARK Flexibility Score: inf
ROOT
ATOM      1  C   UNL     1       4.548  -1.599  36.852  1.00  0.00     0.000 A 
ATOM      2  C   UNL     1       4.733  -0.215  36.795  1.00  0.00     0.001 A 
ATOM      3  C   UNL     1       5.927   0.312  36.294  1.00  0.00     0.011 A 
ATOM      4  C   UNL     1       6.948  -0.544  35.848  1.00  0.00     0.014 A 
ATOM      5  C   UNL     1       6.753  -1.936  35.909  1.00  0.00     0.011 A 
ATOM      6  C   UNL     1       5.557  -2.458  36.410  1.00  0.00     0.001 A 
ENDROOT
BRANCH   4   7
ATOM      7  C   UNL     1       8.202   0.029  35.324  1.00  0.00     0.260 C 
ATOM      8  O   UNL     1       8.380   1.276  35.282  1.00  0.00    -0.298 OA
ENDBRANCH   4   7
TORSDOF 1
ENDMDL
MODEL 5
REMARK VINA RESULT:    -4.089      2.449      3.759
REMARK INTER + INTRA:          -4.339
REMARK INTER:                  -4.327
REMARK INTRA:                  -0.012
REMARK UNBOUND:                -0.011
REMARK SMILES O=Cc1ccccc1
REMARK SMILES IDX 6 1 5 2 4 3 3 4 8 5 7 6 2 7 1 8
REMARK H PARENT
REMARK Flexibility Score: inf
ROOT
ATOM      1  C   UNL     1      11.345   1.495  35.003  1.00  0.00     0.000 A 
ATOM      2  C   UNL     1      10.521   1.770  36.098  1.00  0.00     0.001 A 
ATOM      3  C   UNL     1       9.302   1.101  36.244  1.00  0.00     0.011 A 
ATOM      4  C   UNL     1       8.898   0.150  35.293  1.00  0.00     0.014 A 
ATOM      5  C   UNL     1       9.733  -0.121  34.193  1.00  0.00     0.011 A 
ATOM      6  C   UNL     1      10.951   0.551  34.051  1.00  0.00     0.001 A 
ENDROOT
BRANCH   4   7
ATOM      7  C   UNL     1       7.609  -0.547  35.461  1.00  0.00     0.260 C 
ATOM      8  O   UNL     1       6.595   0.059  35.901  1.00  0.00    -0.298 OA
ENDBRANCH   4   7
TORSDOF 1
ENDMDL
MODEL 6
REMARK VINA RESULT:    -4.074      2.401      3.403
REMARK INTER + INTRA:          -4.324
REMARK INTER:                  -4.310
REMARK INTRA:                  -0.014
REMARK UNBOUND:                -0.011
REMARK SMILES O=Cc1ccccc1
REMARK SMILES IDX 6 1 5 2 4 3 3 4 8 5 7 6 2 7 1 8
REMARK H PARENT
REMARK Flexibility Score: inf
ROOT
ATOM      1  C   UNL     1      11.254   0.234  34.172  1.00  0.00     0.000 A 
ATOM      2  C   UNL     1      10.482   1.370  34.427  1.00  0.00     0.001 A 
ATOM      3  C   UNL     1      11.074   2.512  34.976  1.00  0.00     0.011 A 
ATOM      4  C   UNL     1      12.445   2.524  35.276  1.00  0.00     0.014 A 
ATOM      5  C   UNL     1      13.216   1.376  35.017  1.00  0.00     0.011 A 
ATOM      6  C   UNL     1      12.620   0.237  34.467  1.00  0.00     0.001 A 
ENDROOT
BRANCH   4   7
ATOM      7  C   UNL     1      13.054   3.736  35.856  1.00  0.00     0.260 C 
ATOM      8  O   UNL     1      12.339   4.687  36.272  1.00  0.00    -0.298 OA
ENDBRANCH   4   7
TORSDOF 1
ENDMDL
MODEL 7
REMARK VINA RESULT:    -4.019     17.873     18.273
REMARK INTER + INTRA:          -4.265
REMARK INTER:                  -4.256
REMARK INTRA:                  -0.009
REMARK UNBOUND:                -0.011
REMARK SMILES O=Cc1ccccc1
REMARK SMILES IDX 6 1 5 2 4 3 3 4 8 5 7 6 2 7 1 8
REMARK H PARENT
REMARK Flexibility Score: inf
ROOT
ATOM      1  C   UNL     1      13.374 -11.973  46.832  1.00  0.00     0.000 A 
ATOM      2  C   UNL     1      13.815 -12.393  48.090  1.00  0.00     0.001 A 
ATOM      3  C   UNL     1      13.223 -11.880  49.248  1.00  0.00     0.011 A 
ATOM      4  C   UNL     1      12.184 -10.939  49.155  1.00  0.00     0.014 A 
ATOM      5  C   UNL     1      11.746 -10.521  47.885  1.00  0.00     0.011 A 
ATOM      6  C   UNL     1      12.342 -11.037  46.730  1.00  0.00     0.001 A 
ENDROOT
BRANCH   4   7
ATOM      7  C   UNL     1      11.571 -10.407  50.386  1.00  0.00     0.260 C 
ATOM      8  O   UNL     1      11.948  -9.310  50.879  1.00  0.00    -0.298 OA
ENDBRANCH   4   7
TORSDOF 1
ENDMDL
MODEL 8
REMARK VINA RESULT:    -4.004      2.106      2.106
REMARK INTER + INTRA:          -4.249
REMARK INTER:                  -4.241
REMARK INTRA:                  -0.009
REMARK UNBOUND:                -0.011
REMARK SMILES O=Cc1ccccc1
REMARK SMILES IDX 6 1 5 2 4 3 3 4 8 5 7 6 2 7 1 8
REMARK H PARENT
REMARK Flexibility Score: inf
ROOT
ATOM      1  C   UNL     1       8.675   0.950  36.378  1.00  0.00     0.000 A 
ATOM      2  C   UNL     1       8.274   0.952  35.039  1.00  0.00     0.001 A 
ATOM      3  C   UNL     1       9.073   1.564  34.068  1.00  0.00     0.011 A 
ATOM      4  C   UNL     1      10.281   2.182  34.432  1.00  0.00     0.014 A 
ATOM      5  C   UNL     1      10.677   2.177  35.782  1.00  0.00     0.011 A 
ATOM      6  C   UNL     1       9.875   1.563  36.748  1.00  0.00     0.001 A 
ENDROOT
BRANCH   4   7
ATOM      7  C   UNL     1      11.112   2.824  33.396  1.00  0.00     0.260 C 
ATOM      8  O   UNL     1      10.805   3.951  32.922  1.00  0.00    -0.298 OA
ENDBRANCH   4   7
TORSDOF 1
ENDMDL
MODEL 9
REMARK VINA RESULT:    -3.957     17.385     17.780
REMARK INTER + INTRA:          -4.200
REMARK INTER:                  -4.191
REMARK INTRA:                  -0.009
REMARK UNBOUND:                -0.011
REMARK SMILES O=Cc1ccccc1
REMARK SMILES IDX 6 1 5 2 4 3 3 4 8 5 7 6 2 7 1 8
REMARK H PARENT
REMARK Flexibility Score: inf
ROOT
ATOM      1  C   UNL     1      13.859 -12.331  48.272  1.00  0.00     0.000 A 
ATOM      2  C   UNL     1      13.159 -11.556  49.201  1.00  0.00     0.001 A 
ATOM      3  C   UNL     1      12.009 -10.862  48.811  1.00  0.00     0.011 A 
ATOM      4  C   UNL     1      11.551 -10.938  47.486  1.00  0.00     0.014 A 
ATOM      5  C   UNL     1      12.261 -11.720  46.556  1.00  0.00     0.011 A 
ATOM      6  C   UNL     1      13.410 -12.412  46.951  1.00  0.00     0.001 A 
ENDROOT
BRANCH   4   7
ATOM      7  C   UNL     1      10.337 -10.200  47.091  1.00  0.00     0.260 C 
ATOM      8  O   UNL     1       9.194 -10.717  47.213  1.00  0.00    -0.298 OA
ENDBRANCH   4   7
TORSDOF 1
ENDMDL
