MODEL 1
REMARK VINA RESULT:    -5.721      0.000      0.000
REMARK INTER + INTRA:         -17.968
REMARK INTER:                 -15.086
REMARK INTRA:                  -2.882
REMARK UNBOUND:                -2.882
REMARK SMILES CCCCCCCCCCCCCCCCCCCCCCCCCCCCCC(=O)[O-]
REMARK SMILES IDX 16 1 17 2 18 3 19 4 20 5 21 6 22 7 23 8 24 9 25 10 26 11
REMARK SMILES IDX 27 12 28 13 29 14 30 15 31 16 32 17 15 18 14 19 13 20 12 21
REMARK SMILES IDX 11 22 10 23 9 24 8 25 7 26 6 27 5 28 4 29 3 30 2 31 1 32
REMARK H PARENT
REMARK Flexibility Score: inf
ROOT
ATOM      1  C   UNL     1     -27.930  -2.801  24.452  1.00  0.00     0.000 C 
ENDROOT
BRANCH   1   2
ATOM      2  C   UNL     1     -28.951  -2.612  23.313  1.00  0.00     0.000 C 
BRANCH   2   3
ATOM      3  C   UNL     1     -30.341  -2.121  23.753  1.00  0.00     0.000 C 
BRANCH   3   4
ATOM      4  C   UNL     1     -30.943  -1.088  22.787  1.00  0.00     0.000 C 
BRANCH   4   5
ATOM      5  C   UNL     1     -30.000  -0.744  21.618  1.00  0.00     0.000 C 
BRANCH   5   6
ATOM      6  C   UNL     1     -30.296  -1.486  20.299  1.00  0.00     0.000 C 
BRANCH   6   7
ATOM      7  C   UNL     1     -29.116  -2.289  19.716  1.00  0.00     0.000 C 
BRANCH   7   8
ATOM      8  C   UNL     1     -28.127  -1.472  18.866  1.00  0.00     0.000 C 
BRANCH   8   9
ATOM      9  C   UNL     1     -27.920  -2.059  17.461  1.00  0.00     0.000 C 
BRANCH   9  10
ATOM     10  C   UNL     1     -29.088  -2.979  17.075  1.00  0.00     0.000 C 
BRANCH  10  11
ATOM     11  C   UNL     1     -28.620  -4.297  16.438  1.00  0.00     0.000 C 
BRANCH  11  12
ATOM     12  C   UNL     1     -29.184  -4.499  15.021  1.00  0.00     0.000 C 
BRANCH  12  13
ATOM     13  C   UNL     1     -28.452  -3.660  13.957  1.00  0.00     0.006 C 
BRANCH  13  14
ATOM     14  C   UNL     1     -26.931  -3.889  13.919  1.00  0.00     0.053 C 
BRANCH  14  15
ATOM     15  C   UNL     1     -26.149  -2.657  14.260  1.00  0.00     0.041 C 
ATOM     16  O   UNL     1     -24.939  -2.744  14.598  1.00  0.00    -0.550 OA
ATOM     17  O   UNL     1     -26.745  -1.406  14.160  1.00  0.00    -0.550 OA
ENDBRANCH  14  15
ENDBRANCH  13  14
ENDBRANCH  12  13
ENDBRANCH  11  12
ENDBRANCH  10  11
ENDBRANCH   9  10
ENDBRANCH   8   9
ENDBRANCH   7   8
ENDBRANCH   6   7
ENDBRANCH   5   6
ENDBRANCH   4   5
ENDBRANCH   3   4
ENDBRANCH   2   3
ENDBRANCH   1   2
BRANCH   1  18
ATOM     18  C   UNL     1     -26.696  -1.882  24.382  1.00  0.00     0.000 C 
BRANCH  18  19
ATOM     19  C   UNL     1     -26.679  -0.899  23.192  1.00  0.00     0.000 C 
BRANCH  19  20
ATOM     20  C   UNL     1     -26.971   0.569  23.556  1.00  0.00     0.000 C 
BRANCH  20  21
ATOM     21  C   UNL     1     -28.194   0.783  24.467  1.00  0.00     0.000 C 
BRANCH  21  22
ATOM     22  C   UNL     1     -27.867   0.739  25.977  1.00  0.00     0.000 C 
BRANCH  22  23
ATOM     23  C   UNL     1     -28.667  -0.317  26.762  1.00  0.00     0.000 C 
BRANCH  23  24
ATOM     24  C   UNL     1     -30.108   0.136  27.062  1.00  0.00    -0.000 C 
BRANCH  24  25
ATOM     25  C   UNL     1     -30.163   1.255  28.115  1.00  0.00    -0.000 C 
BRANCH  25  26
ATOM     26  C   UNL     1     -29.504   0.846  29.445  1.00  0.00    -0.000 C 
BRANCH  26  27
ATOM     27  C   UNL     1     -29.798   1.838  30.585  1.00  0.00    -0.000 C 
BRANCH  27  28
ATOM     28  C   UNL     1     -30.956   1.437  31.522  1.00  0.00    -0.000 C 
BRANCH  28  29
ATOM     29  C   UNL     1     -30.890   2.034  32.940  1.00  0.00    -0.000 C 
BRANCH  29  30
ATOM     30  C   UNL     1     -29.849   3.159  33.063  1.00  0.00    -0.000 C 
BRANCH  30  31
ATOM     31  C   UNL     1     -28.739   2.825  34.071  1.00  0.00    -0.003 C 
ATOM     32  C   UNL     1     -27.474   2.285  33.403  1.00  0.00     0.004 C 
ENDBRANCH  30  31
ENDBRANCH  29  30
ENDBRANCH  28  29
ENDBRANCH  27  28
ENDBRANCH  26  27
ENDBRANCH  25  26
ENDBRANCH  24  25
ENDBRANCH  23  24
ENDBRANCH  22  23
ENDBRANCH  21  22
ENDBRANCH  20  21
ENDBRANCH  19  20
ENDBRANCH  18  19
ENDBRANCH   1  18
TORSDOF 28
ENDMDL
MODEL 2
REMARK VINA RESULT:    -5.714      1.611      3.672
REMARK INTER + INTRA:         -17.949
REMARK INTER:                 -14.855
REMARK INTRA:                  -3.094
REMARK UNBOUND:                -2.882
REMARK SMILES CCCCCCCCCCCCCCCCCCCCCCCCCCCCCC(=O)[O-]
REMARK SMILES IDX 16 1 17 2 18 3 19 4 20 5 21 6 22 7 23 8 24 9 25 10 26 11
REMARK SMILES IDX 27 12 28 13 29 14 30 15 31 16 32 17 15 18 14 19 13 20 12 21
REMARK SMILES IDX 11 22 10 23 9 24 8 25 7 26 6 27 5 28 4 29 3 30 2 31 1 32
REMARK H PARENT
REMARK Flexibility Score: inf
ROOT
ATOM      1  C   UNL     1     -27.189   0.233  23.912  1.00  0.00     0.000 C 
ENDROOT
BRANCH   1   2
ATOM      2  C   UNL     1     -27.545   1.359  22.920  1.00  0.00     0.000 C 
BRANCH   2   3
ATOM      3  C   UNL     1     -29.028   1.431  22.515  1.00  0.00     0.000 C 
BRANCH   3   4
ATOM      4  C   UNL     1     -29.982   1.186  23.696  1.00  0.00     0.000 C 
BRANCH   4   5
ATOM      5  C   UNL     1     -31.101   0.181  23.361  1.00  0.00     0.000 C 
BRANCH   5   6
ATOM      6  C   UNL     1     -30.982  -1.189  24.059  1.00  0.00     0.000 C 
BRANCH   6   7
ATOM      7  C   UNL     1     -30.497  -2.345  23.161  1.00  0.00     0.000 C 
BRANCH   7   8
ATOM      8  C   UNL     1     -28.971  -2.544  23.121  1.00  0.00     0.000 C 
BRANCH   8   9
ATOM      9  C   UNL     1     -28.361  -2.199  21.754  1.00  0.00     0.000 C 
BRANCH   9  10
ATOM     10  C   UNL     1     -29.425  -1.620  20.809  1.00  0.00     0.000 C 
BRANCH  10  11
ATOM     11  C   UNL     1     -28.814  -0.827  19.642  1.00  0.00     0.000 C 
BRANCH  11  12
ATOM     12  C   UNL     1     -27.927  -1.701  18.739  1.00  0.00     0.000 C 
BRANCH  12  13
ATOM     13  C   UNL     1     -28.738  -2.604  17.790  1.00  0.00     0.006 C 
BRANCH  13  14
ATOM     14  C   UNL     1     -28.298  -2.520  16.318  1.00  0.00     0.053 C 
BRANCH  14  15
ATOM     15  C   UNL     1     -29.127  -3.379  15.414  1.00  0.00     0.041 C 
ATOM     16  O   UNL     1     -28.692  -4.492  15.018  1.00  0.00    -0.550 OA
ATOM     17  O   UNL     1     -30.402  -2.970  15.044  1.00  0.00    -0.550 OA
ENDBRANCH  14  15
ENDBRANCH  13  14
ENDBRANCH  12  13
ENDBRANCH  11  12
ENDBRANCH  10  11
ENDBRANCH   9  10
ENDBRANCH   8   9
ENDBRANCH   7   8
ENDBRANCH   6   7
ENDBRANCH   5   6
ENDBRANCH   4   5
ENDBRANCH   3   4
ENDBRANCH   2   3
ENDBRANCH   1   2
BRANCH   1  18
ATOM     18  C   UNL     1     -27.443   0.565  25.395  1.00  0.00     0.000 C 
BRANCH  18  19
ATOM     19  C   UNL     1     -28.010  -0.598  26.237  1.00  0.00     0.000 C 
BRANCH  19  20
ATOM     20  C   UNL     1     -28.775  -0.172  27.504  1.00  0.00     0.000 C 
BRANCH  20  21
ATOM     21  C   UNL     1     -29.846   0.914  27.284  1.00  0.00     0.000 C 
BRANCH  21  22
ATOM     22  C   UNL     1     -30.153   1.756  28.543  1.00  0.00     0.000 C 
BRANCH  22  23
ATOM     23  C   UNL     1     -30.423   0.920  29.807  1.00  0.00     0.000 C 
BRANCH  23  24
ATOM     24  C   UNL     1     -30.661   1.792  31.053  1.00  0.00    -0.000 C 
BRANCH  24  25
ATOM     25  C   UNL     1     -31.649   1.148  32.039  1.00  0.00    -0.000 C 
BRANCH  25  26
ATOM     26  C   UNL     1     -32.358   2.186  32.928  1.00  0.00    -0.000 C 
BRANCH  26  27
ATOM     27  C   UNL     1     -31.482   2.661  34.102  1.00  0.00    -0.000 C 
BRANCH  27  28
ATOM     28  C   UNL     1     -30.428   3.728  33.744  1.00  0.00    -0.000 C 
BRANCH  28  29
ATOM     29  C   UNL     1     -28.976   3.361  34.101  1.00  0.00    -0.000 C 
BRANCH  29  30
ATOM     30  C   UNL     1     -28.709   1.849  34.025  1.00  0.00    -0.000 C 
BRANCH  30  31
ATOM     31  C   UNL     1     -27.581   1.500  33.041  1.00  0.00    -0.003 C 
ATOM     32  C   UNL     1     -27.068   2.717  32.271  1.00  0.00     0.004 C 
ENDBRANCH  30  31
ENDBRANCH  29  30
ENDBRANCH  28  29
ENDBRANCH  27  28
ENDBRANCH  26  27
ENDBRANCH  25  26
ENDBRANCH  24  25
ENDBRANCH  23  24
ENDBRANCH  22  23
ENDBRANCH  21  22
ENDBRANCH  20  21
ENDBRANCH  19  20
ENDBRANCH  18  19
ENDBRANCH   1  18
TORSDOF 28
ENDMDL
MODEL 3
REMARK VINA RESULT:    -5.586      1.778      3.328
REMARK INTER + INTRA:         -17.611
REMARK INTER:                 -15.128
REMARK INTRA:                  -2.483
REMARK UNBOUND:                -2.882
REMARK SMILES CCCCCCCCCCCCCCCCCCCCCCCCCCCCCC(=O)[O-]
REMARK SMILES IDX 16 1 17 2 18 3 19 4 20 5 21 6 22 7 23 8 24 9 25 10 26 11
REMARK SMILES IDX 27 12 28 13 29 14 30 15 31 16 32 17 15 18 14 19 13 20 12 21
REMARK SMILES IDX 11 22 10 23 9 24 8 25 7 26 6 27 5 28 4 29 3 30 2 31 1 32
REMARK H PARENT
REMARK Flexibility Score: inf
ROOT
ATOM      1  C   UNL     1     -30.274  -1.722  24.031  1.00  0.00     0.000 C 
ENDROOT
BRANCH   1   2
ATOM      2  C   UNL     1     -29.041  -2.576  23.672  1.00  0.00     0.000 C 
BRANCH   2   3
ATOM      3  C   UNL     1     -27.707  -2.077  24.254  1.00  0.00     0.000 C 
BRANCH   3   4
ATOM      4  C   UNL     1     -27.082  -0.942  23.426  1.00  0.00     0.000 C 
BRANCH   4   5
ATOM      5  C   UNL     1     -27.298  -1.119  21.911  1.00  0.00     0.000 C 
BRANCH   5   6
ATOM      6  C   UNL     1     -28.388  -0.219  21.296  1.00  0.00     0.000 C 
BRANCH   6   7
ATOM      7  C   UNL     1     -28.990  -0.726  19.970  1.00  0.00     0.000 C 
BRANCH   7   8
ATOM      8  C   UNL     1     -28.093  -1.690  19.173  1.00  0.00     0.000 C 
BRANCH   8   9
ATOM      9  C   UNL     1     -28.880  -2.537  18.160  1.00  0.00     0.000 C 
BRANCH   9  10
ATOM     10  C   UNL     1     -28.031  -2.827  16.913  1.00  0.00     0.000 C 
BRANCH  10  11
ATOM     11  C   UNL     1     -27.910  -1.610  15.982  1.00  0.00     0.000 C 
BRANCH  11  12
ATOM     12  C   UNL     1     -27.425  -1.993  14.573  1.00  0.00     0.000 C 
BRANCH  12  13
ATOM     13  C   UNL     1     -28.166  -3.213  13.993  1.00  0.00     0.006 C 
BRANCH  13  14
ATOM     14  C   UNL     1     -29.700  -3.099  14.052  1.00  0.00     0.053 C 
BRANCH  14  15
ATOM     15  C   UNL     1     -30.360  -4.371  14.487  1.00  0.00     0.041 C 
ATOM     16  O   UNL     1     -29.670  -5.394  14.736  1.00  0.00    -0.550 OA
ATOM     17  O   UNL     1     -31.738  -4.415  14.661  1.00  0.00    -0.550 OA
ENDBRANCH  14  15
ENDBRANCH  13  14
ENDBRANCH  12  13
ENDBRANCH  11  12
ENDBRANCH  10  11
ENDBRANCH   9  10
ENDBRANCH   8   9
ENDBRANCH   7   8
ENDBRANCH   6   7
ENDBRANCH   5   6
ENDBRANCH   4   5
ENDBRANCH   3   4
ENDBRANCH   2   3
ENDBRANCH   1   2
BRANCH   1  18
ATOM     18  C   UNL     1     -30.239  -1.082  25.432  1.00  0.00     0.000 C 
BRANCH  18  19
ATOM     19  C   UNL     1     -30.122   0.457  25.445  1.00  0.00     0.000 C 
BRANCH  19  20
ATOM     20  C   UNL     1     -29.355   1.042  26.646  1.00  0.00     0.000 C 
BRANCH  20  21
ATOM     21  C   UNL     1     -30.154   1.097  27.963  1.00  0.00     0.000 C 
BRANCH  21  22
ATOM     22  C   UNL     1     -29.277   1.016  29.233  1.00  0.00     0.000 C 
BRANCH  22  23
ATOM     23  C   UNL     1     -30.027   1.349  30.535  1.00  0.00     0.000 C 
BRANCH  23  24
ATOM     24  C   UNL     1     -30.602   2.778  30.536  1.00  0.00    -0.000 C 
BRANCH  24  25
ATOM     25  C   UNL     1     -31.501   3.046  31.754  1.00  0.00    -0.000 C 
BRANCH  25  26
ATOM     26  C   UNL     1     -31.478   1.891  32.771  1.00  0.00    -0.000 C 
BRANCH  26  27
ATOM     27  C   UNL     1     -30.679   2.232  34.042  1.00  0.00    -0.000 C 
BRANCH  27  28
ATOM     28  C   UNL     1     -30.165   3.684  34.125  1.00  0.00    -0.000 C 
BRANCH  28  29
ATOM     29  C   UNL     1     -28.633   3.839  34.094  1.00  0.00    -0.000 C 
BRANCH  29  30
ATOM     30  C   UNL     1     -28.050   3.717  32.677  1.00  0.00    -0.000 C 
BRANCH  30  31
ATOM     31  C   UNL     1     -26.956   2.643  32.581  1.00  0.00    -0.003 C 
ATOM     32  C   UNL     1     -27.477   1.237  32.883  1.00  0.00     0.004 C 
ENDBRANCH  30  31
ENDBRANCH  29  30
ENDBRANCH  28  29
ENDBRANCH  27  28
ENDBRANCH  26  27
ENDBRANCH  25  26
ENDBRANCH  24  25
ENDBRANCH  23  24
ENDBRANCH  22  23
ENDBRANCH  21  22
ENDBRANCH  20  21
ENDBRANCH  19  20
ENDBRANCH  18  19
ENDBRANCH   1  18
TORSDOF 28
ENDMDL
MODEL 4
REMARK VINA RESULT:    -5.519      5.139     13.993
REMARK INTER + INTRA:         -17.436
REMARK INTER:                 -15.122
REMARK INTRA:                  -2.313
REMARK UNBOUND:                -2.882
REMARK SMILES CCCCCCCCCCCCCCCCCCCCCCCCCCCCCC(=O)[O-]
REMARK SMILES IDX 16 1 17 2 18 3 19 4 20 5 21 6 22 7 23 8 24 9 25 10 26 11
REMARK SMILES IDX 27 12 28 13 29 14 30 15 31 16 32 17 15 18 14 19 13 20 12 21
REMARK SMILES IDX 11 22 10 23 9 24 8 25 7 26 6 27 5 28 4 29 3 30 2 31 1 32
REMARK H PARENT
REMARK Flexibility Score: inf
ROOT
ATOM      1  C   UNL     1     -31.343  -1.535  24.796  1.00  0.00     0.000 C 
ENDROOT
BRANCH   1   2
ATOM      2  C   UNL     1     -30.837  -0.529  25.849  1.00  0.00     0.000 C 
BRANCH   2   3
ATOM      3  C   UNL     1     -29.394  -0.757  26.333  1.00  0.00     0.000 C 
BRANCH   3   4
ATOM      4  C   UNL     1     -28.947   0.273  27.384  1.00  0.00     0.000 C 
BRANCH   4   5
ATOM      5  C   UNL     1     -30.132   0.930  28.116  1.00  0.00     0.000 C 
BRANCH   5   6
ATOM      6  C   UNL     1     -29.794   1.546  29.489  1.00  0.00     0.000 C 
BRANCH   6   7
ATOM      7  C   UNL     1     -28.796   0.741  30.344  1.00  0.00     0.000 C 
BRANCH   7   8
ATOM      8  C   UNL     1     -29.006   0.848  31.866  1.00  0.00     0.000 C 
BRANCH   8   9
ATOM      9  C   UNL     1     -27.686   0.970  32.643  1.00  0.00     0.000 C 
BRANCH   9  10
ATOM     10  C   UNL     1     -27.245   2.438  32.746  1.00  0.00     0.000 C 
BRANCH  10  11
ATOM     11  C   UNL     1     -28.415   3.421  32.584  1.00  0.00     0.000 C 
BRANCH  11  12
ATOM     12  C   UNL     1     -28.975   3.897  33.936  1.00  0.00     0.000 C 
BRANCH  12  13
ATOM     13  C   UNL     1     -30.469   3.565  34.117  1.00  0.00     0.006 C 
BRANCH  13  14
ATOM     14  C   UNL     1     -31.231   3.371  32.795  1.00  0.00     0.053 C 
BRANCH  14  15
ATOM     15  C   UNL     1     -32.214   2.242  32.851  1.00  0.00     0.041 C 
ATOM     16  O   UNL     1     -33.071   2.098  31.940  1.00  0.00    -0.550 OA
ATOM     17  O   UNL     1     -32.154   1.320  33.889  1.00  0.00    -0.550 OA
ENDBRANCH  14  15
ENDBRANCH  13  14
ENDBRANCH  12  13
ENDBRANCH  11  12
ENDBRANCH  10  11
ENDBRANCH   9  10
ENDBRANCH   8   9
ENDBRANCH   7   8
ENDBRANCH   6   7
ENDBRANCH   5   6
ENDBRANCH   4   5
ENDBRANCH   3   4
ENDBRANCH   2   3
ENDBRANCH   1   2
BRANCH   1  18
ATOM     18  C   UNL     1     -30.551  -1.552  23.475  1.00  0.00     0.000 C 
BRANCH  18  19
ATOM     19  C   UNL     1     -30.784  -0.332  22.558  1.00  0.00     0.000 C 
BRANCH  19  20
ATOM     20  C   UNL     1     -29.774   0.817  22.733  1.00  0.00     0.000 C 
BRANCH  20  21
ATOM     21  C   UNL     1     -28.472   0.434  23.462  1.00  0.00     0.000 C 
BRANCH  21  22
ATOM     22  C   UNL     1     -27.329  -0.002  22.517  1.00  0.00     0.000 C 
BRANCH  22  23
ATOM     23  C   UNL     1     -27.751  -0.135  21.043  1.00  0.00     0.000 C 
BRANCH  23  24
ATOM     24  C   UNL     1     -27.437  -1.525  20.460  1.00  0.00    -0.000 C 
BRANCH  24  25
ATOM     25  C   UNL     1     -28.674  -2.437  20.421  1.00  0.00    -0.000 C 
BRANCH  25  26
ATOM     26  C   UNL     1     -29.245  -2.596  19.001  1.00  0.00    -0.000 C 
BRANCH  26  27
ATOM     27  C   UNL     1     -28.220  -2.251  17.904  1.00  0.00    -0.000 C 
BRANCH  27  28
ATOM     28  C   UNL     1     -28.393  -3.022  16.579  1.00  0.00    -0.000 C 
BRANCH  28  29
ATOM     29  C   UNL     1     -28.145  -2.196  15.304  1.00  0.00    -0.000 C 
BRANCH  29  30
ATOM     30  C   UNL     1     -28.722  -2.860  14.043  1.00  0.00    -0.000 C 
BRANCH  30  31
ATOM     31  C   UNL     1     -28.991  -4.360  14.239  1.00  0.00    -0.003 C 
ATOM     32  C   UNL     1     -30.444  -4.744  13.955  1.00  0.00     0.004 C 
ENDBRANCH  30  31
ENDBRANCH  29  30
ENDBRANCH  28  29
ENDBRANCH  27  28
ENDBRANCH  26  27
ENDBRANCH  25  26
ENDBRANCH  24  25
ENDBRANCH  23  24
ENDBRANCH  22  23
ENDBRANCH  21  22
ENDBRANCH  20  21
ENDBRANCH  19  20
ENDBRANCH  18  19
ENDBRANCH   1  18
TORSDOF 28
ENDMDL
MODEL 5
REMARK VINA RESULT:    -5.458      1.139      2.156
REMARK INTER + INTRA:         -17.272
REMARK INTER:                 -14.370
REMARK INTRA:                  -2.903
REMARK UNBOUND:                -2.882
REMARK SMILES CCCCCCCCCCCCCCCCCCCCCCCCCCCCCC(=O)[O-]
REMARK SMILES IDX 16 1 17 2 18 3 19 4 20 5 21 6 22 7 23 8 24 9 25 10 26 11
REMARK SMILES IDX 27 12 28 13 29 14 30 15 31 16 32 17 15 18 14 19 13 20 12 21
REMARK SMILES IDX 11 22 10 23 9 24 8 25 7 26 6 27 5 28 4 29 3 30 2 31 1 32
REMARK H PARENT
REMARK Flexibility Score: inf
ROOT
ATOM      1  C   UNL     1     -27.603  -1.445  23.741  1.00  0.00     0.000 C 
ENDROOT
BRANCH   1   2
ATOM      2  C   UNL     1     -28.564  -2.520  24.286  1.00  0.00     0.000 C 
BRANCH   2   3
ATOM      3  C   UNL     1     -29.899  -2.649  23.531  1.00  0.00     0.000 C 
BRANCH   3   4
ATOM      4  C   UNL     1     -30.875  -1.502  23.843  1.00  0.00     0.000 C 
BRANCH   4   5
ATOM      5  C   UNL     1     -31.030  -0.516  22.671  1.00  0.00     0.000 C 
BRANCH   5   6
ATOM      6  C   UNL     1     -30.506  -1.025  21.313  1.00  0.00     0.000 C 
BRANCH   6   7
ATOM      7  C   UNL     1     -29.347  -0.208  20.706  1.00  0.00     0.000 C 
BRANCH   7   8
ATOM      8  C   UNL     1     -28.265  -1.040  19.995  1.00  0.00     0.000 C 
BRANCH   8   9
ATOM      9  C   UNL     1     -28.628  -2.530  19.895  1.00  0.00     0.000 C 
BRANCH   9  10
ATOM     10  C   UNL     1     -29.045  -2.897  18.462  1.00  0.00     0.000 C 
BRANCH  10  11
ATOM     11  C   UNL     1     -28.090  -2.326  17.402  1.00  0.00     0.000 C 
BRANCH  11  12
ATOM     12  C   UNL     1     -28.666  -2.423  15.979  1.00  0.00     0.000 C 
BRANCH  12  13
ATOM     13  C   UNL     1     -27.870  -1.597  14.950  1.00  0.00     0.006 C 
BRANCH  13  14
ATOM     14  C   UNL     1     -27.167  -2.446  13.876  1.00  0.00     0.053 C 
BRANCH  14  15
ATOM     15  C   UNL     1     -26.000  -3.215  14.415  1.00  0.00     0.041 C 
ATOM     16  O   UNL     1     -25.954  -4.468  14.298  1.00  0.00    -0.550 OA
ATOM     17  O   UNL     1     -24.939  -2.542  15.008  1.00  0.00    -0.550 OA
ENDBRANCH  14  15
ENDBRANCH  13  14
ENDBRANCH  12  13
ENDBRANCH  11  12
ENDBRANCH  10  11
ENDBRANCH   9  10
ENDBRANCH   8   9
ENDBRANCH   7   8
ENDBRANCH   6   7
ENDBRANCH   5   6
ENDBRANCH   4   5
ENDBRANCH   3   4
ENDBRANCH   2   3
ENDBRANCH   1   2
BRANCH   1  18
ATOM     18  C   UNL     1     -27.945   0.001  24.143  1.00  0.00     0.000 C 
BRANCH  18  19
ATOM     19  C   UNL     1     -27.142   0.554  25.340  1.00  0.00     0.000 C 
BRANCH  19  20
ATOM     20  C   UNL     1     -27.904   0.584  26.678  1.00  0.00     0.000 C 
BRANCH  20  21
ATOM     21  C   UNL     1     -29.420   0.837  26.559  1.00  0.00     0.000 C 
BRANCH  21  22
ATOM     22  C   UNL     1     -30.114   1.135  27.907  1.00  0.00     0.000 C 
BRANCH  22  23
ATOM     23  C   UNL     1     -29.302   0.700  29.140  1.00  0.00     0.000 C 
BRANCH  23  24
ATOM     24  C   UNL     1     -29.676   1.495  30.405  1.00  0.00    -0.000 C 
BRANCH  24  25
ATOM     25  C   UNL     1     -30.805   2.507  30.148  1.00  0.00    -0.000 C 
BRANCH  25  26
ATOM     26  C   UNL     1     -31.478   2.982  31.448  1.00  0.00    -0.000 C 
BRANCH  26  27
ATOM     27  C   UNL     1     -31.652   1.850  32.477  1.00  0.00    -0.000 C 
BRANCH  27  28
ATOM     28  C   UNL     1     -30.935   2.072  33.825  1.00  0.00    -0.000 C 
BRANCH  28  29
ATOM     29  C   UNL     1     -30.489   3.519  34.100  1.00  0.00    -0.000 C 
BRANCH  29  30
ATOM     30  C   UNL     1     -28.964   3.697  34.024  1.00  0.00    -0.000 C 
BRANCH  30  31
ATOM     31  C   UNL     1     -28.269   2.517  33.326  1.00  0.00    -0.003 C 
ATOM     32  C   UNL     1     -26.758   2.714  33.191  1.00  0.00     0.004 C 
ENDBRANCH  30  31
ENDBRANCH  29  30
ENDBRANCH  28  29
ENDBRANCH  27  28
ENDBRANCH  26  27
ENDBRANCH  25  26
ENDBRANCH  24  25
ENDBRANCH  23  24
ENDBRANCH  22  23
ENDBRANCH  21  22
ENDBRANCH  20  21
ENDBRANCH  19  20
ENDBRANCH  18  19
ENDBRANCH   1  18
TORSDOF 28
ENDMDL
MODEL 6
REMARK VINA RESULT:    -5.374      1.207      3.619
REMARK INTER + INTRA:         -17.051
REMARK INTER:                 -14.350
REMARK INTRA:                  -2.701
REMARK UNBOUND:                -2.882
REMARK SMILES CCCCCCCCCCCCCCCCCCCCCCCCCCCCCC(=O)[O-]
REMARK SMILES IDX 16 1 17 2 18 3 19 4 20 5 21 6 22 7 23 8 24 9 25 10 26 11
REMARK SMILES IDX 27 12 28 13 29 14 30 15 31 16 32 17 15 18 14 19 13 20 12 21
REMARK SMILES IDX 11 22 10 23 9 24 8 25 7 26 6 27 5 28 4 29 3 30 2 31 1 32
REMARK H PARENT
REMARK Flexibility Score: inf
ROOT
ATOM      1  C   UNL     1     -28.560   1.245  23.243  1.00  0.00     0.000 C 
ENDROOT
BRANCH   1   2
ATOM      2  C   UNL     1     -27.229   0.807  23.886  1.00  0.00     0.000 C 
BRANCH   2   3
ATOM      3  C   UNL     1     -26.457  -0.281  23.118  1.00  0.00     0.000 C 
BRANCH   3   4
ATOM      4  C   UNL     1     -26.290  -1.578  23.927  1.00  0.00     0.000 C 
BRANCH   4   5
ATOM      5  C   UNL     1     -27.541  -1.930  24.755  1.00  0.00     0.000 C 
BRANCH   5   6
ATOM      6  C   UNL     1     -28.673  -2.621  23.969  1.00  0.00     0.000 C 
BRANCH   6   7
ATOM      7  C   UNL     1     -28.712  -2.310  22.459  1.00  0.00     0.000 C 
BRANCH   7   8
ATOM      8  C   UNL     1     -30.087  -1.877  21.918  1.00  0.00     0.000 C 
BRANCH   8   9
ATOM      9  C   UNL     1     -30.084  -1.647  20.399  1.00  0.00     0.000 C 
BRANCH   9  10
ATOM     10  C   UNL     1     -28.767  -1.000  19.945  1.00  0.00     0.000 C 
BRANCH  10  11
ATOM     11  C   UNL     1     -28.154  -1.700  18.721  1.00  0.00     0.000 C 
BRANCH  11  12
ATOM     12  C   UNL     1     -29.047  -2.830  18.181  1.00  0.00     0.000 C 
BRANCH  12  13
ATOM     13  C   UNL     1     -28.767  -3.163  16.703  1.00  0.00     0.006 C 
BRANCH  13  14
ATOM     14  C   UNL     1     -28.152  -1.999  15.907  1.00  0.00     0.053 C 
BRANCH  14  15
ATOM     15  C   UNL     1     -27.230  -2.463  14.820  1.00  0.00     0.041 C 
ATOM     16  O   UNL     1     -26.493  -1.639  14.217  1.00  0.00    -0.550 OA
ATOM     17  O   UNL     1     -27.151  -3.814  14.505  1.00  0.00    -0.550 OA
ENDBRANCH  14  15
ENDBRANCH  13  14
ENDBRANCH  12  13
ENDBRANCH  11  12
ENDBRANCH  10  11
ENDBRANCH   9  10
ENDBRANCH   8   9
ENDBRANCH   7   8
ENDBRANCH   6   7
ENDBRANCH   5   6
ENDBRANCH   4   5
ENDBRANCH   3   4
ENDBRANCH   2   3
ENDBRANCH   1   2
BRANCH   1  18
ATOM     18  C   UNL     1     -29.824   0.872  24.039  1.00  0.00     0.000 C 
BRANCH  18  19
ATOM     19  C   UNL     1     -29.772   1.210  25.544  1.00  0.00     0.000 C 
BRANCH  19  20
ATOM     20  C   UNL     1     -29.911   0.001  26.488  1.00  0.00     0.000 C 
BRANCH  20  21
ATOM     21  C   UNL     1     -30.625   0.296  27.822  1.00  0.00     0.000 C 
BRANCH  21  22
ATOM     22  C   UNL     1     -29.748   1.048  28.849  1.00  0.00     0.000 C 
BRANCH  22  23
ATOM     23  C   UNL     1     -30.502   2.131  29.642  1.00  0.00     0.000 C 
BRANCH  23  24
ATOM     24  C   UNL     1     -30.692   1.754  31.124  1.00  0.00    -0.000 C 
BRANCH  24  25
ATOM     25  C   UNL     1     -31.871   2.500  31.771  1.00  0.00    -0.000 C 
BRANCH  25  26
ATOM     26  C   UNL     1     -31.967   2.249  33.287  1.00  0.00    -0.000 C 
BRANCH  26  27
ATOM     27  C   UNL     1     -30.593   2.268  33.982  1.00  0.00    -0.000 C 
BRANCH  27  28
ATOM     28  C   UNL     1     -29.947   3.662  34.120  1.00  0.00    -0.000 C 
BRANCH  28  29
ATOM     29  C   UNL     1     -28.724   3.910  33.218  1.00  0.00    -0.000 C 
BRANCH  29  30
ATOM     30  C   UNL     1     -27.434   3.291  33.780  1.00  0.00    -0.000 C 
BRANCH  30  31
ATOM     31  C   UNL     1     -26.802   2.274  32.818  1.00  0.00    -0.003 C 
ATOM     32  C   UNL     1     -27.656   1.018  32.637  1.00  0.00     0.004 C 
ENDBRANCH  30  31
ENDBRANCH  29  30
ENDBRANCH  28  29
ENDBRANCH  27  28
ENDBRANCH  26  27
ENDBRANCH  25  26
ENDBRANCH  24  25
ENDBRANCH  23  24
ENDBRANCH  22  23
ENDBRANCH  21  22
ENDBRANCH  20  21
ENDBRANCH  19  20
ENDBRANCH  18  19
ENDBRANCH   1  18
TORSDOF 28
ENDMDL
MODEL 7
REMARK VINA RESULT:    -5.349      5.031     14.356
REMARK INTER + INTRA:         -16.986
REMARK INTER:                 -14.865
REMARK INTRA:                  -2.121
REMARK UNBOUND:                -2.882
REMARK SMILES CCCCCCCCCCCCCCCCCCCCCCCCCCCCCC(=O)[O-]
REMARK SMILES IDX 16 1 17 2 18 3 19 4 20 5 21 6 22 7 23 8 24 9 25 10 26 11
REMARK SMILES IDX 27 12 28 13 29 14 30 15 31 16 32 17 15 18 14 19 13 20 12 21
REMARK SMILES IDX 11 22 10 23 9 24 8 25 7 26 6 27 5 28 4 29 3 30 2 31 1 32
REMARK H PARENT
REMARK Flexibility Score: inf
ROOT
ATOM      1  C   UNL     1     -30.360  -1.682  24.420  1.00  0.00     0.000 C 
ENDROOT
BRANCH   1   2
ATOM      2  C   UNL     1     -28.957  -1.498  25.032  1.00  0.00     0.000 C 
BRANCH   2   3
ATOM      3  C   UNL     1     -28.892  -0.566  26.255  1.00  0.00     0.000 C 
BRANCH   3   4
ATOM      4  C   UNL     1     -30.221   0.161  26.522  1.00  0.00     0.000 C 
BRANCH   4   5
ATOM      5  C   UNL     1     -30.144   1.122  27.724  1.00  0.00     0.000 C 
BRANCH   5   6
ATOM      6  C   UNL     1     -29.079   0.765  28.781  1.00  0.00     0.000 C 
BRANCH   6   7
ATOM      7  C   UNL     1     -29.379   1.258  30.210  1.00  0.00     0.000 C 
BRANCH   7   8
ATOM      8  C   UNL     1     -28.805   0.380  31.337  1.00  0.00     0.000 C 
BRANCH   8   9
ATOM      9  C   UNL     1     -27.877   1.157  32.285  1.00  0.00     0.000 C 
BRANCH   9  10
ATOM     10  C   UNL     1     -28.611   1.538  33.579  1.00  0.00     0.000 C 
BRANCH  10  11
ATOM     11  C   UNL     1     -28.288   2.966  34.046  1.00  0.00     0.000 C 
BRANCH  11  12
ATOM     12  C   UNL     1     -29.427   3.955  33.743  1.00  0.00     0.000 C 
BRANCH  12  13
ATOM     13  C   UNL     1     -30.825   3.357  33.991  1.00  0.00     0.006 C 
BRANCH  13  14
ATOM     14  C   UNL     1     -31.613   3.057  32.703  1.00  0.00     0.053 C 
BRANCH  14  15
ATOM     15  C   UNL     1     -32.246   1.700  32.713  1.00  0.00     0.041 C 
ATOM     16  O   UNL     1     -32.441   1.096  33.800  1.00  0.00    -0.550 OA
ATOM     17  O   UNL     1     -32.664   1.120  31.521  1.00  0.00    -0.550 OA
ENDBRANCH  14  15
ENDBRANCH  13  14
ENDBRANCH  12  13
ENDBRANCH  11  12
ENDBRANCH  10  11
ENDBRANCH   9  10
ENDBRANCH   8   9
ENDBRANCH   7   8
ENDBRANCH   6   7
ENDBRANCH   5   6
ENDBRANCH   4   5
ENDBRANCH   3   4
ENDBRANCH   2   3
ENDBRANCH   1   2
BRANCH   1  18
ATOM     18  C   UNL     1     -30.470  -1.335  22.924  1.00  0.00     0.000 C 
BRANCH  18  19
ATOM     19  C   UNL     1     -30.050   0.104  22.554  1.00  0.00     0.000 C 
BRANCH  19  20
ATOM     20  C   UNL     1     -29.047   0.211  21.390  1.00  0.00     0.000 C 
BRANCH  20  21
ATOM     21  C   UNL     1     -27.744  -0.591  21.579  1.00  0.00     0.000 C 
BRANCH  21  22
ATOM     22  C   UNL     1     -27.575  -1.758  20.579  1.00  0.00     0.000 C 
BRANCH  22  23
ATOM     23  C   UNL     1     -28.084  -1.445  19.160  1.00  0.00     0.000 C 
BRANCH  23  24
ATOM     24  C   UNL     1     -29.042  -2.526  18.625  1.00  0.00    -0.000 C 
BRANCH  24  25
ATOM     25  C   UNL     1     -28.558  -3.132  17.297  1.00  0.00    -0.000 C 
BRANCH  25  26
ATOM     26  C   UNL     1     -29.705  -3.345  16.293  1.00  0.00    -0.000 C 
BRANCH  26  27
ATOM     27  C   UNL     1     -29.218  -3.898  14.941  1.00  0.00    -0.000 C 
BRANCH  27  28
ATOM     28  C   UNL     1     -28.639  -2.846  13.973  1.00  0.00    -0.000 C 
BRANCH  28  29
ATOM     29  C   UNL     1     -27.584  -1.904  14.582  1.00  0.00    -0.000 C 
BRANCH  29  30
ATOM     30  C   UNL     1     -26.221  -2.001  13.876  1.00  0.00    -0.000 C 
BRANCH  30  31
ATOM     31  C   UNL     1     -25.284  -3.019  14.545  1.00  0.00    -0.003 C 
ATOM     32  C   UNL     1     -25.406  -4.420  13.944  1.00  0.00     0.004 C 
ENDBRANCH  30  31
ENDBRANCH  29  30
ENDBRANCH  28  29
ENDBRANCH  27  28
ENDBRANCH  26  27
ENDBRANCH  25  26
ENDBRANCH  24  25
ENDBRANCH  23  24
ENDBRANCH  22  23
ENDBRANCH  21  22
ENDBRANCH  20  21
ENDBRANCH  19  20
ENDBRANCH  18  19
ENDBRANCH   1  18
TORSDOF 28
ENDMDL
