MODEL 1
REMARK VINA RESULT:     0.211      0.000      0.000
REMARK INTER + INTRA:           0.217
REMARK INTER:                   0.217
REMARK INTRA:                   0.000
REMARK UNBOUND:                 0.000
REMARK SMILES Nc1ncnc2nc[nH]c12
REMARK SMILES IDX 8 1 7 2 6 3 5 4 4 5 3 6 2 7 10 8 9 9 1 11
REMARK H PARENT 9 10 1 12 1 13
REMARK Flexibility Score: inf
ROOT
ATOM      1  C   UNL     1      15.199   6.080  22.754  1.00  0.00     0.199 A 
ATOM      2  N   UNL     1      14.004   6.039  23.405  1.00  0.00    -0.217 NA
ATOM      3  C   UNL     1      14.153   6.999  24.332  1.00  0.00     0.182 A 
ATOM      4  N   UNL     1      13.239   7.374  25.259  1.00  0.00    -0.215 NA
ATOM      5  C   UNL     1      13.572   8.379  26.125  1.00  0.00     0.226 A 
ATOM      6  N   UNL     1      14.802   8.984  26.050  1.00  0.00    -0.217 NA
ATOM      7  C   UNL     1      15.726   8.605  25.116  1.00  0.00     0.152 A 
ATOM      8  C   UNL     1      15.370   7.582  24.241  1.00  0.00     0.127 A 
ATOM      9  N   UNL     1      16.055   7.012  23.242  1.00  0.00    -0.340 N 
ATOM     10  H   UNL     1      17.021   7.227  22.908  1.00  0.00     0.168 HD
ENDROOT
BRANCH   7  11
ATOM     11  N   UNL     1      16.999   9.248  25.056  1.00  0.00    -0.382 N 
ATOM     12  H   UNL     1      17.481   9.536  25.936  1.00  0.00     0.158 HD
ATOM     13  H   UNL     1      17.469   9.442  24.144  1.00  0.00     0.158 HD
ENDBRANCH   7  11
TORSDOF 1
ENDMDL
MODEL 2
REMARK VINA RESULT:     0.529      1.117      2.955
REMARK INTER + INTRA:           0.545
REMARK INTER:                   0.545
REMARK INTRA:                   0.000
REMARK UNBOUND:                 0.000
REMARK SMILES Nc1ncnc2nc[nH]c12
REMARK SMILES IDX 8 1 7 2 6 3 5 4 4 5 3 6 2 7 10 8 9 9 1 11
REMARK H PARENT 9 10 1 12 1 13
REMARK Flexibility Score: inf
ROOT
ATOM      1  C   UNL     1      16.555   9.481  25.275  1.00  0.00     0.199 A 
ATOM      2  N   UNL     1      15.492   9.498  26.124  1.00  0.00    -0.217 NA
ATOM      3  C   UNL     1      14.723   8.511  25.637  1.00  0.00     0.182 A 
ATOM      4  N   UNL     1      13.526   8.105  26.125  1.00  0.00    -0.215 NA
ATOM      5  C   UNL     1      12.887   7.075  25.491  1.00  0.00     0.226 A 
ATOM      6  N   UNL     1      13.450   6.477  24.392  1.00  0.00    -0.217 NA
ATOM      7  C   UNL     1      14.657   6.886  23.898  1.00  0.00     0.152 A 
ATOM      8  C   UNL     1      15.295   7.934  24.556  1.00  0.00     0.127 A 
ATOM      9  N   UNL     1      16.465   8.536  24.305  1.00  0.00    -0.340 N 
ATOM     10  H   UNL     1      17.153   8.335  23.546  1.00  0.00     0.168 HD
ENDROOT
BRANCH   7  11
ATOM     11  N   UNL     1      15.224   6.248  22.753  1.00  0.00    -0.382 N 
ATOM     12  H   UNL     1      14.610   5.734  22.084  1.00  0.00     0.158 HD
ATOM     13  H   UNL     1      16.250   6.283  22.564  1.00  0.00     0.158 HD
ENDBRANCH   7  11
TORSDOF 1
ENDMDL
MODEL 3
REMARK VINA RESULT:     1.353      0.689      2.451
REMARK INTER + INTRA:           1.392
REMARK INTER:                   1.392
REMARK INTRA:                   0.000
REMARK UNBOUND:                 0.000
REMARK SMILES Nc1ncnc2nc[nH]c12
REMARK SMILES IDX 8 1 7 2 6 3 5 4 4 5 3 6 2 7 10 8 9 9 1 11
REMARK H PARENT 9 10 1 12 1 13
REMARK Flexibility Score: inf
ROOT
ATOM      1  C   UNL     1      15.033   5.871  22.979  1.00  0.00     0.199 A 
ATOM      2  N   UNL     1      16.022   6.798  23.093  1.00  0.00    -0.217 NA
ATOM      3  C   UNL     1      15.573   7.570  24.097  1.00  0.00     0.182 A 
ATOM      4  N   UNL     1      16.190   8.658  24.617  1.00  0.00    -0.215 NA
ATOM      5  C   UNL     1      15.575   9.321  25.643  1.00  0.00     0.226 A 
ATOM      6  N   UNL     1      14.365   8.889  26.125  1.00  0.00    -0.217 NA
ATOM      7  C   UNL     1      13.739   7.792  25.600  1.00  0.00     0.152 A 
ATOM      8  C   UNL     1      14.380   7.129  24.557  1.00  0.00     0.127 A 
ATOM      9  N   UNL     1      14.015   6.045  23.860  1.00  0.00    -0.340 N 
ATOM     10  H   UNL     1      13.154   5.464  23.961  1.00  0.00     0.168 HD
ENDROOT
BRANCH   7  11
ATOM     11  N   UNL     1      12.481   7.360  26.117  1.00  0.00    -0.382 N 
ATOM     12  H   UNL     1      12.431   6.524  26.740  1.00  0.00     0.158 HD
ATOM     13  H   UNL     1      11.596   7.865  25.888  1.00  0.00     0.158 HD
ENDBRANCH   7  11
TORSDOF 1
ENDMDL
MODEL 4
REMARK VINA RESULT:     2.477     15.539     17.044
REMARK INTER + INTRA:           2.549
REMARK INTER:                   2.549
REMARK INTRA:                   0.000
REMARK UNBOUND:                 0.000
REMARK SMILES Nc1ncnc2nc[nH]c12
REMARK SMILES IDX 8 1 7 2 6 3 5 4 4 5 3 6 2 7 10 8 9 9 1 11
REMARK H PARENT 9 10 1 12 1 13
REMARK Flexibility Score: inf
ROOT
ATOM      1  C   UNL     1       8.629   3.536  11.050  1.00  0.00     0.199 A 
ATOM      2  N   UNL     1       9.562   4.354  10.491  1.00  0.00    -0.217 NA
ATOM      3  C   UNL     1       8.807   5.178   9.745  1.00  0.00     0.182 A 
ATOM      4  N   UNL     1       9.248   6.197   8.970  1.00  0.00    -0.215 NA
ATOM      5  C   UNL     1       8.323   6.930   8.279  1.00  0.00     0.226 A 
ATOM      6  N   UNL     1       6.987   6.632   8.374  1.00  0.00    -0.217 NA
ATOM      7  C   UNL     1       6.540   5.603   9.155  1.00  0.00     0.152 A 
ATOM      8  C   UNL     1       7.494   4.868   9.852  1.00  0.00     0.127 A 
ATOM      9  N   UNL     1       7.356   3.824  10.679  1.00  0.00    -0.340 N 
ATOM     10  H   UNL     1       6.481   3.339  10.976  1.00  0.00     0.168 HD
ENDROOT
BRANCH   7  11
ATOM     11  N   UNL     1       5.145   5.312   9.238  1.00  0.00    -0.382 N 
ATOM     12  H   UNL     1       4.444   6.077   9.126  1.00  0.00     0.158 HD
ATOM     13  H   UNL     1       4.801   4.342   9.411  1.00  0.00     0.158 HD
ENDBRANCH   7  11
TORSDOF 1
ENDMDL
MODEL 5
REMARK VINA RESULT:     2.686      0.685      2.775
REMARK INTER + INTRA:           2.764
REMARK INTER:                   2.764
REMARK INTRA:                   0.000
REMARK UNBOUND:                 0.000
REMARK SMILES Nc1ncnc2nc[nH]c12
REMARK SMILES IDX 8 1 7 2 6 3 5 4 4 5 3 6 2 7 10 8 9 9 1 11
REMARK H PARENT 9 10 1 12 1 13
REMARK Flexibility Score: inf
ROOT
ATOM      1  C   UNL     1      12.921   7.783  26.125  1.00  0.00     0.199 A 
ATOM      2  N   UNL     1      12.787   6.795  25.199  1.00  0.00    -0.217 NA
ATOM      3  C   UNL     1      13.960   6.854  24.548  1.00  0.00     0.182 A 
ATOM      4  N   UNL     1      14.350   6.071  23.513  1.00  0.00    -0.215 NA
ATOM      5  C   UNL     1      15.590   6.281  22.976  1.00  0.00     0.226 A 
ATOM      6  N   UNL     1      16.410   7.261  23.478  1.00  0.00    -0.217 NA
ATOM      7  C   UNL     1      16.018   8.053  24.521  1.00  0.00     0.152 A 
ATOM      8  C   UNL     1      14.753   7.825  25.057  1.00  0.00     0.127 A 
ATOM      9  N   UNL     1      14.111   8.432  26.064  1.00  0.00    -0.340 N 
ATOM     10  H   UNL     1      14.439   9.218  26.666  1.00  0.00     0.168 HD
ENDROOT
BRANCH   7  11
ATOM     11  N   UNL     1      16.887   9.066  25.027  1.00  0.00    -0.382 N 
ATOM     12  H   UNL     1      16.597  10.068  24.992  1.00  0.00     0.158 HD
ATOM     13  H   UNL     1      17.817   8.829  25.438  1.00  0.00     0.158 HD
ENDBRANCH   7  11
TORSDOF 1
ENDMDL
MODEL 6
REMARK VINA RESULT:     2.980     15.807     16.974
REMARK INTER + INTRA:           3.067
REMARK INTER:                   3.067
REMARK INTRA:                   0.000
REMARK UNBOUND:                 0.000
REMARK SMILES Nc1ncnc2nc[nH]c12
REMARK SMILES IDX 8 1 7 2 6 3 5 4 4 5 3 6 2 7 10 8 9 9 1 11
REMARK H PARENT 9 10 1 12 1 13
REMARK Flexibility Score: inf
ROOT
ATOM      1  C   UNL     1       9.138   3.913  10.633  1.00  0.00     0.199 A 
ATOM      2  N   UNL     1       7.792   4.049  10.783  1.00  0.00    -0.217 NA
ATOM      3  C   UNL     1       7.510   5.039   9.920  1.00  0.00     0.182 A 
ATOM      4  N   UNL     1       6.289   5.572   9.675  1.00  0.00    -0.215 NA
ATOM      5  C   UNL     1       6.198   6.581   8.756  1.00  0.00     0.226 A 
ATOM      6  N   UNL     1       7.318   7.034   8.105  1.00  0.00    -0.217 NA
ATOM      7  C   UNL     1       8.551   6.497   8.352  1.00  0.00     0.152 A 
ATOM      8  C   UNL     1       8.626   5.471   9.289  1.00  0.00     0.127 A 
ATOM      9  N   UNL     1       9.677   4.767   9.728  1.00  0.00    -0.340 N 
ATOM     10  H   UNL     1      10.679   4.848   9.447  1.00  0.00     0.168 HD
ENDROOT
BRANCH   7  11
ATOM     11  N   UNL     1       9.702   6.984   7.663  1.00  0.00    -0.382 N 
ATOM     12  H   UNL     1       9.645   7.211   6.646  1.00  0.00     0.158 HD
ATOM     13  H   UNL     1      10.613   7.122   8.154  1.00  0.00     0.158 HD
ENDBRANCH   7  11
TORSDOF 1
ENDMDL
MODEL 7
REMARK VINA RESULT:     3.082      1.156      3.074
REMARK INTER + INTRA:           3.172
REMARK INTER:                   3.172
REMARK INTRA:                   0.000
REMARK UNBOUND:                 0.000
REMARK SMILES Nc1ncnc2nc[nH]c12
REMARK SMILES IDX 8 1 7 2 6 3 5 4 4 5 3 6 2 7 10 8 9 9 1 11
REMARK H PARENT 9 10 1 12 1 13
REMARK Flexibility Score: inf
ROOT
ATOM      1  C   UNL     1      12.692   7.362  25.594  1.00  0.00     0.199 A 
ATOM      2  N   UNL     1      13.394   8.401  26.125  1.00  0.00    -0.217 NA
ATOM      3  C   UNL     1      14.553   8.334  25.450  1.00  0.00     0.182 A 
ATOM      4  N   UNL     1      15.621   9.155  25.597  1.00  0.00    -0.215 NA
ATOM      5  C   UNL     1      16.721   8.930  24.816  1.00  0.00     0.226 A 
ATOM      6  N   UNL     1      16.733   7.898  23.911  1.00  0.00    -0.217 NA
ATOM      7  C   UNL     1      15.657   7.068  23.763  1.00  0.00     0.152 A 
ATOM      8  C   UNL     1      14.546   7.312  24.565  1.00  0.00     0.127 A 
ATOM      9  N   UNL     1      13.369   6.677  24.638  1.00  0.00    -0.340 N 
ATOM     10  H   UNL     1      13.039   5.849  24.094  1.00  0.00     0.168 HD
ENDROOT
BRANCH   7  11
ATOM     11  N   UNL     1      15.693   6.001  22.815  1.00  0.00    -0.382 N 
ATOM     12  H   UNL     1      16.532   5.383  22.756  1.00  0.00     0.158 HD
ATOM     13  H   UNL     1      14.892   5.818  22.171  1.00  0.00     0.158 HD
ENDBRANCH   7  11
TORSDOF 1
ENDMDL
MODEL 8
REMARK VINA RESULT:     3.112     16.350     17.503
REMARK INTER + INTRA:           3.203
REMARK INTER:                   3.203
REMARK INTRA:                   0.000
REMARK UNBOUND:                 0.000
REMARK SMILES Nc1ncnc2nc[nH]c12
REMARK SMILES IDX 8 1 7 2 6 3 5 4 4 5 3 6 2 7 10 8 9 9 1 11
REMARK H PARENT 9 10 1 12 1 13
REMARK Flexibility Score: inf
ROOT
ATOM      1  C   UNL     1       5.647   7.383   8.519  1.00  0.00     0.199 A 
ATOM      2  N   UNL     1       5.648   6.405   9.466  1.00  0.00    -0.217 NA
ATOM      3  C   UNL     1       6.917   5.967   9.420  1.00  0.00     0.182 A 
ATOM      4  N   UNL     1       7.457   4.980  10.175  1.00  0.00    -0.215 NA
ATOM      5  C   UNL     1       8.776   4.672   9.985  1.00  0.00     0.226 A 
ATOM      6  N   UNL     1       9.523   5.349   9.054  1.00  0.00    -0.217 NA
ATOM      7  C   UNL     1       8.979   6.344   8.291  1.00  0.00     0.152 A 
ATOM      8  C   UNL     1       7.635   6.646   8.497  1.00  0.00     0.127 A 
ATOM      9  N   UNL     1       6.847   7.554   7.909  1.00  0.00    -0.340 N 
ATOM     10  H   UNL     1       7.087   8.238   7.158  1.00  0.00     0.168 HD
ENDROOT
BRANCH   7  11
ATOM     11  N   UNL     1       9.774   7.035   7.328  1.00  0.00    -0.382 N 
ATOM     12  H   UNL     1       9.901   8.068   7.400  1.00  0.00     0.158 HD
ATOM     13  H   UNL     1      10.240   6.528   6.542  1.00  0.00     0.158 HD
ENDBRANCH   7  11
TORSDOF 1
ENDMDL
