MODEL 1
REMARK VINA RESULT:    -7.019      0.000      0.000
REMARK INTER + INTRA:          -7.635
REMARK INTER:                  -7.635
REMARK INTRA:                   0.000
REMARK UNBOUND:                 0.000
REMARK SMILES Cc1cc(O)c2c(c1)C(=O)c1cc(O)cc(O)c1C2=O
REMARK SMILES IDX 1 1 2 2 8 3 7 4 6 5 4 6 3 7 19 8 20 9 18 10 11 11 9 12 10 13
REMARK SMILES IDX 12 14 13 15 15 16 16 17 5 18 17 20 14 22
REMARK H PARENT 5 19 17 21 14 23
REMARK Flexibility Score: inf
ROOT
ATOM      1  C   UNL     1     166.914 150.766 145.877  1.00  0.00     0.044 C 
ATOM      2  C   UNL     1     167.265 149.309 145.935  1.00  0.00    -0.047 A 
ATOM      3  C   UNL     1     166.256 148.345 146.048  1.00  0.00     0.016 A 
ATOM      4  C   UNL     1     166.575 146.981 146.147  1.00  0.00     0.038 A 
ATOM      5  C   UNL     1     167.929 146.575 146.160  1.00  0.00     0.076 A 
ATOM      6  C   UNL     1     168.946 147.551 146.000  1.00  0.00     0.127 A 
ATOM      7  C   UNL     1     168.604 148.904 145.922  1.00  0.00     0.050 A 
ATOM      8  C   UNL     1     168.229 145.141 146.414  1.00  0.00     0.201 C 
ATOM      9  O   UNL     1     169.302 144.818 146.990  1.00  0.00    -0.288 OA
ATOM     10  C   UNL     1     167.186 144.113 146.164  1.00  0.00     0.076 A 
ATOM     11  C   UNL     1     165.834 144.524 146.152  1.00  0.00     0.041 A 
ATOM     12  C   UNL     1     165.499 145.966 146.235  1.00  0.00     0.194 C 
ATOM     13  O   UNL     1     164.296 146.329 146.353  1.00  0.00    -0.289 OA
ATOM     14  C   UNL     1     164.812 143.564 146.057  1.00  0.00     0.059 A 
ATOM     15  C   UNL     1     165.124 142.205 145.957  1.00  0.00     0.120 A 
ATOM     16  C   UNL     1     166.457 141.800 145.928  1.00  0.00     0.093 A 
ATOM     17  C   UNL     1     167.493 142.737 146.002  1.00  0.00     0.131 A 
ENDROOT
BRANCH   6  18
ATOM     18  O   UNL     1     170.298 147.221 145.879  1.00  0.00    -0.507 OA
ATOM     19  H   UNL     1     170.669 146.647 145.134  1.00  0.00     0.293 HD
ENDBRANCH   6  18
BRANCH  17  20
ATOM     20  O   UNL     1     168.800 142.264 145.875  1.00  0.00    -0.507 OA
ATOM     21  H   UNL     1     169.075 141.550 145.214  1.00  0.00     0.293 HD
ENDBRANCH  17  20
BRANCH  15  22
ATOM     22  O   UNL     1     164.114 141.249 145.875  1.00  0.00    -0.508 OA
ATOM     23  H   UNL     1     163.297 141.287 146.476  1.00  0.00     0.293 HD
ENDBRANCH  15  22
TORSDOF 3
ENDMDL
MODEL 2
REMARK VINA RESULT:    -6.978     11.195     12.771
REMARK INTER + INTRA:          -7.589
REMARK INTER:                  -7.589
REMARK INTRA:                   0.000
REMARK UNBOUND:                 0.000
REMARK SMILES Cc1cc(O)c2c(c1)C(=O)c1cc(O)cc(O)c1C2=O
REMARK SMILES IDX 1 1 2 2 8 3 7 4 6 5 4 6 3 7 19 8 20 9 18 10 11 11 9 12 10 13
REMARK SMILES IDX 12 14 13 15 15 16 16 17 5 18 17 20 14 22
REMARK H PARENT 5 19 17 21 14 23
REMARK Flexibility Score: inf
ROOT
ATOM      1  C   UNL     1     168.627 144.631 152.290  1.00  0.00     0.044 C 
ATOM      2  C   UNL     1     168.940 144.679 153.756  1.00  0.00    -0.047 A 
ATOM      3  C   UNL     1     170.238 144.970 154.191  1.00  0.00     0.016 A 
ATOM      4  C   UNL     1     170.551 144.974 155.560  1.00  0.00     0.038 A 
ATOM      5  C   UNL     1     169.556 144.654 156.511  1.00  0.00     0.076 A 
ATOM      6  C   UNL     1     168.231 144.403 156.068  1.00  0.00     0.127 A 
ATOM      7  C   UNL     1     167.948 144.387 154.699  1.00  0.00     0.050 A 
ATOM      8  C   UNL     1     169.961 144.524 157.935  1.00  0.00     0.201 C 
ATOM      9  O   UNL     1     169.342 143.731 158.693  1.00  0.00    -0.288 OA
ATOM     10  C   UNL     1     171.206 145.180 158.411  1.00  0.00     0.076 A 
ATOM     11  C   UNL     1     172.200 145.498 157.457  1.00  0.00     0.041 A 
ATOM     12  C   UNL     1     171.921 145.315 156.012  1.00  0.00     0.194 C 
ATOM     13  O   UNL     1     172.844 145.476 155.166  1.00  0.00    -0.289 OA
ATOM     14  C   UNL     1     173.444 145.992 157.882  1.00  0.00     0.059 A 
ATOM     15  C   UNL     1     173.703 146.186 159.241  1.00  0.00     0.120 A 
ATOM     16  C   UNL     1     172.712 145.911 160.182  1.00  0.00     0.093 A 
ATOM     17  C   UNL     1     171.458 145.437 159.784  1.00  0.00     0.131 A 
ENDROOT
BRANCH   6  18
ATOM     18  O   UNL     1     167.166 144.200 156.948  1.00  0.00    -0.507 OA
ATOM     19  H   UNL     1     166.331 144.770 156.956  1.00  0.00     0.293 HD
ENDBRANCH   6  18
BRANCH  17  20
ATOM     20  O   UNL     1     170.487 145.272 160.774  1.00  0.00    -0.507 OA
ATOM     21  H   UNL     1     169.764 144.567 160.734  1.00  0.00     0.293 HD
ENDBRANCH  17  20
BRANCH  15  22
ATOM     22  O   UNL     1     174.941 146.664 159.668  1.00  0.00    -0.508 OA
ATOM     23  H   UNL     1     175.801 146.396 159.203  1.00  0.00     0.293 HD
ENDBRANCH  15  22
TORSDOF 3
ENDMDL
MODEL 3
REMARK VINA RESULT:    -6.567      7.726      8.863
REMARK INTER + INTRA:          -7.143
REMARK INTER:                  -7.143
REMARK INTRA:                   0.000
REMARK UNBOUND:                 0.000
REMARK SMILES Cc1cc(O)c2c(c1)C(=O)c1cc(O)cc(O)c1C2=O
REMARK SMILES IDX 1 1 2 2 8 3 7 4 6 5 4 6 3 7 19 8 20 9 18 10 11 11 9 12 10 13
REMARK SMILES IDX 12 14 13 15 15 16 16 17 5 18 17 20 14 22
REMARK H PARENT 5 19 17 21 14 23
REMARK Flexibility Score: inf
ROOT
ATOM      1  C   UNL     1     170.433 144.646 148.193  1.00  0.00     0.044 C 
ATOM      2  C   UNL     1     170.521 144.088 149.583  1.00  0.00    -0.047 A 
ATOM      3  C   UNL     1     169.762 144.648 150.616  1.00  0.00     0.016 A 
ATOM      4  C   UNL     1     169.870 144.163 151.930  1.00  0.00     0.038 A 
ATOM      5  C   UNL     1     170.774 143.117 152.221  1.00  0.00     0.076 A 
ATOM      6  C   UNL     1     171.509 142.522 151.162  1.00  0.00     0.127 A 
ATOM      7  C   UNL     1     171.398 143.036 149.866  1.00  0.00     0.050 A 
ATOM      8  C   UNL     1     170.968 142.731 153.643  1.00  0.00     0.201 C 
ATOM      9  O   UNL     1     172.080 142.277 154.023  1.00  0.00    -0.288 OA
ATOM     10  C   UNL     1     169.921 143.058 154.645  1.00  0.00     0.076 A 
ATOM     11  C   UNL     1     169.019 144.106 154.351  1.00  0.00     0.041 A 
ATOM     12  C   UNL     1     169.038 144.741 153.011  1.00  0.00     0.194 C 
ATOM     13  O   UNL     1     168.325 145.758 152.785  1.00  0.00    -0.289 OA
ATOM     14  C   UNL     1     168.105 144.536 155.327  1.00  0.00     0.059 A 
ATOM     15  C   UNL     1     168.070 143.926 156.584  1.00  0.00     0.120 A 
ATOM     16  C   UNL     1     168.931 142.866 156.864  1.00  0.00     0.093 A 
ATOM     17  C   UNL     1     169.837 142.405 155.903  1.00  0.00     0.131 A 
ENDROOT
BRANCH   6  18
ATOM     18  O   UNL     1     172.329 141.406 151.344  1.00  0.00    -0.507 OA
ATOM     19  H   UNL     1     173.334 141.460 151.430  1.00  0.00     0.293 HD
ENDBRANCH   6  18
BRANCH  17  20
ATOM     20  O   UNL     1     170.602 141.282 156.224  1.00  0.00    -0.507 OA
ATOM     21  H   UNL     1     171.340 141.288 156.916  1.00  0.00     0.293 HD
ENDBRANCH  17  20
BRANCH  15  22
ATOM     22  O   UNL     1     167.174 144.358 157.559  1.00  0.00    -0.508 OA
ATOM     23  H   UNL     1     166.583 143.706 158.063  1.00  0.00     0.293 HD
ENDBRANCH  15  22
TORSDOF 3
ENDMDL
MODEL 4
REMARK VINA RESULT:    -6.427      8.175     10.124
REMARK INTER + INTRA:          -6.990
REMARK INTER:                  -6.990
REMARK INTRA:                   0.000
REMARK UNBOUND:                 0.000
REMARK SMILES Cc1cc(O)c2c(c1)C(=O)c1cc(O)cc(O)c1C2=O
REMARK SMILES IDX 1 1 2 2 8 3 7 4 6 5 4 6 3 7 19 8 20 9 18 10 11 11 9 12 10 13
REMARK SMILES IDX 12 14 13 15 15 16 16 17 5 18 17 20 14 22
REMARK H PARENT 5 19 17 21 14 23
REMARK Flexibility Score: inf
ROOT
ATOM      1  C   UNL     1     174.898 141.249 150.428  1.00  0.00     0.044 C 
ATOM      2  C   UNL     1     173.631 141.715 151.082  1.00  0.00    -0.047 A 
ATOM      3  C   UNL     1     173.668 142.723 152.052  1.00  0.00     0.016 A 
ATOM      4  C   UNL     1     172.493 143.137 152.701  1.00  0.00     0.038 A 
ATOM      5  C   UNL     1     171.263 142.512 152.395  1.00  0.00     0.076 A 
ATOM      6  C   UNL     1     171.224 141.522 151.379  1.00  0.00     0.127 A 
ATOM      7  C   UNL     1     172.410 141.115 150.760  1.00  0.00     0.050 A 
ATOM      8  C   UNL     1     170.071 142.872 153.207  1.00  0.00     0.201 C 
ATOM      9  O   UNL     1     169.162 142.022 153.398  1.00  0.00    -0.288 OA
ATOM     10  C   UNL     1     170.044 144.162 153.944  1.00  0.00     0.076 A 
ATOM     11  C   UNL     1     171.276 144.783 154.249  1.00  0.00     0.041 A 
ATOM     12  C   UNL     1     172.538 144.226 153.704  1.00  0.00     0.194 C 
ATOM     13  O   UNL     1     173.648 144.699 154.076  1.00  0.00    -0.289 OA
ATOM     14  C   UNL     1     171.299 145.928 155.062  1.00  0.00     0.059 A 
ATOM     15  C   UNL     1     170.111 146.469 155.560  1.00  0.00     0.120 A 
ATOM     16  C   UNL     1     168.890 145.882 155.229  1.00  0.00     0.093 A 
ATOM     17  C   UNL     1     168.838 144.753 154.405  1.00  0.00     0.131 A 
ENDROOT
BRANCH   6  18
ATOM     18  O   UNL     1     170.032 140.945 150.931  1.00  0.00    -0.507 OA
ATOM     19  H   UNL     1     169.990 140.241 150.208  1.00  0.00     0.293 HD
ENDBRANCH   6  18
BRANCH  17  20
ATOM     20  O   UNL     1     167.576 144.277 154.043  1.00  0.00    -0.507 OA
ATOM     21  H   UNL     1     166.711 144.670 154.387  1.00  0.00     0.293 HD
ENDBRANCH  17  20
BRANCH  15  22
ATOM     22  O   UNL     1     170.130 147.597 156.377  1.00  0.00    -0.508 OA
ATOM     23  H   UNL     1     170.839 147.722 157.092  1.00  0.00     0.293 HD
ENDBRANCH  15  22
TORSDOF 3
ENDMDL
MODEL 5
REMARK VINA RESULT:    -6.378      5.986      7.128
REMARK INTER + INTRA:          -6.937
REMARK INTER:                  -6.937
REMARK INTRA:                   0.000
REMARK UNBOUND:                 0.000
REMARK SMILES Cc1cc(O)c2c(c1)C(=O)c1cc(O)cc(O)c1C2=O
REMARK SMILES IDX 1 1 2 2 8 3 7 4 6 5 4 6 3 7 19 8 20 9 18 10 11 11 9 12 10 13
REMARK SMILES IDX 12 14 13 15 15 16 16 17 5 18 17 20 14 22
REMARK H PARENT 5 19 17 21 14 23
REMARK Flexibility Score: inf
ROOT
ATOM      1  C   UNL     1     171.876 146.951 147.154  1.00  0.00     0.044 C 
ATOM      2  C   UNL     1     171.544 145.895 148.166  1.00  0.00    -0.047 A 
ATOM      3  C   UNL     1     170.919 146.244 149.369  1.00  0.00     0.016 A 
ATOM      4  C   UNL     1     170.643 145.271 150.343  1.00  0.00     0.038 A 
ATOM      5  C   UNL     1     171.025 143.928 150.123  1.00  0.00     0.076 A 
ATOM      6  C   UNL     1     171.618 143.571 148.884  1.00  0.00     0.127 A 
ATOM      7  C   UNL     1     171.899 144.562 147.938  1.00  0.00     0.050 A 
ATOM      8  C   UNL     1     170.851 142.957 151.235  1.00  0.00     0.201 C 
ATOM      9  O   UNL     1     171.637 141.978 151.341  1.00  0.00    -0.288 OA
ATOM     10  C   UNL     1     169.879 143.246 152.320  1.00  0.00     0.076 A 
ATOM     11  C   UNL     1     169.500 144.590 152.538  1.00  0.00     0.041 A 
ATOM     12  C   UNL     1     169.952 145.645 151.599  1.00  0.00     0.194 C 
ATOM     13  O   UNL     1     169.725 146.859 151.858  1.00  0.00    -0.289 OA
ATOM     14  C   UNL     1     168.693 144.919 153.639  1.00  0.00     0.059 A 
ATOM     15  C   UNL     1     168.247 143.925 154.514  1.00  0.00     0.120 A 
ATOM     16  C   UNL     1     168.585 142.593 154.280  1.00  0.00     0.093 A 
ATOM     17  C   UNL     1     169.372 142.236 153.180  1.00  0.00     0.131 A 
ENDROOT
BRANCH   6  18
ATOM     18  O   UNL     1     171.912 142.250 148.539  1.00  0.00    -0.507 OA
ATOM     19  H   UNL     1     171.940 141.492 149.206  1.00  0.00     0.293 HD
ENDBRANCH   6  18
BRANCH  17  20
ATOM     20  O   UNL     1     169.593 140.875 152.960  1.00  0.00    -0.507 OA
ATOM     21  H   UNL     1     170.497 140.434 153.053  1.00  0.00     0.293 HD
ENDBRANCH  17  20
BRANCH  15  22
ATOM     22  O   UNL     1     167.456 144.249 155.615  1.00  0.00    -0.508 OA
ATOM     23  H   UNL     1     167.825 144.221 156.559  1.00  0.00     0.293 HD
ENDBRANCH  15  22
TORSDOF 3
ENDMDL
MODEL 6
REMARK VINA RESULT:    -6.288      7.370      9.061
REMARK INTER + INTRA:          -6.839
REMARK INTER:                  -6.839
REMARK INTRA:                   0.000
REMARK UNBOUND:                 0.000
REMARK SMILES Cc1cc(O)c2c(c1)C(=O)c1cc(O)cc(O)c1C2=O
REMARK SMILES IDX 1 1 2 2 8 3 7 4 6 5 4 6 3 7 19 8 20 9 18 10 11 11 9 12 10 13
REMARK SMILES IDX 12 14 13 15 15 16 16 17 5 18 17 20 14 22
REMARK H PARENT 5 19 17 21 14 23
REMARK Flexibility Score: inf
ROOT
ATOM      1  C   UNL     1     169.383 143.919 147.742  1.00  0.00     0.044 C 
ATOM      2  C   UNL     1     170.112 143.824 149.049  1.00  0.00    -0.047 A 
ATOM      3  C   UNL     1     169.837 144.732 150.077  1.00  0.00     0.016 A 
ATOM      4  C   UNL     1     170.545 144.680 151.289  1.00  0.00     0.038 A 
ATOM      5  C   UNL     1     171.566 143.719 151.466  1.00  0.00     0.076 A 
ATOM      6  C   UNL     1     171.810 142.771 150.438  1.00  0.00     0.127 A 
ATOM      7  C   UNL     1     171.105 142.856 149.234  1.00  0.00     0.050 A 
ATOM      8  C   UNL     1     172.391 143.790 152.701  1.00  0.00     0.201 C 
ATOM      9  O   UNL     1     173.589 143.403 152.677  1.00  0.00    -0.288 OA
ATOM     10  C   UNL     1     171.862 144.488 153.901  1.00  0.00     0.076 A 
ATOM     11  C   UNL     1     170.842 145.449 153.720  1.00  0.00     0.041 A 
ATOM     12  C   UNL     1     170.224 145.626 152.383  1.00  0.00     0.194 C 
ATOM     13  O   UNL     1     169.406 146.567 152.186  1.00  0.00    -0.289 OA
ATOM     14  C   UNL     1     170.414 146.228 154.808  1.00  0.00     0.059 A 
ATOM     15  C   UNL     1     170.978 146.050 156.073  1.00  0.00     0.120 A 
ATOM     16  C   UNL     1     171.957 145.076 156.265  1.00  0.00     0.093 A 
ATOM     17  C   UNL     1     172.387 144.274 155.203  1.00  0.00     0.131 A 
ENDROOT
BRANCH   6  18
ATOM     18  O   UNL     1     172.714 141.716 150.583  1.00  0.00    -0.507 OA
ATOM     19  H   UNL     1     172.454 140.743 150.503  1.00  0.00     0.293 HD
ENDBRANCH   6  18
BRANCH  17  20
ATOM     20  O   UNL     1     173.303 143.259 155.491  1.00  0.00    -0.507 OA
ATOM     21  H   UNL     1     174.137 143.089 154.946  1.00  0.00     0.293 HD
ENDBRANCH  17  20
BRANCH  15  22
ATOM     22  O   UNL     1     170.566 146.829 157.152  1.00  0.00    -0.508 OA
ATOM     23  H   UNL     1     171.029 146.776 158.053  1.00  0.00     0.293 HD
ENDBRANCH  15  22
TORSDOF 3
ENDMDL
MODEL 7
REMARK VINA RESULT:    -6.250      9.843     11.453
REMARK INTER + INTRA:          -6.799
REMARK INTER:                  -6.799
REMARK INTRA:                   0.000
REMARK UNBOUND:                 0.000
REMARK SMILES Cc1cc(O)c2c(c1)C(=O)c1cc(O)cc(O)c1C2=O
REMARK SMILES IDX 1 1 2 2 8 3 7 4 6 5 4 6 3 7 19 8 20 9 18 10 11 11 9 12 10 13
REMARK SMILES IDX 12 14 13 15 15 16 16 17 5 18 17 20 14 22
REMARK H PARENT 5 19 17 21 14 23
REMARK Flexibility Score: inf
ROOT
ATOM      1  C   UNL     1     170.441 141.747 150.971  1.00  0.00     0.044 C 
ATOM      2  C   UNL     1     170.447 142.732 152.103  1.00  0.00    -0.047 A 
ATOM      3  C   UNL     1     170.669 142.297 153.414  1.00  0.00     0.016 A 
ATOM      4  C   UNL     1     170.634 143.203 154.486  1.00  0.00     0.038 A 
ATOM      5  C   UNL     1     170.345 144.565 154.246  1.00  0.00     0.076 A 
ATOM      6  C   UNL     1     170.165 145.010 152.910  1.00  0.00     0.127 A 
ATOM      7  C   UNL     1     170.186 144.085 151.862  1.00  0.00     0.050 A 
ATOM      8  C   UNL     1     170.170 145.463 155.418  1.00  0.00     0.201 C 
ATOM      9  O   UNL     1     169.394 146.453 155.340  1.00  0.00    -0.288 OA
ATOM     10  C   UNL     1     170.759 145.087 156.729  1.00  0.00     0.076 A 
ATOM     11  C   UNL     1     171.046 143.724 156.966  1.00  0.00     0.041 A 
ATOM     12  C   UNL     1     170.902 142.738 155.867  1.00  0.00     0.194 C 
ATOM     13  O   UNL     1     171.033 141.505 156.105  1.00  0.00    -0.289 OA
ATOM     14  C   UNL     1     171.472 143.310 158.239  1.00  0.00     0.059 A 
ATOM     15  C   UNL     1     171.630 144.239 159.270  1.00  0.00     0.120 A 
ATOM     16  C   UNL     1     171.386 145.590 159.030  1.00  0.00     0.093 A 
ATOM     17  C   UNL     1     170.979 146.031 157.767  1.00  0.00     0.131 A 
ENDROOT
BRANCH   6  18
ATOM     18  O   UNL     1     169.997 146.357 152.578  1.00  0.00    -0.507 OA
ATOM     19  H   UNL     1     170.413 147.116 153.099  1.00  0.00     0.293 HD
ENDBRANCH   6  18
BRANCH  17  20
ATOM     20  O   UNL     1     170.843 147.408 157.577  1.00  0.00    -0.507 OA
ATOM     21  H   UNL     1     171.307 148.099 158.150  1.00  0.00     0.293 HD
ENDBRANCH  17  20
BRANCH  15  22
ATOM     22  O   UNL     1     172.041 143.830 160.538  1.00  0.00    -0.508 OA
ATOM     23  H   UNL     1     172.933 143.371 160.684  1.00  0.00     0.293 HD
ENDBRANCH  15  22
TORSDOF 3
ENDMDL
MODEL 8
REMARK VINA RESULT:    -6.222      6.722      8.551
REMARK INTER + INTRA:          -6.767
REMARK INTER:                  -6.767
REMARK INTRA:                   0.000
REMARK UNBOUND:                 0.000
REMARK SMILES Cc1cc(O)c2c(c1)C(=O)c1cc(O)cc(O)c1C2=O
REMARK SMILES IDX 1 1 2 2 8 3 7 4 6 5 4 6 3 7 19 8 20 9 18 10 11 11 9 12 10 13
REMARK SMILES IDX 12 14 13 15 15 16 16 17 5 18 17 20 14 22
REMARK H PARENT 5 19 17 21 14 23
REMARK Flexibility Score: inf
ROOT
ATOM      1  C   UNL     1     167.860 142.403 156.592  1.00  0.00     0.044 C 
ATOM      2  C   UNL     1     168.331 143.037 155.317  1.00  0.00    -0.047 A 
ATOM      3  C   UNL     1     169.317 142.414 154.543  1.00  0.00     0.016 A 
ATOM      4  C   UNL     1     169.796 143.020 153.370  1.00  0.00     0.038 A 
ATOM      5  C   UNL     1     169.302 144.284 152.979  1.00  0.00     0.076 A 
ATOM      6  C   UNL     1     168.271 144.891 153.743  1.00  0.00     0.127 A 
ATOM      7  C   UNL     1     167.823 144.277 154.916  1.00  0.00     0.050 A 
ATOM      8  C   UNL     1     169.938 144.959 151.817  1.00  0.00     0.201 C 
ATOM      9  O   UNL     1     169.978 146.217 151.767  1.00  0.00    -0.288 OA
ATOM     10  C   UNL     1     170.689 144.155 150.819  1.00  0.00     0.076 A 
ATOM     11  C   UNL     1     171.183 142.891 151.214  1.00  0.00     0.041 A 
ATOM     12  C   UNL     1     170.817 142.338 152.540  1.00  0.00     0.194 C 
ATOM     13  O   UNL     1     171.355 141.272 152.949  1.00  0.00    -0.289 OA
ATOM     14  C   UNL     1     172.014 142.163 150.346  1.00  0.00     0.059 A 
ATOM     15  C   UNL     1     172.344 142.671 149.087  1.00  0.00     0.120 A 
ATOM     16  C   UNL     1     171.827 143.899 148.678  1.00  0.00     0.093 A 
ATOM     17  C   UNL     1     170.982 144.635 149.515  1.00  0.00     0.131 A 
ENDROOT
BRANCH   6  18
ATOM     18  O   UNL     1     167.643 146.078 153.358  1.00  0.00    -0.507 OA
ATOM     19  H   UNL     1     168.126 146.961 153.269  1.00  0.00     0.293 HD
ENDBRANCH   6  18
BRANCH  17  20
ATOM     20  O   UNL     1     170.430 145.811 149.002  1.00  0.00    -0.507 OA
ATOM     21  H   UNL     1     170.159 146.598 149.575  1.00  0.00     0.293 HD
ENDBRANCH  17  20
BRANCH  15  22
ATOM     22  O   UNL     1     173.178 141.957 148.229  1.00  0.00    -0.508 OA
ATOM     23  H   UNL     1     173.486 142.346 147.344  1.00  0.00     0.293 HD
ENDBRANCH  15  22
TORSDOF 3
ENDMDL
MODEL 9
REMARK VINA RESULT:    -6.148      7.223      8.724
REMARK INTER + INTRA:          -6.687
REMARK INTER:                  -6.687
REMARK INTRA:                   0.000
REMARK UNBOUND:                 0.000
REMARK SMILES Cc1cc(O)c2c(c1)C(=O)c1cc(O)cc(O)c1C2=O
REMARK SMILES IDX 1 1 2 2 8 3 7 4 6 5 4 6 3 7 19 8 20 9 18 10 11 11 9 12 10 13
REMARK SMILES IDX 12 14 13 15 15 16 16 17 5 18 17 20 14 22
REMARK H PARENT 5 19 17 21 14 23
REMARK Flexibility Score: inf
ROOT
ATOM      1  C   UNL     1     167.499 145.361 153.750  1.00  0.00     0.044 C 
ATOM      2  C   UNL     1     168.780 144.616 153.513  1.00  0.00    -0.047 A 
ATOM      3  C   UNL     1     169.157 144.258 152.214  1.00  0.00     0.016 A 
ATOM      4  C   UNL     1     170.331 143.523 151.985  1.00  0.00     0.038 A 
ATOM      5  C   UNL     1     171.129 143.114 153.077  1.00  0.00     0.076 A 
ATOM      6  C   UNL     1     170.767 143.518 154.388  1.00  0.00     0.127 A 
ATOM      7  C   UNL     1     169.583 144.233 154.592  1.00  0.00     0.050 A 
ATOM      8  C   UNL     1     172.281 142.214 152.807  1.00  0.00     0.201 C 
ATOM      9  O   UNL     1     172.651 141.390 153.684  1.00  0.00    -0.288 OA
ATOM     10  C   UNL     1     172.868 142.156 151.443  1.00  0.00     0.076 A 
ATOM     11  C   UNL     1     172.066 142.565 150.353  1.00  0.00     0.041 A 
ATOM     12  C   UNL     1     170.738 143.177 150.603  1.00  0.00     0.194 C 
ATOM     13  O   UNL     1     169.967 143.426 149.635  1.00  0.00    -0.289 OA
ATOM     14  C   UNL     1     172.533 142.396 149.039  1.00  0.00     0.059 A 
ATOM     15  C   UNL     1     173.792 141.840 148.801  1.00  0.00     0.120 A 
ATOM     16  C   UNL     1     174.602 141.472 149.874  1.00  0.00     0.093 A 
ATOM     17  C   UNL     1     174.169 141.648 151.192  1.00  0.00     0.131 A 
ENDROOT
BRANCH   6  18
ATOM     18  O   UNL     1     171.565 143.261 155.506  1.00  0.00    -0.507 OA
ATOM     19  H   UNL     1     172.574 143.304 155.493  1.00  0.00     0.293 HD
ENDBRANCH   6  18
BRANCH  17  20
ATOM     20  O   UNL     1     175.071 141.341 152.214  1.00  0.00    -0.507 OA
ATOM     21  H   UNL     1     174.788 141.047 153.138  1.00  0.00     0.293 HD
ENDBRANCH  17  20
BRANCH  15  22
ATOM     22  O   UNL     1     174.254 141.658 147.499  1.00  0.00    -0.508 OA
ATOM     23  H   UNL     1     173.711 141.958 146.696  1.00  0.00     0.293 HD
ENDBRANCH  15  22
TORSDOF 3
ENDMDL
