MODEL 1
REMARK VINA RESULT:    -3.825      0.000      0.000
REMARK INTER + INTRA:          -5.510
REMARK INTER:                  -5.167
REMARK INTRA:                  -0.343
REMARK UNBOUND:                -0.343
REMARK SMILES CCCCCCC=CC(=O)[O-]
REMARK SMILES IDX 5 1 6 2 7 3 8 4 9 5 10 6 11 7 4 8 3 9 2 10 1 11
REMARK H PARENT
REMARK Flexibility Score: inf
ROOT
ATOM      1  C   UNL     1      16.342  16.033  29.671  1.00  0.00     0.004 C 
ENDROOT
BRANCH   1   2
ATOM      2  C   UNL     1      15.452  15.084  28.861  1.00  0.00     0.027 C 
BRANCH   2   3
ATOM      3  C   UNL     1      15.961  14.927  27.456  1.00  0.00    -0.025 C 
ATOM      4  C   UNL     1      16.049  15.970  26.624  1.00  0.00     0.020 C 
BRANCH   4   5
ATOM      5  C   UNL     1      16.531  15.837  25.240  1.00  0.00     0.064 C 
ATOM      6  O   UNL     1      17.682  15.389  24.992  1.00  0.00    -0.545 OA
ATOM      7  O   UNL     1      15.703  16.211  24.190  1.00  0.00    -0.545 OA
ENDBRANCH   4   5
ENDBRANCH   2   3
ENDBRANCH   1   2
BRANCH   1   8
ATOM      8  C   UNL     1      17.148  15.266  30.725  1.00  0.00     0.000 C 
BRANCH   8   9
ATOM      9  C   UNL     1      16.542  13.882  30.985  1.00  0.00    -0.000 C 
BRANCH   9  10
ATOM     10  C   UNL     1      17.259  13.174  32.140  1.00  0.00    -0.003 C 
ATOM     11  C   UNL     1      18.575  13.866  32.479  1.00  0.00     0.004 C 
ENDBRANCH   9  10
ENDBRANCH   8   9
ENDBRANCH   1   8
TORSDOF 6
ENDMDL
MODEL 2
REMARK VINA RESULT:    -3.629      4.239      4.988
REMARK INTER + INTRA:          -5.245
REMARK INTER:                  -4.747
REMARK INTRA:                  -0.497
REMARK UNBOUND:                -0.343
REMARK SMILES CCCCCCC=CC(=O)[O-]
REMARK SMILES IDX 5 1 6 2 7 3 8 4 9 5 10 6 11 7 4 8 3 9 2 10 1 11
REMARK H PARENT
REMARK Flexibility Score: inf
ROOT
ATOM      1  C   UNL     1      15.765  15.320  28.425  1.00  0.00     0.004 C 
ENDROOT
BRANCH   1   2
ATOM      2  C   UNL     1      14.489  14.471  28.389  1.00  0.00     0.027 C 
BRANCH   2   3
ATOM      3  C   UNL     1      13.836  14.413  29.740  1.00  0.00    -0.025 C 
ATOM      4  C   UNL     1      12.509  14.306  29.871  1.00  0.00     0.020 C 
BRANCH   4   5
ATOM      5  C   UNL     1      11.847  14.261  31.184  1.00  0.00     0.064 C 
ATOM      6  O   UNL     1      12.210  13.443  32.069  1.00  0.00    -0.545 OA
ATOM      7  O   UNL     1      10.802  15.137  31.452  1.00  0.00    -0.545 OA
ENDBRANCH   4   5
ENDBRANCH   2   3
ENDBRANCH   1   2
BRANCH   1   8
ATOM      8  C   UNL     1      16.148  15.678  29.866  1.00  0.00     0.000 C 
BRANCH   8   9
ATOM      9  C   UNL     1      17.593  15.267  30.173  1.00  0.00    -0.000 C 
BRANCH   9  10
ATOM     10  C   UNL     1      17.691  14.577  31.538  1.00  0.00    -0.003 C 
ATOM     11  C   UNL     1      16.755  13.375  31.617  1.00  0.00     0.004 C 
ENDBRANCH   9  10
ENDBRANCH   8   9
ENDBRANCH   1   8
TORSDOF 6
ENDMDL
MODEL 3
REMARK VINA RESULT:    -3.621      3.717      6.020
REMARK INTER + INTRA:          -5.234
REMARK INTER:                  -4.895
REMARK INTRA:                  -0.339
REMARK UNBOUND:                -0.343
REMARK SMILES CCCCCCC=CC(=O)[O-]
REMARK SMILES IDX 5 1 6 2 7 3 8 4 9 5 10 6 11 7 4 8 3 9 2 10 1 11
REMARK H PARENT
REMARK Flexibility Score: inf
ROOT
ATOM      1  C   UNL     1      16.180  15.775  29.508  1.00  0.00     0.004 C 
ENDROOT
BRANCH   1   2
ATOM      2  C   UNL     1      15.576  14.577  30.250  1.00  0.00     0.027 C 
BRANCH   2   3
ATOM      3  C   UNL     1      16.619  13.848  31.048  1.00  0.00    -0.025 C 
ATOM      4  C   UNL     1      17.641  14.495  31.618  1.00  0.00     0.020 C 
BRANCH   4   5
ATOM      5  C   UNL     1      18.681  13.799  32.392  1.00  0.00     0.064 C 
ATOM      6  O   UNL     1      18.380  12.989  33.307  1.00  0.00    -0.545 OA
ATOM      7  O   UNL     1      20.019  14.041  32.108  1.00  0.00    -0.545 OA
ENDBRANCH   4   5
ENDBRANCH   2   3
ENDBRANCH   1   2
BRANCH   1   8
ATOM      8  C   UNL     1      15.985  15.638  27.993  1.00  0.00     0.000 C 
BRANCH   8   9
ATOM      9  C   UNL     1      17.238  15.061  27.324  1.00  0.00    -0.000 C 
BRANCH   9  10
ATOM     10  C   UNL     1      17.507  15.742  25.978  1.00  0.00    -0.003 C 
ATOM     11  C   UNL     1      16.223  16.307  25.379  1.00  0.00     0.004 C 
ENDBRANCH   9  10
ENDBRANCH   8   9
ENDBRANCH   1   8
TORSDOF 6
ENDMDL
MODEL 4
REMARK VINA RESULT:    -3.580      1.582      2.576
REMARK INTER + INTRA:          -5.179
REMARK INTER:                  -4.695
REMARK INTRA:                  -0.484
REMARK UNBOUND:                -0.343
REMARK SMILES CCCCCCC=CC(=O)[O-]
REMARK SMILES IDX 5 1 6 2 7 3 8 4 9 5 10 6 11 7 4 8 3 9 2 10 1 11
REMARK H PARENT
REMARK Flexibility Score: inf
ROOT
ATOM      1  C   UNL     1      16.617  13.814  31.248  1.00  0.00     0.004 C 
ENDROOT
BRANCH   1   2
ATOM      2  C   UNL     1      16.992  15.228  30.788  1.00  0.00     0.027 C 
BRANCH   2   3
ATOM      3  C   UNL     1      16.318  15.574  29.491  1.00  0.00    -0.025 C 
ATOM      4  C   UNL     1      16.488  14.829  28.393  1.00  0.00     0.020 C 
BRANCH   4   5
ATOM      5  C   UNL     1      15.849  15.157  27.109  1.00  0.00     0.064 C 
ATOM      6  O   UNL     1      16.055  16.263  26.543  1.00  0.00    -0.545 OA
ATOM      7  O   UNL     1      15.003  14.232  26.512  1.00  0.00    -0.545 OA
ENDBRANCH   4   5
ENDBRANCH   2   3
ENDBRANCH   1   2
BRANCH   1   8
ATOM      8  C   UNL     1      17.748  13.185  32.069  1.00  0.00     0.000 C 
BRANCH   8   9
ATOM      9  C   UNL     1      18.791  14.235  32.470  1.00  0.00    -0.000 C 
BRANCH   9  10
ATOM     10  C   UNL     1      20.202  13.791  32.070  1.00  0.00    -0.003 C 
ATOM     11  C   UNL     1      20.449  14.013  30.581  1.00  0.00     0.004 C 
ENDBRANCH   9  10
ENDBRANCH   8   9
ENDBRANCH   1   8
TORSDOF 6
ENDMDL
MODEL 5
REMARK VINA RESULT:    -3.540      1.630      1.872
REMARK INTER + INTRA:          -5.125
REMARK INTER:                  -4.491
REMARK INTRA:                  -0.633
REMARK UNBOUND:                -0.343
REMARK SMILES CCCCCCC=CC(=O)[O-]
REMARK SMILES IDX 5 1 6 2 7 3 8 4 9 5 10 6 11 7 4 8 3 9 2 10 1 11
REMARK H PARENT
REMARK Flexibility Score: inf
ROOT
ATOM      1  C   UNL     1      16.961  15.657  30.297  1.00  0.00     0.004 C 
ENDROOT
BRANCH   1   2
ATOM      2  C   UNL     1      15.732  15.259  29.471  1.00  0.00     0.027 C 
BRANCH   2   3
ATOM      3  C   UNL     1      15.862  15.718  28.046  1.00  0.00    -0.025 C 
ATOM      4  C   UNL     1      16.869  15.306  27.268  1.00  0.00     0.020 C 
BRANCH   4   5
ATOM      5  C   UNL     1      17.023  15.753  25.875  1.00  0.00     0.064 C 
ATOM      6  O   UNL     1      18.109  15.596  25.257  1.00  0.00    -0.545 OA
ATOM      7  O   UNL     1      15.952  16.359  25.230  1.00  0.00    -0.545 OA
ENDBRANCH   4   5
ENDBRANCH   2   3
ENDBRANCH   1   2
BRANCH   1   8
ATOM      8  C   UNL     1      17.331  14.557  31.298  1.00  0.00     0.000 C 
BRANCH   8   9
ATOM      9  C   UNL     1      18.515  13.724  30.791  1.00  0.00    -0.000 C 
BRANCH   9  10
ATOM     10  C   UNL     1      19.451  14.570  29.922  1.00  0.00    -0.003 C 
ATOM     11  C   UNL     1      19.957  13.777  28.721  1.00  0.00     0.004 C 
ENDBRANCH   9  10
ENDBRANCH   8   9
ENDBRANCH   1   8
TORSDOF 6
ENDMDL
MODEL 6
REMARK VINA RESULT:    -3.466      3.842      5.239
REMARK INTER + INTRA:          -5.025
REMARK INTER:                  -4.530
REMARK INTRA:                  -0.495
REMARK UNBOUND:                -0.343
REMARK SMILES CCCCCCC=CC(=O)[O-]
REMARK SMILES IDX 5 1 6 2 7 3 8 4 9 5 10 6 11 7 4 8 3 9 2 10 1 11
REMARK H PARENT
REMARK Flexibility Score: inf
ROOT
ATOM      1  C   UNL     1      16.482  13.168  30.612  1.00  0.00     0.004 C 
ENDROOT
BRANCH   1   2
ATOM      2  C   UNL     1      15.125  12.848  31.251  1.00  0.00     0.027 C 
BRANCH   2   3
ATOM      3  C   UNL     1      14.013  13.592  30.568  1.00  0.00    -0.025 C 
ATOM      4  C   UNL     1      12.829  13.777  31.161  1.00  0.00     0.020 C 
BRANCH   4   5
ATOM      5  C   UNL     1      11.721  14.491  30.505  1.00  0.00     0.064 C 
ATOM      6  O   UNL     1      10.776  14.983  31.175  1.00  0.00    -0.545 OA
ATOM      7  O   UNL     1      11.719  14.623  29.122  1.00  0.00    -0.545 OA
ENDBRANCH   4   5
ENDBRANCH   2   3
ENDBRANCH   1   2
BRANCH   1   8
ATOM      8  C   UNL     1      17.112  14.410  31.252  1.00  0.00     0.000 C 
BRANCH   8   9
ATOM      9  C   UNL     1      17.004  15.625  30.323  1.00  0.00    -0.000 C 
BRANCH   9  10
ATOM     10  C   UNL     1      17.112  15.206  28.853  1.00  0.00    -0.003 C 
ATOM     11  C   UNL     1      15.872  15.623  28.068  1.00  0.00     0.004 C 
ENDBRANCH   9  10
ENDBRANCH   8   9
ENDBRANCH   1   8
TORSDOF 6
ENDMDL
MODEL 7
REMARK VINA RESULT:    -3.447      4.175      5.083
REMARK INTER + INTRA:          -5.000
REMARK INTER:                  -4.650
REMARK INTRA:                  -0.350
REMARK UNBOUND:                -0.343
REMARK SMILES CCCCCCC=CC(=O)[O-]
REMARK SMILES IDX 5 1 6 2 7 3 8 4 9 5 10 6 11 7 4 8 3 9 2 10 1 11
REMARK H PARENT
REMARK Flexibility Score: inf
ROOT
ATOM      1  C   UNL     1      15.438  14.238  29.116  1.00  0.00     0.004 C 
ENDROOT
BRANCH   1   2
ATOM      2  C   UNL     1      14.383  13.986  30.199  1.00  0.00     0.027 C 
BRANCH   2   3
ATOM      3  C   UNL     1      13.003  14.306  29.698  1.00  0.00    -0.025 C 
ATOM      4  C   UNL     1      11.988  14.528  30.540  1.00  0.00     0.020 C 
BRANCH   4   5
ATOM      5  C   UNL     1      10.625  14.829  30.072  1.00  0.00     0.064 C 
ATOM      6  O   UNL     1      10.428  15.388  28.961  1.00  0.00    -0.545 OA
ATOM      7  O   UNL     1       9.539  14.490  30.869  1.00  0.00    -0.545 OA
ENDBRANCH   4   5
ENDBRANCH   2   3
ENDBRANCH   1   2
BRANCH   1   8
ATOM      8  C   UNL     1      15.965  15.676  29.185  1.00  0.00     0.000 C 
BRANCH   8   9
ATOM      9  C   UNL     1      16.889  15.869  30.393  1.00  0.00    -0.000 C 
BRANCH   9  10
ATOM     10  C   UNL     1      17.868  14.698  30.531  1.00  0.00    -0.003 C 
ATOM     11  C   UNL     1      17.940  14.206  31.973  1.00  0.00     0.004 C 
ENDBRANCH   9  10
ENDBRANCH   8   9
ENDBRANCH   1   8
TORSDOF 6
ENDMDL
MODEL 8
REMARK VINA RESULT:    -3.340      3.811      5.489
REMARK INTER + INTRA:          -4.855
REMARK INTER:                  -4.485
REMARK INTRA:                  -0.370
REMARK UNBOUND:                -0.343
REMARK SMILES CCCCCCC=CC(=O)[O-]
REMARK SMILES IDX 5 1 6 2 7 3 8 4 9 5 10 6 11 7 4 8 3 9 2 10 1 11
REMARK H PARENT
REMARK Flexibility Score: inf
ROOT
ATOM      1  C   UNL     1      15.484  15.034  28.470  1.00  0.00     0.004 C 
ENDROOT
BRANCH   1   2
ATOM      2  C   UNL     1      15.901  15.763  29.753  1.00  0.00     0.027 C 
BRANCH   2   3
ATOM      3  C   UNL     1      17.223  15.261  30.258  1.00  0.00    -0.025 C 
ATOM      4  C   UNL     1      17.308  14.489  31.346  1.00  0.00     0.020 C 
BRANCH   4   5
ATOM      5  C   UNL     1      18.594  13.997  31.867  1.00  0.00     0.064 C 
ATOM      6  O   UNL     1      19.662  14.154  31.218  1.00  0.00    -0.545 OA
ATOM      7  O   UNL     1      18.630  13.349  33.094  1.00  0.00    -0.545 OA
ENDBRANCH   4   5
ENDBRANCH   2   3
ENDBRANCH   1   2
BRANCH   1   8
ATOM      8  C   UNL     1      14.119  14.357  28.641  1.00  0.00     0.000 C 
BRANCH   8   9
ATOM      9  C   UNL     1      13.747  14.229  30.123  1.00  0.00    -0.000 C 
BRANCH   9  10
ATOM     10  C   UNL     1      12.262  14.533  30.346  1.00  0.00    -0.003 C 
ATOM     11  C   UNL     1      11.815  14.105  31.741  1.00  0.00     0.004 C 
ENDBRANCH   9  10
ENDBRANCH   8   9
ENDBRANCH   1   8
TORSDOF 6
ENDMDL
MODEL 9
REMARK VINA RESULT:    -3.333      1.931      3.091
REMARK INTER + INTRA:          -4.845
REMARK INTER:                  -4.341
REMARK INTRA:                  -0.504
REMARK UNBOUND:                -0.343
REMARK SMILES CCCCCCC=CC(=O)[O-]
REMARK SMILES IDX 5 1 6 2 7 3 8 4 9 5 10 6 11 7 4 8 3 9 2 10 1 11
REMARK H PARENT
REMARK Flexibility Score: inf
ROOT
ATOM      1  C   UNL     1      16.540  14.259  30.921  1.00  0.00     0.004 C 
ENDROOT
BRANCH   1   2
ATOM      2  C   UNL     1      16.553  15.549  30.093  1.00  0.00     0.027 C 
BRANCH   2   3
ATOM      3  C   UNL     1      16.726  15.255  28.630  1.00  0.00    -0.025 C 
ATOM      4  C   UNL     1      15.913  15.784  27.710  1.00  0.00     0.020 C 
BRANCH   4   5
ATOM      5  C   UNL     1      16.055  15.499  26.273  1.00  0.00     0.064 C 
ATOM      6  O   UNL     1      15.800  14.358  25.808  1.00  0.00    -0.545 OA
ATOM      7  O   UNL     1      16.479  16.507  25.417  1.00  0.00    -0.545 OA
ENDBRANCH   4   5
ENDBRANCH   2   3
ENDBRANCH   1   2
BRANCH   1   8
ATOM      8  C   UNL     1      15.499  13.270  30.382  1.00  0.00     0.000 C 
BRANCH   8   9
ATOM      9  C   UNL     1      14.103  13.582  30.934  1.00  0.00    -0.000 C 
BRANCH   9  10
ATOM     10  C   UNL     1      13.184  14.123  29.834  1.00  0.00    -0.003 C 
ATOM     11  C   UNL     1      11.897  14.695  30.421  1.00  0.00     0.004 C 
ENDBRANCH   9  10
ENDBRANCH   8   9
ENDBRANCH   1   8
TORSDOF 6
ENDMDL
