MODEL 1
REMARK VINA RESULT:    -6.044      0.000      0.000
REMARK INTER + INTRA:          -9.122
REMARK INTER:                  -8.164
REMARK INTRA:                  -0.958
REMARK UNBOUND:                -0.958
REMARK SMILES CC(=O)CCC=C(C)CCC=C(C)C
REMARK SMILES IDX 7 1 6 2 8 3 9 4 10 5 11 6 13 7 12 8 14 9 5 10 4 11 2 12 3 13
REMARK SMILES IDX 1 14
REMARK H PARENT
REMARK Flexibility Score: inf
ROOT
ATOM      1  C   UNL     1     -13.370 -34.269  31.513  1.00  0.00    -0.077 C 
ATOM      2  C   UNL     1     -13.630 -35.497  32.018  1.00  0.00    -0.028 C 
ATOM      3  C   UNL     1     -14.396 -33.184  31.707  1.00  0.00     0.039 C 
ENDROOT
BRANCH   1   4
ATOM      4  C   UNL     1     -12.125 -33.957  30.705  1.00  0.00     0.034 C 
BRANCH   4   5
ATOM      5  C   UNL     1     -12.500 -33.363  29.343  1.00  0.00     0.032 C 
BRANCH   5   6
ATOM      6  C   UNL     1     -11.718 -34.015  28.228  1.00  0.00    -0.028 C 
ATOM      7  C   UNL     1     -13.758 -34.233  26.805  1.00  0.00     0.039 C 
ATOM      8  C   UNL     1     -12.283 -34.415  27.069  1.00  0.00    -0.080 C 
ATOM      9  C   UNL     1     -11.409 -35.057  26.022  1.00  0.00     0.039 C 
ENDBRANCH   5   6
ENDBRANCH   4   5
ENDBRANCH   1   4
BRANCH   2  10
ATOM     10  C   UNL     1     -12.697 -36.681  31.938  1.00  0.00     0.035 C 
BRANCH  10  11
ATOM     11  C   UNL     1     -13.317 -37.835  31.138  1.00  0.00     0.079 C 
BRANCH  11  12
ATOM     12  C   UNL     1     -13.195 -37.608  29.652  1.00  0.00     0.130 C 
ATOM     13  O   UNL     1     -12.164 -37.135  29.199  1.00  0.00    -0.300 OA
ATOM     14  C   UNL     1     -14.314 -37.956  28.717  1.00  0.00     0.087 C 
ENDBRANCH  11  12
ENDBRANCH  10  11
ENDBRANCH   2  10
TORSDOF 6
ENDMDL
MODEL 2
REMARK VINA RESULT:    -5.828      2.445      4.631
REMARK INTER + INTRA:          -8.831
REMARK INTER:                  -7.763
REMARK INTRA:                  -1.067
REMARK UNBOUND:                -0.958
REMARK SMILES CC(=O)CCC=C(C)CCC=C(C)C
REMARK SMILES IDX 7 1 6 2 8 3 9 4 10 5 11 6 13 7 12 8 14 9 5 10 4 11 2 12 3 13
REMARK SMILES IDX 1 14
REMARK H PARENT
REMARK Flexibility Score: inf
ROOT
ATOM      1  C   UNL     1     -12.586 -33.718  30.054  1.00  0.00    -0.077 C 
ATOM      2  C   UNL     1     -13.654 -33.803  30.882  1.00  0.00    -0.028 C 
ATOM      3  C   UNL     1     -12.820 -33.295  28.628  1.00  0.00     0.039 C 
ENDROOT
BRANCH   1   4
ATOM      4  C   UNL     1     -11.181 -34.095  30.481  1.00  0.00     0.034 C 
BRANCH   4   5
ATOM      5  C   UNL     1     -10.830 -35.507  30.000  1.00  0.00     0.032 C 
BRANCH   5   6
ATOM      6  C   UNL     1     -11.215 -36.546  31.025  1.00  0.00    -0.028 C 
ATOM      7  C   UNL     1     -13.093 -37.378  29.605  1.00  0.00     0.039 C 
ATOM      8  C   UNL     1     -12.244 -37.402  30.853  1.00  0.00    -0.080 C 
ATOM      9  C   UNL     1     -12.544 -38.401  31.942  1.00  0.00     0.039 C 
ENDBRANCH   5   6
ENDBRANCH   4   5
ENDBRANCH   1   4
BRANCH   2  10
ATOM     10  C   UNL     1     -13.589 -34.181  32.342  1.00  0.00     0.035 C 
BRANCH  10  11
ATOM     11  C   UNL     1     -14.256 -33.121  33.230  1.00  0.00     0.079 C 
BRANCH  11  12
ATOM     12  C   UNL     1     -15.752 -33.100  33.041  1.00  0.00     0.130 C 
ATOM     13  O   UNL     1     -16.248 -32.304  32.259  1.00  0.00    -0.300 OA
ATOM     14  C   UNL     1     -16.645 -34.042  33.793  1.00  0.00     0.087 C 
ENDBRANCH  11  12
ENDBRANCH  10  11
ENDBRANCH   2  10
TORSDOF 6
ENDMDL
MODEL 3
REMARK VINA RESULT:    -5.725      2.363      3.975
REMARK INTER + INTRA:          -8.691
REMARK INTER:                  -7.512
REMARK INTRA:                  -1.179
REMARK UNBOUND:                -0.958
REMARK SMILES CC(=O)CCC=C(C)CCC=C(C)C
REMARK SMILES IDX 7 1 6 2 8 3 9 4 10 5 11 6 13 7 12 8 14 9 5 10 4 11 2 12 3 13
REMARK SMILES IDX 1 14
REMARK H PARENT
REMARK Flexibility Score: inf
ROOT
ATOM      1  C   UNL     1     -12.454 -36.123  30.385  1.00  0.00    -0.077 C 
ATOM      2  C   UNL     1     -13.307 -35.762  31.372  1.00  0.00    -0.028 C 
ATOM      3  C   UNL     1     -12.822 -37.298  29.518  1.00  0.00     0.039 C 
ENDROOT
BRANCH   1   4
ATOM      4  C   UNL     1     -11.119 -35.441  30.159  1.00  0.00     0.034 C 
BRANCH   4   5
ATOM      5  C   UNL     1     -11.152 -34.598  28.879  1.00  0.00     0.032 C 
BRANCH   5   6
ATOM      6  C   UNL     1     -12.128 -33.453  29.003  1.00  0.00    -0.028 C 
ATOM      7  C   UNL     1     -13.460 -34.259  27.051  1.00  0.00     0.039 C 
ATOM      8  C   UNL     1     -13.181 -33.290  28.174  1.00  0.00    -0.080 C 
ATOM      9  C   UNL     1     -14.093 -32.109  28.386  1.00  0.00     0.039 C 
ENDBRANCH   5   6
ENDBRANCH   4   5
ENDBRANCH   1   4
BRANCH   2  10
ATOM     10  C   UNL     1     -13.104 -34.593  32.307  1.00  0.00     0.035 C 
BRANCH  10  11
ATOM     11  C   UNL     1     -14.131 -33.481  32.052  1.00  0.00     0.079 C 
BRANCH  11  12
ATOM     12  C   UNL     1     -14.922 -33.161  33.296  1.00  0.00     0.130 C 
ATOM     13  O   UNL     1     -14.430 -32.445  34.154  1.00  0.00    -0.300 OA
ATOM     14  C   UNL     1     -16.305 -33.703  33.500  1.00  0.00     0.087 C 
ENDBRANCH  11  12
ENDBRANCH  10  11
ENDBRANCH   2  10
TORSDOF 6
ENDMDL
MODEL 4
REMARK VINA RESULT:    -5.721      1.576      4.152
REMARK INTER + INTRA:          -8.685
REMARK INTER:                  -7.535
REMARK INTRA:                  -1.150
REMARK UNBOUND:                -0.958
REMARK SMILES CC(=O)CCC=C(C)CCC=C(C)C
REMARK SMILES IDX 7 1 6 2 8 3 9 4 10 5 11 6 13 7 12 8 14 9 5 10 4 11 2 12 3 13
REMARK SMILES IDX 1 14
REMARK H PARENT
REMARK Flexibility Score: inf
ROOT
ATOM      1  C   UNL     1     -11.251 -33.861  31.640  1.00  0.00    -0.077 C 
ATOM      2  C   UNL     1     -10.569 -33.751  30.476  1.00  0.00    -0.028 C 
ATOM      3  C   UNL     1     -10.465 -33.960  32.921  1.00  0.00     0.039 C 
ENDROOT
BRANCH   1   4
ATOM      4  C   UNL     1     -12.762 -33.957  31.704  1.00  0.00     0.034 C 
BRANCH   4   5
ATOM      5  C   UNL     1     -13.201 -35.400  31.978  1.00  0.00     0.032 C 
BRANCH   5   6
ATOM      6  C   UNL     1     -13.423 -36.159  30.692  1.00  0.00    -0.028 C 
ATOM      7  C   UNL     1     -12.647 -38.299  31.717  1.00  0.00     0.039 C 
ATOM      8  C   UNL     1     -13.173 -37.479  30.563  1.00  0.00    -0.080 C 
ATOM      9  C   UNL     1     -13.428 -38.138  29.232  1.00  0.00     0.039 C 
ENDBRANCH   5   6
ENDBRANCH   4   5
ENDBRANCH   1   4
BRANCH   2  10
ATOM     10  C   UNL     1     -11.203 -33.613  29.112  1.00  0.00     0.035 C 
BRANCH  10  11
ATOM     11  C   UNL     1     -11.015 -34.882  28.270  1.00  0.00     0.079 C 
BRANCH  11  12
ATOM     12  C   UNL     1     -11.859 -34.849  27.020  1.00  0.00     0.130 C 
ATOM     13  O   UNL     1     -11.372 -35.201  25.957  1.00  0.00    -0.300 OA
ATOM     14  C   UNL     1     -13.287 -34.394  27.057  1.00  0.00     0.087 C 
ENDBRANCH  11  12
ENDBRANCH  10  11
ENDBRANCH   2  10
TORSDOF 6
ENDMDL
MODEL 5
REMARK VINA RESULT:    -5.631      1.510      2.151
REMARK INTER + INTRA:          -8.564
REMARK INTER:                  -7.156
REMARK INTRA:                  -1.409
REMARK UNBOUND:                -0.958
REMARK SMILES CC(=O)CCC=C(C)CCC=C(C)C
REMARK SMILES IDX 7 1 6 2 8 3 9 4 10 5 11 6 13 7 12 8 14 9 5 10 4 11 2 12 3 13
REMARK SMILES IDX 1 14
REMARK H PARENT
REMARK Flexibility Score: inf
ROOT
ATOM      1  C   UNL     1     -11.109 -34.287  31.969  1.00  0.00    -0.077 C 
ATOM      2  C   UNL     1     -12.419 -34.457  32.263  1.00  0.00    -0.028 C 
ATOM      3  C   UNL     1     -10.259 -33.494  32.927  1.00  0.00     0.039 C 
ENDROOT
BRANCH   1   4
ATOM      4  C   UNL     1     -10.477 -34.800  30.690  1.00  0.00     0.034 C 
BRANCH   4   5
ATOM      5  C   UNL     1     -10.592 -33.756  29.574  1.00  0.00     0.032 C 
BRANCH   5   6
ATOM      6  C   UNL     1     -11.363 -34.297  28.395  1.00  0.00    -0.028 C 
ATOM      7  C   UNL     1     -13.262 -32.728  28.804  1.00  0.00     0.039 C 
ATOM      8  C   UNL     1     -12.580 -33.835  28.037  1.00  0.00    -0.080 C 
ATOM      9  C   UNL     1     -13.264 -34.448  26.842  1.00  0.00     0.039 C 
ENDBRANCH   5   6
ENDBRANCH   4   5
ENDBRANCH   1   4
BRANCH   2  10
ATOM     10  C   UNL     1     -13.398 -35.247  31.428  1.00  0.00     0.035 C 
BRANCH  10  11
ATOM     11  C   UNL     1     -13.609 -36.660  31.990  1.00  0.00     0.079 C 
BRANCH  11  12
ATOM     12  C   UNL     1     -13.013 -37.711  31.087  1.00  0.00     0.130 C 
ATOM     13  O   UNL     1     -12.571 -38.741  31.573  1.00  0.00    -0.300 OA
ATOM     14  C   UNL     1     -12.956 -37.519  29.601  1.00  0.00     0.087 C 
ENDBRANCH  11  12
ENDBRANCH  10  11
ENDBRANCH   2  10
TORSDOF 6
ENDMDL
MODEL 6
REMARK VINA RESULT:    -5.624      2.106      4.133
REMARK INTER + INTRA:          -8.555
REMARK INTER:                  -7.603
REMARK INTRA:                  -0.952
REMARK UNBOUND:                -0.958
REMARK SMILES CC(=O)CCC=C(C)CCC=C(C)C
REMARK SMILES IDX 7 1 6 2 8 3 9 4 10 5 11 6 13 7 12 8 14 9 5 10 4 11 2 12 3 13
REMARK SMILES IDX 1 14
REMARK H PARENT
REMARK Flexibility Score: inf
ROOT
ATOM      1  C   UNL     1     -13.093 -37.234  31.479  1.00  0.00    -0.077 C 
ATOM      2  C   UNL     1     -12.840 -36.003  31.981  1.00  0.00    -0.028 C 
ATOM      3  C   UNL     1     -12.407 -38.418  32.110  1.00  0.00     0.039 C 
ENDROOT
BRANCH   1   4
ATOM      4  C   UNL     1     -13.979 -37.466  30.270  1.00  0.00     0.034 C 
BRANCH   4   5
ATOM      5  C   UNL     1     -13.165 -37.365  28.976  1.00  0.00     0.032 C 
BRANCH   5   6
ATOM      6  C   UNL     1     -13.621 -36.199  28.131  1.00  0.00    -0.028 C 
ATOM      7  C   UNL     1     -11.428 -35.034  28.398  1.00  0.00     0.039 C 
ATOM      8  C   UNL     1     -12.837 -35.134  27.863  1.00  0.00    -0.080 C 
ATOM      9  C   UNL     1     -13.393 -34.023  27.009  1.00  0.00     0.039 C 
ENDBRANCH   5   6
ENDBRANCH   4   5
ENDBRANCH   1   4
BRANCH   2  10
ATOM     10  C   UNL     1     -13.465 -34.721  31.486  1.00  0.00     0.035 C 
BRANCH  10  11
ATOM     11  C   UNL     1     -13.726 -33.739  32.636  1.00  0.00     0.079 C 
BRANCH  11  12
ATOM     12  C   UNL     1     -15.100 -33.125  32.540  1.00  0.00     0.130 C 
ATOM     13  O   UNL     1     -15.299 -32.217  31.746  1.00  0.00    -0.300 OA
ATOM     14  C   UNL     1     -16.232 -33.608  33.397  1.00  0.00     0.087 C 
ENDBRANCH  11  12
ENDBRANCH  10  11
ENDBRANCH   2  10
TORSDOF 6
ENDMDL
MODEL 7
REMARK VINA RESULT:    -5.602      1.610      4.562
REMARK INTER + INTRA:          -8.525
REMARK INTER:                  -7.657
REMARK INTRA:                  -0.868
REMARK UNBOUND:                -0.958
REMARK SMILES CC(=O)CCC=C(C)CCC=C(C)C
REMARK SMILES IDX 7 1 6 2 8 3 9 4 10 5 11 6 13 7 12 8 14 9 5 10 4 11 2 12 3 13
REMARK SMILES IDX 1 14
REMARK H PARENT
REMARK Flexibility Score: inf
ROOT
ATOM      1  C   UNL     1     -12.437 -36.191  30.899  1.00  0.00    -0.077 C 
ATOM      2  C   UNL     1     -12.006 -36.014  29.628  1.00  0.00    -0.028 C 
ATOM      3  C   UNL     1     -13.218 -37.438  31.221  1.00  0.00     0.039 C 
ENDROOT
BRANCH   1   4
ATOM      4  C   UNL     1     -12.228 -35.161  31.992  1.00  0.00     0.034 C 
BRANCH   4   5
ATOM      5  C   UNL     1     -13.570 -34.584  32.455  1.00  0.00     0.032 C 
BRANCH   5   6
ATOM      6  C   UNL     1     -14.060 -33.511  31.513  1.00  0.00    -0.028 C 
ATOM      7  C   UNL     1     -15.837 -32.793  33.114  1.00  0.00     0.039 C 
ATOM      8  C   UNL     1     -15.092 -32.691  31.805  1.00  0.00    -0.080 C 
ATOM      9  C   UNL     1     -15.500 -31.654  30.790  1.00  0.00     0.039 C 
ENDBRANCH   5   6
ENDBRANCH   4   5
ENDBRANCH   1   4
BRANCH   2  10
ATOM     10  C   UNL     1     -11.188 -34.840  29.148  1.00  0.00     0.035 C 
BRANCH  10  11
ATOM     11  C   UNL     1     -12.044 -33.840  28.358  1.00  0.00     0.079 C 
BRANCH  11  12
ATOM     12  C   UNL     1     -12.495 -34.416  27.039  1.00  0.00     0.130 C 
ATOM     13  O   UNL     1     -13.681 -34.396  26.748  1.00  0.00    -0.300 OA
ATOM     14  C   UNL     1     -11.514 -35.010  26.074  1.00  0.00     0.087 C 
ENDBRANCH  11  12
ENDBRANCH  10  11
ENDBRANCH   2  10
TORSDOF 6
ENDMDL
MODEL 8
REMARK VINA RESULT:    -5.527      2.120      4.170
REMARK INTER + INTRA:          -8.423
REMARK INTER:                  -7.484
REMARK INTRA:                  -0.939
REMARK UNBOUND:                -0.958
REMARK SMILES CC(=O)CCC=C(C)CCC=C(C)C
REMARK SMILES IDX 7 1 6 2 8 3 9 4 10 5 11 6 13 7 12 8 14 9 5 10 4 11 2 12 3 13
REMARK SMILES IDX 1 14
REMARK H PARENT
REMARK Flexibility Score: inf
ROOT
ATOM      1  C   UNL     1     -11.461 -33.613  30.281  1.00  0.00    -0.077 C 
ATOM      2  C   UNL     1     -11.701 -33.933  31.574  1.00  0.00    -0.028 C 
ATOM      3  C   UNL     1     -10.081 -33.138  29.908  1.00  0.00     0.039 C 
ENDROOT
BRANCH   1   4
ATOM      4  C   UNL     1     -12.533 -33.648  29.210  1.00  0.00     0.034 C 
BRANCH   4   5
ATOM      5  C   UNL     1     -12.208 -34.709  28.154  1.00  0.00     0.032 C 
BRANCH   5   6
ATOM      6  C   UNL     1     -13.279 -35.772  28.097  1.00  0.00    -0.028 C 
ATOM      7  C   UNL     1     -12.142 -37.137  29.852  1.00  0.00     0.039 C 
ATOM      8  C   UNL     1     -13.257 -36.881  28.866  1.00  0.00    -0.080 C 
ATOM      9  C   UNL     1     -14.377 -37.880  28.728  1.00  0.00     0.039 C 
ENDBRANCH   5   6
ENDBRANCH   4   5
ENDBRANCH   1   4
BRANCH   2  10
ATOM     10  C   UNL     1     -13.015 -34.453  32.107  1.00  0.00     0.035 C 
BRANCH  10  11
ATOM     11  C   UNL     1     -13.670 -33.452  33.068  1.00  0.00     0.079 C 
BRANCH  11  12
ATOM     12  C   UNL     1     -15.050 -33.058  32.604  1.00  0.00     0.130 C 
ATOM     13  O   UNL     1     -15.173 -32.354  31.613  1.00  0.00    -0.300 OA
ATOM     14  C   UNL     1     -16.278 -33.518  33.332  1.00  0.00     0.087 C 
ENDBRANCH  11  12
ENDBRANCH  10  11
ENDBRANCH   2  10
TORSDOF 6
ENDMDL
MODEL 9
REMARK VINA RESULT:    -5.513      1.354      4.074
REMARK INTER + INTRA:          -8.404
REMARK INTER:                  -7.447
REMARK INTRA:                  -0.957
REMARK UNBOUND:                -0.958
REMARK SMILES CC(=O)CCC=C(C)CCC=C(C)C
REMARK SMILES IDX 7 1 6 2 8 3 9 4 10 5 11 6 13 7 12 8 14 9 5 10 4 11 2 12 3 13
REMARK SMILES IDX 1 14
REMARK H PARENT
REMARK Flexibility Score: inf
ROOT
ATOM      1  C   UNL     1     -13.282 -33.937  31.621  1.00  0.00    -0.077 C 
ATOM      2  C   UNL     1     -13.585 -33.519  30.370  1.00  0.00    -0.028 C 
ATOM      3  C   UNL     1     -14.414 -34.211  32.577  1.00  0.00     0.039 C 
ENDROOT
BRANCH   1   4
ATOM      4  C   UNL     1     -11.858 -34.077  32.121  1.00  0.00     0.034 C 
BRANCH   4   5
ATOM      5  C   UNL     1     -11.150 -35.241  31.420  1.00  0.00     0.032 C 
BRANCH   5   6
ATOM      6  C   UNL     1     -11.550 -36.567  32.021  1.00  0.00    -0.028 C 
ATOM      7  C   UNL     1     -12.717 -37.265  29.927  1.00  0.00     0.039 C 
ATOM      8  C   UNL     1     -12.264 -37.494  31.349  1.00  0.00    -0.080 C 
ATOM      9  C   UNL     1     -12.611 -38.785  32.045  1.00  0.00     0.039 C 
ENDBRANCH   5   6
ENDBRANCH   4   5
ENDBRANCH   1   4
BRANCH   2  10
ATOM     10  C   UNL     1     -12.575 -33.231  29.285  1.00  0.00     0.035 C 
BRANCH  10  11
ATOM     11  C   UNL     1     -12.887 -34.013  28.001  1.00  0.00     0.079 C 
BRANCH  11  12
ATOM     12  C   UNL     1     -11.651 -34.665  27.435  1.00  0.00     0.130 C 
ATOM     13  O   UNL     1     -10.738 -34.977  28.185  1.00  0.00    -0.300 OA
ATOM     14  C   UNL     1     -11.520 -34.944  25.968  1.00  0.00     0.087 C 
ENDBRANCH  11  12
ENDBRANCH  10  11
ENDBRANCH   2  10
TORSDOF 6
ENDMDL
