MODEL 1
REMARK VINA RESULT:     6.832      0.000      0.000
REMARK INTER + INTRA:          11.867
REMARK INTER:                  12.823
REMARK INTRA:                  -0.956
REMARK UNBOUND:                -0.956
REMARK SMILES CCCCCCCCC=CCCCCCCCC(=O)[O-]
REMARK SMILES IDX 10 1 9 2 11 3 12 4 13 5 14 6 15 7 16 8 17 9 18 10 19 11
REMARK SMILES IDX 20 12 8 13 7 14 6 15 5 16 4 17 3 18 2 19 1 20
REMARK H PARENT
REMARK Flexibility Score: inf
ROOT
ATOM      1  C   UNL     1     -27.880  32.833  -3.337  1.00  0.00    -0.031 C 
ATOM      2  C   UNL     1     -27.368  31.612  -3.122  1.00  0.00    -0.031 C 
ENDROOT
BRANCH   1   3
ATOM      3  C   UNL     1     -29.225  33.227  -2.792  1.00  0.00     0.027 C 
BRANCH   3   4
ATOM      4  C   UNL     1     -29.403  32.734  -1.349  1.00  0.00     0.004 C 
BRANCH   4   5
ATOM      5  C   UNL     1     -30.570  31.742  -1.196  1.00  0.00     0.000 C 
BRANCH   5   6
ATOM      6  C   UNL     1     -31.206  31.274  -2.521  1.00  0.00     0.000 C 
BRANCH   6   7
ATOM      7  C   UNL     1     -32.419  30.335  -2.375  1.00  0.00     0.000 C 
BRANCH   7   8
ATOM      8  C   UNL     1     -33.284  30.176  -3.640  1.00  0.00     0.006 C 
BRANCH   8   9
ATOM      9  C   UNL     1     -34.767  30.531  -3.431  1.00  0.00     0.053 C 
BRANCH   9  10
ATOM     10  C   UNL     1     -35.281  30.102  -2.089  1.00  0.00     0.041 C 
ATOM     11  O   UNL     1     -35.614  30.963  -1.234  1.00  0.00    -0.550 OA
ATOM     12  O   UNL     1     -35.426  28.752  -1.797  1.00  0.00    -0.550 OA
ENDBRANCH   9  10
ENDBRANCH   8   9
ENDBRANCH   7   8
ENDBRANCH   6   7
ENDBRANCH   5   6
ENDBRANCH   4   5
ENDBRANCH   3   4
ENDBRANCH   1   3
BRANCH   2  13
ATOM     13  C   UNL     1     -26.020  31.208  -3.657  1.00  0.00     0.027 C 
BRANCH  13  14
ATOM     14  C   UNL     1     -25.955  31.455  -5.171  1.00  0.00     0.004 C 
BRANCH  14  15
ATOM     15  C   UNL     1     -26.760  30.420  -5.971  1.00  0.00     0.000 C 
BRANCH  15  16
ATOM     16  C   UNL     1     -26.957  30.832  -7.441  1.00  0.00     0.000 C 
BRANCH  16  17
ATOM     17  C   UNL     1     -25.687  30.624  -8.283  1.00  0.00    -0.000 C 
BRANCH  17  18
ATOM     18  C   UNL     1     -24.973  31.947  -8.610  1.00  0.00    -0.000 C 
BRANCH  18  19
ATOM     19  C   UNL     1     -23.455  31.773  -8.764  1.00  0.00    -0.003 C 
ATOM     20  C   UNL     1     -22.735  33.098  -9.021  1.00  0.00     0.004 C 
ENDBRANCH  18  19
ENDBRANCH  17  18
ENDBRANCH  16  17
ENDBRANCH  15  16
ENDBRANCH  14  15
ENDBRANCH  13  14
ENDBRANCH   2  13
TORSDOF 15
ENDMDL
MODEL 2
REMARK VINA RESULT:     7.140      4.853      9.513
REMARK INTER + INTRA:          12.446
REMARK INTER:                  13.285
REMARK INTRA:                  -0.839
REMARK UNBOUND:                -0.956
REMARK SMILES CCCCCCCCC=CCCCCCCCC(=O)[O-]
REMARK SMILES IDX 10 1 9 2 11 3 12 4 13 5 14 6 15 7 16 8 17 9 18 10 19 11
REMARK SMILES IDX 20 12 8 13 7 14 6 15 5 16 4 17 3 18 2 19 1 20
REMARK H PARENT
REMARK Flexibility Score: inf
ROOT
ATOM      1  C   UNL     1     -27.482  31.632  -3.170  1.00  0.00    -0.031 C 
ATOM      2  C   UNL     1     -28.095  32.821  -3.061  1.00  0.00    -0.031 C 
ENDROOT
BRANCH   1   3
ATOM      3  C   UNL     1     -26.051  31.525  -3.620  1.00  0.00     0.027 C 
BRANCH   3   4
ATOM      4  C   UNL     1     -25.963  31.283  -5.133  1.00  0.00     0.004 C 
BRANCH   4   5
ATOM      5  C   UNL     1     -26.771  30.055  -5.589  1.00  0.00     0.000 C 
BRANCH   5   6
ATOM      6  C   UNL     1     -27.082  30.004  -7.099  1.00  0.00     0.000 C 
BRANCH   6   7
ATOM      7  C   UNL     1     -26.657  31.248  -7.903  1.00  0.00     0.000 C 
BRANCH   7   8
ATOM      8  C   UNL     1     -25.173  31.288  -8.315  1.00  0.00     0.006 C 
BRANCH   8   9
ATOM      9  C   UNL     1     -24.731  32.630  -8.929  1.00  0.00     0.053 C 
BRANCH   9  10
ATOM     10  C   UNL     1     -23.242  32.799  -8.938  1.00  0.00     0.041 C 
ATOM     11  O   UNL     1     -22.490  31.797  -9.056  1.00  0.00    -0.550 OA
ATOM     12  O   UNL     1     -22.685  34.069  -8.852  1.00  0.00    -0.550 OA
ENDBRANCH   9  10
ENDBRANCH   8   9
ENDBRANCH   7   8
ENDBRANCH   6   7
ENDBRANCH   5   6
ENDBRANCH   4   5
ENDBRANCH   3   4
ENDBRANCH   1   3
BRANCH   2  13
ATOM     13  C   UNL     1     -29.524  32.941  -2.606  1.00  0.00     0.027 C 
BRANCH  13  14
ATOM     14  C   UNL     1     -29.719  32.207  -1.272  1.00  0.00     0.004 C 
BRANCH  14  15
ATOM     15  C   UNL     1     -30.964  31.307  -1.271  1.00  0.00     0.000 C 
BRANCH  15  16
ATOM     16  C   UNL     1     -31.644  31.236  -2.650  1.00  0.00     0.000 C 
BRANCH  16  17
ATOM     17  C   UNL     1     -32.694  30.116  -2.730  1.00  0.00    -0.000 C 
BRANCH  17  18
ATOM     18  C   UNL     1     -33.979  30.564  -3.447  1.00  0.00    -0.000 C 
BRANCH  18  19
ATOM     19  C   UNL     1     -35.250  30.087  -2.728  1.00  0.00    -0.003 C 
ATOM     20  C   UNL     1     -35.414  30.715  -1.344  1.00  0.00     0.004 C 
ENDBRANCH  18  19
ENDBRANCH  17  18
ENDBRANCH  16  17
ENDBRANCH  15  16
ENDBRANCH  14  15
ENDBRANCH  13  14
ENDBRANCH   2  13
TORSDOF 15
ENDMDL
MODEL 3
REMARK VINA RESULT:     7.748      1.233      2.666
REMARK INTER + INTRA:          13.587
REMARK INTER:                  14.641
REMARK INTRA:                  -1.054
REMARK UNBOUND:                -0.956
REMARK SMILES CCCCCCCCC=CCCCCCCCC(=O)[O-]
REMARK SMILES IDX 10 1 9 2 11 3 12 4 13 5 14 6 15 7 16 8 17 9 18 10 19 11
REMARK SMILES IDX 20 12 8 13 7 14 6 15 5 16 4 17 3 18 2 19 1 20
REMARK H PARENT
REMARK Flexibility Score: inf
ROOT
ATOM      1  C   UNL     1     -25.992  31.263  -4.734  1.00  0.00    -0.031 C 
ATOM      2  C   UNL     1     -26.751  30.314  -5.303  1.00  0.00    -0.031 C 
ENDROOT
BRANCH   1   3
ATOM      3  C   UNL     1     -26.134  31.612  -3.278  1.00  0.00     0.027 C 
BRANCH   3   4
ATOM      4  C   UNL     1     -27.596  31.500  -2.822  1.00  0.00     0.004 C 
BRANCH   4   5
ATOM      5  C   UNL     1     -28.409  32.776  -3.101  1.00  0.00     0.000 C 
BRANCH   5   6
ATOM      6  C   UNL     1     -29.822  32.797  -2.483  1.00  0.00     0.000 C 
BRANCH   6   7
ATOM      7  C   UNL     1     -30.310  31.453  -1.908  1.00  0.00     0.000 C 
BRANCH   7   8
ATOM      8  C   UNL     1     -31.839  31.262  -1.892  1.00  0.00     0.006 C 
BRANCH   8   9
ATOM      9  C   UNL     1     -32.370  30.378  -3.037  1.00  0.00     0.053 C 
BRANCH   9  10
ATOM     10  C   UNL     1     -33.867  30.341  -3.091  1.00  0.00     0.041 C 
ATOM     11  O   UNL     1     -34.526  29.892  -2.117  1.00  0.00    -0.550 OA
ATOM     12  O   UNL     1     -34.537  30.836  -4.203  1.00  0.00    -0.550 OA
ENDBRANCH   9  10
ENDBRANCH   8   9
ENDBRANCH   7   8
ENDBRANCH   6   7
ENDBRANCH   5   6
ENDBRANCH   4   5
ENDBRANCH   3   4
ENDBRANCH   1   3
BRANCH   2  13
ATOM     13  C   UNL     1     -26.614  29.951  -6.757  1.00  0.00     0.027 C 
BRANCH  13  14
ATOM     14  C   UNL     1     -27.074  31.118  -7.641  1.00  0.00     0.004 C 
BRANCH  14  15
ATOM     15  C   UNL     1     -25.934  31.697  -8.493  1.00  0.00     0.000 C 
BRANCH  15  16
ATOM     16  C   UNL     1     -24.571  31.063  -8.167  1.00  0.00     0.000 C 
BRANCH  16  17
ATOM     17  C   UNL     1     -23.393  31.904  -8.686  1.00  0.00    -0.000 C 
BRANCH  17  18
ATOM     18  C   UNL     1     -23.826  33.311  -9.133  1.00  0.00    -0.000 C 
BRANCH  18  19
ATOM     19  C   UNL     1     -22.732  34.364  -8.900  1.00  0.00    -0.003 C 
ATOM     20  C   UNL     1     -23.192  35.778  -9.258  1.00  0.00     0.004 C 
ENDBRANCH  18  19
ENDBRANCH  17  18
ENDBRANCH  16  17
ENDBRANCH  15  16
ENDBRANCH  14  15
ENDBRANCH  13  14
ENDBRANCH   2  13
TORSDOF 15
ENDMDL
MODEL 4
REMARK VINA RESULT:     9.149      5.853      8.359
REMARK INTER + INTRA:          16.215
REMARK INTER:                  17.351
REMARK INTRA:                  -1.136
REMARK UNBOUND:                -0.956
REMARK SMILES CCCCCCCCC=CCCCCCCCC(=O)[O-]
REMARK SMILES IDX 10 1 9 2 11 3 12 4 13 5 14 6 15 7 16 8 17 9 18 10 19 11
REMARK SMILES IDX 20 12 8 13 7 14 6 15 5 16 4 17 3 18 2 19 1 20
REMARK H PARENT
REMARK Flexibility Score: inf
ROOT
ATOM      1  C   UNL     1     -23.428  30.330  -8.255  1.00  0.00    -0.031 C 
ATOM      2  C   UNL     1     -22.224  29.812  -7.968  1.00  0.00    -0.031 C 
ENDROOT
BRANCH   1   3
ATOM      3  C   UNL     1     -23.629  31.814  -8.397  1.00  0.00     0.027 C 
BRANCH   3   4
ATOM      4  C   UNL     1     -25.115  32.156  -8.576  1.00  0.00     0.004 C 
BRANCH   4   5
ATOM      5  C   UNL     1     -26.005  30.907  -8.699  1.00  0.00     0.000 C 
BRANCH   5   6
ATOM      6  C   UNL     1     -27.185  30.848  -7.707  1.00  0.00     0.000 C 
BRANCH   6   7
ATOM      7  C   UNL     1     -27.220  29.604  -6.797  1.00  0.00     0.000 C 
BRANCH   7   8
ATOM      8  C   UNL     1     -26.718  29.829  -5.358  1.00  0.00     0.006 C 
BRANCH   8   9
ATOM      9  C   UNL     1     -26.230  31.263  -5.083  1.00  0.00     0.053 C 
BRANCH   9  10
ATOM     10  C   UNL     1     -25.863  31.484  -3.647  1.00  0.00     0.041 C 
ATOM     11  O   UNL     1     -26.401  30.794  -2.742  1.00  0.00    -0.550 OA
ATOM     12  O   UNL     1     -24.900  32.427  -3.310  1.00  0.00    -0.550 OA
ENDBRANCH   9  10
ENDBRANCH   8   9
ENDBRANCH   7   8
ENDBRANCH   6   7
ENDBRANCH   5   6
ENDBRANCH   4   5
ENDBRANCH   3   4
ENDBRANCH   1   3
BRANCH   2  13
ATOM     13  C   UNL     1     -22.008  28.328  -7.829  1.00  0.00     0.027 C 
BRANCH  13  14
ATOM     14  C   UNL     1     -22.341  27.876  -6.400  1.00  0.00     0.004 C 
BRANCH  14  15
ATOM     15  C   UNL     1     -21.084  27.592  -5.564  1.00  0.00     0.000 C 
BRANCH  15  16
ATOM     16  C   UNL     1     -20.849  26.088  -5.341  1.00  0.00     0.000 C 
BRANCH  16  17
ATOM     17  C   UNL     1     -19.354  25.733  -5.264  1.00  0.00    -0.000 C 
BRANCH  17  18
ATOM     18  C   UNL     1     -19.114  24.316  -4.714  1.00  0.00    -0.000 C 
BRANCH  18  19
ATOM     19  C   UNL     1     -19.348  23.228  -5.772  1.00  0.00    -0.003 C 
ATOM     20  C   UNL     1     -18.876  23.649  -7.164  1.00  0.00     0.004 C 
ENDBRANCH  18  19
ENDBRANCH  17  18
ENDBRANCH  16  17
ENDBRANCH  15  16
ENDBRANCH  14  15
ENDBRANCH  13  14
ENDBRANCH   2  13
TORSDOF 15
ENDMDL
MODEL 5
REMARK VINA RESULT:     9.209      7.101     10.989
REMARK INTER + INTRA:          16.328
REMARK INTER:                  17.384
REMARK INTRA:                  -1.057
REMARK UNBOUND:                -0.956
REMARK SMILES CCCCCCCCC=CCCCCCCCC(=O)[O-]
REMARK SMILES IDX 10 1 9 2 11 3 12 4 13 5 14 6 15 7 16 8 17 9 18 10 19 11
REMARK SMILES IDX 20 12 8 13 7 14 6 15 5 16 4 17 3 18 2 19 1 20
REMARK H PARENT
REMARK Flexibility Score: inf
ROOT
ATOM      1  C   UNL     1     -23.828  30.376  -8.146  1.00  0.00    -0.031 C 
ATOM      2  C   UNL     1     -23.991  31.663  -8.487  1.00  0.00    -0.031 C 
ENDROOT
BRANCH   1   3
ATOM      3  C   UNL     1     -22.562  29.891  -7.495  1.00  0.00     0.027 C 
BRANCH   3   4
ATOM      4  C   UNL     1     -22.234  28.453  -7.924  1.00  0.00     0.004 C 
BRANCH   4   5
ATOM      5  C   UNL     1     -21.358  27.710  -6.901  1.00  0.00     0.000 C 
BRANCH   5   6
ATOM      6  C   UNL     1     -19.881  27.538  -7.310  1.00  0.00     0.000 C 
BRANCH   6   7
ATOM      7  C   UNL     1     -19.144  26.359  -6.645  1.00  0.00     0.000 C 
BRANCH   7   8
ATOM      8  C   UNL     1     -19.716  25.910  -5.286  1.00  0.00     0.006 C 
BRANCH   8   9
ATOM      9  C   UNL     1     -18.876  24.829  -4.582  1.00  0.00     0.053 C 
BRANCH   9  10
ATOM     10  C   UNL     1     -19.109  23.459  -5.143  1.00  0.00     0.041 C 
ATOM     11  O   UNL     1     -19.429  22.507  -4.383  1.00  0.00    -0.550 OA
ATOM     12  O   UNL     1     -19.011  23.240  -6.512  1.00  0.00    -0.550 OA
ENDBRANCH   9  10
ENDBRANCH   8   9
ENDBRANCH   7   8
ENDBRANCH   6   7
ENDBRANCH   5   6
ENDBRANCH   4   5
ENDBRANCH   3   4
ENDBRANCH   1   3
BRANCH   2  13
ATOM     13  C   UNL     1     -25.255  32.162  -9.133  1.00  0.00     0.027 C 
BRANCH  13  14
ATOM     14  C   UNL     1     -26.347  31.085  -9.063  1.00  0.00     0.004 C 
BRANCH  14  15
ATOM     15  C   UNL     1     -27.229  31.220  -7.813  1.00  0.00     0.000 C 
BRANCH  15  16
ATOM     16  C   UNL     1     -27.288  29.923  -6.987  1.00  0.00     0.000 C 
BRANCH  16  17
ATOM     17  C   UNL     1     -26.444  30.005  -5.704  1.00  0.00    -0.000 C 
BRANCH  17  18
ATOM     18  C   UNL     1     -26.149  31.455  -5.285  1.00  0.00    -0.000 C 
BRANCH  18  19
ATOM     19  C   UNL     1     -25.528  31.547  -3.883  1.00  0.00    -0.003 C 
ATOM     20  C   UNL     1     -26.495  31.110  -2.782  1.00  0.00     0.004 C 
ENDBRANCH  18  19
ENDBRANCH  17  18
ENDBRANCH  16  17
ENDBRANCH  15  16
ENDBRANCH  14  15
ENDBRANCH  13  14
ENDBRANCH   2  13
TORSDOF 15
ENDMDL
MODEL 6
REMARK VINA RESULT:     9.802     10.966     14.103
REMARK INTER + INTRA:          17.441
REMARK INTER:                  18.456
REMARK INTRA:                  -1.015
REMARK UNBOUND:                -0.956
REMARK SMILES CCCCCCCCC=CCCCCCCCC(=O)[O-]
REMARK SMILES IDX 10 1 9 2 11 3 12 4 13 5 14 6 15 7 16 8 17 9 18 10 19 11
REMARK SMILES IDX 20 12 8 13 7 14 6 15 5 16 4 17 3 18 2 19 1 20
REMARK H PARENT
REMARK Flexibility Score: inf
ROOT
ATOM      1  C   UNL     1     -35.716  22.304  -8.726  1.00  0.00    -0.031 C 
ATOM      2  C   UNL     1     -36.655  23.245  -8.905  1.00  0.00    -0.031 C 
ENDROOT
BRANCH   1   3
ATOM      3  C   UNL     1     -34.319  22.478  -9.256  1.00  0.00     0.027 C 
BRANCH   3   4
ATOM      4  C   UNL     1     -33.345  21.504  -8.579  1.00  0.00     0.004 C 
BRANCH   4   5
ATOM      5  C   UNL     1     -31.910  22.054  -8.498  1.00  0.00     0.000 C 
BRANCH   5   6
ATOM      6  C   UNL     1     -30.896  21.129  -7.794  1.00  0.00     0.000 C 
BRANCH   6   7
ATOM      7  C   UNL     1     -30.919  19.657  -8.250  1.00  0.00     0.000 C 
BRANCH   7   8
ATOM      8  C   UNL     1     -29.749  18.793  -7.741  1.00  0.00     0.006 C 
BRANCH   8   9
ATOM      9  C   UNL     1     -29.808  17.326  -8.205  1.00  0.00     0.053 C 
BRANCH   9  10
ATOM     10  C   UNL     1     -28.497  16.836  -8.742  1.00  0.00     0.041 C 
ATOM     11  O   UNL     1     -27.816  16.003  -8.088  1.00  0.00    -0.550 OA
ATOM     12  O   UNL     1     -28.045  17.270  -9.981  1.00  0.00    -0.550 OA
ENDBRANCH   9  10
ENDBRANCH   8   9
ENDBRANCH   7   8
ENDBRANCH   6   7
ENDBRANCH   5   6
ENDBRANCH   4   5
ENDBRANCH   3   4
ENDBRANCH   1   3
BRANCH   2  13
ATOM     13  C   UNL     1     -38.054  23.086  -8.373  1.00  0.00     0.027 C 
BRANCH  13  14
ATOM     14  C   UNL     1     -38.088  23.390  -6.869  1.00  0.00     0.004 C 
BRANCH  14  15
ATOM     15  C   UNL     1     -38.866  24.674  -6.545  1.00  0.00     0.000 C 
BRANCH  15  16
ATOM     16  C   UNL     1     -39.124  25.540  -7.791  1.00  0.00     0.000 C 
BRANCH  16  17
ATOM     17  C   UNL     1     -38.584  26.971  -7.634  1.00  0.00    -0.000 C 
BRANCH  17  18
ATOM     18  C   UNL     1     -37.063  27.003  -7.401  1.00  0.00    -0.000 C 
BRANCH  18  19
ATOM     19  C   UNL     1     -36.274  26.428  -8.586  1.00  0.00    -0.003 C 
ATOM     20  C   UNL     1     -34.854  26.012  -8.201  1.00  0.00     0.004 C 
ENDBRANCH  18  19
ENDBRANCH  17  18
ENDBRANCH  16  17
ENDBRANCH  15  16
ENDBRANCH  14  15
ENDBRANCH  13  14
ENDBRANCH   2  13
TORSDOF 15
ENDMDL
MODEL 7
REMARK VINA RESULT:     9.824      9.315     11.664
REMARK INTER + INTRA:          17.483
REMARK INTER:                  18.068
REMARK INTRA:                  -0.584
REMARK UNBOUND:                -0.956
REMARK SMILES CCCCCCCCC=CCCCCCCCC(=O)[O-]
REMARK SMILES IDX 10 1 9 2 11 3 12 4 13 5 14 6 15 7 16 8 17 9 18 10 19 11
REMARK SMILES IDX 20 12 8 13 7 14 6 15 5 16 4 17 3 18 2 19 1 20
REMARK H PARENT
REMARK Flexibility Score: inf
ROOT
ATOM      1  C   UNL     1     -26.206  23.601  -7.353  1.00  0.00    -0.031 C 
ATOM      2  C   UNL     1     -27.436  23.145  -7.634  1.00  0.00    -0.031 C 
ENDROOT
BRANCH   1   3
ATOM      3  C   UNL     1     -25.608  24.758  -8.105  1.00  0.00     0.027 C 
BRANCH   3   4
ATOM      4  C   UNL     1     -25.454  25.987  -7.197  1.00  0.00     0.004 C 
BRANCH   4   5
ATOM      5  C   UNL     1     -26.091  27.254  -7.795  1.00  0.00     0.000 C 
BRANCH   5   6
ATOM      6  C   UNL     1     -27.191  27.902  -6.928  1.00  0.00     0.000 C 
BRANCH   6   7
ATOM      7  C   UNL     1     -26.962  29.384  -6.572  1.00  0.00     0.000 C 
BRANCH   7   8
ATOM      8  C   UNL     1     -26.807  30.333  -7.776  1.00  0.00     0.006 C 
BRANCH   8   9
ATOM      9  C   UNL     1     -25.868  31.525  -7.514  1.00  0.00     0.053 C 
BRANCH   9  10
ATOM     10  C   UNL     1     -25.029  31.873  -8.707  1.00  0.00     0.041 C 
ATOM     11  O   UNL     1     -25.309  31.399  -9.839  1.00  0.00    -0.550 OA
ATOM     12  O   UNL     1     -23.961  32.751  -8.575  1.00  0.00    -0.550 OA
ENDBRANCH   9  10
ENDBRANCH   8   9
ENDBRANCH   7   8
ENDBRANCH   6   7
ENDBRANCH   5   6
ENDBRANCH   4   5
ENDBRANCH   3   4
ENDBRANCH   1   3
BRANCH   2  13
ATOM     13  C   UNL     1     -28.049  21.992  -6.885  1.00  0.00     0.027 C 
BRANCH  13  14
ATOM     14  C   UNL     1     -29.511  21.799  -7.313  1.00  0.00     0.004 C 
BRANCH  14  15
ATOM     15  C   UNL     1     -30.011  20.367  -7.072  1.00  0.00     0.000 C 
BRANCH  15  16
ATOM     16  C   UNL     1     -30.359  19.634  -8.380  1.00  0.00     0.000 C 
BRANCH  16  17
ATOM     17  C   UNL     1     -30.337  18.105  -8.219  1.00  0.00    -0.000 C 
BRANCH  17  18
ATOM     18  C   UNL     1     -29.051  17.472  -8.781  1.00  0.00    -0.000 C 
BRANCH  18  19
ATOM     19  C   UNL     1     -28.714  16.132  -8.110  1.00  0.00    -0.003 C 
ATOM     20  C   UNL     1     -27.209  15.875  -8.033  1.00  0.00     0.004 C 
ENDBRANCH  18  19
ENDBRANCH  17  18
ENDBRANCH  16  17
ENDBRANCH  15  16
ENDBRANCH  14  15
ENDBRANCH  13  14
ENDBRANCH   2  13
TORSDOF 15
ENDMDL
