MODEL 1
REMARK VINA RESULT:    -3.362      0.000      0.000
REMARK INTER + INTRA:          -3.657
REMARK INTER:                  -3.657
REMARK INTRA:                   0.000
REMARK UNBOUND:                 0.000
REMARK SMILES [NH3+]CC(=O)[O-]
REMARK SMILES IDX 2 1 1 2 3 6 4 7 5 8
REMARK H PARENT 1 3 1 4 1 5
REMARK Flexibility Score: inf
ROOT
ATOM      1  C   UNL     1     142.111 114.615 113.791  1.00  0.00     0.312 C 
ENDROOT
BRANCH   1   2
ATOM      2  N   UNL     1     141.763 113.453 114.609  1.00  0.00    -0.353 N 
ATOM      3  H   UNL     1     141.609 113.746 115.601  1.00  0.00     0.344 HD
ATOM      4  H   UNL     1     142.548 112.765 114.577  1.00  0.00     0.344 HD
ATOM      5  H   UNL     1     140.898 112.999 114.235  1.00  0.00     0.344 HD
ENDBRANCH   1   2
BRANCH   1   6
ATOM      6  C   UNL     1     141.587 115.873 114.411  1.00  0.00     0.096 C 
ATOM      7  O   UNL     1     140.352 116.017 114.606  1.00  0.00    -0.544 OA
ATOM      8  O   UNL     1     142.459 116.908 114.726  1.00  0.00    -0.544 OA
ENDBRANCH   1   6
TORSDOF 2
ENDMDL
MODEL 2
REMARK VINA RESULT:    -3.358     17.023     17.370
REMARK INTER + INTRA:          -3.653
REMARK INTER:                  -3.653
REMARK INTRA:                   0.000
REMARK UNBOUND:                 0.000
REMARK SMILES [NH3+]CC(=O)[O-]
REMARK SMILES IDX 2 1 1 2 3 6 4 7 5 8
REMARK H PARENT 1 3 1 4 1 5
REMARK Flexibility Score: inf
ROOT
ATOM      1  C   UNL     1     130.981 102.115 112.335  1.00  0.00     0.312 C 
ENDROOT
BRANCH   1   2
ATOM      2  N   UNL     1     130.126 102.505 111.215  1.00  0.00    -0.353 N 
ATOM      3  H   UNL     1     129.127 102.545 111.523  1.00  0.00     0.344 HD
ATOM      4  H   UNL     1     130.217 101.798 110.452  1.00  0.00     0.344 HD
ATOM      5  H   UNL     1     130.420 103.440 110.849  1.00  0.00     0.344 HD
ENDBRANCH   1   2
BRANCH   1   6
ATOM      6  C   UNL     1     130.326 102.447 113.640  1.00  0.00     0.096 C 
ATOM      7  O   UNL     1     129.988 103.632 113.896  1.00  0.00    -0.544 OA
ATOM      8  O   UNL     1     130.138 101.455 114.595  1.00  0.00    -0.544 OA
ENDBRANCH   1   6
TORSDOF 2
ENDMDL
MODEL 3
REMARK VINA RESULT:    -3.242     17.282     17.633
REMARK INTER + INTRA:          -3.526
REMARK INTER:                  -3.526
REMARK INTRA:                   0.000
REMARK UNBOUND:                 0.000
REMARK SMILES [NH3+]CC(=O)[O-]
REMARK SMILES IDX 2 1 1 2 3 6 4 7 5 8
REMARK H PARENT 1 3 1 4 1 5
REMARK Flexibility Score: inf
ROOT
ATOM      1  C   UNL     1     131.072 115.248 100.786  1.00  0.00     0.312 C 
ENDROOT
BRANCH   1   2
ATOM      2  N   UNL     1     132.004 116.217 101.361  1.00  0.00    -0.353 N 
ATOM      3  H   UNL     1     131.608 117.183 101.289  1.00  0.00     0.344 HD
ATOM      4  H   UNL     1     132.904 116.181 100.832  1.00  0.00     0.344 HD
ATOM      5  H   UNL     1     132.190 115.984 102.364  1.00  0.00     0.344 HD
ENDBRANCH   1   2
BRANCH   1   6
ATOM      6  C   UNL     1     129.670 115.541 101.224  1.00  0.00     0.096 C 
ATOM      7  O   UNL     1     129.419 115.767 102.436  1.00  0.00    -0.544 OA
ATOM      8  O   UNL     1     128.633 115.512 100.300  1.00  0.00    -0.544 OA
ENDBRANCH   1   6
TORSDOF 2
ENDMDL
MODEL 4
REMARK VINA RESULT:    -3.051     17.274     17.562
REMARK INTER + INTRA:          -3.319
REMARK INTER:                  -3.319
REMARK INTRA:                   0.000
REMARK UNBOUND:                 0.000
REMARK SMILES [NH3+]CC(=O)[O-]
REMARK SMILES IDX 2 1 1 2 3 6 4 7 5 8
REMARK H PARENT 1 3 1 4 1 5
REMARK Flexibility Score: inf
ROOT
ATOM      1  C   UNL     1     129.261 115.972 101.650  1.00  0.00     0.312 C 
ENDROOT
BRANCH   1   2
ATOM      2  N   UNL     1     129.256 115.597 103.063  1.00  0.00    -0.353 N 
ATOM      3  H   UNL     1     128.499 116.114 103.569  1.00  0.00     0.344 HD
ATOM      4  H   UNL     1     130.177 115.846 103.487  1.00  0.00     0.344 HD
ATOM      5  H   UNL     1     129.105 114.566 103.160  1.00  0.00     0.344 HD
ENDBRANCH   1   2
BRANCH   1   6
ATOM      6  C   UNL     1     130.320 115.217 100.907  1.00  0.00     0.096 C 
ATOM      7  O   UNL     1     130.031 114.152 100.302  1.00  0.00    -0.544 OA
ATOM      8  O   UNL     1     131.635 115.663 100.927  1.00  0.00    -0.544 OA
ENDBRANCH   1   6
TORSDOF 2
ENDMDL
MODEL 5
REMARK VINA RESULT:    -3.017     16.850     17.032
REMARK INTER + INTRA:          -3.282
REMARK INTER:                  -3.282
REMARK INTRA:                   0.000
REMARK UNBOUND:                 0.000
REMARK SMILES [NH3+]CC(=O)[O-]
REMARK SMILES IDX 2 1 1 2 3 6 4 7 5 8
REMARK H PARENT 1 3 1 4 1 5
REMARK Flexibility Score: inf
ROOT
ATOM      1  C   UNL     1     129.900 102.898 113.873  1.00  0.00     0.312 C 
ENDROOT
BRANCH   1   2
ATOM      2  N   UNL     1     130.102 104.346 113.898  1.00  0.00    -0.353 N 
ATOM      3  H   UNL     1     130.702 104.639 113.092  1.00  0.00     0.344 HD
ATOM      4  H   UNL     1     130.578 104.610 114.789  1.00  0.00     0.344 HD
ATOM      5  H   UNL     1     129.179 104.838 113.848  1.00  0.00     0.344 HD
ENDBRANCH   1   2
BRANCH   1   6
ATOM      6  C   UNL     1     130.865 102.246 112.933  1.00  0.00     0.096 C 
ATOM      7  O   UNL     1     131.944 101.764 113.367  1.00  0.00    -0.544 OA
ATOM      8  O   UNL     1     130.597 102.217 111.570  1.00  0.00    -0.544 OA
ENDBRANCH   1   6
TORSDOF 2
ENDMDL
MODEL 6
REMARK VINA RESULT:    -2.906      2.194      2.377
REMARK INTER + INTRA:          -3.161
REMARK INTER:                  -3.161
REMARK INTRA:                   0.000
REMARK UNBOUND:                 0.000
REMARK SMILES [NH3+]CC(=O)[O-]
REMARK SMILES IDX 2 1 1 2 3 6 4 7 5 8
REMARK H PARENT 1 3 1 4 1 5
REMARK Flexibility Score: inf
ROOT
ATOM      1  C   UNL     1     140.960 116.005 114.792  1.00  0.00     0.312 C 
ENDROOT
BRANCH   1   2
ATOM      2  N   UNL     1     139.559 115.896 114.390  1.00  0.00    -0.353 N 
ATOM      3  H   UNL     1     138.998 115.455 115.156  1.00  0.00     0.344 HD
ATOM      4  H   UNL     1     139.493 115.299 113.536  1.00  0.00     0.344 HD
ATOM      5  H   UNL     1     139.174 116.845 114.173  1.00  0.00     0.344 HD
ENDBRANCH   1   2
BRANCH   1   6
ATOM      6  C   UNL     1     141.822 115.113 113.953  1.00  0.00     0.096 C 
ATOM      7  O   UNL     1     141.963 113.900 114.256  1.00  0.00    -0.544 OA
ATOM      8  O   UNL     1     142.509 115.635 112.865  1.00  0.00    -0.544 OA
ENDBRANCH   1   6
TORSDOF 2
ENDMDL
MODEL 7
REMARK VINA RESULT:    -2.898      2.405      2.754
REMARK INTER + INTRA:          -3.152
REMARK INTER:                  -3.152
REMARK INTRA:                   0.000
REMARK UNBOUND:                 0.000
REMARK SMILES [NH3+]CC(=O)[O-]
REMARK SMILES IDX 2 1 1 2 3 6 4 7 5 8
REMARK H PARENT 1 3 1 4 1 5
REMARK Flexibility Score: inf
ROOT
ATOM      1  C   UNL     1     141.504 116.272 115.165  1.00  0.00     0.312 C 
ENDROOT
BRANCH   1   2
ATOM      2  N   UNL     1     142.478 117.280 114.748  1.00  0.00    -0.353 N 
ATOM      3  H   UNL     1     141.986 118.162 114.472  1.00  0.00     0.344 HD
ATOM      4  H   UNL     1     143.013 116.921 113.927  1.00  0.00     0.344 HD
ATOM      5  H   UNL     1     143.146 117.478 115.529  1.00  0.00     0.344 HD
ENDBRANCH   1   2
BRANCH   1   6
ATOM      6  C   UNL     1     141.715 114.993 114.416  1.00  0.00     0.096 C 
ATOM      7  O   UNL     1     142.106 115.016 113.219  1.00  0.00    -0.544 OA
ATOM      8  O   UNL     1     141.431 113.776 115.024  1.00  0.00    -0.544 OA
ENDBRANCH   1   6
TORSDOF 2
ENDMDL
MODEL 8
REMARK VINA RESULT:    -2.867      1.485      1.973
REMARK INTER + INTRA:          -3.118
REMARK INTER:                  -3.118
REMARK INTRA:                   0.000
REMARK UNBOUND:                 0.000
REMARK SMILES [NH3+]CC(=O)[O-]
REMARK SMILES IDX 2 1 1 2 3 6 4 7 5 8
REMARK H PARENT 1 3 1 4 1 5
REMARK Flexibility Score: inf
ROOT
ATOM      1  C   UNL     1     141.768 115.354 114.037  1.00  0.00     0.312 C 
ENDROOT
BRANCH   1   2
ATOM      2  N   UNL     1     140.323 115.228 113.850  1.00  0.00    -0.353 N 
ATOM      3  H   UNL     1     140.073 115.405 112.849  1.00  0.00     0.344 HD
ATOM      4  H   UNL     1     139.837 115.933 114.450  1.00  0.00     0.344 HD
ATOM      5  H   UNL     1     140.007 114.270 114.130  1.00  0.00     0.344 HD
ENDBRANCH   1   2
BRANCH   1   6
ATOM      6  C   UNL     1     142.088 116.537 114.897  1.00  0.00     0.096 C 
ATOM      7  O   UNL     1     143.090 117.254 114.640  1.00  0.00    -0.544 OA
ATOM      8  O   UNL     1     141.310 116.815 116.014  1.00  0.00    -0.544 OA
ENDBRANCH   1   6
TORSDOF 2
ENDMDL
MODEL 9
REMARK VINA RESULT:    -2.742     17.311     17.547
REMARK INTER + INTRA:          -2.983
REMARK INTER:                  -2.983
REMARK INTRA:                   0.000
REMARK UNBOUND:                 0.000
REMARK SMILES [NH3+]CC(=O)[O-]
REMARK SMILES IDX 2 1 1 2 3 6 4 7 5 8
REMARK H PARENT 1 3 1 4 1 5
REMARK Flexibility Score: inf
ROOT
ATOM      1  C   UNL     1     129.708 102.485 114.149  1.00  0.00     0.312 C 
ENDROOT
BRANCH   1   2
ATOM      2  N   UNL     1     130.101 101.294 114.901  1.00  0.00    -0.353 N 
ATOM      3  H   UNL     1     131.112 101.354 115.166  1.00  0.00     0.344 HD
ATOM      4  H   UNL     1     129.957 100.449 114.305  1.00  0.00     0.344 HD
ATOM      5  H   UNL     1     129.515 101.205 115.763  1.00  0.00     0.344 HD
ENDBRANCH   1   2
BRANCH   1   6
ATOM      6  C   UNL     1     130.281 102.450 112.767  1.00  0.00     0.096 C 
ATOM      7  O   UNL     1     129.546 102.678 111.770  1.00  0.00    -0.544 OA
ATOM      8  O   UNL     1     131.615 102.114 112.575  1.00  0.00    -0.544 OA
ENDBRANCH   1   6
TORSDOF 2
ENDMDL
