MODEL 1
REMARK VINA RESULT:    -5.152      0.000      0.000
REMARK INTER + INTRA:          -5.631
REMARK INTER:                  -5.603
REMARK INTRA:                  -0.027
REMARK UNBOUND:                -0.027
REMARK SMILES COc1cc2ccc(=O)oc2cc1O
REMARK SMILES IDX 3 1 13 2 12 3 11 4 5 5 4 6 6 7 7 8 8 9 9 10 10 11 2 12 1 13
REMARK SMILES IDX 14 14
REMARK H PARENT 14 15
REMARK Flexibility Score: inf
ROOT
ATOM      1  C   UNL     1       8.032  -6.748  -7.510  1.00  0.00     0.161 A 
ATOM      2  C   UNL     1       7.677  -5.398  -7.366  1.00  0.00     0.161 A 
ATOM      3  C   UNL     1       7.516  -4.583  -8.496  1.00  0.00     0.098 A 
ATOM      4  C   UNL     1       7.706  -5.109  -9.776  1.00  0.00     0.142 A 
ATOM      5  C   UNL     1       8.062  -6.466  -9.930  1.00  0.00     0.022 A 
ATOM      6  C   UNL     1       8.224  -7.281  -8.801  1.00  0.00     0.062 A 
ATOM      7  C   UNL     1       8.246  -6.963 -11.225  1.00  0.00     0.019 A 
ATOM      8  C   UNL     1       8.073  -6.112 -12.316  1.00  0.00     0.094 A 
ATOM      9  C   UNL     1       7.720  -4.779 -12.086  1.00  0.00     0.336 A 
ATOM     10  O   UNL     1       7.560  -3.994 -13.058  1.00  0.00    -0.246 OA
ATOM     11  O   UNL     1       7.552  -4.331 -10.845  1.00  0.00    -0.423 OA
ENDROOT
BRANCH   1  12
ATOM     12  O   UNL     1       8.183  -7.527  -6.351  1.00  0.00    -0.493 OA
ATOM     13  C   UNL     1       7.126  -8.232  -5.710  1.00  0.00     0.278 C 
ENDBRANCH   1  12
BRANCH   2  14
ATOM     14  O   UNL     1       7.487  -4.871  -6.089  1.00  0.00    -0.504 OA
ATOM     15  H   UNL     1       6.782  -5.242  -5.462  1.00  0.00     0.293 HD
ENDBRANCH   2  14
TORSDOF 2
ENDMDL
MODEL 2
REMARK VINA RESULT:    -5.004      2.517      2.827
REMARK INTER + INTRA:          -5.470
REMARK INTER:                  -5.408
REMARK INTRA:                  -0.062
REMARK UNBOUND:                -0.027
REMARK SMILES COc1cc2ccc(=O)oc2cc1O
REMARK SMILES IDX 3 1 13 2 12 3 11 4 5 5 4 6 6 7 7 8 8 9 9 10 10 11 2 12 1 13
REMARK SMILES IDX 14 14
REMARK H PARENT 14 15
REMARK Flexibility Score: inf
ROOT
ATOM      1  C   UNL     1       8.542  -6.154  -6.933  1.00  0.00     0.161 A 
ATOM      2  C   UNL     1       9.864  -5.751  -7.175  1.00  0.00     0.161 A 
ATOM      3  C   UNL     1      10.505  -6.105  -8.371  1.00  0.00     0.098 A 
ATOM      4  C   UNL     1       9.832  -6.861  -9.332  1.00  0.00     0.142 A 
ATOM      5  C   UNL     1       8.502  -7.270  -9.098  1.00  0.00     0.022 A 
ATOM      6  C   UNL     1       7.861  -6.916  -7.903  1.00  0.00     0.062 A 
ATOM      7  C   UNL     1       7.855  -8.027 -10.081  1.00  0.00     0.019 A 
ATOM      8  C   UNL     1       8.536  -8.352 -11.253  1.00  0.00     0.094 A 
ATOM      9  C   UNL     1       9.853  -7.913 -11.416  1.00  0.00     0.336 A 
ATOM     10  O   UNL     1      10.486  -8.196 -12.468  1.00  0.00    -0.246 OA
ATOM     11  O   UNL     1      10.445  -7.194 -10.466  1.00  0.00    -0.423 OA
ENDROOT
BRANCH   1  12
ATOM     12  O   UNL     1       7.939  -5.777  -5.722  1.00  0.00    -0.493 OA
ATOM     13  C   UNL     1       7.843  -6.613  -4.573  1.00  0.00     0.278 C 
ENDBRANCH   1  12
BRANCH   2  14
ATOM     14  O   UNL     1      10.538  -4.996  -6.215  1.00  0.00    -0.504 OA
ATOM     15  H   UNL     1      11.419  -4.538  -6.424  1.00  0.00     0.293 HD
ENDBRANCH   2  14
TORSDOF 2
ENDMDL
MODEL 3
REMARK VINA RESULT:    -4.996     22.840     23.586
REMARK INTER + INTRA:          -5.461
REMARK INTER:                  -5.403
REMARK INTRA:                  -0.058
REMARK UNBOUND:                -0.027
REMARK SMILES COc1cc2ccc(=O)oc2cc1O
REMARK SMILES IDX 3 1 13 2 12 3 11 4 5 5 4 6 6 7 7 8 8 9 9 10 10 11 2 12 1 13
REMARK SMILES IDX 14 14
REMARK H PARENT 14 15
REMARK Flexibility Score: inf
ROOT
ATOM      1  C   UNL     1      23.432   6.666 -21.084  1.00  0.00     0.161 A 
ATOM      2  C   UNL     1      22.848   7.933 -20.928  1.00  0.00     0.161 A 
ATOM      3  C   UNL     1      22.962   8.620 -19.711  1.00  0.00     0.098 A 
ATOM      4  C   UNL     1      23.658   8.050 -18.643  1.00  0.00     0.142 A 
ATOM      5  C   UNL     1      24.248   6.777 -18.792  1.00  0.00     0.022 A 
ATOM      6  C   UNL     1      24.136   6.089 -20.007  1.00  0.00     0.062 A 
ATOM      7  C   UNL     1      24.940   6.232 -17.703  1.00  0.00     0.019 A 
ATOM      8  C   UNL     1      25.024   6.956 -16.515  1.00  0.00     0.094 A 
ATOM      9  C   UNL     1      24.414   8.212 -16.441  1.00  0.00     0.336 A 
ATOM     10  O   UNL     1      24.478   8.882 -15.376  1.00  0.00    -0.246 OA
ATOM     11  O   UNL     1      23.763   8.707 -17.490  1.00  0.00    -0.423 OA
ENDROOT
BRANCH   1  12
ATOM     12  O   UNL     1      23.294   6.014 -22.320  1.00  0.00    -0.493 OA
ATOM     13  C   UNL     1      24.381   5.570 -23.125  1.00  0.00     0.278 C 
ENDBRANCH   1  12
BRANCH   2  14
ATOM     14  O   UNL     1      22.153   8.504 -21.993  1.00  0.00    -0.504 OA
ATOM     15  H   UNL     1      22.490   9.338 -22.460  1.00  0.00     0.293 HD
ENDBRANCH   2  14
TORSDOF 2
ENDMDL
MODEL 4
REMARK VINA RESULT:    -4.968      1.526      2.510
REMARK INTER + INTRA:          -5.431
REMARK INTER:                  -5.382
REMARK INTRA:                  -0.049
REMARK UNBOUND:                -0.027
REMARK SMILES COc1cc2ccc(=O)oc2cc1O
REMARK SMILES IDX 3 1 13 2 12 3 11 4 5 5 4 6 6 7 7 8 8 9 9 10 10 11 2 12 1 13
REMARK SMILES IDX 14 14
REMARK H PARENT 14 15
REMARK Flexibility Score: inf
ROOT
ATOM      1  C   UNL     1       8.007  -6.447  -6.713  1.00  0.00     0.161 A 
ATOM      2  C   UNL     1       8.332  -7.724  -7.195  1.00  0.00     0.161 A 
ATOM      3  C   UNL     1       8.462  -7.949  -8.573  1.00  0.00     0.098 A 
ATOM      4  C   UNL     1       8.269  -6.903  -9.478  1.00  0.00     0.142 A 
ATOM      5  C   UNL     1       7.942  -5.616  -9.002  1.00  0.00     0.022 A 
ATOM      6  C   UNL     1       7.812  -5.390  -7.625  1.00  0.00     0.062 A 
ATOM      7  C   UNL     1       7.755  -4.589  -9.934  1.00  0.00     0.019 A 
ATOM      8  C   UNL     1       7.896  -4.864 -11.294  1.00  0.00     0.094 A 
ATOM      9  C   UNL     1       8.221  -6.164 -11.692  1.00  0.00     0.336 A 
ATOM     10  O   UNL     1       8.353  -6.434 -12.915  1.00  0.00    -0.246 OA
ATOM     11  O   UNL     1       8.394  -7.123 -10.785  1.00  0.00    -0.423 OA
ENDROOT
BRANCH   1  12
ATOM     12  O   UNL     1       7.886  -6.267  -5.325  1.00  0.00    -0.493 OA
ATOM     13  C   UNL     1       8.246  -5.077  -4.632  1.00  0.00     0.278 C 
ENDBRANCH   1  12
BRANCH   2  14
ATOM     14  O   UNL     1       8.526  -8.769  -6.293  1.00  0.00    -0.504 OA
ATOM     15  H   UNL     1       8.392  -9.737  -6.566  1.00  0.00     0.293 HD
ENDBRANCH   2  14
TORSDOF 2
ENDMDL
MODEL 5
REMARK VINA RESULT:    -4.966      1.348      5.414
REMARK INTER + INTRA:          -5.429
REMARK INTER:                  -5.383
REMARK INTRA:                  -0.046
REMARK UNBOUND:                -0.027
REMARK SMILES COc1cc2ccc(=O)oc2cc1O
REMARK SMILES IDX 3 1 13 2 12 3 11 4 5 5 4 6 6 7 7 8 8 9 9 10 10 11 2 12 1 13
REMARK SMILES IDX 14 14
REMARK H PARENT 14 15
REMARK Flexibility Score: inf
ROOT
ATOM      1  C   UNL     1       7.932  -5.534 -11.584  1.00  0.00     0.161 A 
ATOM      2  C   UNL     1       8.031  -6.932 -11.649  1.00  0.00     0.161 A 
ATOM      3  C   UNL     1       8.041  -7.696 -10.474  1.00  0.00     0.098 A 
ATOM      4  C   UNL     1       7.952  -7.073  -9.227  1.00  0.00     0.142 A 
ATOM      5  C   UNL     1       7.851  -5.667  -9.153  1.00  0.00     0.022 A 
ATOM      6  C   UNL     1       7.841  -4.902 -10.327  1.00  0.00     0.062 A 
ATOM      7  C   UNL     1       7.763  -5.072  -7.889  1.00  0.00     0.019 A 
ATOM      8  C   UNL     1       7.778  -5.876  -6.751  1.00  0.00     0.094 A 
ATOM      9  C   UNL     1       7.880  -7.262  -6.902  1.00  0.00     0.336 A 
ATOM     10  O   UNL     1       7.894  -8.007  -5.886  1.00  0.00    -0.246 OA
ATOM     11  O   UNL     1       7.962  -7.803  -8.115  1.00  0.00    -0.423 OA
ENDROOT
BRANCH   1  12
ATOM     12  O   UNL     1       7.925  -4.808 -12.786  1.00  0.00    -0.493 OA
ATOM     13  C   UNL     1       7.459  -3.469 -12.918  1.00  0.00     0.278 C 
ENDBRANCH   1  12
BRANCH   2  14
ATOM     14  O   UNL     1       8.120  -7.557 -12.892  1.00  0.00    -0.504 OA
ATOM     15  H   UNL     1       8.296  -7.029 -13.740  1.00  0.00     0.293 HD
ENDBRANCH   2  14
TORSDOF 2
ENDMDL
MODEL 6
REMARK VINA RESULT:    -4.933      1.477      4.880
REMARK INTER + INTRA:          -5.393
REMARK INTER:                  -5.328
REMARK INTRA:                  -0.065
REMARK UNBOUND:                -0.027
REMARK SMILES COc1cc2ccc(=O)oc2cc1O
REMARK SMILES IDX 3 1 13 2 12 3 11 4 5 5 4 6 6 7 7 8 8 9 9 10 10 11 2 12 1 13
REMARK SMILES IDX 14 14
REMARK H PARENT 14 15
REMARK Flexibility Score: inf
ROOT
ATOM      1  C   UNL     1       8.117  -6.959 -10.751  1.00  0.00     0.161 A 
ATOM      2  C   UNL     1       8.139  -5.562 -10.626  1.00  0.00     0.161 A 
ATOM      3  C   UNL     1       8.100  -4.963  -9.359  1.00  0.00     0.098 A 
ATOM      4  C   UNL     1       8.039  -5.754  -8.209  1.00  0.00     0.142 A 
ATOM      5  C   UNL     1       8.017  -7.160  -8.326  1.00  0.00     0.022 A 
ATOM      6  C   UNL     1       8.056  -7.759  -9.592  1.00  0.00     0.062 A 
ATOM      7  C   UNL     1       7.955  -7.924  -7.155  1.00  0.00     0.019 A 
ATOM      8  C   UNL     1       7.918  -7.281  -5.919  1.00  0.00     0.094 A 
ATOM      9  C   UNL     1       7.943  -5.884  -5.880  1.00  0.00     0.336 A 
ATOM     10  O   UNL     1       7.911  -5.284  -4.774  1.00  0.00    -0.246 OA
ATOM     11  O   UNL     1       8.002  -5.180  -7.008  1.00  0.00    -0.423 OA
ENDROOT
BRANCH   1  12
ATOM     12  O   UNL     1       8.158  -7.516 -12.040  1.00  0.00    -0.493 OA
ATOM     13  C   UNL     1       9.321  -8.074 -12.642  1.00  0.00     0.278 C 
ENDBRANCH   1  12
BRANCH   2  14
ATOM     14  O   UNL     1       8.200  -4.770 -11.773  1.00  0.00    -0.504 OA
ATOM     15  H   UNL     1       8.777  -5.030 -12.566  1.00  0.00     0.293 HD
ENDBRANCH   2  14
TORSDOF 2
ENDMDL
MODEL 7
REMARK VINA RESULT:    -4.900     13.639     14.316
REMARK INTER + INTRA:          -5.357
REMARK INTER:                  -5.292
REMARK INTRA:                  -0.065
REMARK UNBOUND:                -0.027
REMARK SMILES COc1cc2ccc(=O)oc2cc1O
REMARK SMILES IDX 3 1 13 2 12 3 11 4 5 5 4 6 6 7 7 8 8 9 9 10 10 11 2 12 1 13
REMARK SMILES IDX 14 14
REMARK H PARENT 14 15
REMARK Flexibility Score: inf
ROOT
ATOM      1  C   UNL     1      19.349  -2.337  -8.245  1.00  0.00     0.161 A 
ATOM      2  C   UNL     1      18.978  -2.731  -6.950  1.00  0.00     0.161 A 
ATOM      3  C   UNL     1      19.954  -3.123  -6.022  1.00  0.00     0.098 A 
ATOM      4  C   UNL     1      21.304  -3.124  -6.379  1.00  0.00     0.142 A 
ATOM      5  C   UNL     1      21.686  -2.729  -7.679  1.00  0.00     0.022 A 
ATOM      6  C   UNL     1      20.711  -2.337  -8.607  1.00  0.00     0.062 A 
ATOM      7  C   UNL     1      23.046  -2.741  -8.007  1.00  0.00     0.019 A 
ATOM      8  C   UNL     1      23.977  -3.139  -7.049  1.00  0.00     0.094 A 
ATOM      9  C   UNL     1      23.526  -3.518  -5.781  1.00  0.00     0.336 A 
ATOM     10  O   UNL     1      24.351  -3.880  -4.901  1.00  0.00    -0.246 OA
ATOM     11  O   UNL     1      22.226  -3.497  -5.495  1.00  0.00    -0.423 OA
ENDROOT
BRANCH   1  12
ATOM     12  O   UNL     1      18.338  -1.952  -9.141  1.00  0.00    -0.493 OA
ATOM     13  C   UNL     1      17.904  -2.731 -10.251  1.00  0.00     0.278 C 
ENDBRANCH   1  12
BRANCH   2  14
ATOM     14  O   UNL     1      17.631  -2.730  -6.591  1.00  0.00    -0.504 OA
ATOM     15  H   UNL     1      17.341  -2.692  -5.620  1.00  0.00     0.293 HD
ENDBRANCH   2  14
TORSDOF 2
ENDMDL
MODEL 8
REMARK VINA RESULT:    -4.795     14.364     16.021
REMARK INTER + INTRA:          -5.243
REMARK INTER:                  -5.193
REMARK INTRA:                  -0.050
REMARK UNBOUND:                -0.027
REMARK SMILES COc1cc2ccc(=O)oc2cc1O
REMARK SMILES IDX 3 1 13 2 12 3 11 4 5 5 4 6 6 7 7 8 8 9 9 10 10 11 2 12 1 13
REMARK SMILES IDX 14 14
REMARK H PARENT 14 15
REMARK Flexibility Score: inf
ROOT
ATOM      1  C   UNL     1      19.271   0.258 -16.008  1.00  0.00     0.161 A 
ATOM      2  C   UNL     1      20.490   0.919 -16.224  1.00  0.00     0.161 A 
ATOM      3  C   UNL     1      21.106   0.873 -17.483  1.00  0.00     0.098 A 
ATOM      4  C   UNL     1      20.511   0.171 -18.533  1.00  0.00     0.142 A 
ATOM      5  C   UNL     1      19.285  -0.495 -18.324  1.00  0.00     0.022 A 
ATOM      6  C   UNL     1      18.668  -0.451 -17.067  1.00  0.00     0.062 A 
ATOM      7  C   UNL     1      18.713  -1.191 -19.397  1.00  0.00     0.019 A 
ATOM      8  C   UNL     1      19.366  -1.205 -20.628  1.00  0.00     0.094 A 
ATOM      9  C   UNL     1      20.578  -0.522 -20.761  1.00  0.00     0.336 A 
ATOM     10  O   UNL     1      21.183  -0.522 -21.866  1.00  0.00    -0.246 OA
ATOM     11  O   UNL     1      21.100   0.132 -19.726  1.00  0.00    -0.423 OA
ENDROOT
BRANCH   1  12
ATOM     12  O   UNL     1      18.689   0.330 -14.731  1.00  0.00    -0.493 OA
ATOM     13  C   UNL     1      18.018  -0.749 -14.089  1.00  0.00     0.278 C 
ENDBRANCH   1  12
BRANCH   2  14
ATOM     14  O   UNL     1      21.086   1.621 -15.177  1.00  0.00    -0.504 OA
ATOM     15  H   UNL     1      21.587   1.143 -14.436  1.00  0.00     0.293 HD
ENDBRANCH   2  14
TORSDOF 2
ENDMDL
MODEL 9
REMARK VINA RESULT:    -4.792      3.172      3.700
REMARK INTER + INTRA:          -5.239
REMARK INTER:                  -5.194
REMARK INTRA:                  -0.045
REMARK UNBOUND:                -0.027
REMARK SMILES COc1cc2ccc(=O)oc2cc1O
REMARK SMILES IDX 3 1 13 2 12 3 11 4 5 5 4 6 6 7 7 8 8 9 9 10 10 11 2 12 1 13
REMARK SMILES IDX 14 14
REMARK H PARENT 14 15
REMARK Flexibility Score: inf
ROOT
ATOM      1  C   UNL     1       8.411  -6.754  -6.441  1.00  0.00     0.161 A 
ATOM      2  C   UNL     1       7.858  -7.909  -7.016  1.00  0.00     0.161 A 
ATOM      3  C   UNL     1       8.397  -8.440  -8.197  1.00  0.00     0.098 A 
ATOM      4  C   UNL     1       9.491  -7.826  -8.810  1.00  0.00     0.142 A 
ATOM      5  C   UNL     1      10.054  -6.665  -8.238  1.00  0.00     0.022 A 
ATOM      6  C   UNL     1       9.516  -6.133  -7.059  1.00  0.00     0.062 A 
ATOM      7  C   UNL     1      11.150  -6.072  -8.876  1.00  0.00     0.019 A 
ATOM      8  C   UNL     1      11.648  -6.640 -10.048  1.00  0.00     0.094 A 
ATOM      9  C   UNL     1      11.039  -7.791 -10.556  1.00  0.00     0.336 A 
ATOM     10  O   UNL     1      11.475  -8.320 -11.613  1.00  0.00    -0.246 OA
ATOM     11  O   UNL     1       9.999  -8.335  -9.930  1.00  0.00    -0.423 OA
ENDROOT
BRANCH   1  12
ATOM     12  O   UNL     1       7.839  -6.256  -5.259  1.00  0.00    -0.493 OA
ATOM     13  C   UNL     1       8.222  -5.039  -4.628  1.00  0.00     0.278 C 
ENDBRANCH   1  12
BRANCH   2  14
ATOM     14  O   UNL     1       6.765  -8.524  -6.406  1.00  0.00    -0.504 OA
ATOM     15  H   UNL     1       6.864  -9.040  -5.539  1.00  0.00     0.293 HD
ENDBRANCH   2  14
TORSDOF 2
ENDMDL
