MODEL 1
REMARK VINA RESULT:    -2.577      0.000      0.000
REMARK INTER + INTRA:          -2.577
REMARK INTER:                  -2.577
REMARK INTRA:                   0.000
REMARK UNBOUND:                 0.000
REMARK SMILES CC(=O)[O-]
REMARK SMILES IDX 1 1 2 2 3 3 4 4
REMARK H PARENT
REMARK Flexibility Score: inf
ROOT
ATOM      1  C   UNL     1      12.129  12.211  14.571  1.00  0.00     0.063 C 
ATOM      2  C   UNL     1      13.070  13.323  14.889  1.00  0.00     0.038 C 
ATOM      3  O   UNL     1      13.706  13.322  15.975  1.00  0.00    -0.550 OA
ATOM      4  O   UNL     1      13.288  14.337  13.964  1.00  0.00    -0.550 OA
ENDROOT
TORSDOF 0
ENDMDL
MODEL 2
REMARK VINA RESULT:    -2.450     10.405     10.795
REMARK INTER + INTRA:          -2.450
REMARK INTER:                  -2.450
REMARK INTRA:                   0.000
REMARK UNBOUND:                 0.000
REMARK SMILES CC(=O)[O-]
REMARK SMILES IDX 1 1 2 2 3 3 4 4
REMARK H PARENT
REMARK Flexibility Score: inf
ROOT
ATOM      1  C   UNL     1      23.762  15.628  18.007  1.00  0.00     0.063 C 
ATOM      2  C   UNL     1      22.842  16.584  17.325  1.00  0.00     0.038 C 
ATOM      3  O   UNL     1      23.012  16.869  16.111  1.00  0.00    -0.550 OA
ATOM      4  O   UNL     1      21.763  17.123  18.015  1.00  0.00    -0.550 OA
ENDROOT
TORSDOF 0
ENDMDL
MODEL 3
REMARK VINA RESULT:    -2.439      1.815      2.027
REMARK INTER + INTRA:          -2.439
REMARK INTER:                  -2.439
REMARK INTRA:                   0.000
REMARK UNBOUND:                 0.000
REMARK SMILES CC(=O)[O-]
REMARK SMILES IDX 1 1 2 2 3 3 4 4
REMARK H PARENT
REMARK Flexibility Score: inf
ROOT
ATOM      1  C   UNL     1      13.118  13.263  15.362  1.00  0.00     0.063 C 
ATOM      2  C   UNL     1      12.522  12.649  14.140  1.00  0.00     0.038 C 
ATOM      3  O   UNL     1      11.697  11.704  14.246  1.00  0.00    -0.550 OA
ATOM      4  O   UNL     1      12.835  13.153  12.884  1.00  0.00    -0.550 OA
ENDROOT
TORSDOF 0
ENDMDL
MODEL 4
REMARK VINA RESULT:    -2.395      1.782      2.388
REMARK INTER + INTRA:          -2.395
REMARK INTER:                  -2.395
REMARK INTRA:                   0.000
REMARK UNBOUND:                 0.000
REMARK SMILES CC(=O)[O-]
REMARK SMILES IDX 1 1 2 2 3 3 4 4
REMARK H PARENT
REMARK Flexibility Score: inf
ROOT
ATOM      1  C   UNL     1      13.196  13.306  15.428  1.00  0.00     0.063 C 
ATOM      2  C   UNL     1      12.594  12.762  14.176  1.00  0.00     0.038 C 
ATOM      3  O   UNL     1      12.928  13.232  13.058  1.00  0.00    -0.550 OA
ATOM      4  O   UNL     1      11.702  11.698  14.239  1.00  0.00    -0.550 OA
ENDROOT
TORSDOF 0
ENDMDL
MODEL 5
REMARK VINA RESULT:    -2.365      2.407      2.674
REMARK INTER + INTRA:          -2.365
REMARK INTER:                  -2.365
REMARK INTRA:                   0.000
REMARK UNBOUND:                 0.000
REMARK SMILES CC(=O)[O-]
REMARK SMILES IDX 1 1 2 2 3 3 4 4
REMARK H PARENT
REMARK Flexibility Score: inf
ROOT
ATOM      1  C   UNL     1      13.217  14.123  14.696  1.00  0.00     0.063 C 
ATOM      2  C   UNL     1      13.278  14.934  13.445  1.00  0.00     0.038 C 
ATOM      3  O   UNL     1      12.995  14.409  12.337  1.00  0.00    -0.550 OA
ATOM      4  O   UNL     1      13.597  16.286  13.507  1.00  0.00    -0.550 OA
ENDROOT
TORSDOF 0
ENDMDL
MODEL 6
REMARK VINA RESULT:    -2.329      1.347      2.177
REMARK INTER + INTRA:          -2.329
REMARK INTER:                  -2.329
REMARK INTRA:                   0.000
REMARK UNBOUND:                 0.000
REMARK SMILES CC(=O)[O-]
REMARK SMILES IDX 1 1 2 2 3 3 4 4
REMARK H PARENT
REMARK Flexibility Score: inf
ROOT
ATOM      1  C   UNL     1      13.277  14.710  13.871  1.00  0.00     0.063 C 
ATOM      2  C   UNL     1      13.080  13.431  14.612  1.00  0.00     0.038 C 
ATOM      3  O   UNL     1      12.485  12.467  14.063  1.00  0.00    -0.550 OA
ATOM      4  O   UNL     1      13.599  13.282  15.892  1.00  0.00    -0.550 OA
ENDROOT
TORSDOF 0
ENDMDL
MODEL 7
REMARK VINA RESULT:    -2.203     10.473     10.750
REMARK INTER + INTRA:          -2.203
REMARK INTER:                  -2.203
REMARK INTRA:                   0.000
REMARK UNBOUND:                 0.000
REMARK SMILES CC(=O)[O-]
REMARK SMILES IDX 1 1 2 2 3 3 4 4
REMARK H PARENT
REMARK Flexibility Score: inf
ROOT
ATOM      1  C   UNL     1      22.983  16.739  16.399  1.00  0.00     0.063 C 
ATOM      2  C   UNL     1      22.745  16.330  17.814  1.00  0.00     0.038 C 
ATOM      3  O   UNL     1      21.879  16.925  18.507  1.00  0.00    -0.550 OA
ATOM      4  O   UNL     1      23.441  15.256  18.355  1.00  0.00    -0.550 OA
ENDROOT
TORSDOF 0
ENDMDL
MODEL 8
REMARK VINA RESULT:    -2.202      7.532      8.147
REMARK INTER + INTRA:          -2.202
REMARK INTER:                  -2.202
REMARK INTRA:                   0.000
REMARK UNBOUND:                 0.000
REMARK SMILES CC(=O)[O-]
REMARK SMILES IDX 1 1 2 2 3 3 4 4
REMARK H PARENT
REMARK Flexibility Score: inf
ROOT
ATOM      1  C   UNL     1      12.876   5.918  18.671  1.00  0.00     0.063 C 
ATOM      2  C   UNL     1      12.905   5.783  17.186  1.00  0.00     0.038 C 
ATOM      3  O   UNL     1      12.582   6.756  16.457  1.00  0.00    -0.550 OA
ATOM      4  O   UNL     1      13.341   4.599  16.603  1.00  0.00    -0.550 OA
ENDROOT
TORSDOF 0
ENDMDL
MODEL 9
REMARK VINA RESULT:    -2.143      1.696      2.204
REMARK INTER + INTRA:          -2.143
REMARK INTER:                  -2.143
REMARK INTRA:                   0.000
REMARK UNBOUND:                 0.000
REMARK SMILES CC(=O)[O-]
REMARK SMILES IDX 1 1 2 2 3 3 4 4
REMARK H PARENT
REMARK Flexibility Score: inf
ROOT
ATOM      1  C   UNL     1      12.511  12.288  15.017  1.00  0.00     0.063 C 
ATOM      2  C   UNL     1      12.444  12.811  13.621  1.00  0.00     0.038 C 
ATOM      3  O   UNL     1      13.131  13.812  13.288  1.00  0.00    -0.550 OA
ATOM      4  O   UNL     1      11.664  12.163  12.671  1.00  0.00    -0.550 OA
ENDROOT
TORSDOF 0
ENDMDL
