MODEL 1
REMARK VINA RESULT:    -4.120      0.000      0.000
REMARK INTER + INTRA:          -4.965
REMARK INTER:                  -4.843
REMARK INTRA:                  -0.121
REMARK UNBOUND:                -0.121
REMARK SMILES O=C([O-])C=Cc1ccc(O)c(O)c1
REMARK SMILES IDX 6 1 13 2 7 3 11 4 8 5 9 6 5 7 4 8 2 9 1 10 3 11 12 12 10 14
REMARK H PARENT 12 13 10 15
REMARK Flexibility Score: inf
ROOT
ATOM      1  C   UNL     1      43.325  19.277  -3.456  1.00  0.00    -0.022 A 
ATOM      2  C   UNL     1      42.901  18.567  -2.315  1.00  0.00     0.058 A 
ATOM      3  C   UNL     1      43.064  20.654  -3.534  1.00  0.00     0.012 A 
ATOM      4  C   UNL     1      42.207  19.222  -1.286  1.00  0.00     0.157 A 
ATOM      5  C   UNL     1      42.372  21.306  -2.511  1.00  0.00     0.051 A 
ATOM      6  C   UNL     1      41.938  20.596  -1.388  1.00  0.00     0.157 A 
ENDROOT
BRANCH   1   7
ATOM      7  C   UNL     1      44.073  18.632  -4.565  1.00  0.00     0.010 C 
ATOM      8  C   UNL     1      44.946  17.629  -4.391  1.00  0.00     0.025 C 
BRANCH   8   9
ATOM      9  C   UNL     1      45.660  17.005  -5.517  1.00  0.00     0.064 C 
ATOM     10  O   UNL     1      45.189  16.000  -6.112  1.00  0.00    -0.545 OA
ATOM     11  O   UNL     1      46.874  17.535  -5.932  1.00  0.00    -0.545 OA
ENDBRANCH   8   9
ENDBRANCH   1   7
BRANCH   4  12
ATOM     12  O   UNL     1      41.788  18.511  -0.162  1.00  0.00    -0.504 OA
ATOM     13  H   UNL     1      40.951  18.771   0.349  1.00  0.00     0.293 HD
ENDBRANCH   4  12
BRANCH   6  14
ATOM     14  O   UNL     1      41.248  21.274  -0.383  1.00  0.00    -0.504 OA
ATOM     15  H   UNL     1      41.176  20.910   0.559  1.00  0.00     0.293 HD
ENDBRANCH   6  14
TORSDOF 4
ENDMDL
MODEL 2
REMARK VINA RESULT:    -4.071      6.943      8.862
REMARK INTER + INTRA:          -4.906
REMARK INTER:                  -4.785
REMARK INTRA:                  -0.122
REMARK UNBOUND:                -0.121
REMARK SMILES O=C([O-])C=Cc1ccc(O)c(O)c1
REMARK SMILES IDX 6 1 13 2 7 3 11 4 8 5 9 6 5 7 4 8 2 9 1 10 3 11 12 12 10 14
REMARK H PARENT 12 13 10 15
REMARK Flexibility Score: inf
ROOT
ATOM      1  C   UNL     1      49.389  13.847  -3.912  1.00  0.00    -0.022 A 
ATOM      2  C   UNL     1      48.674  15.054  -4.048  1.00  0.00     0.058 A 
ATOM      3  C   UNL     1      50.660  13.742  -4.500  1.00  0.00     0.012 A 
ATOM      4  C   UNL     1      49.213  16.123  -4.779  1.00  0.00     0.157 A 
ATOM      5  C   UNL     1      51.196  14.806  -5.228  1.00  0.00     0.051 A 
ATOM      6  C   UNL     1      50.478  15.995  -5.375  1.00  0.00     0.157 A 
ENDROOT
BRANCH   1   7
ATOM      7  C   UNL     1      48.866  12.692  -3.139  1.00  0.00     0.010 C 
ATOM      8  C   UNL     1      48.120  12.812  -2.032  1.00  0.00     0.025 C 
BRANCH   8   9
ATOM      9  C   UNL     1      47.609  11.644  -1.298  1.00  0.00     0.064 C 
ATOM     10  O   UNL     1      48.386  10.881  -0.663  1.00  0.00    -0.545 OA
ATOM     11  O   UNL     1      46.247  11.377  -1.302  1.00  0.00    -0.545 OA
ENDBRANCH   8   9
ENDBRANCH   1   7
BRANCH   4  12
ATOM     12  O   UNL     1      48.497  17.313  -4.911  1.00  0.00    -0.504 OA
ATOM     13  H   UNL     1      47.808  17.597  -4.224  1.00  0.00     0.293 HD
ENDBRANCH   4  12
BRANCH   6  14
ATOM     14  O   UNL     1      51.039  17.039  -6.110  1.00  0.00    -0.504 OA
ATOM     15  H   UNL     1      51.900  16.928  -6.632  1.00  0.00     0.293 HD
ENDBRANCH   6  14
TORSDOF 4
ENDMDL
MODEL 3
REMARK VINA RESULT:    -4.020      7.089      8.985
REMARK INTER + INTRA:          -4.846
REMARK INTER:                  -4.725
REMARK INTRA:                  -0.122
REMARK UNBOUND:                -0.121
REMARK SMILES O=C([O-])C=Cc1ccc(O)c(O)c1
REMARK SMILES IDX 6 1 13 2 7 3 11 4 8 5 9 6 5 7 4 8 2 9 1 10 3 11 12 12 10 14
REMARK H PARENT 12 13 10 15
REMARK Flexibility Score: inf
ROOT
ATOM      1  C   UNL     1      48.622  14.041  -3.513  1.00  0.00    -0.022 A 
ATOM      2  C   UNL     1      49.864  13.519  -3.927  1.00  0.00     0.058 A 
ATOM      3  C   UNL     1      48.292  15.361  -3.859  1.00  0.00     0.012 A 
ATOM      4  C   UNL     1      50.765  14.312  -4.653  1.00  0.00     0.157 A 
ATOM      5  C   UNL     1      49.190  16.152  -4.581  1.00  0.00     0.051 A 
ATOM      6  C   UNL     1      50.426  15.636  -4.976  1.00  0.00     0.157 A 
ENDROOT
BRANCH   1   7
ATOM      7  C   UNL     1      47.631  13.237  -2.753  1.00  0.00     0.010 C 
ATOM      8  C   UNL     1      47.954  12.422  -1.739  1.00  0.00     0.025 C 
BRANCH   8   9
ATOM      9  C   UNL     1      46.942  11.649  -1.000  1.00  0.00     0.064 C 
ATOM     10  O   UNL     1      47.097  11.368   0.218  1.00  0.00    -0.545 OA
ATOM     11  O   UNL     1      45.795  11.223  -1.656  1.00  0.00    -0.545 OA
ENDBRANCH   8   9
ENDBRANCH   1   7
BRANCH   4  12
ATOM     12  O   UNL     1      51.993  13.789  -5.056  1.00  0.00    -0.504 OA
ATOM     13  H   UNL     1      52.324  13.887  -6.009  1.00  0.00     0.293 HD
ENDBRANCH   4  12
BRANCH   6  14
ATOM     14  O   UNL     1      51.302  16.451  -5.694  1.00  0.00    -0.504 OA
ATOM     15  H   UNL     1      51.054  16.848  -6.592  1.00  0.00     0.293 HD
ENDBRANCH   6  14
TORSDOF 4
ENDMDL
MODEL 4
REMARK VINA RESULT:    -3.943      4.215      7.719
REMARK INTER + INTRA:          -4.756
REMARK INTER:                  -4.634
REMARK INTRA:                  -0.122
REMARK UNBOUND:                -0.121
REMARK SMILES O=C([O-])C=Cc1ccc(O)c(O)c1
REMARK SMILES IDX 6 1 13 2 7 3 11 4 8 5 9 6 5 7 4 8 2 9 1 10 3 11 12 12 10 14
REMARK H PARENT 12 13 10 15
REMARK Flexibility Score: inf
ROOT
ATOM      1  C   UNL     1      47.567  15.479  -3.937  1.00  0.00    -0.022 A 
ATOM      2  C   UNL     1      47.916  14.209  -3.435  1.00  0.00     0.058 A 
ATOM      3  C   UNL     1      48.539  16.230  -4.618  1.00  0.00     0.012 A 
ATOM      4  C   UNL     1      49.219  13.714  -3.593  1.00  0.00     0.157 A 
ATOM      5  C   UNL     1      49.837  15.737  -4.774  1.00  0.00     0.051 A 
ATOM      6  C   UNL     1      50.184  14.485  -4.261  1.00  0.00     0.157 A 
ENDROOT
BRANCH   1   7
ATOM      7  C   UNL     1      46.200  16.042  -3.806  1.00  0.00     0.010 C 
ATOM      8  C   UNL     1      45.366  15.746  -2.798  1.00  0.00     0.025 C 
BRANCH   8   9
ATOM      9  C   UNL     1      44.020  16.332  -2.694  1.00  0.00     0.064 C 
ATOM     10  O   UNL     1      43.850  17.581  -2.706  1.00  0.00    -0.545 OA
ATOM     11  O   UNL     1      42.918  15.496  -2.583  1.00  0.00    -0.545 OA
ENDBRANCH   8   9
ENDBRANCH   1   7
BRANCH   4  12
ATOM     12  O   UNL     1      49.557  12.458  -3.091  1.00  0.00    -0.504 OA
ATOM     13  H   UNL     1      50.191  11.841  -3.586  1.00  0.00     0.293 HD
ENDBRANCH   4  12
BRANCH   6  14
ATOM     14  O   UNL     1      51.489  14.021  -4.430  1.00  0.00    -0.504 OA
ATOM     15  H   UNL     1      51.691  13.133  -4.873  1.00  0.00     0.293 HD
ENDBRANCH   6  14
TORSDOF 4
ENDMDL
MODEL 5
REMARK VINA RESULT:    -3.906      1.938      2.357
REMARK INTER + INTRA:          -4.712
REMARK INTER:                  -4.590
REMARK INTRA:                  -0.123
REMARK UNBOUND:                -0.121
REMARK SMILES O=C([O-])C=Cc1ccc(O)c(O)c1
REMARK SMILES IDX 6 1 13 2 7 3 11 4 8 5 9 6 5 7 4 8 2 9 1 10 3 11 12 12 10 14
REMARK H PARENT 12 13 10 15
REMARK Flexibility Score: inf
ROOT
ATOM      1  C   UNL     1      44.013  17.399  -3.135  1.00  0.00    -0.022 A 
ATOM      2  C   UNL     1      43.218  16.502  -2.394  1.00  0.00     0.058 A 
ATOM      3  C   UNL     1      43.657  18.757  -3.161  1.00  0.00     0.012 A 
ATOM      4  C   UNL     1      42.077  16.954  -1.715  1.00  0.00     0.157 A 
ATOM      5  C   UNL     1      42.520  19.207  -2.486  1.00  0.00     0.051 A 
ATOM      6  C   UNL     1      41.725  18.312  -1.766  1.00  0.00     0.157 A 
ENDROOT
BRANCH   1   7
ATOM      7  C   UNL     1      45.236  16.972  -3.860  1.00  0.00     0.010 C 
ATOM      8  C   UNL     1      45.896  15.834  -3.602  1.00  0.00     0.025 C 
BRANCH   8   9
ATOM      9  C   UNL     1      47.100  15.436  -4.350  1.00  0.00     0.064 C 
ATOM     10  O   UNL     1      47.013  14.893  -5.484  1.00  0.00    -0.545 OA
ATOM     11  O   UNL     1      48.352  15.664  -3.798  1.00  0.00    -0.545 OA
ENDBRANCH   8   9
ENDBRANCH   1   7
BRANCH   4  12
ATOM     12  O   UNL     1      41.294  16.058  -0.987  1.00  0.00    -0.504 OA
ATOM     13  H   UNL     1      41.625  15.646  -0.121  1.00  0.00     0.293 HD
ENDBRANCH   4  12
BRANCH   6  14
ATOM     14  O   UNL     1      40.594  18.791  -1.104  1.00  0.00    -0.504 OA
ATOM     15  H   UNL     1      39.869  18.172  -0.762  1.00  0.00     0.293 HD
ENDBRANCH   6  14
TORSDOF 4
ENDMDL
MODEL 6
REMARK VINA RESULT:    -3.893      4.678      8.771
REMARK INTER + INTRA:          -4.698
REMARK INTER:                  -4.546
REMARK INTRA:                  -0.152
REMARK UNBOUND:                -0.121
REMARK SMILES O=C([O-])C=Cc1ccc(O)c(O)c1
REMARK SMILES IDX 6 1 13 2 7 3 11 4 8 5 9 6 5 7 4 8 2 9 1 10 3 11 12 12 10 14
REMARK H PARENT 12 13 10 15
REMARK Flexibility Score: inf
ROOT
ATOM      1  C   UNL     1      49.156  15.771  -4.651  1.00  0.00    -0.022 A 
ATOM      2  C   UNL     1      50.268  16.511  -5.101  1.00  0.00     0.058 A 
ATOM      3  C   UNL     1      49.301  14.390  -4.441  1.00  0.00     0.012 A 
ATOM      4  C   UNL     1      51.491  15.875  -5.359  1.00  0.00     0.157 A 
ATOM      5  C   UNL     1      50.519  13.756  -4.700  1.00  0.00     0.051 A 
ATOM      6  C   UNL     1      51.614  14.490  -5.161  1.00  0.00     0.157 A 
ENDROOT
BRANCH   1   7
ATOM      7  C   UNL     1      47.845  16.401  -4.353  1.00  0.00     0.010 C 
ATOM      8  C   UNL     1      46.773  15.720  -3.923  1.00  0.00     0.025 C 
BRANCH   8   9
ATOM      9  C   UNL     1      45.490  16.379  -3.626  1.00  0.00     0.064 C 
ATOM     10  O   UNL     1      44.974  17.195  -4.435  1.00  0.00    -0.545 OA
ATOM     11  O   UNL     1      44.837  16.095  -2.435  1.00  0.00    -0.545 OA
ENDBRANCH   8   9
ENDBRANCH   1   7
BRANCH   4  12
ATOM     12  O   UNL     1      52.585  16.614  -5.808  1.00  0.00    -0.504 OA
ATOM     13  H   UNL     1      52.863  17.478  -5.356  1.00  0.00     0.293 HD
ENDBRANCH   4  12
BRANCH   6  14
ATOM     14  O   UNL     1      52.816  13.828  -5.412  1.00  0.00    -0.504 OA
ATOM     15  H   UNL     1      52.887  13.083  -6.094  1.00  0.00     0.293 HD
ENDBRANCH   6  14
TORSDOF 4
ENDMDL
MODEL 7
REMARK VINA RESULT:    -3.783      4.368      7.935
REMARK INTER + INTRA:          -4.568
REMARK INTER:                  -4.444
REMARK INTRA:                  -0.125
REMARK UNBOUND:                -0.121
REMARK SMILES O=C([O-])C=Cc1ccc(O)c(O)c1
REMARK SMILES IDX 6 1 13 2 7 3 11 4 8 5 9 6 5 7 4 8 2 9 1 10 3 11 12 12 10 14
REMARK H PARENT 12 13 10 15
REMARK Flexibility Score: inf
ROOT
ATOM      1  C   UNL     1      48.323  16.321  -4.652  1.00  0.00    -0.022 A 
ATOM      2  C   UNL     1      49.163  15.298  -4.169  1.00  0.00     0.058 A 
ATOM      3  C   UNL     1      48.813  17.190  -5.641  1.00  0.00     0.012 A 
ATOM      4  C   UNL     1      50.474  15.166  -4.650  1.00  0.00     0.157 A 
ATOM      5  C   UNL     1      50.119  17.059  -6.119  1.00  0.00     0.051 A 
ATOM      6  C   UNL     1      50.954  16.054  -5.626  1.00  0.00     0.157 A 
ENDROOT
BRANCH   1   7
ATOM      7  C   UNL     1      46.925  16.496  -4.184  1.00  0.00     0.010 C 
ATOM      8  C   UNL     1      46.236  15.551  -3.528  1.00  0.00     0.025 C 
BRANCH   8   9
ATOM      9  C   UNL     1      44.854  15.762  -3.067  1.00  0.00     0.064 C 
ATOM     10  O   UNL     1      44.402  16.922  -2.874  1.00  0.00    -0.545 OA
ATOM     11  O   UNL     1      44.034  14.666  -2.843  1.00  0.00    -0.545 OA
ENDBRANCH   8   9
ENDBRANCH   1   7
BRANCH   4  12
ATOM     12  O   UNL     1      51.300  14.152  -4.164  1.00  0.00    -0.504 OA
ATOM     13  H   UNL     1      51.871  14.283  -3.337  1.00  0.00     0.293 HD
ENDBRANCH   4  12
BRANCH   6  14
ATOM     14  O   UNL     1      52.254  15.950  -6.121  1.00  0.00    -0.504 OA
ATOM     15  H   UNL     1      52.448  15.894  -7.114  1.00  0.00     0.293 HD
ENDBRANCH   6  14
TORSDOF 4
ENDMDL
MODEL 8
REMARK VINA RESULT:    -3.715      3.737      7.697
REMARK INTER + INTRA:          -4.488
REMARK INTER:                  -4.335
REMARK INTRA:                  -0.152
REMARK UNBOUND:                -0.121
REMARK SMILES O=C([O-])C=Cc1ccc(O)c(O)c1
REMARK SMILES IDX 6 1 13 2 7 3 11 4 8 5 9 6 5 7 4 8 2 9 1 10 3 11 12 12 10 14
REMARK H PARENT 12 13 10 15
REMARK Flexibility Score: inf
ROOT
ATOM      1  C   UNL     1      47.643  16.046  -4.302  1.00  0.00    -0.022 A 
ATOM      2  C   UNL     1      48.791  16.548  -4.947  1.00  0.00     0.058 A 
ATOM      3  C   UNL     1      47.725  14.815  -3.633  1.00  0.00     0.012 A 
ATOM      4  C   UNL     1      49.988  15.816  -4.943  1.00  0.00     0.157 A 
ATOM      5  C   UNL     1      48.917  14.086  -3.629  1.00  0.00     0.051 A 
ATOM      6  C   UNL     1      50.048  14.578  -4.284  1.00  0.00     0.157 A 
ENDROOT
BRANCH   1   7
ATOM      7  C   UNL     1      46.357  16.788  -4.269  1.00  0.00     0.010 C 
ATOM      8  C   UNL     1      45.382  16.549  -3.380  1.00  0.00     0.025 C 
BRANCH   8   9
ATOM      9  C   UNL     1      44.123  17.312  -3.369  1.00  0.00     0.064 C 
ATOM     10  O   UNL     1      43.977  18.339  -4.085  1.00  0.00    -0.545 OA
ATOM     11  O   UNL     1      43.078  16.893  -2.558  1.00  0.00    -0.545 OA
ENDBRANCH   8   9
ENDBRANCH   1   7
BRANCH   4  12
ATOM     12  O   UNL     1      51.118  16.318  -5.587  1.00  0.00    -0.504 OA
ATOM     13  H   UNL     1      52.014  15.846  -5.533  1.00  0.00     0.293 HD
ENDBRANCH   4  12
BRANCH   6  14
ATOM     14  O   UNL     1      51.223  13.826  -4.265  1.00  0.00    -0.504 OA
ATOM     15  H   UNL     1      51.711  13.570  -5.114  1.00  0.00     0.293 HD
ENDBRANCH   6  14
TORSDOF 4
ENDMDL
MODEL 9
REMARK VINA RESULT:    -3.684      4.164      7.560
REMARK INTER + INTRA:          -4.452
REMARK INTER:                  -4.298
REMARK INTRA:                  -0.153
REMARK UNBOUND:                -0.121
REMARK SMILES O=C([O-])C=Cc1ccc(O)c(O)c1
REMARK SMILES IDX 6 1 13 2 7 3 11 4 8 5 9 6 5 7 4 8 2 9 1 10 3 11 12 12 10 14
REMARK H PARENT 12 13 10 15
REMARK Flexibility Score: inf
ROOT
ATOM      1  C   UNL     1      47.477  15.360  -3.907  1.00  0.00    -0.022 A 
ATOM      2  C   UNL     1      48.850  15.206  -4.183  1.00  0.00     0.058 A 
ATOM      3  C   UNL     1      46.813  14.353  -3.189  1.00  0.00     0.012 A 
ATOM      4  C   UNL     1      49.536  14.055  -3.769  1.00  0.00     0.157 A 
ATOM      5  C   UNL     1      47.495  13.205  -2.778  1.00  0.00     0.051 A 
ATOM      6  C   UNL     1      48.853  13.049  -3.067  1.00  0.00     0.157 A 
ENDROOT
BRANCH   1   7
ATOM      7  C   UNL     1      46.710  16.565  -4.313  1.00  0.00     0.010 C 
ATOM      8  C   UNL     1      45.426  16.775  -3.989  1.00  0.00     0.025 C 
BRANCH   8   9
ATOM      9  C   UNL     1      44.700  17.988  -4.400  1.00  0.00     0.064 C 
ATOM     10  O   UNL     1      45.022  18.619  -5.442  1.00  0.00    -0.545 OA
ATOM     11  O   UNL     1      43.642  18.444  -3.628  1.00  0.00    -0.545 OA
ENDBRANCH   8   9
ENDBRANCH   1   7
BRANCH   4  12
ATOM     12  O   UNL     1      50.894  13.909  -4.049  1.00  0.00    -0.504 OA
ATOM     13  H   UNL     1      51.602  14.066  -3.341  1.00  0.00     0.293 HD
ENDBRANCH   4  12
BRANCH   6  14
ATOM     14  O   UNL     1      49.506  11.891  -2.646  1.00  0.00    -0.504 OA
ATOM     15  H   UNL     1      50.324  11.531  -3.123  1.00  0.00     0.293 HD
ENDBRANCH   6  14
TORSDOF 4
ENDMDL
