MODEL 1
REMARK VINA RESULT:    -3.000      0.000      0.000
REMARK INTER + INTRA:          -3.000
REMARK INTER:                  -3.000
REMARK INTRA:                   0.000
REMARK UNBOUND:                 0.000
REMARK SMILES CC(=O)[O-]
REMARK SMILES IDX 1 1 2 2 3 3 4 4
REMARK H PARENT
REMARK Flexibility Score: inf
ROOT
ATOM      1  C   UNL     1      11.413  10.217  64.714  1.00  0.00     0.063 C 
ATOM      2  C   UNL     1      12.617  10.039  63.853  1.00  0.00     0.038 C 
ATOM      3  O   UNL     1      12.566   9.288  62.843  1.00  0.00    -0.550 OA
ATOM      4  O   UNL     1      13.782  10.743  64.131  1.00  0.00    -0.550 OA
ENDROOT
TORSDOF 0
ENDMDL
MODEL 2
REMARK VINA RESULT:    -2.972     17.940     18.392
REMARK INTER + INTRA:          -2.972
REMARK INTER:                  -2.972
REMARK INTRA:                   0.000
REMARK UNBOUND:                 0.000
REMARK SMILES CC(=O)[O-]
REMARK SMILES IDX 1 1 2 2 3 3 4 4
REMARK H PARENT
REMARK Flexibility Score: inf
ROOT
ATOM      1  C   UNL     1      -3.132  17.020  60.936  1.00  0.00     0.063 C 
ATOM      2  C   UNL     1      -4.278  16.289  60.324  1.00  0.00     0.038 C 
ATOM      3  O   UNL     1      -4.180  15.825  59.157  1.00  0.00    -0.550 OA
ATOM      4  O   UNL     1      -5.437  16.071  61.057  1.00  0.00    -0.550 OA
ENDROOT
TORSDOF 0
ENDMDL
MODEL 3
REMARK VINA RESULT:    -2.908     18.003     18.310
REMARK INTER + INTRA:          -2.908
REMARK INTER:                  -2.908
REMARK INTRA:                   0.000
REMARK UNBOUND:                 0.000
REMARK SMILES CC(=O)[O-]
REMARK SMILES IDX 1 1 2 2 3 3 4 4
REMARK H PARENT
REMARK Flexibility Score: inf
ROOT
ATOM      1  C   UNL     1      -5.254  16.191  61.350  1.00  0.00     0.063 C 
ATOM      2  C   UNL     1      -4.182  16.425  60.340  1.00  0.00     0.038 C 
ATOM      3  O   UNL     1      -4.224  15.838  59.226  1.00  0.00    -0.550 OA
ATOM      4  O   UNL     1      -3.164  17.332  60.603  1.00  0.00    -0.550 OA
ENDROOT
TORSDOF 0
ENDMDL
MODEL 4
REMARK VINA RESULT:    -2.827     18.138     18.564
REMARK INTER + INTRA:          -2.827
REMARK INTER:                  -2.827
REMARK INTRA:                   0.000
REMARK UNBOUND:                 0.000
REMARK SMILES CC(=O)[O-]
REMARK SMILES IDX 1 1 2 2 3 3 4 4
REMARK H PARENT
REMARK Flexibility Score: inf
ROOT
ATOM      1  C   UNL     1      -4.273  16.136  59.739  1.00  0.00     0.063 C 
ATOM      2  C   UNL     1      -4.643  16.272  61.177  1.00  0.00     0.038 C 
ATOM      3  O   UNL     1      -5.846  16.164  61.532  1.00  0.00    -0.550 OA
ATOM      4  O   UNL     1      -3.656  16.465  62.134  1.00  0.00    -0.550 OA
ENDROOT
TORSDOF 0
ENDMDL
MODEL 5
REMARK VINA RESULT:    -2.817     18.242     18.718
REMARK INTER + INTRA:          -2.817
REMARK INTER:                  -2.817
REMARK INTRA:                   0.000
REMARK UNBOUND:                 0.000
REMARK SMILES CC(=O)[O-]
REMARK SMILES IDX 1 1 2 2 3 3 4 4
REMARK H PARENT
REMARK Flexibility Score: inf
ROOT
ATOM      1  C   UNL     1      -4.333  16.228  59.869  1.00  0.00     0.063 C 
ATOM      2  C   UNL     1      -4.704  16.286  61.312  1.00  0.00     0.038 C 
ATOM      3  O   UNL     1      -3.806  16.377  62.191  1.00  0.00    -0.550 OA
ATOM      4  O   UNL     1      -6.040  16.295  61.688  1.00  0.00    -0.550 OA
ENDROOT
TORSDOF 0
ENDMDL
MODEL 6
REMARK VINA RESULT:    -2.808      1.895      2.148
REMARK INTER + INTRA:          -2.808
REMARK INTER:                  -2.808
REMARK INTRA:                   0.000
REMARK UNBOUND:                 0.000
REMARK SMILES CC(=O)[O-]
REMARK SMILES IDX 1 1 2 2 3 3 4 4
REMARK H PARENT
REMARK Flexibility Score: inf
ROOT
ATOM      1  C   UNL     1      12.907  10.029  63.871  1.00  0.00     0.063 C 
ATOM      2  C   UNL     1      11.867  10.777  64.635  1.00  0.00     0.038 C 
ATOM      3  O   UNL     1      10.764  10.230  64.899  1.00  0.00    -0.550 OA
ATOM      4  O   UNL     1      12.132  12.057  65.102  1.00  0.00    -0.550 OA
ENDROOT
TORSDOF 0
ENDMDL
MODEL 7
REMARK VINA RESULT:    -2.788     17.849     18.042
REMARK INTER + INTRA:          -2.788
REMARK INTER:                  -2.788
REMARK INTRA:                   0.000
REMARK UNBOUND:                 0.000
REMARK SMILES CC(=O)[O-]
REMARK SMILES IDX 1 1 2 2 3 3 4 4
REMARK H PARENT
REMARK Flexibility Score: inf
ROOT
ATOM      1  C   UNL     1       2.379  20.075  51.774  1.00  0.00     0.063 C 
ATOM      2  C   UNL     1       3.301  19.008  51.289  1.00  0.00     0.038 C 
ATOM      3  O   UNL     1       3.191  18.564  50.116  1.00  0.00    -0.550 OA
ATOM      4  O   UNL     1       4.317  18.539  52.111  1.00  0.00    -0.550 OA
ENDROOT
TORSDOF 0
ENDMDL
MODEL 8
REMARK VINA RESULT:    -2.756     17.872     18.122
REMARK INTER + INTRA:          -2.756
REMARK INTER:                  -2.756
REMARK INTRA:                   0.000
REMARK UNBOUND:                 0.000
REMARK SMILES CC(=O)[O-]
REMARK SMILES IDX 1 1 2 2 3 3 4 4
REMARK H PARENT
REMARK Flexibility Score: inf
ROOT
ATOM      1  C   UNL     1       2.444  20.191  51.792  1.00  0.00     0.063 C 
ATOM      2  C   UNL     1       3.341  19.088  51.342  1.00  0.00     0.038 C 
ATOM      3  O   UNL     1       4.273  18.687  52.090  1.00  0.00    -0.550 OA
ATOM      4  O   UNL     1       3.120  18.465  50.122  1.00  0.00    -0.550 OA
ENDROOT
TORSDOF 0
ENDMDL
MODEL 9
REMARK VINA RESULT:    -2.721     18.217     18.412
REMARK INTER + INTRA:          -2.721
REMARK INTER:                  -2.721
REMARK INTRA:                   0.000
REMARK UNBOUND:                 0.000
REMARK SMILES CC(=O)[O-]
REMARK SMILES IDX 1 1 2 2 3 3 4 4
REMARK H PARENT
REMARK Flexibility Score: inf
ROOT
ATOM      1  C   UNL     1       4.064  18.789  52.054  1.00  0.00     0.063 C 
ATOM      2  C   UNL     1       3.123  19.828  51.547  1.00  0.00     0.038 C 
ATOM      3  O   UNL     1       1.971  19.934  52.045  1.00  0.00    -0.550 OA
ATOM      4  O   UNL     1       3.533  20.717  50.562  1.00  0.00    -0.550 OA
ENDROOT
TORSDOF 0
ENDMDL
