MODEL 1
REMARK VINA RESULT:    -5.110      0.000      0.000
REMARK INTER + INTRA:         -10.565
REMARK INTER:                  -8.993
REMARK INTRA:                  -1.572
REMARK UNBOUND:                -1.572
REMARK SMILES CCCCCCC=CCCCCCCCC(=O)[O-]
REMARK SMILES IDX 10 1 11 2 12 3 13 4 14 5 15 6 16 7 17 8 18 9 9 10 8 11 7 12
REMARK SMILES IDX 6 13 5 14 4 15 3 16 2 17 1 18
REMARK H PARENT
REMARK Flexibility Score: inf
ROOT
ATOM      1  C   UNL     1      13.993 -15.073  30.738  1.00  0.00     0.004 C 
ENDROOT
BRANCH   1   2
ATOM      2  C   UNL     1      14.094 -15.732  29.348  1.00  0.00     0.000 C 
BRANCH   2   3
ATOM      3  C   UNL     1      12.969 -15.351  28.368  1.00  0.00     0.000 C 
BRANCH   3   4
ATOM      4  C   UNL     1      11.865 -14.451  28.958  1.00  0.00     0.000 C 
BRANCH   4   5
ATOM      5  C   UNL     1      11.758 -13.052  28.323  1.00  0.00     0.006 C 
BRANCH   5   6
ATOM      6  C   UNL     1      12.897 -12.757  27.340  1.00  0.00     0.053 C 
BRANCH   6   7
ATOM      7  C   UNL     1      12.347 -12.392  25.998  1.00  0.00     0.041 C 
ATOM      8  O   UNL     1      11.192 -12.766  25.662  1.00  0.00    -0.550 OA
ATOM      9  O   UNL     1      13.129 -11.681  25.095  1.00  0.00    -0.550 OA
ENDBRANCH   6   7
ENDBRANCH   5   6
ENDBRANCH   4   5
ENDBRANCH   3   4
ENDBRANCH   2   3
ENDBRANCH   1   2
BRANCH   1  10
ATOM     10  C   UNL     1      13.895 -16.067  31.910  1.00  0.00     0.027 C 
BRANCH  10  11
ATOM     11  C   UNL     1      13.257 -17.383  31.536  1.00  0.00    -0.031 C 
ATOM     12  C   UNL     1      11.935 -17.637  31.528  1.00  0.00    -0.031 C 
BRANCH  12  13
ATOM     13  C   UNL     1      10.854 -16.666  31.939  1.00  0.00     0.027 C 
BRANCH  13  14
ATOM     14  C   UNL     1       9.915 -17.265  32.999  1.00  0.00     0.004 C 
BRANCH  14  15
ATOM     15  C   UNL     1       9.354 -18.656  32.649  1.00  0.00     0.000 C 
BRANCH  15  16
ATOM     16  C   UNL     1       9.800 -19.747  33.634  1.00  0.00    -0.000 C 
BRANCH  16  17
ATOM     17  C   UNL     1      10.318 -20.982  32.888  1.00  0.00    -0.003 C 
ATOM     18  C   UNL     1       9.775 -21.034  31.463  1.00  0.00     0.004 C 
ENDBRANCH  16  17
ENDBRANCH  15  16
ENDBRANCH  14  15
ENDBRANCH  13  14
ENDBRANCH  12  13
ENDBRANCH  10  11
ENDBRANCH   1  10
TORSDOF 13
ENDMDL
MODEL 2
REMARK VINA RESULT:    -4.928      2.375      4.372
REMARK INTER + INTRA:         -10.246
REMARK INTER:                  -8.424
REMARK INTRA:                  -1.822
REMARK UNBOUND:                -1.572
REMARK SMILES CCCCCCC=CCCCCCCCC(=O)[O-]
REMARK SMILES IDX 10 1 11 2 12 3 13 4 14 5 15 6 16 7 17 8 18 9 9 10 8 11 7 12
REMARK SMILES IDX 6 13 5 14 4 15 3 16 2 17 1 18
REMARK H PARENT
REMARK Flexibility Score: inf
ROOT
ATOM      1  C   UNL     1      12.155 -12.774  28.082  1.00  0.00     0.004 C 
ENDROOT
BRANCH   1   2
ATOM      2  C   UNL     1      11.681 -12.983  26.630  1.00  0.00     0.000 C 
BRANCH   2   3
ATOM      3  C   UNL     1      12.682 -12.527  25.550  1.00  0.00     0.000 C 
BRANCH   3   4
ATOM      4  C   UNL     1      14.138 -12.982  25.774  1.00  0.00     0.000 C 
BRANCH   4   5
ATOM      5  C   UNL     1      14.654 -14.026  24.767  1.00  0.00     0.006 C 
BRANCH   5   6
ATOM      6  C   UNL     1      15.471 -15.141  25.432  1.00  0.00     0.053 C 
BRANCH   6   7
ATOM      7  C   UNL     1      14.664 -16.396  25.523  1.00  0.00     0.041 C 
ATOM      8  O   UNL     1      15.209 -17.479  25.861  1.00  0.00    -0.550 OA
ATOM      9  O   UNL     1      13.315 -16.381  25.186  1.00  0.00    -0.550 OA
ENDBRANCH   6   7
ENDBRANCH   5   6
ENDBRANCH   4   5
ENDBRANCH   3   4
ENDBRANCH   2   3
ENDBRANCH   1   2
BRANCH   1  10
ATOM     10  C   UNL     1      11.951 -13.991  29.002  1.00  0.00     0.027 C 
BRANCH  10  11
ATOM     11  C   UNL     1      12.619 -15.248  28.499  1.00  0.00    -0.031 C 
ATOM     12  C   UNL     1      13.616 -15.906  29.119  1.00  0.00    -0.031 C 
BRANCH  12  13
ATOM     13  C   UNL     1      14.279 -15.479  30.406  1.00  0.00     0.027 C 
BRANCH  13  14
ATOM     14  C   UNL     1      13.511 -15.978  31.642  1.00  0.00     0.004 C 
BRANCH  14  15
ATOM     15  C   UNL     1      12.975 -17.417  31.528  1.00  0.00     0.000 C 
BRANCH  15  16
ATOM     16  C   UNL     1      11.444 -17.494  31.615  1.00  0.00    -0.000 C 
BRANCH  16  17
ATOM     17  C   UNL     1      10.832 -16.100  31.789  1.00  0.00    -0.003 C 
ATOM     18  C   UNL     1       9.802 -16.085  32.915  1.00  0.00     0.004 C 
ENDBRANCH  16  17
ENDBRANCH  15  16
ENDBRANCH  14  15
ENDBRANCH  13  14
ENDBRANCH  12  13
ENDBRANCH  10  11
ENDBRANCH   1  10
TORSDOF 13
ENDMDL
MODEL 3
REMARK VINA RESULT:    -4.899      1.771      2.847
REMARK INTER + INTRA:         -10.194
REMARK INTER:                  -9.341
REMARK INTRA:                  -0.853
REMARK UNBOUND:                -1.572
REMARK SMILES CCCCCCC=CCCCCCCCC(=O)[O-]
REMARK SMILES IDX 10 1 11 2 12 3 13 4 14 5 15 6 16 7 17 8 18 9 9 10 8 11 7 12
REMARK SMILES IDX 6 13 5 14 4 15 3 16 2 17 1 18
REMARK H PARENT
REMARK Flexibility Score: inf
ROOT
ATOM      1  C   UNL     1      11.622 -15.732  32.221  1.00  0.00     0.004 C 
ENDROOT
BRANCH   1   2
ATOM      2  C   UNL     1      12.975 -16.195  31.647  1.00  0.00     0.000 C 
BRANCH   2   3
ATOM      3  C   UNL     1      13.272 -15.709  30.216  1.00  0.00     0.000 C 
BRANCH   3   4
ATOM      4  C   UNL     1      12.223 -14.749  29.620  1.00  0.00     0.000 C 
BRANCH   4   5
ATOM      5  C   UNL     1      12.760 -13.787  28.544  1.00  0.00     0.006 C 
BRANCH   5   6
ATOM      6  C   UNL     1      11.651 -12.966  27.873  1.00  0.00     0.053 C 
BRANCH   6   7
ATOM      7  C   UNL     1      11.502 -13.364  26.440  1.00  0.00     0.041 C 
ATOM      8  O   UNL     1      11.428 -12.486  25.541  1.00  0.00    -0.550 OA
ATOM      9  O   UNL     1      11.392 -14.707  26.099  1.00  0.00    -0.550 OA
ENDBRANCH   6   7
ENDBRANCH   5   6
ENDBRANCH   4   5
ENDBRANCH   3   4
ENDBRANCH   2   3
ENDBRANCH   1   2
BRANCH   1  10
ATOM     10  C   UNL     1      10.596 -16.861  32.427  1.00  0.00     0.027 C 
BRANCH  10  11
ATOM     11  C   UNL     1      10.969 -18.151  31.736  1.00  0.00    -0.031 C 
ATOM     12  C   UNL     1      10.695 -19.389  32.189  1.00  0.00    -0.031 C 
BRANCH  12  13
ATOM     13  C   UNL     1      10.008 -19.711  33.493  1.00  0.00     0.027 C 
BRANCH  13  14
ATOM     14  C   UNL     1       9.317 -21.085  33.455  1.00  0.00     0.004 C 
BRANCH  14  15
ATOM     15  C   UNL     1       9.961 -22.103  32.495  1.00  0.00     0.000 C 
BRANCH  15  16
ATOM     16  C   UNL     1       9.603 -23.557  32.835  1.00  0.00    -0.000 C 
BRANCH  16  17
ATOM     17  C   UNL     1       8.261 -23.634  33.570  1.00  0.00    -0.003 C 
ATOM     18  C   UNL     1       7.178 -24.241  32.682  1.00  0.00     0.004 C 
ENDBRANCH  16  17
ENDBRANCH  15  16
ENDBRANCH  14  15
ENDBRANCH  13  14
ENDBRANCH  12  13
ENDBRANCH  10  11
ENDBRANCH   1  10
TORSDOF 13
ENDMDL
MODEL 4
REMARK VINA RESULT:    -4.867      3.248      7.840
REMARK INTER + INTRA:         -10.137
REMARK INTER:                  -8.269
REMARK INTRA:                  -1.868
REMARK UNBOUND:                -1.572
REMARK SMILES CCCCCCC=CCCCCCCCC(=O)[O-]
REMARK SMILES IDX 10 1 11 2 12 3 13 4 14 5 15 6 16 7 17 8 18 9 9 10 8 11 7 12
REMARK SMILES IDX 6 13 5 14 4 15 3 16 2 17 1 18
REMARK H PARENT
REMARK Flexibility Score: inf
ROOT
ATOM      1  C   UNL     1      12.235 -13.440  28.988  1.00  0.00     0.004 C 
ENDROOT
BRANCH   1   2
ATOM      2  C   UNL     1      12.155 -14.976  28.892  1.00  0.00     0.000 C 
BRANCH   2   3
ATOM      3  C   UNL     1      13.466 -15.715  29.225  1.00  0.00     0.000 C 
BRANCH   3   4
ATOM      4  C   UNL     1      14.049 -15.416  30.620  1.00  0.00     0.000 C 
BRANCH   4   5
ATOM      5  C   UNL     1      13.250 -16.005  31.798  1.00  0.00     0.006 C 
BRANCH   5   6
ATOM      6  C   UNL     1      12.850 -17.469  31.573  1.00  0.00     0.053 C 
BRANCH   6   7
ATOM      7  C   UNL     1      11.374 -17.638  31.743  1.00  0.00     0.041 C 
ATOM      8  O   UNL     1      10.653 -16.654  32.057  1.00  0.00    -0.550 OA
ATOM      9  O   UNL     1      10.797 -18.895  31.603  1.00  0.00    -0.550 OA
ENDBRANCH   6   7
ENDBRANCH   5   6
ENDBRANCH   4   5
ENDBRANCH   3   4
ENDBRANCH   2   3
ENDBRANCH   1   2
BRANCH   1  10
ATOM     10  C   UNL     1      12.606 -12.737  27.669  1.00  0.00     0.027 C 
BRANCH  10  11
ATOM     11  C   UNL     1      11.532 -12.830  26.612  1.00  0.00    -0.031 C 
ATOM     12  C   UNL     1      11.594 -12.283  25.383  1.00  0.00    -0.031 C 
BRANCH  12  13
ATOM     13  C   UNL     1      12.730 -11.439  24.857  1.00  0.00     0.027 C 
BRANCH  13  14
ATOM     14  C   UNL     1      13.737 -12.271  24.044  1.00  0.00     0.004 C 
BRANCH  14  15
ATOM     15  C   UNL     1      14.979 -12.727  24.832  1.00  0.00     0.000 C 
BRANCH  15  16
ATOM     16  C   UNL     1      15.316 -14.209  24.615  1.00  0.00    -0.000 C 
BRANCH  16  17
ATOM     17  C   UNL     1      14.653 -15.086  25.683  1.00  0.00    -0.003 C 
ATOM     18  C   UNL     1      13.365 -15.714  25.160  1.00  0.00     0.004 C 
ENDBRANCH  16  17
ENDBRANCH  15  16
ENDBRANCH  14  15
ENDBRANCH  13  14
ENDBRANCH  12  13
ENDBRANCH  10  11
ENDBRANCH   1  10
TORSDOF 13
ENDMDL
MODEL 5
REMARK VINA RESULT:    -4.864      3.678      7.486
REMARK INTER + INTRA:         -10.132
REMARK INTER:                  -8.587
REMARK INTRA:                  -1.546
REMARK UNBOUND:                -1.572
REMARK SMILES CCCCCCC=CCCCCCCCC(=O)[O-]
REMARK SMILES IDX 10 1 11 2 12 3 13 4 14 5 15 6 16 7 17 8 18 9 9 10 8 11 7 12
REMARK SMILES IDX 6 13 5 14 4 15 3 16 2 17 1 18
REMARK H PARENT
REMARK Flexibility Score: inf
ROOT
ATOM      1  C   UNL     1      12.487 -15.951  30.379  1.00  0.00     0.004 C 
ENDROOT
BRANCH   1   2
ATOM      2  C   UNL     1      12.211 -15.979  31.896  1.00  0.00     0.000 C 
BRANCH   2   3
ATOM      3  C   UNL     1      10.725 -15.857  32.286  1.00  0.00     0.000 C 
BRANCH   3   4
ATOM      4  C   UNL     1      10.050 -17.176  32.709  1.00  0.00     0.000 C 
BRANCH   4   5
ATOM      5  C   UNL     1      10.851 -18.450  32.384  1.00  0.00     0.006 C 
BRANCH   5   6
ATOM      6  C   UNL     1      10.177 -19.726  32.904  1.00  0.00     0.053 C 
BRANCH   6   7
ATOM      7  C   UNL     1       9.322 -20.335  31.839  1.00  0.00     0.041 C 
ATOM      8  O   UNL     1       9.755 -20.444  30.661  1.00  0.00    -0.550 OA
ATOM      9  O   UNL     1       8.025 -20.738  32.134  1.00  0.00    -0.550 OA
ENDBRANCH   6   7
ENDBRANCH   5   6
ENDBRANCH   4   5
ENDBRANCH   3   4
ENDBRANCH   2   3
ENDBRANCH   1   2
BRANCH   1  10
ATOM     10  C   UNL     1      11.886 -14.740  29.643  1.00  0.00     0.027 C 
BRANCH  10  11
ATOM     11  C   UNL     1      12.921 -13.764  29.138  1.00  0.00    -0.031 C 
ATOM     12  C   UNL     1      12.754 -12.906  28.114  1.00  0.00    -0.031 C 
BRANCH  12  13
ATOM     13  C   UNL     1      11.518 -12.798  27.256  1.00  0.00     0.027 C 
BRANCH  13  14
ATOM     14  C   UNL     1      11.718 -13.444  25.875  1.00  0.00     0.004 C 
BRANCH  14  15
ATOM     15  C   UNL     1      11.474 -14.964  25.834  1.00  0.00     0.000 C 
BRANCH  15  16
ATOM     16  C   UNL     1      12.733 -15.763  25.466  1.00  0.00    -0.000 C 
BRANCH  16  17
ATOM     17  C   UNL     1      13.358 -16.406  26.710  1.00  0.00    -0.003 C 
ATOM     18  C   UNL     1      14.823 -16.010  26.859  1.00  0.00     0.004 C 
ENDBRANCH  16  17
ENDBRANCH  15  16
ENDBRANCH  14  15
ENDBRANCH  13  14
ENDBRANCH  12  13
ENDBRANCH  10  11
ENDBRANCH   1  10
TORSDOF 13
ENDMDL
MODEL 6
REMARK VINA RESULT:    -4.862      9.693     11.484
REMARK INTER + INTRA:         -10.130
REMARK INTER:                  -8.619
REMARK INTRA:                  -1.511
REMARK UNBOUND:                -1.572
REMARK SMILES CCCCCCC=CCCCCCCCC(=O)[O-]
REMARK SMILES IDX 10 1 11 2 12 3 13 4 14 5 15 6 16 7 17 8 18 9 9 10 8 11 7 12
REMARK SMILES IDX 6 13 5 14 4 15 3 16 2 17 1 18
REMARK H PARENT
REMARK Flexibility Score: inf
ROOT
ATOM      1  C   UNL     1       6.158 -15.786  21.128  1.00  0.00     0.004 C 
ENDROOT
BRANCH   1   2
ATOM      2  C   UNL     1       4.624 -15.922  21.199  1.00  0.00     0.000 C 
BRANCH   2   3
ATOM      3  C   UNL     1       4.053 -16.086  22.620  1.00  0.00     0.000 C 
BRANCH   3   4
ATOM      4  C   UNL     1       3.229 -17.368  22.850  1.00  0.00     0.000 C 
BRANCH   4   5
ATOM      5  C   UNL     1       3.734 -18.270  23.991  1.00  0.00     0.006 C 
BRANCH   5   6
ATOM      6  C   UNL     1       5.194 -18.702  23.805  1.00  0.00     0.053 C 
BRANCH   6   7
ATOM      7  C   UNL     1       6.067 -18.047  24.828  1.00  0.00     0.041 C 
ATOM      8  O   UNL     1       5.595 -17.719  25.949  1.00  0.00    -0.550 OA
ATOM      9  O   UNL     1       7.391 -17.752  24.527  1.00  0.00    -0.550 OA
ENDBRANCH   6   7
ENDBRANCH   5   6
ENDBRANCH   4   5
ENDBRANCH   3   4
ENDBRANCH   2   3
ENDBRANCH   1   2
BRANCH   1  10
ATOM     10  C   UNL     1       6.909 -17.116  20.941  1.00  0.00     0.027 C 
BRANCH  10  11
ATOM     11  C   UNL     1       6.086 -18.184  20.260  1.00  0.00    -0.031 C 
ATOM     12  C   UNL     1       6.345 -19.505  20.283  1.00  0.00    -0.031 C 
BRANCH  12  13
ATOM     13  C   UNL     1       7.531 -20.152  20.956  1.00  0.00     0.027 C 
BRANCH  13  14
ATOM     14  C   UNL     1       7.474 -21.687  20.871  1.00  0.00     0.004 C 
BRANCH  14  15
ATOM     15  C   UNL     1       8.819 -22.365  20.553  1.00  0.00     0.000 C 
BRANCH  15  16
ATOM     16  C   UNL     1       9.981 -21.367  20.441  1.00  0.00    -0.000 C 
BRANCH  16  17
ATOM     17  C   UNL     1      11.235 -21.902  21.142  1.00  0.00    -0.003 C 
ATOM     18  C   UNL     1      11.154 -23.413  21.340  1.00  0.00     0.004 C 
ENDBRANCH  16  17
ENDBRANCH  15  16
ENDBRANCH  14  15
ENDBRANCH  13  14
ENDBRANCH  12  13
ENDBRANCH  10  11
ENDBRANCH   1  10
TORSDOF 13
ENDMDL
MODEL 7
REMARK VINA RESULT:    -4.791      1.956      2.644
REMARK INTER + INTRA:         -10.004
REMARK INTER:                  -9.093
REMARK INTRA:                  -0.911
REMARK UNBOUND:                -1.572
REMARK SMILES CCCCCCC=CCCCCCCCC(=O)[O-]
REMARK SMILES IDX 10 1 11 2 12 3 13 4 14 5 15 6 16 7 17 8 18 9 9 10 8 11 7 12
REMARK SMILES IDX 6 13 5 14 4 15 3 16 2 17 1 18
REMARK H PARENT
REMARK Flexibility Score: inf
ROOT
ATOM      1  C   UNL     1      12.564 -16.206  30.639  1.00  0.00     0.004 C 
ENDROOT
BRANCH   1   2
ATOM      2  C   UNL     1      12.895 -14.907  29.879  1.00  0.00     0.000 C 
BRANCH   2   3
ATOM      3  C   UNL     1      11.714 -14.293  29.102  1.00  0.00     0.000 C 
BRANCH   3   4
ATOM      4  C   UNL     1      12.069 -13.071  28.232  1.00  0.00     0.000 C 
BRANCH   4   5
ATOM      5  C   UNL     1      12.295 -13.379  26.740  1.00  0.00     0.006 C 
BRANCH   5   6
ATOM      6  C   UNL     1      11.617 -14.680  26.292  1.00  0.00     0.053 C 
BRANCH   6   7
ATOM      7  C   UNL     1      12.619 -15.605  25.677  1.00  0.00     0.041 C 
ATOM      8  O   UNL     1      13.440 -15.176  24.824  1.00  0.00    -0.550 OA
ATOM      9  O   UNL     1      12.616 -16.954  26.010  1.00  0.00    -0.550 OA
ENDBRANCH   6   7
ENDBRANCH   5   6
ENDBRANCH   4   5
ENDBRANCH   3   4
ENDBRANCH   2   3
ENDBRANCH   1   2
BRANCH   1  10
ATOM     10  C   UNL     1      12.169 -16.001  32.113  1.00  0.00     0.027 C 
BRANCH  10  11
ATOM     11  C   UNL     1      10.677 -16.017  32.346  1.00  0.00    -0.031 C 
ATOM     12  C   UNL     1       9.949 -17.100  32.679  1.00  0.00    -0.031 C 
BRANCH  12  13
ATOM     13  C   UNL     1      10.486 -18.502  32.832  1.00  0.00     0.027 C 
BRANCH  13  14
ATOM     14  C   UNL     1      10.258 -19.347  31.566  1.00  0.00     0.004 C 
BRANCH  14  15
ATOM     15  C   UNL     1       9.112 -20.370  31.673  1.00  0.00     0.000 C 
BRANCH  15  16
ATOM     16  C   UNL     1       9.512 -21.770  31.184  1.00  0.00    -0.000 C 
BRANCH  16  17
ATOM     17  C   UNL     1       9.868 -22.682  32.363  1.00  0.00    -0.003 C 
ATOM     18  C   UNL     1       8.657 -22.926  33.259  1.00  0.00     0.004 C 
ENDBRANCH  16  17
ENDBRANCH  15  16
ENDBRANCH  14  15
ENDBRANCH  13  14
ENDBRANCH  12  13
ENDBRANCH  10  11
ENDBRANCH   1  10
TORSDOF 13
ENDMDL
MODEL 8
REMARK VINA RESULT:    -4.778      3.627      7.655
REMARK INTER + INTRA:          -9.982
REMARK INTER:                  -8.939
REMARK INTRA:                  -1.042
REMARK UNBOUND:                -1.572
REMARK SMILES CCCCCCC=CCCCCCCCC(=O)[O-]
REMARK SMILES IDX 10 1 11 2 12 3 13 4 14 5 15 6 16 7 17 8 18 9 9 10 8 11 7 12
REMARK SMILES IDX 6 13 5 14 4 15 3 16 2 17 1 18
REMARK H PARENT
REMARK Flexibility Score: inf
ROOT
ATOM      1  C   UNL     1      10.405 -16.002  32.333  1.00  0.00     0.004 C 
ENDROOT
BRANCH   1   2
ATOM      2  C   UNL     1       9.924 -17.319  32.973  1.00  0.00     0.000 C 
BRANCH   2   3
ATOM      3  C   UNL     1      10.665 -18.582  32.492  1.00  0.00     0.000 C 
BRANCH   3   4
ATOM      4  C   UNL     1      10.255 -19.889  33.197  1.00  0.00     0.000 C 
BRANCH   4   5
ATOM      5  C   UNL     1       9.819 -21.027  32.255  1.00  0.00     0.006 C 
BRANCH   5   6
ATOM      6  C   UNL     1       9.614 -20.556  30.810  1.00  0.00     0.053 C 
BRANCH   6   7
ATOM      7  C   UNL     1       8.157 -20.509  30.478  1.00  0.00     0.041 C 
ATOM      8  O   UNL     1       7.310 -20.246  31.372  1.00  0.00    -0.550 OA
ATOM      9  O   UNL     1       7.727 -20.805  29.190  1.00  0.00    -0.550 OA
ENDBRANCH   6   7
ENDBRANCH   5   6
ENDBRANCH   4   5
ENDBRANCH   3   4
ENDBRANCH   2   3
ENDBRANCH   1   2
BRANCH   1  10
ATOM     10  C   UNL     1      11.418 -16.182  31.188  1.00  0.00     0.027 C 
BRANCH  10  11
ATOM     11  C   UNL     1      12.804 -15.683  31.523  1.00  0.00    -0.031 C 
ATOM     12  C   UNL     1      13.695 -15.195  30.640  1.00  0.00    -0.031 C 
BRANCH  12  13
ATOM     13  C   UNL     1      13.488 -15.104  29.148  1.00  0.00     0.027 C 
BRANCH  13  14
ATOM     14  C   UNL     1      14.243 -13.912  28.534  1.00  0.00     0.004 C 
BRANCH  14  15
ATOM     15  C   UNL     1      13.368 -12.681  28.235  1.00  0.00     0.000 C 
BRANCH  15  16
ATOM     16  C   UNL     1      11.899 -13.041  27.969  1.00  0.00    -0.000 C 
BRANCH  16  17
ATOM     17  C   UNL     1      11.612 -13.097  26.464  1.00  0.00    -0.003 C 
ATOM     18  C   UNL     1      11.476 -14.538  25.982  1.00  0.00     0.004 C 
ENDBRANCH  16  17
ENDBRANCH  15  16
ENDBRANCH  14  15
ENDBRANCH  13  14
ENDBRANCH  12  13
ENDBRANCH  10  11
ENDBRANCH   1  10
TORSDOF 13
ENDMDL
MODEL 9
REMARK VINA RESULT:    -4.741      2.509      4.977
REMARK INTER + INTRA:          -9.917
REMARK INTER:                  -8.227
REMARK INTRA:                  -1.690
REMARK UNBOUND:                -1.572
REMARK SMILES CCCCCCC=CCCCCCCCC(=O)[O-]
REMARK SMILES IDX 10 1 11 2 12 3 13 4 14 5 15 6 16 7 17 8 18 9 9 10 8 11 7 12
REMARK SMILES IDX 6 13 5 14 4 15 3 16 2 17 1 18
REMARK H PARENT
REMARK Flexibility Score: inf
ROOT
ATOM      1  C   UNL     1       9.937 -18.978  33.245  1.00  0.00     0.004 C 
ENDROOT
BRANCH   1   2
ATOM      2  C   UNL     1      10.732 -18.913  31.926  1.00  0.00     0.000 C 
BRANCH   2   3
ATOM      3  C   UNL     1      11.317 -17.528  31.589  1.00  0.00     0.000 C 
BRANCH   3   4
ATOM      4  C   UNL     1      12.856 -17.448  31.598  1.00  0.00     0.000 C 
BRANCH   4   5
ATOM      5  C   UNL     1      13.435 -16.035  31.397  1.00  0.00     0.006 C 
BRANCH   5   6
ATOM      6  C   UNL     1      12.783 -15.286  30.228  1.00  0.00     0.053 C 
BRANCH   6   7
ATOM      7  C   UNL     1      13.464 -15.632  28.942  1.00  0.00     0.041 C 
ATOM      8  O   UNL     1      14.682 -15.952  28.934  1.00  0.00    -0.550 OA
ATOM      9  O   UNL     1      12.766 -15.554  27.743  1.00  0.00    -0.550 OA
ENDBRANCH   6   7
ENDBRANCH   5   6
ENDBRANCH   4   5
ENDBRANCH   3   4
ENDBRANCH   2   3
ENDBRANCH   1   2
BRANCH   1  10
ATOM     10  C   UNL     1       9.873 -20.376  33.885  1.00  0.00     0.027 C 
BRANCH  10  11
ATOM     11  C   UNL     1      10.409 -21.473  32.996  1.00  0.00    -0.031 C 
ATOM     12  C   UNL     1       9.720 -22.555  32.585  1.00  0.00    -0.031 C 
BRANCH  12  13
ATOM     13  C   UNL     1       8.302 -22.890  32.979  1.00  0.00     0.027 C 
BRANCH  13  14
ATOM     14  C   UNL     1       7.287 -22.438  31.916  1.00  0.00     0.004 C 
BRANCH  14  15
ATOM     15  C   UNL     1       6.689 -21.039  32.152  1.00  0.00     0.000 C 
BRANCH  15  16
ATOM     16  C   UNL     1       7.066 -20.033  31.054  1.00  0.00    -0.000 C 
BRANCH  16  17
ATOM     17  C   UNL     1       7.907 -20.703  29.961  1.00  0.00    -0.003 C 
ATOM     18  C   UNL     1       7.198 -20.652  28.611  1.00  0.00     0.004 C 
ENDBRANCH  16  17
ENDBRANCH  15  16
ENDBRANCH  14  15
ENDBRANCH  13  14
ENDBRANCH  12  13
ENDBRANCH  10  11
ENDBRANCH   1  10
TORSDOF 13
ENDMDL
