MODEL 1
REMARK VINA RESULT:    -6.131      0.000      0.000
REMARK INTER + INTRA:          -6.691
REMARK INTER:                  -6.668
REMARK INTRA:                  -0.023
REMARK UNBOUND:                -0.023
REMARK SMILES CC1(C)[C@@H]2CC=C(CO)[C@H]1C2
REMARK SMILES IDX 8 1 7 2 1 3 2 4 4 5 3 6 10 7 5 8 11 9 6 10 9 11
REMARK H PARENT 9 12
REMARK Flexibility Score: inf
ROOT
ATOM      1  C   UNL     1       0.873  -7.582   2.671  1.00  0.00     0.187 C 
ENDROOT
BRANCH   1   2
ATOM      2  C   UNL     1       1.291  -6.155   2.453  1.00  0.00    -0.045 C 
ATOM      3  C   UNL     1      -0.109  -2.824   3.919  1.00  0.00     0.012 C 
ATOM      4  C   UNL     1       0.441  -3.822   2.869  1.00  0.00    -0.026 C 
ATOM      5  C   UNL     1       1.888  -3.470   2.425  1.00  0.00    -0.000 C 
ATOM      6  C   UNL     1      -0.646  -4.027   1.776  1.00  0.00     0.012 C 
ATOM      7  C   UNL     1       1.071  -5.079   3.526  1.00  0.00     0.023 C 
ATOM      8  C   UNL     1       2.271  -4.268   1.131  1.00  0.00     0.031 C 
ATOM      9  C   UNL     1       2.408  -4.315   3.606  1.00  0.00     0.013 C 
ATOM     10  C   UNL     1       1.900  -5.756   1.298  1.00  0.00    -0.025 C 
ENDBRANCH   1   2
BRANCH   1  11
ATOM     11  O   UNL     1       1.936  -8.449   2.381  1.00  0.00    -0.392 OA
ATOM     12  H   UNL     1       2.748  -7.884   2.298  1.00  0.00     0.211 HD
ENDBRANCH   1  11
TORSDOF 2
ENDMDL
MODEL 2
REMARK VINA RESULT:    -6.120      1.886      3.049
REMARK INTER + INTRA:          -6.679
REMARK INTER:                  -6.642
REMARK INTRA:                  -0.038
REMARK UNBOUND:                -0.023
REMARK SMILES CC1(C)[C@@H]2CC=C(CO)[C@H]1C2
REMARK SMILES IDX 8 1 7 2 1 3 2 4 4 5 3 6 10 7 5 8 11 9 6 10 9 11
REMARK H PARENT 9 12
REMARK Flexibility Score: inf
ROOT
ATOM      1  C   UNL     1       2.396  -4.612  -0.477  1.00  0.00     0.187 C 
ENDROOT
BRANCH   1   2
ATOM      2  C   UNL     1       1.665  -4.910   0.801  1.00  0.00    -0.045 C 
ATOM      3  C   UNL     1       0.383  -2.551   3.629  1.00  0.00     0.012 C 
ATOM      4  C   UNL     1       1.048  -3.784   2.967  1.00  0.00    -0.026 C 
ATOM      5  C   UNL     1       0.186  -5.067   3.115  1.00  0.00    -0.000 C 
ATOM      6  C   UNL     1       2.537  -3.831   3.412  1.00  0.00     0.012 C 
ATOM      7  C   UNL     1       0.728  -3.882   1.452  1.00  0.00     0.023 C 
ATOM      8  C   UNL     1       1.031  -6.338   2.759  1.00  0.00     0.031 C 
ATOM      9  C   UNL     1      -0.545  -4.673   1.815  1.00  0.00     0.013 C 
ATOM     10  C   UNL     1       1.787  -6.115   1.433  1.00  0.00    -0.025 C 
ENDBRANCH   1   2
BRANCH   1  11
ATOM     11  O   UNL     1       1.499  -4.575  -1.553  1.00  0.00    -0.392 OA
ATOM     12  H   UNL     1       0.883  -3.816  -1.381  1.00  0.00     0.211 HD
ENDBRANCH   1  11
TORSDOF 2
ENDMDL
MODEL 3
REMARK VINA RESULT:    -6.084      2.528      3.794
REMARK INTER + INTRA:          -6.641
REMARK INTER:                  -6.598
REMARK INTRA:                  -0.043
REMARK UNBOUND:                -0.023
REMARK SMILES CC1(C)[C@@H]2CC=C(CO)[C@H]1C2
REMARK SMILES IDX 8 1 7 2 1 3 2 4 4 5 3 6 10 7 5 8 11 9 6 10 9 11
REMARK H PARENT 9 12
REMARK Flexibility Score: inf
ROOT
ATOM      1  C   UNL     1      -1.690  -3.248   2.227  1.00  0.00     0.187 C 
ENDROOT
BRANCH   1   2
ATOM      2  C   UNL     1      -0.465  -4.119   2.233  1.00  0.00    -0.045 C 
ATOM      3  C   UNL     1       2.320  -4.645  -0.445  1.00  0.00     0.012 C 
ATOM      4  C   UNL     1       1.270  -5.003   0.638  1.00  0.00    -0.026 C 
ATOM      5  C   UNL     1       1.930  -5.445   1.973  1.00  0.00    -0.000 C 
ATOM      6  C   UNL     1       0.200  -5.928  -0.007  1.00  0.00     0.012 C 
ATOM      7  C   UNL     1       0.787  -3.755   1.423  1.00  0.00     0.023 C 
ATOM      8  C   UNL     1       0.872  -6.126   2.906  1.00  0.00     0.031 C 
ATOM      9  C   UNL     1       1.966  -3.962   2.395  1.00  0.00     0.013 C 
ATOM     10  C   UNL     1      -0.406  -5.265   2.974  1.00  0.00    -0.025 C 
ENDBRANCH   1   2
BRANCH   1  11
ATOM     11  O   UNL     1      -1.333  -1.910   2.006  1.00  0.00    -0.392 OA
ATOM     12  H   UNL     1      -1.546  -1.714   1.056  1.00  0.00     0.211 HD
ENDBRANCH   1  11
TORSDOF 2
ENDMDL
MODEL 4
REMARK VINA RESULT:    -5.932      1.969      2.942
REMARK INTER + INTRA:          -6.475
REMARK INTER:                  -6.433
REMARK INTRA:                  -0.042
REMARK UNBOUND:                -0.023
REMARK SMILES CC1(C)[C@@H]2CC=C(CO)[C@H]1C2
REMARK SMILES IDX 8 1 7 2 1 3 2 4 4 5 3 6 10 7 5 8 11 9 6 10 9 11
REMARK H PARENT 9 12
REMARK Flexibility Score: inf
ROOT
ATOM      1  C   UNL     1       1.514  -4.684  -1.174  1.00  0.00     0.187 C 
ENDROOT
BRANCH   1   2
ATOM      2  C   UNL     1       1.357  -4.811   0.314  1.00  0.00    -0.045 C 
ATOM      3  C   UNL     1      -1.829  -5.153   2.536  1.00  0.00     0.012 C 
ATOM      4  C   UNL     1      -0.435  -4.658   2.076  1.00  0.00    -0.026 C 
ATOM      5  C   UNL     1       0.711  -5.229   2.955  1.00  0.00    -0.000 C 
ATOM      6  C   UNL     1      -0.512  -3.120   1.858  1.00  0.00     0.012 C 
ATOM      7  C   UNL     1       0.155  -5.533   0.939  1.00  0.00     0.023 C 
ATOM      8  C   UNL     1       2.043  -4.445   2.695  1.00  0.00     0.031 C 
ATOM      9  C   UNL     1       0.758  -6.454   2.019  1.00  0.00     0.013 C 
ATOM     10  C   UNL     1       2.286  -4.305   1.179  1.00  0.00    -0.025 C 
ENDBRANCH   1   2
BRANCH   1  11
ATOM     11  O   UNL     1       1.111  -5.867  -1.809  1.00  0.00    -0.392 OA
ATOM     12  H   UNL     1       0.318  -6.198  -1.312  1.00  0.00     0.211 HD
ENDBRANCH   1  11
TORSDOF 2
ENDMDL
MODEL 5
REMARK VINA RESULT:    -5.857      3.448      5.093
REMARK INTER + INTRA:          -6.394
REMARK INTER:                  -6.371
REMARK INTRA:                  -0.023
REMARK UNBOUND:                -0.023
REMARK SMILES CC1(C)[C@@H]2CC=C(CO)[C@H]1C2
REMARK SMILES IDX 8 1 7 2 1 3 2 4 4 5 3 6 10 7 5 8 11 9 6 10 9 11
REMARK H PARENT 9 12
REMARK Flexibility Score: inf
ROOT
ATOM      1  C   UNL     1      -4.304  -5.023   2.383  1.00  0.00     0.187 C 
ENDROOT
BRANCH   1   2
ATOM      2  C   UNL     1      -3.413  -3.937   2.916  1.00  0.00    -0.045 C 
ATOM      3  C   UNL     1       0.409  -3.307   2.471  1.00  0.00     0.012 C 
ATOM      4  C   UNL     1      -0.964  -3.420   3.181  1.00  0.00    -0.026 C 
ATOM      5  C   UNL     1      -1.540  -2.031   3.570  1.00  0.00    -0.000 C 
ATOM      6  C   UNL     1      -0.855  -4.516   4.280  1.00  0.00     0.012 C 
ATOM      7  C   UNL     1      -2.141  -3.501   2.175  1.00  0.00     0.023 C 
ATOM      8  C   UNL     1      -2.727  -2.195   4.580  1.00  0.00     0.031 C 
ATOM      9  C   UNL     1      -2.189  -1.959   2.172  1.00  0.00     0.013 C 
ATOM     10  C   UNL     1      -3.705  -3.277   4.076  1.00  0.00    -0.025 C 
ENDBRANCH   1   2
BRANCH   1  11
ATOM     11  O   UNL     1      -5.545  -4.998   3.034  1.00  0.00    -0.392 OA
ATOM     12  H   UNL     1      -5.627  -4.101   3.451  1.00  0.00     0.211 HD
ENDBRANCH   1  11
TORSDOF 2
ENDMDL
MODEL 6
REMARK VINA RESULT:    -5.813      1.826      3.152
REMARK INTER + INTRA:          -6.346
REMARK INTER:                  -6.314
REMARK INTRA:                  -0.032
REMARK UNBOUND:                -0.023
REMARK SMILES CC1(C)[C@@H]2CC=C(CO)[C@H]1C2
REMARK SMILES IDX 8 1 7 2 1 3 2 4 4 5 3 6 10 7 5 8 11 9 6 10 9 11
REMARK H PARENT 9 12
REMARK Flexibility Score: inf
ROOT
ATOM      1  C   UNL     1      -2.141  -6.356   2.620  1.00  0.00     0.187 C 
ENDROOT
BRANCH   1   2
ATOM      2  C   UNL     1      -1.043  -5.341   2.765  1.00  0.00    -0.045 C 
ATOM      3  C   UNL     1       1.852  -4.336   0.354  1.00  0.00     0.012 C 
ATOM      4  C   UNL     1       1.136  -4.702   1.679  1.00  0.00    -0.026 C 
ATOM      5  C   UNL     1       0.973  -3.475   2.618  1.00  0.00    -0.000 C 
ATOM      6  C   UNL     1       1.793  -5.993   2.247  1.00  0.00     0.012 C 
ATOM      7  C   UNL     1      -0.409  -4.661   1.544  1.00  0.00     0.023 C 
ATOM      8  C   UNL     1       0.578  -3.940   4.061  1.00  0.00     0.031 C 
ATOM      9  C   UNL     1      -0.357  -3.161   1.902  1.00  0.00     0.013 C 
ATOM     10  C   UNL     1      -0.573  -4.964   3.991  1.00  0.00    -0.025 C 
ENDBRANCH   1   2
BRANCH   1  11
ATOM     11  O   UNL     1      -1.858  -7.492   3.391  1.00  0.00    -0.392 OA
ATOM     12  H   UNL     1      -1.412  -7.169   4.218  1.00  0.00     0.211 HD
ENDBRANCH   1  11
TORSDOF 2
ENDMDL
MODEL 7
REMARK VINA RESULT:    -5.737      1.067      2.005
REMARK INTER + INTRA:          -6.263
REMARK INTER:                  -6.220
REMARK INTRA:                  -0.044
REMARK UNBOUND:                -0.023
REMARK SMILES CC1(C)[C@@H]2CC=C(CO)[C@H]1C2
REMARK SMILES IDX 8 1 7 2 1 3 2 4 4 5 3 6 10 7 5 8 11 9 6 10 9 11
REMARK H PARENT 9 12
REMARK Flexibility Score: inf
ROOT
ATOM      1  C   UNL     1       0.845  -8.264   2.867  1.00  0.00     0.187 C 
ENDROOT
BRANCH   1   2
ATOM      2  C   UNL     1       0.738  -6.893   2.262  1.00  0.00    -0.045 C 
ATOM      3  C   UNL     1       2.473  -3.531   3.208  1.00  0.00     0.012 C 
ATOM      4  C   UNL     1       1.343  -4.507   2.794  1.00  0.00    -0.026 C 
ATOM      5  C   UNL     1       0.917  -4.318   1.312  1.00  0.00    -0.000 C 
ATOM      6  C   UNL     1       0.245  -4.478   3.895  1.00  0.00     0.012 C 
ATOM      7  C   UNL     1       1.893  -5.885   2.340  1.00  0.00     0.023 C 
ATOM      8  C   UNL     1      -0.438  -5.054   1.035  1.00  0.00     0.031 C 
ATOM      9  C   UNL     1       2.023  -5.315   0.912  1.00  0.00     0.013 C 
ATOM     10  C   UNL     1      -0.387  -6.487   1.602  1.00  0.00    -0.025 C 
ENDBRANCH   1   2
BRANCH   1  11
ATOM     11  O   UNL     1       2.192  -8.624   3.019  1.00  0.00    -0.392 OA
ATOM     12  H   UNL     1       2.725  -7.809   2.827  1.00  0.00     0.211 HD
ENDBRANCH   1  11
TORSDOF 2
ENDMDL
MODEL 8
REMARK VINA RESULT:    -5.669      2.871      4.207
REMARK INTER + INTRA:          -6.189
REMARK INTER:                  -6.152
REMARK INTRA:                  -0.037
REMARK UNBOUND:                -0.023
REMARK SMILES CC1(C)[C@@H]2CC=C(CO)[C@H]1C2
REMARK SMILES IDX 8 1 7 2 1 3 2 4 4 5 3 6 10 7 5 8 11 9 6 10 9 11
REMARK H PARENT 9 12
REMARK Flexibility Score: inf
ROOT
ATOM      1  C   UNL     1      -1.888  -1.963   3.021  1.00  0.00     0.187 C 
ENDROOT
BRANCH   1   2
ATOM      2  C   UNL     1      -0.694  -2.869   2.921  1.00  0.00    -0.045 C 
ATOM      3  C   UNL     1      -0.324  -6.472   1.477  1.00  0.00     0.012 C 
ATOM      4  C   UNL     1      -0.148  -5.282   2.454  1.00  0.00    -0.026 C 
ATOM      5  C   UNL     1       1.294  -4.705   2.424  1.00  0.00    -0.000 C 
ATOM      6  C   UNL     1      -0.763  -5.683   3.825  1.00  0.00     0.012 C 
ATOM      7  C   UNL     1      -0.579  -3.933   1.820  1.00  0.00     0.023 C 
ATOM      8  C   UNL     1       1.529  -3.761   3.652  1.00  0.00     0.031 C 
ATOM      9  C   UNL     1       0.853  -3.784   1.268  1.00  0.00     0.013 C 
ATOM     10  C   UNL     1       0.352  -2.775   3.796  1.00  0.00    -0.025 C 
ENDBRANCH   1   2
BRANCH   1  11
ATOM     11  O   UNL     1      -1.870  -1.019   1.984  1.00  0.00    -0.392 OA
ATOM     12  H   UNL     1      -2.593  -0.368   2.182  1.00  0.00     0.211 HD
ENDBRANCH   1  11
TORSDOF 2
ENDMDL
MODEL 9
REMARK VINA RESULT:    -5.666      1.645      2.597
REMARK INTER + INTRA:          -6.186
REMARK INTER:                  -6.122
REMARK INTRA:                  -0.064
REMARK UNBOUND:                -0.023
REMARK SMILES CC1(C)[C@@H]2CC=C(CO)[C@H]1C2
REMARK SMILES IDX 8 1 7 2 1 3 2 4 4 5 3 6 10 7 5 8 11 9 6 10 9 11
REMARK H PARENT 9 12
REMARK Flexibility Score: inf
ROOT
ATOM      1  C   UNL     1       2.211  -5.118   0.952  1.00  0.00     0.187 C 
ENDROOT
BRANCH   1   2
ATOM      2  C   UNL     1       1.093  -4.564   1.789  1.00  0.00    -0.045 C 
ATOM      3  C   UNL     1      -1.121  -6.228   4.534  1.00  0.00     0.012 C 
ATOM      4  C   UNL     1      -0.755  -5.367   3.298  1.00  0.00    -0.026 C 
ATOM      5  C   UNL     1      -0.857  -3.845   3.592  1.00  0.00    -0.000 C 
ATOM      6  C   UNL     1      -1.508  -5.941   2.065  1.00  0.00     0.012 C 
ATOM      7  C   UNL     1       0.773  -5.127   3.181  1.00  0.00     0.023 C 
ATOM      8  C   UNL     1      -0.830  -3.028   2.255  1.00  0.00     0.031 C 
ATOM      9  C   UNL     1       0.604  -3.888   4.085  1.00  0.00     0.013 C 
ATOM     10  C   UNL     1       0.321  -3.523   1.356  1.00  0.00    -0.025 C 
ENDBRANCH   1   2
BRANCH   1  11
ATOM     11  O   UNL     1       2.110  -6.514   0.868  1.00  0.00    -0.392 OA
ATOM     12  H   UNL     1       1.158  -6.739   1.037  1.00  0.00     0.211 HD
ENDBRANCH   1  11
TORSDOF 2
ENDMDL
