MODEL 1
REMARK VINA RESULT:    -0.872      0.000      0.000
REMARK INTER + INTRA:          -1.577
REMARK INTER:                  -1.279
REMARK INTRA:                  -0.297
REMARK UNBOUND:                -0.297
REMARK SMILES O=C([O-])CCCCCCCC(=O)[O-]
REMARK SMILES IDX 7 1 6 2 5 3 4 4 2 5 1 6 3 7 8 8 9 9 10 10 11 11 12 12 13 13
REMARK H PARENT
REMARK Flexibility Score: inf
ROOT
ATOM      1  C   UNL     1     -32.317  18.420 -10.374  1.00  0.00     0.000 C 
ENDROOT
BRANCH   1   2
ATOM      2  C   UNL     1     -31.426  17.168 -10.359  1.00  0.00     0.000 C 
BRANCH   2   3
ATOM      3  C   UNL     1     -29.946  17.492 -10.616  1.00  0.00     0.006 C 
BRANCH   3   4
ATOM      4  C   UNL     1     -29.253  16.440 -11.492  1.00  0.00     0.053 C 
BRANCH   4   5
ATOM      5  C   UNL     1     -28.908  17.018 -12.828  1.00  0.00     0.041 C 
ATOM      6  O   UNL     1     -28.563  18.224 -12.926  1.00  0.00    -0.550 OA
ATOM      7  O   UNL     1     -28.923  16.211 -13.958  1.00  0.00    -0.550 OA
ENDBRANCH   4   5
ENDBRANCH   3   4
ENDBRANCH   2   3
ENDBRANCH   1   2
BRANCH   1   8
ATOM      8  C   UNL     1     -31.467  19.697 -10.394  1.00  0.00     0.000 C 
BRANCH   8   9
ATOM      9  C   UNL     1     -32.309  20.923 -10.009  1.00  0.00     0.006 C 
BRANCH   9  10
ATOM     10  C   UNL     1     -31.755  22.220 -10.615  1.00  0.00     0.053 C 
BRANCH  10  11
ATOM     11  C   UNL     1     -32.314  23.434  -9.937  1.00  0.00     0.041 C 
ATOM     12  O   UNL     1     -31.588  24.123  -9.174  1.00  0.00    -0.550 OA
ATOM     13  O   UNL     1     -33.626  23.823 -10.177  1.00  0.00    -0.550 OA
ENDBRANCH  10  11
ENDBRANCH   9  10
ENDBRANCH   8   9
ENDBRANCH   1   8
TORSDOF 8
ENDMDL
MODEL 2
REMARK VINA RESULT:    -0.835      0.125      6.539
REMARK INTER + INTRA:          -1.522
REMARK INTER:                  -1.225
REMARK INTRA:                  -0.298
REMARK UNBOUND:                -0.297
REMARK SMILES O=C([O-])CCCCCCCC(=O)[O-]
REMARK SMILES IDX 7 1 6 2 5 3 4 4 2 5 1 6 3 7 8 8 9 9 10 10 11 11 12 12 13 13
REMARK H PARENT
REMARK Flexibility Score: inf
ROOT
ATOM      1  C   UNL     1     -32.345  18.517 -10.348  1.00  0.00     0.000 C 
ENDROOT
BRANCH   1   2
ATOM      2  C   UNL     1     -31.488  19.791 -10.415  1.00  0.00     0.000 C 
BRANCH   2   3
ATOM      3  C   UNL     1     -32.244  21.038  -9.933  1.00  0.00     0.006 C 
BRANCH   3   4
ATOM      4  C   UNL     1     -31.854  22.304 -10.708  1.00  0.00     0.053 C 
BRANCH   4   5
ATOM      5  C   UNL     1     -32.320  23.525  -9.981  1.00  0.00     0.041 C 
ATOM      6  O   UNL     1     -31.547  24.123  -9.188  1.00  0.00    -0.550 OA
ATOM      7  O   UNL     1     -33.592  24.030 -10.217  1.00  0.00    -0.550 OA
ENDBRANCH   4   5
ENDBRANCH   3   4
ENDBRANCH   2   3
ENDBRANCH   1   2
BRANCH   1   8
ATOM      8  C   UNL     1     -31.462  17.263 -10.340  1.00  0.00     0.000 C 
BRANCH   8   9
ATOM      9  C   UNL     1     -29.990  17.625 -10.588  1.00  0.00     0.006 C 
BRANCH   9  10
ATOM     10  C   UNL     1     -29.266  16.566 -11.431  1.00  0.00     0.053 C 
BRANCH  10  11
ATOM     11  C   UNL     1     -28.885  17.093 -12.781  1.00  0.00     0.041 C 
ATOM     12  O   UNL     1     -28.495  18.282 -12.909  1.00  0.00    -0.550 OA
ATOM     13  O   UNL     1     -28.929  16.258 -13.891  1.00  0.00    -0.550 OA
ENDBRANCH  10  11
ENDBRANCH   9  10
ENDBRANCH   8   9
ENDBRANCH   1   8
TORSDOF 8
ENDMDL
MODEL 3
REMARK VINA RESULT:     0.601      0.909      1.657
REMARK INTER + INTRA:           0.585
REMARK INTER:                  -0.153
REMARK INTRA:                   0.738
REMARK UNBOUND:                -0.297
REMARK SMILES O=C([O-])CCCCCCCC(=O)[O-]
REMARK SMILES IDX 7 1 6 2 5 3 4 4 2 5 1 6 3 7 8 8 9 9 10 10 11 11 12 12 13 13
REMARK H PARENT
REMARK Flexibility Score: inf
ROOT
ATOM      1  C   UNL     1     -32.679  18.942 -10.001  1.00  0.00     0.000 C 
ENDROOT
BRANCH   1   2
ATOM      2  C   UNL     1     -31.295  18.392 -10.382  1.00  0.00     0.000 C 
BRANCH   2   3
ATOM      3  C   UNL     1     -31.253  16.856 -10.393  1.00  0.00     0.006 C 
BRANCH   3   4
ATOM      4  C   UNL     1     -30.014  16.303 -11.109  1.00  0.00     0.053 C 
BRANCH   4   5
ATOM      5  C   UNL     1     -29.200  17.421 -11.682  1.00  0.00     0.041 C 
ATOM      6  O   UNL     1     -28.821  17.378 -12.881  1.00  0.00    -0.550 OA
ATOM      7  O   UNL     1     -28.902  18.532 -10.903  1.00  0.00    -0.550 OA
ENDBRANCH   4   5
ENDBRANCH   3   4
ENDBRANCH   2   3
ENDBRANCH   1   2
BRANCH   1   8
ATOM      8  C   UNL     1     -32.802  20.424 -10.379  1.00  0.00     0.000 C 
BRANCH   8   9
ATOM      9  C   UNL     1     -31.475  21.162 -10.146  1.00  0.00     0.006 C 
BRANCH   9  10
ATOM     10  C   UNL     1     -31.475  22.565 -10.769  1.00  0.00     0.053 C 
BRANCH  10  11
ATOM     11  C   UNL     1     -32.317  23.523  -9.982  1.00  0.00     0.041 C 
ATOM     12  O   UNL     1     -33.501  23.763 -10.335  1.00  0.00    -0.550 OA
ATOM     13  O   UNL     1     -31.803  24.124  -8.839  1.00  0.00    -0.550 OA
ENDBRANCH  10  11
ENDBRANCH   9  10
ENDBRANCH   8   9
ENDBRANCH   1   8
TORSDOF 8
ENDMDL
