MODEL 1
REMARK VINA RESULT:    -4.209      0.000      0.000
REMARK INTER + INTRA:          -5.074
REMARK INTER:                  -4.948
REMARK INTRA:                  -0.127
REMARK UNBOUND:                -0.127
REMARK SMILES O=C([O-])C=Cc1ccc(O)c(O)c1
REMARK SMILES IDX 6 1 13 2 7 3 11 4 8 5 9 6 5 7 4 8 2 9 1 10 3 11 12 12 10 14
REMARK H PARENT 12 13 10 15
REMARK Flexibility Score: inf
ROOT
ATOM      1  C   UNL     1      -7.176   5.868 -26.215  1.00  0.00    -0.022 A 
ATOM      2  C   UNL     1      -8.211   6.470 -25.471  1.00  0.00     0.058 A 
ATOM      3  C   UNL     1      -6.866   4.520 -25.977  1.00  0.00     0.012 A 
ATOM      4  C   UNL     1      -8.934   5.731 -24.526  1.00  0.00     0.157 A 
ATOM      5  C   UNL     1      -7.588   3.779 -25.037  1.00  0.00     0.051 A 
ATOM      6  C   UNL     1      -8.624   4.379 -24.311  1.00  0.00     0.157 A 
ENDROOT
BRANCH   1   7
ATOM      7  C   UNL     1      -6.375   6.614 -27.217  1.00  0.00     0.010 C 
ATOM      8  C   UNL     1      -5.584   7.654 -26.915  1.00  0.00     0.025 C 
BRANCH   8   9
ATOM      9  C   UNL     1      -4.813   8.377 -27.939  1.00  0.00     0.064 C 
ATOM     10  O   UNL     1      -4.063   9.342 -27.632  1.00  0.00    -0.545 OA
ATOM     11  O   UNL     1      -4.914   7.990 -29.269  1.00  0.00    -0.545 OA
ENDBRANCH   8   9
ENDBRANCH   1   7
BRANCH   4  12
ATOM     12  O   UNL     1      -9.953   6.360 -23.811  1.00  0.00    -0.504 OA
ATOM     13  H   UNL     1     -10.833   5.901 -23.613  1.00  0.00     0.293 HD
ENDBRANCH   4  12
BRANCH   6  14
ATOM     14  O   UNL     1      -9.345   3.637 -23.375  1.00  0.00    -0.504 OA
ATOM     15  H   UNL     1      -8.966   3.427 -22.459  1.00  0.00     0.293 HD
ENDBRANCH   6  14
TORSDOF 4
ENDMDL
MODEL 2
REMARK VINA RESULT:    -4.085     16.579     17.674
REMARK INTER + INTRA:          -4.928
REMARK INTER:                  -4.804
REMARK INTRA:                  -0.124
REMARK UNBOUND:                -0.127
REMARK SMILES O=C([O-])C=Cc1ccc(O)c(O)c1
REMARK SMILES IDX 6 1 13 2 7 3 11 4 8 5 9 6 5 7 4 8 2 9 1 10 3 11 12 12 10 14
REMARK H PARENT 12 13 10 15
REMARK Flexibility Score: inf
ROOT
ATOM      1  C   UNL     1     -10.872  -3.824 -38.673  1.00  0.00    -0.022 A 
ATOM      2  C   UNL     1     -11.850  -4.418 -39.497  1.00  0.00     0.058 A 
ATOM      3  C   UNL     1     -10.719  -2.429 -38.702  1.00  0.00     0.012 A 
ATOM      4  C   UNL     1     -12.671  -3.631 -40.312  1.00  0.00     0.157 A 
ATOM      5  C   UNL     1     -11.540  -1.639 -39.513  1.00  0.00     0.051 A 
ATOM      6  C   UNL     1     -12.519  -2.235 -40.318  1.00  0.00     0.157 A 
ENDROOT
BRANCH   1   7
ATOM      7  C   UNL     1      -9.971  -4.619 -37.802  1.00  0.00     0.010 C 
ATOM      8  C   UNL     1      -9.252  -5.666 -38.232  1.00  0.00     0.025 C 
BRANCH   8   9
ATOM      9  C   UNL     1      -8.377  -6.438 -37.334  1.00  0.00     0.064 C 
ATOM     10  O   UNL     1      -8.442  -7.695 -37.281  1.00  0.00    -0.545 OA
ATOM     11  O   UNL     1      -7.463  -5.769 -36.530  1.00  0.00    -0.545 OA
ENDBRANCH   8   9
ENDBRANCH   1   7
BRANCH   4  12
ATOM     12  O   UNL     1     -13.629  -4.254 -41.112  1.00  0.00    -0.504 OA
ATOM     13  H   UNL     1     -14.605  -4.299 -40.844  1.00  0.00     0.293 HD
ENDBRANCH   4  12
BRANCH   6  14
ATOM     14  O   UNL     1     -13.337  -1.445 -41.125  1.00  0.00    -0.504 OA
ATOM     15  H   UNL     1     -12.964  -0.675 -41.668  1.00  0.00     0.293 HD
ENDBRANCH   6  14
TORSDOF 4
ENDMDL
MODEL 3
REMARK VINA RESULT:    -4.081     15.991     16.953
REMARK INTER + INTRA:          -4.923
REMARK INTER:                  -4.792
REMARK INTRA:                  -0.131
REMARK UNBOUND:                -0.127
REMARK SMILES O=C([O-])C=Cc1ccc(O)c(O)c1
REMARK SMILES IDX 6 1 13 2 7 3 11 4 8 5 9 6 5 7 4 8 2 9 1 10 3 11 12 12 10 14
REMARK H PARENT 12 13 10 15
REMARK Flexibility Score: inf
ROOT
ATOM      1  C   UNL     1     -10.019  -4.854 -37.697  1.00  0.00    -0.022 A 
ATOM      2  C   UNL     1     -10.245  -4.987 -36.312  1.00  0.00     0.058 A 
ATOM      3  C   UNL     1      -8.963  -5.570 -38.282  1.00  0.00     0.012 A 
ATOM      4  C   UNL     1      -9.446  -5.836 -35.536  1.00  0.00     0.157 A 
ATOM      5  C   UNL     1      -8.165  -6.421 -37.511  1.00  0.00     0.051 A 
ATOM      6  C   UNL     1      -8.404  -6.559 -36.138  1.00  0.00     0.157 A 
ENDROOT
BRANCH   1   7
ATOM      7  C   UNL     1     -10.831  -3.958 -38.557  1.00  0.00     0.010 C 
ATOM      8  C   UNL     1     -11.805  -4.388 -39.371  1.00  0.00     0.025 C 
BRANCH   8   9
ATOM      9  C   UNL     1     -12.582  -3.469 -40.219  1.00  0.00     0.064 C 
ATOM     10  O   UNL     1     -13.798  -3.684 -40.471  1.00  0.00    -0.545 OA
ATOM     11  O   UNL     1     -11.965  -2.344 -40.751  1.00  0.00    -0.545 OA
ENDBRANCH   8   9
ENDBRANCH   1   7
BRANCH   4  12
ATOM     12  O   UNL     1      -9.702  -5.943 -34.169  1.00  0.00    -0.504 OA
ATOM     13  H   UNL     1     -10.643  -5.922 -33.795  1.00  0.00     0.293 HD
ENDBRANCH   4  12
BRANCH   6  14
ATOM     14  O   UNL     1      -7.609  -7.410 -35.371  1.00  0.00    -0.504 OA
ATOM     15  H   UNL     1      -6.954  -8.053 -35.799  1.00  0.00     0.293 HD
ENDBRANCH   6  14
TORSDOF 4
ENDMDL
MODEL 4
REMARK VINA RESULT:    -4.052     14.309     15.445
REMARK INTER + INTRA:          -4.890
REMARK INTER:                  -4.763
REMARK INTRA:                  -0.127
REMARK UNBOUND:                -0.127
REMARK SMILES O=C([O-])C=Cc1ccc(O)c(O)c1
REMARK SMILES IDX 6 1 13 2 7 3 11 4 8 5 9 6 5 7 4 8 2 9 1 10 3 11 12 12 10 14
REMARK H PARENT 12 13 10 15
REMARK Flexibility Score: inf
ROOT
ATOM      1  C   UNL     1     -17.846   5.993 -35.526  1.00  0.00    -0.022 A 
ATOM      2  C   UNL     1     -16.840   6.696 -36.221  1.00  0.00     0.058 A 
ATOM      3  C   UNL     1     -18.090   4.652 -35.864  1.00  0.00     0.012 A 
ATOM      4  C   UNL     1     -16.082   6.063 -37.214  1.00  0.00     0.157 A 
ATOM      5  C   UNL     1     -17.333   4.017 -36.852  1.00  0.00     0.051 A 
ATOM      6  C   UNL     1     -16.327   4.717 -37.529  1.00  0.00     0.157 A 
ENDROOT
BRANCH   1   7
ATOM      7  C   UNL     1     -18.682   6.624 -34.476  1.00  0.00     0.010 C 
ATOM      8  C   UNL     1     -19.560   7.609 -34.714  1.00  0.00     0.025 C 
BRANCH   8   9
ATOM      9  C   UNL     1     -20.364   8.220 -33.643  1.00  0.00     0.064 C 
ATOM     10  O   UNL     1     -20.466   7.676 -32.511  1.00  0.00    -0.545 OA
ATOM     11  O   UNL     1     -21.024   9.418 -33.884  1.00  0.00    -0.545 OA
ENDBRANCH   8   9
ENDBRANCH   1   7
BRANCH   4  12
ATOM     12  O   UNL     1     -15.095   6.791 -37.878  1.00  0.00    -0.504 OA
ATOM     13  H   UNL     1     -14.109   6.584 -37.768  1.00  0.00     0.293 HD
ENDBRANCH   4  12
BRANCH   6  14
ATOM     14  O   UNL     1     -15.572   4.080 -38.513  1.00  0.00    -0.504 OA
ATOM     15  H   UNL     1     -14.637   4.392 -38.750  1.00  0.00     0.293 HD
ENDBRANCH   6  14
TORSDOF 4
ENDMDL
MODEL 5
REMARK VINA RESULT:    -4.052     12.577     14.398
REMARK INTER + INTRA:          -4.890
REMARK INTER:                  -4.767
REMARK INTRA:                  -0.123
REMARK UNBOUND:                -0.127
REMARK SMILES O=C([O-])C=Cc1ccc(O)c(O)c1
REMARK SMILES IDX 6 1 13 2 7 3 11 4 8 5 9 6 5 7 4 8 2 9 1 10 3 11 12 12 10 14
REMARK H PARENT 12 13 10 15
REMARK Flexibility Score: inf
ROOT
ATOM      1  C   UNL     1     -12.575   7.641 -37.565  1.00  0.00    -0.022 A 
ATOM      2  C   UNL     1     -13.108   7.484 -38.861  1.00  0.00     0.058 A 
ATOM      3  C   UNL     1     -11.769   8.758 -37.295  1.00  0.00     0.012 A 
ATOM      4  C   UNL     1     -12.859   8.436 -39.856  1.00  0.00     0.157 A 
ATOM      5  C   UNL     1     -11.521   9.713 -38.286  1.00  0.00     0.051 A 
ATOM      6  C   UNL     1     -12.065   9.558 -39.567  1.00  0.00     0.157 A 
ENDROOT
BRANCH   1   7
ATOM      7  C   UNL     1     -12.802   6.652 -36.482  1.00  0.00     0.010 C 
ATOM      8  C   UNL     1     -14.000   6.122 -36.195  1.00  0.00     0.025 C 
BRANCH   8   9
ATOM      9  C   UNL     1     -14.188   5.152 -35.105  1.00  0.00     0.064 C 
ATOM     10  O   UNL     1     -13.213   4.734 -34.426  1.00  0.00    -0.545 OA
ATOM     11  O   UNL     1     -15.466   4.686 -34.819  1.00  0.00    -0.545 OA
ENDBRANCH   8   9
ENDBRANCH   1   7
BRANCH   4  12
ATOM     12  O   UNL     1     -13.405   8.248 -41.125  1.00  0.00    -0.504 OA
ATOM     13  H   UNL     1     -13.251   7.400 -41.657  1.00  0.00     0.293 HD
ENDBRANCH   4  12
BRANCH   6  14
ATOM     14  O   UNL     1     -11.817  10.513 -40.553  1.00  0.00    -0.504 OA
ATOM     15  H   UNL     1     -12.017  11.495 -40.403  1.00  0.00     0.293 HD
ENDBRANCH   6  14
TORSDOF 4
ENDMDL
MODEL 6
REMARK VINA RESULT:    -3.933     14.926     15.930
REMARK INTER + INTRA:          -4.749
REMARK INTER:                  -4.599
REMARK INTRA:                  -0.151
REMARK UNBOUND:                -0.127
REMARK SMILES O=C([O-])C=Cc1ccc(O)c(O)c1
REMARK SMILES IDX 6 1 13 2 7 3 11 4 8 5 9 6 5 7 4 8 2 9 1 10 3 11 12 12 10 14
REMARK H PARENT 12 13 10 15
REMARK Flexibility Score: inf
ROOT
ATOM      1  C   UNL     1     -12.139   6.522 -39.994  1.00  0.00    -0.022 A 
ATOM      2  C   UNL     1     -13.029   7.554 -39.632  1.00  0.00     0.058 A 
ATOM      3  C   UNL     1     -11.003   6.844 -40.755  1.00  0.00     0.012 A 
ATOM      4  C   UNL     1     -12.775   8.880 -40.004  1.00  0.00     0.157 A 
ATOM      5  C   UNL     1     -10.746   8.167 -41.125  1.00  0.00     0.051 A 
ATOM      6  C   UNL     1     -11.627   9.189 -40.750  1.00  0.00     0.157 A 
ENDROOT
BRANCH   1   7
ATOM      7  C   UNL     1     -12.372   5.103 -39.634  1.00  0.00     0.010 C 
ATOM      8  C   UNL     1     -11.851   4.067 -40.308  1.00  0.00     0.025 C 
BRANCH   8   9
ATOM      9  C   UNL     1     -12.115   2.670 -39.927  1.00  0.00     0.064 C 
ATOM     10  O   UNL     1     -12.586   2.379 -38.794  1.00  0.00    -0.545 OA
ATOM     11  O   UNL     1     -11.840   1.652 -40.831  1.00  0.00    -0.545 OA
ENDBRANCH   8   9
ENDBRANCH   1   7
BRANCH   4  12
ATOM     12  O   UNL     1     -13.678   9.873 -39.626  1.00  0.00    -0.504 OA
ATOM     13  H   UNL     1     -14.158  10.451 -40.305  1.00  0.00     0.293 HD
ENDBRANCH   4  12
BRANCH   6  14
ATOM     14  O   UNL     1     -11.367  10.509 -41.119  1.00  0.00    -0.504 OA
ATOM     15  H   UNL     1     -10.422  10.839 -41.280  1.00  0.00     0.293 HD
ENDBRANCH   6  14
TORSDOF 4
ENDMDL
MODEL 7
REMARK VINA RESULT:    -3.929     11.906     13.578
REMARK INTER + INTRA:          -4.745
REMARK INTER:                  -4.602
REMARK INTRA:                  -0.144
REMARK UNBOUND:                -0.127
REMARK SMILES O=C([O-])C=Cc1ccc(O)c(O)c1
REMARK SMILES IDX 6 1 13 2 7 3 11 4 8 5 9 6 5 7 4 8 2 9 1 10 3 11 12 12 10 14
REMARK H PARENT 12 13 10 15
REMARK Flexibility Score: inf
ROOT
ATOM      1  C   UNL     1     -12.670   7.360 -37.253  1.00  0.00    -0.022 A 
ATOM      2  C   UNL     1     -13.320   6.716 -38.326  1.00  0.00     0.058 A 
ATOM      3  C   UNL     1     -11.975   8.554 -37.501  1.00  0.00     0.012 A 
ATOM      4  C   UNL     1     -13.293   7.269 -39.613  1.00  0.00     0.157 A 
ATOM      5  C   UNL     1     -11.948   9.110 -38.784  1.00  0.00     0.051 A 
ATOM      6  C   UNL     1     -12.607   8.473 -39.842  1.00  0.00     0.157 A 
ENDROOT
BRANCH   1   7
ATOM      7  C   UNL     1     -12.662   6.806 -35.877  1.00  0.00     0.010 C 
ATOM      8  C   UNL     1     -11.609   6.881 -35.050  1.00  0.00     0.025 C 
BRANCH   8   9
ATOM      9  C   UNL     1     -11.634   6.309 -33.694  1.00  0.00     0.064 C 
ATOM     10  O   UNL     1     -11.868   7.028 -32.686  1.00  0.00    -0.545 OA
ATOM     11  O   UNL     1     -11.395   4.952 -33.521  1.00  0.00    -0.545 OA
ENDBRANCH   8   9
ENDBRANCH   1   7
BRANCH   4  12
ATOM     12  O   UNL     1     -13.949   6.605 -40.649  1.00  0.00    -0.504 OA
ATOM     13  H   UNL     1     -13.456   6.260 -41.464  1.00  0.00     0.293 HD
ENDBRANCH   4  12
BRANCH   6  14
ATOM     14  O   UNL     1     -12.581   9.030 -41.120  1.00  0.00    -0.504 OA
ATOM     15  H   UNL     1     -13.433   9.266 -41.614  1.00  0.00     0.293 HD
ENDBRANCH   6  14
TORSDOF 4
ENDMDL
MODEL 8
REMARK VINA RESULT:    -3.915     16.254     17.479
REMARK INTER + INTRA:          -4.729
REMARK INTER:                  -4.604
REMARK INTRA:                  -0.125
REMARK UNBOUND:                -0.127
REMARK SMILES O=C([O-])C=Cc1ccc(O)c(O)c1
REMARK SMILES IDX 6 1 13 2 7 3 11 4 8 5 9 6 5 7 4 8 2 9 1 10 3 11 12 12 10 14
REMARK H PARENT 12 13 10 15
REMARK Flexibility Score: inf
ROOT
ATOM      1  C   UNL     1      -9.159  -5.228 -38.119  1.00  0.00    -0.022 A 
ATOM      2  C   UNL     1     -10.494  -5.386 -38.542  1.00  0.00     0.058 A 
ATOM      3  C   UNL     1      -8.615  -3.935 -38.061  1.00  0.00     0.012 A 
ATOM      4  C   UNL     1     -11.274  -4.272 -38.876  1.00  0.00     0.157 A 
ATOM      5  C   UNL     1      -9.392  -2.820 -38.391  1.00  0.00     0.051 A 
ATOM      6  C   UNL     1     -10.722  -2.983 -38.797  1.00  0.00     0.157 A 
ENDROOT
BRANCH   1   7
ATOM      7  C   UNL     1      -8.291  -6.379 -37.767  1.00  0.00     0.010 C 
ATOM      8  C   UNL     1      -8.479  -7.151 -36.687  1.00  0.00     0.025 C 
BRANCH   8   9
ATOM      9  C   UNL     1      -7.590  -8.278 -36.363  1.00  0.00     0.064 C 
ATOM     10  O   UNL     1      -7.262  -9.124 -37.238  1.00  0.00    -0.545 OA
ATOM     11  O   UNL     1      -7.103  -8.414 -35.069  1.00  0.00    -0.545 OA
ENDBRANCH   8   9
ENDBRANCH   1   7
BRANCH   4  12
ATOM     12  O   UNL     1     -12.592  -4.467 -39.289  1.00  0.00    -0.504 OA
ATOM     13  H   UNL     1     -13.000  -3.941 -40.052  1.00  0.00     0.293 HD
ENDBRANCH   4  12
BRANCH   6  14
ATOM     14  O   UNL     1     -11.496  -1.869 -39.124  1.00  0.00    -0.504 OA
ATOM     15  H   UNL     1     -12.232  -1.536 -38.512  1.00  0.00     0.293 HD
ENDBRANCH   6  14
TORSDOF 4
ENDMDL
MODEL 9
REMARK VINA RESULT:    -3.781     13.144     14.735
REMARK INTER + INTRA:          -4.571
REMARK INTER:                  -4.450
REMARK INTRA:                  -0.121
REMARK UNBOUND:                -0.127
REMARK SMILES O=C([O-])C=Cc1ccc(O)c(O)c1
REMARK SMILES IDX 6 1 13 2 7 3 11 4 8 5 9 6 5 7 4 8 2 9 1 10 3 11 12 12 10 14
REMARK H PARENT 12 13 10 15
REMARK Flexibility Score: inf
ROOT
ATOM      1  C   UNL     1     -14.619   6.237 -36.812  1.00  0.00    -0.022 A 
ATOM      2  C   UNL     1     -14.792   6.238 -38.212  1.00  0.00     0.058 A 
ATOM      3  C   UNL     1     -13.377   6.622 -36.283  1.00  0.00     0.012 A 
ATOM      4  C   UNL     1     -13.751   6.636 -39.060  1.00  0.00     0.157 A 
ATOM      5  C   UNL     1     -12.337   7.023 -37.127  1.00  0.00     0.051 A 
ATOM      6  C   UNL     1     -12.519   7.034 -38.515  1.00  0.00     0.157 A 
ENDROOT
BRANCH   1   7
ATOM      7  C   UNL     1     -15.688   5.812 -35.876  1.00  0.00     0.010 C 
ATOM      8  C   UNL     1     -16.955   6.247 -35.944  1.00  0.00     0.025 C 
BRANCH   8   9
ATOM      9  C   UNL     1     -17.987   5.811 -34.989  1.00  0.00     0.064 C 
ATOM     10  O   UNL     1     -18.625   6.644 -34.292  1.00  0.00    -0.545 OA
ATOM     11  O   UNL     1     -18.262   4.456 -34.853  1.00  0.00    -0.545 OA
ENDBRANCH   8   9
ENDBRANCH   1   7
BRANCH   4  12
ATOM     12  O   UNL     1     -13.960   6.626 -40.438  1.00  0.00    -0.504 OA
ATOM     13  H   UNL     1     -13.606   7.359 -41.041  1.00  0.00     0.293 HD
ENDBRANCH   4  12
BRANCH   6  14
ATOM     14  O   UNL     1     -11.481   7.437 -39.355  1.00  0.00    -0.504 OA
ATOM     15  H   UNL     1     -11.465   8.359 -39.775  1.00  0.00     0.293 HD
ENDBRANCH   6  14
TORSDOF 4
ENDMDL
