MODEL 1
REMARK VINA RESULT:    -5.027      0.000      0.000
REMARK INTER + INTRA:          -6.528
REMARK INTER:                  -6.202
REMARK INTRA:                  -0.326
REMARK UNBOUND:                -0.326
REMARK SMILES CCOC(=O)c1ccc(O)c(O)c1
REMARK SMILES IDX 4 1 5 2 3 3 2 4 1 5 6 6 13 7 7 8 11 9 8 10 9 11 12 12 10 14
REMARK H PARENT 12 13 10 15
REMARK Flexibility Score: inf
ROOT
ATOM      1  C   UNL     1       9.925  -7.911  -9.263  1.00  0.00     0.338 C 
ATOM      2  O   UNL     1      10.707  -8.880  -9.050  1.00  0.00    -0.246 OA
ENDROOT
BRANCH   1   3
ATOM      3  O   UNL     1       9.587  -7.555 -10.576  1.00  0.00    -0.462 OA
BRANCH   3   4
ATOM      4  C   UNL     1       9.769  -6.244 -11.107  1.00  0.00     0.230 C 
ATOM      5  C   UNL     1       8.430  -5.528 -11.241  1.00  0.00     0.049 C 
ENDBRANCH   3   4
ENDBRANCH   1   3
BRANCH   1   6
ATOM      6  C   UNL     1       9.368  -7.143  -8.127  1.00  0.00     0.064 A 
ATOM      7  C   UNL     1      10.190  -6.295  -7.362  1.00  0.00     0.065 A 
ATOM      8  C   UNL     1       8.007  -7.253  -7.797  1.00  0.00     0.020 A 
ATOM      9  C   UNL     1       9.662  -5.569  -6.288  1.00  0.00     0.158 A 
ATOM     10  C   UNL     1       7.478  -6.529  -6.725  1.00  0.00     0.051 A 
ATOM     11  C   UNL     1       8.300  -5.686  -5.967  1.00  0.00     0.157 A 
BRANCH   9  12
ATOM     12  O   UNL     1      10.507  -4.739  -5.552  1.00  0.00    -0.504 OA
ATOM     13  H   UNL     1      10.474  -3.730  -5.632  1.00  0.00     0.293 HD
ENDBRANCH   9  12
BRANCH  11  14
ATOM     14  O   UNL     1       7.768  -4.966  -4.898  1.00  0.00    -0.504 OA
ATOM     15  H   UNL     1       8.336  -4.326  -4.354  1.00  0.00     0.293 HD
ENDBRANCH  11  14
ENDBRANCH   1   6
TORSDOF 5
ENDMDL
MODEL 2
REMARK VINA RESULT:    -4.940      1.075      1.269
REMARK INTER + INTRA:          -6.420
REMARK INTER:                  -6.133
REMARK INTRA:                  -0.288
REMARK UNBOUND:                -0.326
REMARK SMILES CCOC(=O)c1ccc(O)c(O)c1
REMARK SMILES IDX 4 1 5 2 3 3 2 4 1 5 6 6 13 7 7 8 11 9 8 10 9 11 12 12 10 14
REMARK H PARENT 12 13 10 15
REMARK Flexibility Score: inf
ROOT
ATOM      1  C   UNL     1      10.104  -7.773  -9.262  1.00  0.00     0.338 C 
ATOM      2  O   UNL     1      10.548  -8.944  -9.103  1.00  0.00    -0.246 OA
ENDROOT
BRANCH   1   3
ATOM      3  O   UNL     1      10.194  -7.152 -10.516  1.00  0.00    -0.462 OA
BRANCH   3   4
ATOM      4  C   UNL     1      11.422  -6.974 -11.220  1.00  0.00     0.230 C 
ATOM      5  C   UNL     1      12.408  -6.167 -10.382  1.00  0.00     0.049 C 
ENDBRANCH   3   4
ENDBRANCH   1   3
BRANCH   1   6
ATOM      6  C   UNL     1       9.493  -7.048  -8.126  1.00  0.00     0.064 A 
ATOM      7  C   UNL     1      10.273  -6.209  -7.308  1.00  0.00     0.065 A 
ATOM      8  C   UNL     1       8.124  -7.190  -7.848  1.00  0.00     0.020 A 
ATOM      9  C   UNL     1       9.695  -5.524  -6.233  1.00  0.00     0.158 A 
ATOM     10  C   UNL     1       7.545  -6.507  -6.775  1.00  0.00     0.051 A 
ATOM     11  C   UNL     1       8.324  -5.673  -5.964  1.00  0.00     0.157 A 
BRANCH   9  12
ATOM     12  O   UNL     1      10.498  -4.702  -5.444  1.00  0.00    -0.504 OA
ATOM     13  H   UNL     1      11.455  -4.943  -5.215  1.00  0.00     0.293 HD
ENDBRANCH   9  12
BRANCH  11  14
ATOM     14  O   UNL     1       7.743  -4.993  -4.895  1.00  0.00    -0.504 OA
ATOM     15  H   UNL     1       8.191  -4.190  -4.469  1.00  0.00     0.293 HD
ENDBRANCH  11  14
ENDBRANCH   1   6
TORSDOF 5
ENDMDL
MODEL 3
REMARK VINA RESULT:    -4.801      1.491      2.309
REMARK INTER + INTRA:          -6.249
REMARK INTER:                  -5.951
REMARK INTRA:                  -0.298
REMARK UNBOUND:                -0.326
REMARK SMILES CCOC(=O)c1ccc(O)c(O)c1
REMARK SMILES IDX 4 1 5 2 3 3 2 4 1 5 6 6 13 7 7 8 11 9 8 10 9 11 12 12 10 14
REMARK H PARENT 12 13 10 15
REMARK Flexibility Score: inf
ROOT
ATOM      1  C   UNL     1       7.853  -8.617  -8.988  1.00  0.00     0.338 C 
ATOM      2  O   UNL     1       7.761  -9.816  -8.605  1.00  0.00    -0.246 OA
ENDROOT
BRANCH   1   3
ATOM      3  O   UNL     1       7.349  -8.238 -10.239  1.00  0.00    -0.462 OA
BRANCH   3   4
ATOM      4  C   UNL     1       8.144  -8.178 -11.422  1.00  0.00     0.230 C 
ATOM      5  C   UNL     1       8.425  -6.730 -11.807  1.00  0.00     0.049 C 
ENDBRANCH   3   4
ENDBRANCH   1   3
BRANCH   1   6
ATOM      6  C   UNL     1       8.499  -7.608  -8.120  1.00  0.00     0.064 A 
ATOM      7  C   UNL     1       7.743  -6.878  -7.183  1.00  0.00     0.065 A 
ATOM      8  C   UNL     1       9.878  -7.363  -8.222  1.00  0.00     0.020 A 
ATOM      9  C   UNL     1       8.355  -5.923  -6.362  1.00  0.00     0.158 A 
ATOM     10  C   UNL     1      10.491  -6.410  -7.403  1.00  0.00     0.051 A 
ATOM     11  C   UNL     1       9.735  -5.687  -6.472  1.00  0.00     0.157 A 
BRANCH   9  12
ATOM     12  O   UNL     1       7.575  -5.220  -5.445  1.00  0.00    -0.504 OA
ATOM     13  H   UNL     1       7.908  -4.993  -4.516  1.00  0.00     0.293 HD
ENDBRANCH   9  12
BRANCH  11  14
ATOM     14  O   UNL     1      10.350  -4.737  -5.657  1.00  0.00    -0.504 OA
ATOM     15  H   UNL     1       9.820  -3.997  -5.212  1.00  0.00     0.293 HD
ENDBRANCH  11  14
ENDBRANCH   1   6
TORSDOF 5
ENDMDL
MODEL 4
REMARK VINA RESULT:    -4.675     16.944     18.984
REMARK INTER + INTRA:          -6.094
REMARK INTER:                  -5.974
REMARK INTRA:                  -0.120
REMARK UNBOUND:                -0.326
REMARK SMILES CCOC(=O)c1ccc(O)c(O)c1
REMARK SMILES IDX 4 1 5 2 3 3 2 4 1 5 6 6 13 7 7 8 11 9 8 10 9 11 12 12 10 14
REMARK H PARENT 12 13 10 15
REMARK Flexibility Score: inf
ROOT
ATOM      1  C   UNL     1      21.718   1.257 -22.119  1.00  0.00     0.338 C 
ATOM      2  O   UNL     1      22.158   0.596 -23.100  1.00  0.00    -0.246 OA
ENDROOT
BRANCH   1   3
ATOM      3  O   UNL     1      21.854   2.652 -22.094  1.00  0.00    -0.462 OA
BRANCH   3   4
ATOM      4  C   UNL     1      22.502   3.398 -23.124  1.00  0.00     0.230 C 
ATOM      5  C   UNL     1      23.069   4.700 -22.567  1.00  0.00     0.049 C 
ENDBRANCH   3   4
ENDBRANCH   1   3
BRANCH   1   6
ATOM      6  C   UNL     1      21.063   0.563 -20.989  1.00  0.00     0.064 A 
ATOM      7  C   UNL     1      21.703   0.466 -19.739  1.00  0.00     0.065 A 
ATOM      8  C   UNL     1      19.790  -0.009 -21.150  1.00  0.00     0.020 A 
ATOM      9  C   UNL     1      21.082  -0.191 -18.670  1.00  0.00     0.158 A 
ATOM     10  C   UNL     1      19.170  -0.666 -20.084  1.00  0.00     0.051 A 
ATOM     11  C   UNL     1      19.810  -0.760 -18.842  1.00  0.00     0.157 A 
BRANCH   9  12
ATOM     12  O   UNL     1      21.746  -0.269 -17.446  1.00  0.00    -0.504 OA
ATOM     13  H   UNL     1      21.478  -0.931 -16.728  1.00  0.00     0.293 HD
ENDBRANCH   9  12
BRANCH  11  14
ATOM     14  O   UNL     1      19.187  -1.416 -17.781  1.00  0.00    -0.504 OA
ATOM     15  H   UNL     1      18.418  -2.058 -17.931  1.00  0.00     0.293 HD
ENDBRANCH  11  14
ENDBRANCH   1   6
TORSDOF 5
ENDMDL
MODEL 5
REMARK VINA RESULT:    -4.593      1.425      1.646
REMARK INTER + INTRA:          -5.992
REMARK INTER:                  -5.731
REMARK INTRA:                  -0.262
REMARK UNBOUND:                -0.326
REMARK SMILES CCOC(=O)c1ccc(O)c(O)c1
REMARK SMILES IDX 4 1 5 2 3 3 2 4 1 5 6 6 13 7 7 8 11 9 8 10 9 11 12 12 10 14
REMARK H PARENT 12 13 10 15
REMARK Flexibility Score: inf
ROOT
ATOM      1  C   UNL     1       8.301  -7.345  -9.313  1.00  0.00     0.338 C 
ATOM      2  O   UNL     1       7.584  -8.219  -9.874  1.00  0.00    -0.246 OA
ENDROOT
BRANCH   1   3
ATOM      3  O   UNL     1       9.206  -6.588 -10.070  1.00  0.00    -0.462 OA
BRANCH   3   4
ATOM      4  C   UNL     1       8.934  -6.127 -11.392  1.00  0.00     0.230 C 
ATOM      5  C   UNL     1       8.075  -4.869 -11.356  1.00  0.00     0.049 C 
ENDBRANCH   3   4
ENDBRANCH   1   3
BRANCH   1   6
ATOM      6  C   UNL     1       8.196  -7.121  -7.854  1.00  0.00     0.064 A 
ATOM      7  C   UNL     1       8.594  -5.897  -7.286  1.00  0.00     0.065 A 
ATOM      8  C   UNL     1       7.696  -8.131  -7.016  1.00  0.00     0.020 A 
ATOM      9  C   UNL     1       8.494  -5.685  -5.906  1.00  0.00     0.158 A 
ATOM     10  C   UNL     1       7.595  -7.922  -5.638  1.00  0.00     0.051 A 
ATOM     11  C   UNL     1       7.993  -6.702  -5.077  1.00  0.00     0.157 A 
BRANCH   9  12
ATOM     12  O   UNL     1       8.898  -4.459  -5.378  1.00  0.00    -0.504 OA
ATOM     13  H   UNL     1       8.400  -4.008  -4.620  1.00  0.00     0.293 HD
ENDBRANCH   9  12
BRANCH  11  14
ATOM     14  O   UNL     1       7.891  -6.497  -3.701  1.00  0.00    -0.504 OA
ATOM     15  H   UNL     1       7.620  -5.599  -3.317  1.00  0.00     0.293 HD
ENDBRANCH  11  14
ENDBRANCH   1   6
TORSDOF 5
ENDMDL
MODEL 6
REMARK VINA RESULT:    -4.416     10.012     12.342
REMARK INTER + INTRA:          -5.774
REMARK INTER:                  -5.459
REMARK INTRA:                  -0.315
REMARK UNBOUND:                -0.326
REMARK SMILES CCOC(=O)c1ccc(O)c(O)c1
REMARK SMILES IDX 4 1 5 2 3 3 2 4 1 5 6 6 13 7 7 8 11 9 8 10 9 11 12 12 10 14
REMARK H PARENT 12 13 10 15
REMARK Flexibility Score: inf
ROOT
ATOM      1  C   UNL     1       5.251   0.938 -18.398  1.00  0.00     0.338 C 
ATOM      2  O   UNL     1       4.759  -0.146 -18.817  1.00  0.00    -0.246 OA
ENDROOT
BRANCH   1   3
ATOM      3  O   UNL     1       5.014   2.133 -19.093  1.00  0.00    -0.462 OA
BRANCH   3   4
ATOM      4  C   UNL     1       5.368   2.330 -20.460  1.00  0.00     0.230 C 
ATOM      5  C   UNL     1       6.836   1.988 -20.690  1.00  0.00     0.049 C 
ENDBRANCH   3   4
ENDBRANCH   1   3
BRANCH   1   6
ATOM      6  C   UNL     1       6.084   0.953 -17.175  1.00  0.00     0.064 A 
ATOM      7  C   UNL     1       6.058  -0.129 -16.276  1.00  0.00     0.065 A 
ATOM      8  C   UNL     1       6.914   2.052 -16.896  1.00  0.00     0.020 A 
ATOM      9  C   UNL     1       6.847  -0.115 -15.120  1.00  0.00     0.158 A 
ATOM     10  C   UNL     1       7.702   2.068 -15.742  1.00  0.00     0.051 A 
ATOM     11  C   UNL     1       7.673   0.989 -14.850  1.00  0.00     0.157 A 
BRANCH   9  12
ATOM     12  O   UNL     1       6.795  -1.205 -14.252  1.00  0.00    -0.504 OA
ATOM     13  H   UNL     1       6.563  -2.138 -14.571  1.00  0.00     0.293 HD
ENDBRANCH   9  12
BRANCH  11  14
ATOM     14  O   UNL     1       8.461   1.009 -13.700  1.00  0.00    -0.504 OA
ATOM     15  H   UNL     1       8.710   0.156 -13.212  1.00  0.00     0.293 HD
ENDBRANCH  11  14
ENDBRANCH   1   6
TORSDOF 5
ENDMDL
MODEL 7
REMARK VINA RESULT:    -4.391      1.869      2.400
REMARK INTER + INTRA:          -5.744
REMARK INTER:                  -5.410
REMARK INTRA:                  -0.334
REMARK UNBOUND:                -0.326
REMARK SMILES CCOC(=O)c1ccc(O)c(O)c1
REMARK SMILES IDX 4 1 5 2 3 3 2 4 1 5 6 6 13 7 7 8 11 9 8 10 9 11 12 12 10 14
REMARK H PARENT 12 13 10 15
REMARK Flexibility Score: inf
ROOT
ATOM      1  C   UNL     1       7.826  -8.602 -10.072  1.00  0.00     0.338 C 
ATOM      2  O   UNL     1       7.705  -9.834  -9.826  1.00  0.00    -0.246 OA
ENDROOT
BRANCH   1   3
ATOM      3  O   UNL     1       7.358  -8.078 -11.284  1.00  0.00    -0.462 OA
BRANCH   3   4
ATOM      4  C   UNL     1       8.182  -7.363 -12.203  1.00  0.00     0.230 C 
ATOM      5  C   UNL     1       9.336  -8.237 -12.681  1.00  0.00     0.049 C 
ENDBRANCH   3   4
ENDBRANCH   1   3
BRANCH   1   6
ATOM      6  C   UNL     1       8.468  -7.707  -9.084  1.00  0.00     0.064 A 
ATOM      7  C   UNL     1       9.790  -7.936  -8.661  1.00  0.00     0.065 A 
ATOM      8  C   UNL     1       7.762  -6.614  -8.553  1.00  0.00     0.020 A 
ATOM      9  C   UNL     1      10.397  -7.089  -7.726  1.00  0.00     0.158 A 
ATOM     10  C   UNL     1       8.365  -5.768  -7.620  1.00  0.00     0.051 A 
ATOM     11  C   UNL     1       9.682  -5.999  -7.202  1.00  0.00     0.157 A 
BRANCH   9  12
ATOM     12  O   UNL     1      11.709  -7.347  -7.330  1.00  0.00    -0.504 OA
ATOM     13  H   UNL     1      11.936  -7.676  -6.399  1.00  0.00     0.293 HD
ENDBRANCH   9  12
BRANCH  11  14
ATOM     14  O   UNL     1      10.281  -5.152  -6.270  1.00  0.00    -0.504 OA
ATOM     15  H   UNL     1      10.184  -4.145  -6.329  1.00  0.00     0.293 HD
ENDBRANCH  11  14
ENDBRANCH   1   6
TORSDOF 5
ENDMDL
MODEL 8
REMARK VINA RESULT:    -4.357     11.309     12.609
REMARK INTER + INTRA:          -5.701
REMARK INTER:                  -5.492
REMARK INTRA:                  -0.209
REMARK UNBOUND:                -0.326
REMARK SMILES CCOC(=O)c1ccc(O)c(O)c1
REMARK SMILES IDX 4 1 5 2 3 3 2 4 1 5 6 6 13 7 7 8 11 9 8 10 9 11 12 12 10 14
REMARK H PARENT 12 13 10 15
REMARK Flexibility Score: inf
ROOT
ATOM      1  C   UNL     1       4.624   5.984  -8.887  1.00  0.00     0.338 C 
ATOM      2  O   UNL     1       4.156   6.116 -10.052  1.00  0.00    -0.246 OA
ENDROOT
BRANCH   1   3
ATOM      3  O   UNL     1       4.222   6.856  -7.865  1.00  0.00    -0.462 OA
BRANCH   3   4
ATOM      4  C   UNL     1       3.885   8.225  -8.086  1.00  0.00     0.230 C 
ATOM      5  C   UNL     1       5.132   9.038  -8.413  1.00  0.00     0.049 C 
ENDBRANCH   3   4
ENDBRANCH   1   3
BRANCH   1   6
ATOM      6  C   UNL     1       5.602   4.913  -8.595  1.00  0.00     0.064 A 
ATOM      7  C   UNL     1       6.781   4.793  -9.354  1.00  0.00     0.065 A 
ATOM      8  C   UNL     1       5.365   4.000  -7.555  1.00  0.00     0.020 A 
ATOM      9  C   UNL     1       7.707   3.779  -9.078  1.00  0.00     0.158 A 
ATOM     10  C   UNL     1       6.287   2.987  -7.278  1.00  0.00     0.051 A 
ATOM     11  C   UNL     1       7.459   2.872  -8.035  1.00  0.00     0.157 A 
BRANCH   9  12
ATOM     12  O   UNL     1       8.864   3.691  -9.851  1.00  0.00    -0.504 OA
ATOM     13  H   UNL     1       8.964   4.185 -10.730  1.00  0.00     0.293 HD
ENDBRANCH   9  12
BRANCH  11  14
ATOM     14  O   UNL     1       8.377   1.860  -7.756  1.00  0.00    -0.504 OA
ATOM     15  H   UNL     1       9.083   1.967  -7.036  1.00  0.00     0.293 HD
ENDBRANCH  11  14
ENDBRANCH   1   6
TORSDOF 5
ENDMDL
MODEL 9
REMARK VINA RESULT:    -4.263      1.764      2.410
REMARK INTER + INTRA:          -5.586
REMARK INTER:                  -5.276
REMARK INTRA:                  -0.310
REMARK UNBOUND:                -0.326
REMARK SMILES CCOC(=O)c1ccc(O)c(O)c1
REMARK SMILES IDX 4 1 5 2 3 3 2 4 1 5 6 6 13 7 7 8 11 9 8 10 9 11 12 12 10 14
REMARK H PARENT 12 13 10 15
REMARK Flexibility Score: inf
ROOT
ATOM      1  C   UNL     1       8.274  -7.436  -9.217  1.00  0.00     0.338 C 
ATOM      2  O   UNL     1       8.941  -6.663  -9.960  1.00  0.00    -0.246 OA
ENDROOT
BRANCH   1   3
ATOM      3  O   UNL     1       7.609  -8.540  -9.768  1.00  0.00    -0.462 OA
BRANCH   3   4
ATOM      4  C   UNL     1       8.278  -9.608 -10.437  1.00  0.00     0.230 C 
ATOM      5  C   UNL     1       9.439 -10.125  -9.596  1.00  0.00     0.049 C 
ENDBRANCH   3   4
ENDBRANCH   1   3
BRANCH   1   6
ATOM      6  C   UNL     1       8.187  -7.177  -7.763  1.00  0.00     0.064 A 
ATOM      7  C   UNL     1       8.603  -5.944  -7.228  1.00  0.00     0.065 A 
ATOM      8  C   UNL     1       7.686  -8.162  -6.896  1.00  0.00     0.020 A 
ATOM      9  C   UNL     1       8.521  -5.699  -5.852  1.00  0.00     0.158 A 
ATOM     10  C   UNL     1       7.603  -7.920  -5.522  1.00  0.00     0.051 A 
ATOM     11  C   UNL     1       8.018  -6.691  -4.994  1.00  0.00     0.157 A 
BRANCH   9  12
ATOM     12  O   UNL     1       8.943  -4.466  -5.357  1.00  0.00    -0.504 OA
ATOM     13  H   UNL     1       8.663  -4.126  -4.445  1.00  0.00     0.293 HD
ENDBRANCH   9  12
BRANCH  11  14
ATOM     14  O   UNL     1       7.933  -6.453  -3.623  1.00  0.00    -0.504 OA
ATOM     15  H   UNL     1       7.714  -5.534  -3.256  1.00  0.00     0.293 HD
ENDBRANCH  11  14
ENDBRANCH   1   6
TORSDOF 5
ENDMDL
