MODEL 1
REMARK VINA RESULT:    -4.565      0.000      0.000
REMARK INTER + INTRA:          -9.026
REMARK INTER:                  -8.034
REMARK INTRA:                  -0.992
REMARK UNBOUND:                -0.992
REMARK SMILES CCCCCCC=CCCCCCCCC(=O)[O-]
REMARK SMILES IDX 10 1 11 2 12 3 13 4 14 5 15 6 16 7 17 8 18 9 9 10 8 11 7 12
REMARK SMILES IDX 6 13 5 14 4 15 3 16 2 17 1 18
REMARK H PARENT
REMARK Flexibility Score: inf
ROOT
ATOM      1  C   UNL     1      -5.495   5.938  -1.785  1.00  0.00     0.004 C 
ENDROOT
BRANCH   1   2
ATOM      2  C   UNL     1      -5.428   5.436  -0.333  1.00  0.00     0.000 C 
BRANCH   2   3
ATOM      3  C   UNL     1      -6.314   4.202  -0.082  1.00  0.00     0.000 C 
BRANCH   3   4
ATOM      4  C   UNL     1      -6.455   3.788   1.394  1.00  0.00     0.000 C 
BRANCH   4   5
ATOM      5  C   UNL     1      -7.018   2.367   1.566  1.00  0.00     0.006 C 
BRANCH   5   6
ATOM      6  C   UNL     1      -6.243   1.561   2.617  1.00  0.00     0.053 C 
BRANCH   6   7
ATOM      7  C   UNL     1      -4.873   1.193   2.137  1.00  0.00     0.041 C 
ATOM      8  O   UNL     1      -4.720   0.634   1.019  1.00  0.00    -0.550 OA
ATOM      9  O   UNL     1      -3.765   1.445   2.937  1.00  0.00    -0.550 OA
ENDBRANCH   6   7
ENDBRANCH   5   6
ENDBRANCH   4   5
ENDBRANCH   3   4
ENDBRANCH   2   3
ENDBRANCH   1   2
BRANCH   1  10
ATOM     10  C   UNL     1      -6.438   5.086  -2.648  1.00  0.00     0.027 C 
BRANCH  10  11
ATOM     11  C   UNL     1      -5.696   4.333  -3.726  1.00  0.00    -0.031 C 
ATOM     12  C   UNL     1      -5.352   4.854  -4.918  1.00  0.00    -0.031 C 
BRANCH  12  13
ATOM     13  C   UNL     1      -5.710   6.255  -5.350  1.00  0.00     0.027 C 
BRANCH  13  14
ATOM     14  C   UNL     1      -4.469   7.158  -5.376  1.00  0.00     0.004 C 
BRANCH  14  15
ATOM     15  C   UNL     1      -3.165   6.365  -5.561  1.00  0.00     0.000 C 
BRANCH  15  16
ATOM     16  C   UNL     1      -2.427   6.732  -6.860  1.00  0.00    -0.000 C 
BRANCH  16  17
ATOM     17  C   UNL     1      -2.727   5.752  -8.004  1.00  0.00    -0.003 C 
ATOM     18  C   UNL     1      -1.497   5.448  -8.859  1.00  0.00     0.004 C 
ENDBRANCH  16  17
ENDBRANCH  15  16
ENDBRANCH  14  15
ENDBRANCH  13  14
ENDBRANCH  12  13
ENDBRANCH  10  11
ENDBRANCH   1  10
TORSDOF 13
ENDMDL
MODEL 2
REMARK VINA RESULT:    -4.532     15.220     18.220
REMARK INTER + INTRA:          -8.969
REMARK INTER:                  -6.601
REMARK INTRA:                  -2.368
REMARK UNBOUND:                -0.992
REMARK SMILES CCCCCCC=CCCCCCCCC(=O)[O-]
REMARK SMILES IDX 10 1 11 2 12 3 13 4 14 5 15 6 16 7 17 8 18 9 9 10 8 11 7 12
REMARK SMILES IDX 6 13 5 14 4 15 3 16 2 17 1 18
REMARK H PARENT
REMARK Flexibility Score: inf
ROOT
ATOM      1  C   UNL     1       6.049  -3.098 -13.167  1.00  0.00     0.004 C 
ENDROOT
BRANCH   1   2
ATOM      2  C   UNL     1       5.888  -1.955 -14.183  1.00  0.00     0.000 C 
BRANCH   2   3
ATOM      3  C   UNL     1       5.918  -0.562 -13.530  1.00  0.00     0.000 C 
BRANCH   3   4
ATOM      4  C   UNL     1       7.032   0.373 -14.035  1.00  0.00     0.000 C 
BRANCH   4   5
ATOM      5  C   UNL     1       7.017   1.749 -13.348  1.00  0.00     0.006 C 
BRANCH   5   6
ATOM      6  C   UNL     1       5.981   2.695 -13.970  1.00  0.00     0.053 C 
BRANCH   6   7
ATOM      7  C   UNL     1       5.158   3.382 -12.925  1.00  0.00     0.041 C 
ATOM      8  O   UNL     1       5.593   3.501 -11.749  1.00  0.00    -0.550 OA
ATOM      9  O   UNL     1       3.896   3.870 -13.243  1.00  0.00    -0.550 OA
ENDBRANCH   6   7
ENDBRANCH   5   6
ENDBRANCH   4   5
ENDBRANCH   3   4
ENDBRANCH   2   3
ENDBRANCH   1   2
BRANCH   1  10
ATOM     10  C   UNL     1       6.173  -2.578 -11.727  1.00  0.00     0.027 C 
BRANCH  10  11
ATOM     11  C   UNL     1       7.292  -3.254 -10.973  1.00  0.00    -0.031 C 
ATOM     12  C   UNL     1       8.518  -2.728 -10.798  1.00  0.00    -0.031 C 
BRANCH  12  13
ATOM     13  C   UNL     1       8.947  -1.403 -11.378  1.00  0.00     0.027 C 
BRANCH  13  14
ATOM     14  C   UNL     1      10.099  -1.586 -12.378  1.00  0.00     0.004 C 
BRANCH  14  15
ATOM     15  C   UNL     1       9.639  -2.222 -13.699  1.00  0.00     0.000 C 
BRANCH  15  16
ATOM     16  C   UNL     1      10.283  -3.596 -13.952  1.00  0.00    -0.000 C 
BRANCH  16  17
ATOM     17  C   UNL     1       9.284  -4.752 -13.794  1.00  0.00    -0.003 C 
ATOM     18  C   UNL     1       9.744  -5.794 -12.775  1.00  0.00     0.004 C 
ENDBRANCH  16  17
ENDBRANCH  15  16
ENDBRANCH  14  15
ENDBRANCH  13  14
ENDBRANCH  12  13
ENDBRANCH  10  11
ENDBRANCH   1  10
TORSDOF 13
ENDMDL
MODEL 3
REMARK VINA RESULT:    -4.495      4.010      8.137
REMARK INTER + INTRA:          -8.904
REMARK INTER:                  -7.745
REMARK INTRA:                  -1.159
REMARK UNBOUND:                -0.992
REMARK SMILES CCCCCCC=CCCCCCCCC(=O)[O-]
REMARK SMILES IDX 10 1 11 2 12 3 13 4 14 5 15 6 16 7 17 8 18 9 9 10 8 11 7 12
REMARK SMILES IDX 6 13 5 14 4 15 3 16 2 17 1 18
REMARK H PARENT
REMARK Flexibility Score: inf
ROOT
ATOM      1  C   UNL     1      -5.062   6.158  -3.191  1.00  0.00     0.004 C 
ENDROOT
BRANCH   1   2
ATOM      2  C   UNL     1      -5.255   4.848  -3.973  1.00  0.00     0.000 C 
BRANCH   2   3
ATOM      3  C   UNL     1      -5.745   5.077  -5.415  1.00  0.00     0.000 C 
BRANCH   3   4
ATOM      4  C   UNL     1      -5.640   6.528  -5.918  1.00  0.00     0.000 C 
BRANCH   4   5
ATOM      5  C   UNL     1      -5.043   6.630  -7.332  1.00  0.00     0.006 C 
BRANCH   5   6
ATOM      6  C   UNL     1      -4.030   5.512  -7.613  1.00  0.00     0.053 C 
BRANCH   6   7
ATOM      7  C   UNL     1      -2.621   6.017  -7.587  1.00  0.00     0.041 C 
ATOM      8  O   UNL     1      -1.780   5.600  -8.426  1.00  0.00    -0.550 OA
ATOM      9  O   UNL     1      -2.229   6.932  -6.617  1.00  0.00    -0.550 OA
ENDBRANCH   6   7
ENDBRANCH   5   6
ENDBRANCH   4   5
ENDBRANCH   3   4
ENDBRANCH   2   3
ENDBRANCH   1   2
BRANCH   1  10
ATOM     10  C   UNL     1      -5.580   6.052  -1.749  1.00  0.00     0.027 C 
BRANCH  10  11
ATOM     11  C   UNL     1      -6.578   4.931  -1.586  1.00  0.00    -0.031 C 
ATOM     12  C   UNL     1      -6.956   4.415  -0.403  1.00  0.00    -0.031 C 
BRANCH  12  13
ATOM     13  C   UNL     1      -6.389   4.864   0.922  1.00  0.00     0.027 C 
BRANCH  13  14
ATOM     14  C   UNL     1      -5.521   3.764   1.551  1.00  0.00     0.004 C 
BRANCH  14  15
ATOM     15  C   UNL     1      -4.187   4.302   2.092  1.00  0.00     0.000 C 
BRANCH  15  16
ATOM     16  C   UNL     1      -3.798   5.656   1.472  1.00  0.00    -0.000 C 
BRANCH  16  17
ATOM     17  C   UNL     1      -2.280   5.890   1.474  1.00  0.00    -0.003 C 
ATOM     18  C   UNL     1      -1.551   5.025   2.502  1.00  0.00     0.004 C 
ENDBRANCH  16  17
ENDBRANCH  15  16
ENDBRANCH  14  15
ENDBRANCH  13  14
ENDBRANCH  12  13
ENDBRANCH  10  11
ENDBRANCH   1  10
TORSDOF 13
ENDMDL
MODEL 4
REMARK VINA RESULT:    -4.482      3.785      8.197
REMARK INTER + INTRA:          -8.880
REMARK INTER:                  -7.752
REMARK INTRA:                  -1.128
REMARK UNBOUND:                -0.992
REMARK SMILES CCCCCCC=CCCCCCCCC(=O)[O-]
REMARK SMILES IDX 10 1 11 2 12 3 13 4 14 5 15 6 16 7 17 8 18 9 9 10 8 11 7 12
REMARK SMILES IDX 6 13 5 14 4 15 3 16 2 17 1 18
REMARK H PARENT
REMARK Flexibility Score: inf
ROOT
ATOM      1  C   UNL     1      -5.251   5.782  -0.216  1.00  0.00     0.004 C 
ENDROOT
BRANCH   1   2
ATOM      2  C   UNL     1      -5.453   6.107  -1.706  1.00  0.00     0.000 C 
BRANCH   2   3
ATOM      3  C   UNL     1      -6.020   4.920  -2.507  1.00  0.00     0.000 C 
BRANCH   3   4
ATOM      4  C   UNL     1      -6.185   5.171  -4.017  1.00  0.00     0.000 C 
BRANCH   4   5
ATOM      5  C   UNL     1      -4.877   4.976  -4.803  1.00  0.00     0.006 C 
BRANCH   5   6
ATOM      6  C   UNL     1      -4.244   6.312  -5.213  1.00  0.00     0.053 C 
BRANCH   6   7
ATOM      7  C   UNL     1      -3.160   6.125  -6.229  1.00  0.00     0.041 C 
ATOM      8  O   UNL     1      -2.314   7.035  -6.431  1.00  0.00    -0.550 OA
ATOM      9  O   UNL     1      -3.099   4.953  -6.974  1.00  0.00    -0.550 OA
ENDBRANCH   6   7
ENDBRANCH   5   6
ENDBRANCH   4   5
ENDBRANCH   3   4
ENDBRANCH   2   3
ENDBRANCH   1   2
BRANCH   1  10
ATOM     10  C   UNL     1      -4.411   6.850   0.499  1.00  0.00     0.027 C 
BRANCH  10  11
ATOM     11  C   UNL     1      -2.947   6.483   0.545  1.00  0.00    -0.031 C 
ATOM     12  C   UNL     1      -2.370   5.781   1.537  1.00  0.00    -0.031 C 
BRANCH  12  13
ATOM     13  C   UNL     1      -3.111   5.307   2.763  1.00  0.00     0.027 C 
BRANCH  13  14
ATOM     14  C   UNL     1      -2.512   3.999   3.299  1.00  0.00     0.004 C 
BRANCH  14  15
ATOM     15  C   UNL     1      -3.490   2.817   3.203  1.00  0.00     0.000 C 
BRANCH  15  16
ATOM     16  C   UNL     1      -4.890   3.245   2.728  1.00  0.00    -0.000 C 
BRANCH  16  17
ATOM     17  C   UNL     1      -5.359   2.457   1.496  1.00  0.00    -0.003 C 
ATOM     18  C   UNL     1      -5.351   0.945   1.724  1.00  0.00     0.004 C 
ENDBRANCH  16  17
ENDBRANCH  15  16
ENDBRANCH  14  15
ENDBRANCH  13  14
ENDBRANCH  12  13
ENDBRANCH  10  11
ENDBRANCH   1  10
TORSDOF 13
ENDMDL
MODEL 5
REMARK VINA RESULT:    -4.479     14.037     16.535
REMARK INTER + INTRA:          -8.876
REMARK INTER:                  -7.002
REMARK INTRA:                  -1.874
REMARK UNBOUND:                -0.992
REMARK SMILES CCCCCCC=CCCCCCCCC(=O)[O-]
REMARK SMILES IDX 10 1 11 2 12 3 13 4 14 5 15 6 16 7 17 8 18 9 9 10 8 11 7 12
REMARK SMILES IDX 6 13 5 14 4 15 3 16 2 17 1 18
REMARK H PARENT
REMARK Flexibility Score: inf
ROOT
ATOM      1  C   UNL     1       5.033   1.097 -14.119  1.00  0.00     0.004 C 
ENDROOT
BRANCH   1   2
ATOM      2  C   UNL     1       4.575  -0.288 -13.630  1.00  0.00     0.000 C 
BRANCH   2   3
ATOM      3  C   UNL     1       5.220  -1.445 -14.415  1.00  0.00     0.000 C 
BRANCH   3   4
ATOM      4  C   UNL     1       6.024  -2.444 -13.563  1.00  0.00     0.000 C 
BRANCH   4   5
ATOM      5  C   UNL     1       5.987  -2.115 -12.061  1.00  0.00     0.006 C 
BRANCH   5   6
ATOM      6  C   UNL     1       7.320  -2.429 -11.367  1.00  0.00     0.053 C 
BRANCH   6   7
ATOM      7  C   UNL     1       7.379  -3.847 -10.891  1.00  0.00     0.041 C 
ATOM      8  O   UNL     1       6.628  -4.236  -9.958  1.00  0.00    -0.550 OA
ATOM      9  O   UNL     1       8.284  -4.735 -11.461  1.00  0.00    -0.550 OA
ENDBRANCH   6   7
ENDBRANCH   5   6
ENDBRANCH   4   5
ENDBRANCH   3   4
ENDBRANCH   2   3
ENDBRANCH   1   2
BRANCH   1  10
ATOM     10  C   UNL     1       6.549   1.153 -14.357  1.00  0.00     0.027 C 
BRANCH  10  11
ATOM     11  C   UNL     1       7.328   1.126 -13.064  1.00  0.00    -0.031 C 
ATOM     12  C   UNL     1       8.265   2.028 -12.722  1.00  0.00    -0.031 C 
BRANCH  12  13
ATOM     13  C   UNL     1       8.694   3.165 -13.617  1.00  0.00     0.027 C 
BRANCH  13  14
ATOM     14  C   UNL     1       8.169   4.509 -13.093  1.00  0.00     0.004 C 
BRANCH  14  15
ATOM     15  C   UNL     1       6.951   5.016 -13.882  1.00  0.00     0.000 C 
BRANCH  15  16
ATOM     16  C   UNL     1       5.798   5.466 -12.968  1.00  0.00    -0.000 C 
BRANCH  16  17
ATOM     17  C   UNL     1       5.172   4.298 -12.193  1.00  0.00    -0.003 C 
ATOM     18  C   UNL     1       3.671   4.158 -12.446  1.00  0.00     0.004 C 
ENDBRANCH  16  17
ENDBRANCH  15  16
ENDBRANCH  14  15
ENDBRANCH  13  14
ENDBRANCH  12  13
ENDBRANCH  10  11
ENDBRANCH   1  10
TORSDOF 13
ENDMDL
MODEL 6
REMARK VINA RESULT:    -4.445     14.702     16.447
REMARK INTER + INTRA:          -8.815
REMARK INTER:                  -6.846
REMARK INTRA:                  -1.969
REMARK UNBOUND:                -0.992
REMARK SMILES CCCCCCC=CCCCCCCCC(=O)[O-]
REMARK SMILES IDX 10 1 11 2 12 3 13 4 14 5 15 6 16 7 17 8 18 9 9 10 8 11 7 12
REMARK SMILES IDX 6 13 5 14 4 15 3 16 2 17 1 18
REMARK H PARENT
REMARK Flexibility Score: inf
ROOT
ATOM      1  C   UNL     1       3.606   1.721 -14.769  1.00  0.00     0.004 C 
ENDROOT
BRANCH   1   2
ATOM      2  C   UNL     1       4.734   0.674 -14.784  1.00  0.00     0.000 C 
BRANCH   2   3
ATOM      3  C   UNL     1       4.600  -0.368 -13.659  1.00  0.00     0.000 C 
BRANCH   3   4
ATOM      4  C   UNL     1       5.732  -1.411 -13.598  1.00  0.00     0.000 C 
BRANCH   4   5
ATOM      5  C   UNL     1       6.125  -1.783 -12.158  1.00  0.00     0.006 C 
BRANCH   5   6
ATOM      6  C   UNL     1       6.577  -3.245 -12.042  1.00  0.00     0.053 C 
BRANCH   6   7
ATOM      7  C   UNL     1       6.821  -3.641 -10.618  1.00  0.00     0.041 C 
ATOM      8  O   UNL     1       7.904  -3.341 -10.052  1.00  0.00    -0.550 OA
ATOM      9  O   UNL     1       5.859  -4.365  -9.924  1.00  0.00    -0.550 OA
ENDBRANCH   6   7
ENDBRANCH   5   6
ENDBRANCH   4   5
ENDBRANCH   3   4
ENDBRANCH   2   3
ENDBRANCH   1   2
BRANCH   1  10
ATOM     10  C   UNL     1       4.143   3.145 -14.568  1.00  0.00     0.027 C 
BRANCH  10  11
ATOM     11  C   UNL     1       4.186   3.535 -13.110  1.00  0.00    -0.031 C 
ATOM     12  C   UNL     1       5.309   3.855 -12.441  1.00  0.00    -0.031 C 
BRANCH  12  13
ATOM     13  C   UNL     1       6.686   3.819 -13.058  1.00  0.00     0.027 C 
BRANCH  13  14
ATOM     14  C   UNL     1       7.364   2.463 -12.813  1.00  0.00     0.004 C 
BRANCH  14  15
ATOM     15  C   UNL     1       7.939   1.850 -14.100  1.00  0.00     0.000 C 
BRANCH  15  16
ATOM     16  C   UNL     1       8.998   0.769 -13.820  1.00  0.00    -0.000 C 
BRANCH  16  17
ATOM     17  C   UNL     1       9.056   0.372 -12.337  1.00  0.00    -0.003 C 
ATOM     18  C   UNL     1       9.732  -0.980 -12.114  1.00  0.00     0.004 C 
ENDBRANCH  16  17
ENDBRANCH  15  16
ENDBRANCH  14  15
ENDBRANCH  13  14
ENDBRANCH  12  13
ENDBRANCH  10  11
ENDBRANCH   1  10
TORSDOF 13
ENDMDL
MODEL 7
REMARK VINA RESULT:    -4.409     16.471     18.838
REMARK INTER + INTRA:          -8.751
REMARK INTER:                  -6.059
REMARK INTRA:                  -2.693
REMARK UNBOUND:                -0.992
REMARK SMILES CCCCCCC=CCCCCCCCC(=O)[O-]
REMARK SMILES IDX 10 1 11 2 12 3 13 4 14 5 15 6 16 7 17 8 18 9 9 10 8 11 7 12
REMARK SMILES IDX 6 13 5 14 4 15 3 16 2 17 1 18
REMARK H PARENT
REMARK Flexibility Score: inf
ROOT
ATOM      1  C   UNL     1       8.667  -2.680 -10.757  1.00  0.00     0.004 C 
ENDROOT
BRANCH   1   2
ATOM      2  C   UNL     1       8.999  -1.372 -11.496  1.00  0.00     0.000 C 
BRANCH   2   3
ATOM      3  C   UNL     1       9.758  -1.605 -12.815  1.00  0.00     0.000 C 
BRANCH   3   4
ATOM      4  C   UNL     1       9.263  -0.769 -14.009  1.00  0.00     0.000 C 
BRANCH   4   5
ATOM      5  C   UNL     1       8.867   0.664 -13.614  1.00  0.00     0.006 C 
BRANCH   5   6
ATOM      6  C   UNL     1       7.595   1.131 -14.333  1.00  0.00     0.053 C 
BRANCH   6   7
ATOM      7  C   UNL     1       6.542   1.578 -13.366  1.00  0.00     0.041 C 
ATOM      8  O   UNL     1       5.411   1.025 -13.359  1.00  0.00    -0.550 OA
ATOM      9  O   UNL     1       6.802   2.624 -12.490  1.00  0.00    -0.550 OA
ENDBRANCH   6   7
ENDBRANCH   5   6
ENDBRANCH   4   5
ENDBRANCH   3   4
ENDBRANCH   2   3
ENDBRANCH   1   2
BRANCH   1  10
ATOM     10  C   UNL     1       7.244  -3.171 -11.065  1.00  0.00     0.027 C 
BRANCH  10  11
ATOM     11  C   UNL     1       6.443  -2.146 -11.830  1.00  0.00    -0.031 C 
ATOM     12  C   UNL     1       5.897  -2.356 -13.041  1.00  0.00    -0.031 C 
BRANCH  12  13
ATOM     13  C   UNL     1       6.059  -3.641 -13.817  1.00  0.00     0.027 C 
BRANCH  13  14
ATOM     14  C   UNL     1       6.957  -3.433 -15.046  1.00  0.00     0.004 C 
BRANCH  14  15
ATOM     15  C   UNL     1       8.253  -4.256 -14.976  1.00  0.00     0.000 C 
BRANCH  15  16
ATOM     16  C   UNL     1       8.237  -5.293 -13.839  1.00  0.00    -0.000 C 
BRANCH  16  17
ATOM     17  C   UNL     1       9.596  -5.416 -13.136  1.00  0.00    -0.003 C 
ATOM     18  C   UNL     1      10.764  -5.001 -14.031  1.00  0.00     0.004 C 
ENDBRANCH  16  17
ENDBRANCH  15  16
ENDBRANCH  14  15
ENDBRANCH  13  14
ENDBRANCH  12  13
ENDBRANCH  10  11
ENDBRANCH   1  10
TORSDOF 13
ENDMDL
MODEL 8
REMARK VINA RESULT:    -4.370      3.932      7.753
REMARK INTER + INTRA:          -8.684
REMARK INTER:                  -7.309
REMARK INTRA:                  -1.375
REMARK UNBOUND:                -0.992
REMARK SMILES CCCCCCC=CCCCCCCCC(=O)[O-]
REMARK SMILES IDX 10 1 11 2 12 3 13 4 14 5 15 6 16 7 17 8 18 9 9 10 8 11 7 12
REMARK SMILES IDX 6 13 5 14 4 15 3 16 2 17 1 18
REMARK H PARENT
REMARK Flexibility Score: inf
ROOT
ATOM      1  C   UNL     1      -5.633   5.372  -0.821  1.00  0.00     0.004 C 
ENDROOT
BRANCH   1   2
ATOM      2  C   UNL     1      -6.499   4.866  -1.987  1.00  0.00     0.000 C 
BRANCH   2   3
ATOM      3  C   UNL     1      -5.794   4.976  -3.351  1.00  0.00     0.000 C 
BRANCH   3   4
ATOM      4  C   UNL     1      -6.367   6.047  -4.297  1.00  0.00     0.000 C 
BRANCH   4   5
ATOM      5  C   UNL     1      -5.307   6.641  -5.241  1.00  0.00     0.006 C 
BRANCH   5   6
ATOM      6  C   UNL     1      -3.914   6.049  -4.991  1.00  0.00     0.053 C 
BRANCH   6   7
ATOM      7  C   UNL     1      -3.067   6.078  -6.226  1.00  0.00     0.041 C 
ATOM      8  O   UNL     1      -3.075   5.105  -7.025  1.00  0.00    -0.550 OA
ATOM      9  O   UNL     1      -2.249   7.172  -6.482  1.00  0.00    -0.550 OA
ENDBRANCH   6   7
ENDBRANCH   5   6
ENDBRANCH   4   5
ENDBRANCH   3   4
ENDBRANCH   2   3
ENDBRANCH   1   2
BRANCH   1  10
ATOM     10  C   UNL     1      -6.257   5.051   0.545  1.00  0.00     0.027 C 
BRANCH  10  11
ATOM     11  C   UNL     1      -5.863   3.680   1.040  1.00  0.00    -0.031 C 
ATOM     12  C   UNL     1      -4.979   3.454   2.028  1.00  0.00    -0.031 C 
BRANCH  12  13
ATOM     13  C   UNL     1      -4.227   4.551   2.741  1.00  0.00     0.027 C 
BRANCH  13  14
ATOM     14  C   UNL     1      -2.720   4.254   2.775  1.00  0.00     0.004 C 
BRANCH  14  15
ATOM     15  C   UNL     1      -1.883   5.380   2.148  1.00  0.00     0.000 C 
BRANCH  15  16
ATOM     16  C   UNL     1      -2.654   6.163   1.070  1.00  0.00    -0.000 C 
BRANCH  16  17
ATOM     17  C   UNL     1      -2.821   7.647   1.428  1.00  0.00    -0.003 C 
ATOM     18  C   UNL     1      -4.267   8.126   1.300  1.00  0.00     0.004 C 
ENDBRANCH  16  17
ENDBRANCH  15  16
ENDBRANCH  14  15
ENDBRANCH  13  14
ENDBRANCH  12  13
ENDBRANCH  10  11
ENDBRANCH   1  10
TORSDOF 13
ENDMDL
MODEL 9
REMARK VINA RESULT:    -4.335     14.793     16.568
REMARK INTER + INTRA:          -8.622
REMARK INTER:                  -6.838
REMARK INTRA:                  -1.784
REMARK UNBOUND:                -0.992
REMARK SMILES CCCCCCC=CCCCCCCCC(=O)[O-]
REMARK SMILES IDX 10 1 11 2 12 3 13 4 14 5 15 6 16 7 17 8 18 9 9 10 8 11 7 12
REMARK SMILES IDX 6 13 5 14 4 15 3 16 2 17 1 18
REMARK H PARENT
REMARK Flexibility Score: inf
ROOT
ATOM      1  C   UNL     1       7.537  -0.402   3.924  1.00  0.00     0.004 C 
ENDROOT
BRANCH   1   2
ATOM      2  C   UNL     1       7.636  -1.675   4.782  1.00  0.00     0.000 C 
BRANCH   2   3
ATOM      3  C   UNL     1       6.298  -2.429   4.892  1.00  0.00     0.000 C 
BRANCH   3   4
ATOM      4  C   UNL     1       6.356  -3.921   4.515  1.00  0.00     0.000 C 
BRANCH   4   5
ATOM      5  C   UNL     1       7.643  -4.298   3.762  1.00  0.00     0.006 C 
BRANCH   5   6
ATOM      6  C   UNL     1       7.379  -4.598   2.280  1.00  0.00     0.053 C 
BRANCH   6   7
ATOM      7  C   UNL     1       6.556  -5.836   2.101  1.00  0.00     0.041 C 
ATOM      8  O   UNL     1       5.579  -5.840   1.308  1.00  0.00    -0.550 OA
ATOM      9  O   UNL     1       6.853  -6.980   2.832  1.00  0.00    -0.550 OA
ENDBRANCH   6   7
ENDBRANCH   5   6
ENDBRANCH   4   5
ENDBRANCH   3   4
ENDBRANCH   2   3
ENDBRANCH   1   2
BRANCH   1  10
ATOM     10  C   UNL     1       7.505   0.872   4.782  1.00  0.00     0.027 C 
BRANCH  10  11
ATOM     11  C   UNL     1       7.628   2.123   3.945  1.00  0.00    -0.031 C 
ATOM     12  C   UNL     1       8.794   2.705   3.614  1.00  0.00    -0.031 C 
BRANCH  12  13
ATOM     13  C   UNL     1      10.138   2.203   4.082  1.00  0.00     0.027 C 
BRANCH  13  14
ATOM     14  C   UNL     1      10.759   1.248   3.052  1.00  0.00     0.004 C 
BRANCH  14  15
ATOM     15  C   UNL     1      11.766   0.272   3.683  1.00  0.00     0.000 C 
BRANCH  15  16
ATOM     16  C   UNL     1      11.155  -0.548   4.834  1.00  0.00    -0.000 C 
BRANCH  16  17
ATOM     17  C   UNL     1      11.408  -2.055   4.682  1.00  0.00    -0.003 C 
ATOM     18  C   UNL     1      10.950  -2.596   3.328  1.00  0.00     0.004 C 
ENDBRANCH  16  17
ENDBRANCH  15  16
ENDBRANCH  14  15
ENDBRANCH  13  14
ENDBRANCH  12  13
ENDBRANCH  10  11
ENDBRANCH   1  10
TORSDOF 13
ENDMDL
