MODEL 1
REMARK VINA RESULT:    -3.812      0.000      0.000
REMARK INTER + INTRA:          -8.218
REMARK INTER:                  -6.486
REMARK INTRA:                  -1.732
REMARK UNBOUND:                -1.732
REMARK SMILES CCCCCCCCCCCCCC(=O)[O-]
REMARK SMILES IDX 8 1 9 2 10 3 11 4 12 5 13 6 14 7 15 8 16 9 7 10 6 11 5 12
REMARK SMILES IDX 4 13 3 14 2 15 1 16
REMARK H PARENT
REMARK Flexibility Score: inf
ROOT
ATOM      1  C   UNL     1     181.076 183.177 200.835  1.00  0.00     0.000 C 
ENDROOT
BRANCH   1   2
ATOM      2  C   UNL     1     181.000 184.045 202.104  1.00  0.00     0.000 C 
BRANCH   2   3
ATOM      3  C   UNL     1     181.177 185.558 201.870  1.00  0.00     0.000 C 
BRANCH   3   4
ATOM      4  C   UNL     1     181.891 185.940 200.558  1.00  0.00     0.000 C 
BRANCH   4   5
ATOM      5  C   UNL     1     182.916 187.081 200.687  1.00  0.00     0.006 C 
BRANCH   5   6
ATOM      6  C   UNL     1     183.745 187.283 199.411  1.00  0.00     0.053 C 
BRANCH   6   7
ATOM      7  C   UNL     1     183.049 188.227 198.483  1.00  0.00     0.041 C 
ATOM      8  O   UNL     1     183.663 188.712 197.496  1.00  0.00    -0.550 OA
ATOM      9  O   UNL     1     181.708 188.532 198.677  1.00  0.00    -0.550 OA
ENDBRANCH   6   7
ENDBRANCH   5   6
ENDBRANCH   4   5
ENDBRANCH   3   4
ENDBRANCH   2   3
ENDBRANCH   1   2
BRANCH   1  10
ATOM     10  C   UNL     1     181.530 181.739 201.123  1.00  0.00     0.000 C 
BRANCH  10  11
ATOM     11  C   UNL     1     182.691 181.720 202.125  1.00  0.00    -0.000 C 
BRANCH  11  12
ATOM     12  C   UNL     1     184.038 181.888 201.412  1.00  0.00    -0.000 C 
BRANCH  12  13
ATOM     13  C   UNL     1     184.664 183.252 201.728  1.00  0.00    -0.000 C 
BRANCH  13  14
ATOM     14  C   UNL     1     185.152 183.942 200.447  1.00  0.00    -0.000 C 
BRANCH  14  15
ATOM     15  C   UNL     1     184.305 183.574 199.218  1.00  0.00    -0.003 C 
ATOM     16  C   UNL     1     184.945 184.022 197.904  1.00  0.00     0.004 C 
ENDBRANCH  14  15
ENDBRANCH  13  14
ENDBRANCH  12  13
ENDBRANCH  11  12
ENDBRANCH  10  11
ENDBRANCH   1  10
TORSDOF 12
ENDMDL
MODEL 2
REMARK VINA RESULT:    -3.784      1.440      1.830
REMARK INTER + INTRA:          -8.171
REMARK INTER:                  -6.517
REMARK INTRA:                  -1.654
REMARK UNBOUND:                -1.732
REMARK SMILES CCCCCCCCCCCCCC(=O)[O-]
REMARK SMILES IDX 8 1 9 2 10 3 11 4 12 5 13 6 14 7 15 8 16 9 7 10 6 11 5 12
REMARK SMILES IDX 4 13 3 14 2 15 1 16
REMARK H PARENT
REMARK Flexibility Score: inf
ROOT
ATOM      1  C   UNL     1     180.796 183.795 202.107  1.00  0.00     0.000 C 
ENDROOT
BRANCH   1   2
ATOM      2  C   UNL     1     180.699 185.320 201.920  1.00  0.00     0.000 C 
BRANCH   2   3
ATOM      3  C   UNL     1     182.050 186.044 201.759  1.00  0.00     0.000 C 
BRANCH   3   4
ATOM      4  C   UNL     1     182.567 186.153 200.310  1.00  0.00     0.000 C 
BRANCH   4   5
ATOM      5  C   UNL     1     183.412 187.406 200.015  1.00  0.00     0.006 C 
BRANCH   5   6
ATOM      6  C   UNL     1     184.001 187.407 198.599  1.00  0.00     0.053 C 
BRANCH   6   7
ATOM      7  C   UNL     1     185.439 187.813 198.633  1.00  0.00     0.041 C 
ATOM      8  O   UNL     1     186.203 187.521 197.676  1.00  0.00    -0.550 OA
ATOM      9  O   UNL     1     185.927 188.557 199.700  1.00  0.00    -0.550 OA
ENDBRANCH   6   7
ENDBRANCH   5   6
ENDBRANCH   4   5
ENDBRANCH   3   4
ENDBRANCH   2   3
ENDBRANCH   1   2
BRANCH   1  10
ATOM     10  C   UNL     1     180.891 183.037 200.775  1.00  0.00     0.000 C 
BRANCH  10  11
ATOM     11  C   UNL     1     181.642 181.711 200.950  1.00  0.00    -0.000 C 
BRANCH  11  12
ATOM     12  C   UNL     1     182.722 181.828 202.030  1.00  0.00    -0.000 C 
BRANCH  12  13
ATOM     13  C   UNL     1     184.123 181.869 201.408  1.00  0.00    -0.000 C 
BRANCH  13  14
ATOM     14  C   UNL     1     184.669 183.304 201.377  1.00  0.00    -0.000 C 
BRANCH  14  15
ATOM     15  C   UNL     1     185.272 183.677 200.013  1.00  0.00    -0.003 C 
ATOM     16  C   UNL     1     184.405 183.220 198.839  1.00  0.00     0.004 C 
ENDBRANCH  14  15
ENDBRANCH  13  14
ENDBRANCH  12  13
ENDBRANCH  11  12
ENDBRANCH  10  11
ENDBRANCH   1  10
TORSDOF 12
ENDMDL
MODEL 3
REMARK VINA RESULT:    -3.638      1.988      3.639
REMARK INTER + INTRA:          -7.921
REMARK INTER:                  -6.505
REMARK INTRA:                  -1.416
REMARK UNBOUND:                -1.732
REMARK SMILES CCCCCCCCCCCCCC(=O)[O-]
REMARK SMILES IDX 8 1 9 2 10 3 11 4 12 5 13 6 14 7 15 8 16 9 7 10 6 11 5 12
REMARK SMILES IDX 4 13 3 14 2 15 1 16
REMARK H PARENT
REMARK Flexibility Score: inf
ROOT
ATOM      1  C   UNL     1     183.996 184.508 199.085  1.00  0.00     0.000 C 
ENDROOT
BRANCH   1   2
ATOM      2  C   UNL     1     183.283 185.389 200.127  1.00  0.00     0.000 C 
BRANCH   2   3
ATOM      3  C   UNL     1     182.777 186.745 199.596  1.00  0.00     0.000 C 
BRANCH   3   4
ATOM      4  C   UNL     1     183.794 187.539 198.751  1.00  0.00     0.000 C 
BRANCH   4   5
ATOM      5  C   UNL     1     184.597 188.597 199.527  1.00  0.00     0.006 C 
BRANCH   5   6
ATOM      6  C   UNL     1     186.097 188.280 199.585  1.00  0.00     0.053 C 
BRANCH   6   7
ATOM      7  C   UNL     1     186.859 189.203 198.689  1.00  0.00     0.041 C 
ATOM      8  O   UNL     1     186.258 190.108 198.051  1.00  0.00    -0.550 OA
ATOM      9  O   UNL     1     188.241 189.097 198.595  1.00  0.00    -0.550 OA
ENDBRANCH   6   7
ENDBRANCH   5   6
ENDBRANCH   4   5
ENDBRANCH   3   4
ENDBRANCH   2   3
ENDBRANCH   1   2
BRANCH   1  10
ATOM     10  C   UNL     1     184.952 183.488 199.721  1.00  0.00     0.000 C 
BRANCH  10  11
ATOM     11  C   UNL     1     185.195 183.811 201.201  1.00  0.00    -0.000 C 
BRANCH  11  12
ATOM     12  C   UNL     1     184.800 182.632 202.095  1.00  0.00    -0.000 C 
BRANCH  12  13
ATOM     13  C   UNL     1     183.953 181.613 201.323  1.00  0.00    -0.000 C 
BRANCH  13  14
ATOM     14  C   UNL     1     182.588 181.409 201.997  1.00  0.00    -0.000 C 
BRANCH  14  15
ATOM     15  C   UNL     1     181.666 182.629 201.843  1.00  0.00    -0.003 C 
ATOM     16  C   UNL     1     180.898 182.627 200.521  1.00  0.00     0.004 C 
ENDBRANCH  14  15
ENDBRANCH  13  14
ENDBRANCH  12  13
ENDBRANCH  11  12
ENDBRANCH  10  11
ENDBRANCH   1  10
TORSDOF 12
ENDMDL
MODEL 4
REMARK VINA RESULT:    -3.553      1.418      3.511
REMARK INTER + INTRA:          -7.777
REMARK INTER:                  -6.397
REMARK INTRA:                  -1.379
REMARK UNBOUND:                -1.732
REMARK SMILES CCCCCCCCCCCCCC(=O)[O-]
REMARK SMILES IDX 8 1 9 2 10 3 11 4 12 5 13 6 14 7 15 8 16 9 7 10 6 11 5 12
REMARK SMILES IDX 4 13 3 14 2 15 1 16
REMARK H PARENT
REMARK Flexibility Score: inf
ROOT
ATOM      1  C   UNL     1     184.679 183.787 199.271  1.00  0.00     0.000 C 
ENDROOT
BRANCH   1   2
ATOM      2  C   UNL     1     184.500 185.040 198.395  1.00  0.00     0.000 C 
BRANCH   2   3
ATOM      3  C   UNL     1     184.298 186.356 199.173  1.00  0.00     0.000 C 
BRANCH   3   4
ATOM      4  C   UNL     1     182.834 186.697 199.516  1.00  0.00     0.000 C 
BRANCH   4   5
ATOM      5  C   UNL     1     182.642 187.489 200.822  1.00  0.00     0.006 C 
BRANCH   5   6
ATOM      6  C   UNL     1     183.176 188.924 200.732  1.00  0.00     0.053 C 
BRANCH   6   7
ATOM      7  C   UNL     1     182.068 189.872 200.400  1.00  0.00     0.041 C 
ATOM      8  O   UNL     1     180.887 189.452 200.286  1.00  0.00    -0.550 OA
ATOM      9  O   UNL     1     182.332 191.229 200.266  1.00  0.00    -0.550 OA
ENDBRANCH   6   7
ENDBRANCH   5   6
ENDBRANCH   4   5
ENDBRANCH   3   4
ENDBRANCH   2   3
ENDBRANCH   1   2
BRANCH   1  10
ATOM     10  C   UNL     1     185.286 184.103 200.645  1.00  0.00     0.000 C 
BRANCH  10  11
ATOM     11  C   UNL     1     185.124 182.916 201.603  1.00  0.00    -0.000 C 
BRANCH  11  12
ATOM     12  C   UNL     1     184.119 181.898 201.055  1.00  0.00    -0.000 C 
BRANCH  12  13
ATOM     13  C   UNL     1     183.094 181.502 202.125  1.00  0.00    -0.000 C 
BRANCH  13  14
ATOM     14  C   UNL     1     181.661 181.761 201.636  1.00  0.00    -0.000 C 
BRANCH  14  15
ATOM     15  C   UNL     1     181.481 183.173 201.056  1.00  0.00    -0.003 C 
ATOM     16  C   UNL     1     181.137 184.211 202.125  1.00  0.00     0.004 C 
ENDBRANCH  14  15
ENDBRANCH  13  14
ENDBRANCH  12  13
ENDBRANCH  11  12
ENDBRANCH  10  11
ENDBRANCH   1  10
TORSDOF 12
ENDMDL
MODEL 5
REMARK VINA RESULT:    -3.545      1.630      3.538
REMARK INTER + INTRA:          -7.764
REMARK INTER:                  -6.553
REMARK INTRA:                  -1.211
REMARK UNBOUND:                -1.732
REMARK SMILES CCCCCCCCCCCCCC(=O)[O-]
REMARK SMILES IDX 8 1 9 2 10 3 11 4 12 5 13 6 14 7 15 8 16 9 7 10 6 11 5 12
REMARK SMILES IDX 4 13 3 14 2 15 1 16
REMARK H PARENT
REMARK Flexibility Score: inf
ROOT
ATOM      1  C   UNL     1     184.342 184.453 198.854  1.00  0.00     0.000 C 
ENDROOT
BRANCH   1   2
ATOM      2  C   UNL     1     183.668 185.516 199.740  1.00  0.00     0.000 C 
BRANCH   2   3
ATOM      3  C   UNL     1     183.579 186.923 199.116  1.00  0.00     0.000 C 
BRANCH   3   4
ATOM      4  C   UNL     1     184.685 187.258 198.094  1.00  0.00     0.000 C 
BRANCH   4   5
ATOM      5  C   UNL     1     184.872 188.760 197.811  1.00  0.00     0.006 C 
BRANCH   5   6
ATOM      6  C   UNL     1     183.713 189.363 197.008  1.00  0.00     0.053 C 
BRANCH   6   7
ATOM      7  C   UNL     1     183.328 190.695 197.569  1.00  0.00     0.041 C 
ATOM      8  O   UNL     1     183.825 191.093 198.655  1.00  0.00    -0.550 OA
ATOM      9  O   UNL     1     182.458 191.519 196.867  1.00  0.00    -0.550 OA
ENDBRANCH   6   7
ENDBRANCH   5   6
ENDBRANCH   4   5
ENDBRANCH   3   4
ENDBRANCH   2   3
ENDBRANCH   1   2
BRANCH   1  10
ATOM     10  C   UNL     1     184.898 183.271 199.660  1.00  0.00     0.000 C 
BRANCH  10  11
ATOM     11  C   UNL     1     185.133 183.666 201.123  1.00  0.00    -0.000 C 
BRANCH  11  12
ATOM     12  C   UNL     1     184.572 182.606 202.077  1.00  0.00    -0.000 C 
BRANCH  12  13
ATOM     13  C   UNL     1     183.715 181.582 201.323  1.00  0.00    -0.000 C 
BRANCH  13  14
ATOM     14  C   UNL     1     182.257 181.628 201.800  1.00  0.00    -0.000 C 
BRANCH  14  15
ATOM     15  C   UNL     1     181.693 183.058 201.837  1.00  0.00    -0.003 C 
ATOM     16  C   UNL     1     180.780 183.364 200.650  1.00  0.00     0.004 C 
ENDBRANCH  14  15
ENDBRANCH  13  14
ENDBRANCH  12  13
ENDBRANCH  11  12
ENDBRANCH  10  11
ENDBRANCH   1  10
TORSDOF 12
ENDMDL
MODEL 6
REMARK VINA RESULT:    -3.543      2.653      5.559
REMARK INTER + INTRA:          -7.760
REMARK INTER:                  -5.966
REMARK INTRA:                  -1.794
REMARK UNBOUND:                -1.732
REMARK SMILES CCCCCCCCCCCCCC(=O)[O-]
REMARK SMILES IDX 8 1 9 2 10 3 11 4 12 5 13 6 14 7 15 8 16 9 7 10 6 11 5 12
REMARK SMILES IDX 4 13 3 14 2 15 1 16
REMARK H PARENT
REMARK Flexibility Score: inf
ROOT
ATOM      1  C   UNL     1     183.389 185.607 200.537  1.00  0.00     0.000 C 
ENDROOT
BRANCH   1   2
ATOM      2  C   UNL     1     184.007 184.729 199.434  1.00  0.00     0.000 C 
BRANCH   2   3
ATOM      3  C   UNL     1     185.104 183.757 199.914  1.00  0.00     0.000 C 
BRANCH   3   4
ATOM      4  C   UNL     1     184.875 183.149 201.313  1.00  0.00     0.000 C 
BRANCH   4   5
ATOM      5  C   UNL     1     184.068 181.839 201.326  1.00  0.00     0.006 C 
BRANCH   5   6
ATOM      6  C   UNL     1     182.621 182.036 201.794  1.00  0.00     0.053 C 
BRANCH   6   7
ATOM      7  C   UNL     1     181.712 182.210 200.619  1.00  0.00     0.041 C 
ATOM      8  O   UNL     1     181.872 181.510 199.584  1.00  0.00    -0.550 OA
ATOM      9  O   UNL     1     180.657 183.111 200.684  1.00  0.00    -0.550 OA
ENDBRANCH   6   7
ENDBRANCH   5   6
ENDBRANCH   4   5
ENDBRANCH   3   4
ENDBRANCH   2   3
ENDBRANCH   1   2
BRANCH   1  10
ATOM     10  C   UNL     1     182.190 186.429 200.042  1.00  0.00     0.000 C 
BRANCH  10  11
ATOM     11  C   UNL     1     182.519 187.927 200.026  1.00  0.00    -0.000 C 
BRANCH  11  12
ATOM     12  C   UNL     1     182.478 188.486 198.600  1.00  0.00    -0.000 C 
BRANCH  12  13
ATOM     13  C   UNL     1     183.848 188.369 197.922  1.00  0.00    -0.000 C 
BRANCH  13  14
ATOM     14  C   UNL     1     184.980 188.685 198.910  1.00  0.00    -0.000 C 
BRANCH  14  15
ATOM     15  C   UNL     1     186.137 187.678 198.825  1.00  0.00    -0.003 C 
ATOM     16  C   UNL     1     186.741 187.355 200.192  1.00  0.00     0.004 C 
ENDBRANCH  14  15
ENDBRANCH  13  14
ENDBRANCH  12  13
ENDBRANCH  11  12
ENDBRANCH  10  11
ENDBRANCH   1  10
TORSDOF 12
ENDMDL
MODEL 7
REMARK VINA RESULT:    -3.512      1.638      2.187
REMARK INTER + INTRA:          -7.707
REMARK INTER:                  -6.182
REMARK INTRA:                  -1.525
REMARK UNBOUND:                -1.732
REMARK SMILES CCCCCCCCCCCCCC(=O)[O-]
REMARK SMILES IDX 8 1 9 2 10 3 11 4 12 5 13 6 14 7 15 8 16 9 7 10 6 11 5 12
REMARK SMILES IDX 4 13 3 14 2 15 1 16
REMARK H PARENT
REMARK Flexibility Score: inf
ROOT
ATOM      1  C   UNL     1     181.555 182.828 201.803  1.00  0.00     0.000 C 
ENDROOT
BRANCH   1   2
ATOM      2  C   UNL     1     180.679 183.626 200.820  1.00  0.00     0.000 C 
BRANCH   2   3
ATOM      3  C   UNL     1     179.880 184.783 201.452  1.00  0.00     0.000 C 
BRANCH   3   4
ATOM      4  C   UNL     1     180.223 186.187 200.914  1.00  0.00     0.000 C 
BRANCH   4   5
ATOM      5  C   UNL     1     180.429 187.263 201.995  1.00  0.00     0.006 C 
BRANCH   5   6
ATOM      6  C   UNL     1     181.893 187.703 202.124  1.00  0.00     0.053 C 
BRANCH   6   7
ATOM      7  C   UNL     1     182.183 188.828 201.183  1.00  0.00     0.041 C 
ATOM      8  O   UNL     1     181.239 189.488 200.673  1.00  0.00    -0.550 OA
ATOM      9  O   UNL     1     183.498 189.181 200.906  1.00  0.00    -0.550 OA
ENDBRANCH   6   7
ENDBRANCH   5   6
ENDBRANCH   4   5
ENDBRANCH   3   4
ENDBRANCH   2   3
ENDBRANCH   1   2
BRANCH   1  10
ATOM     10  C   UNL     1     182.297 181.665 201.130  1.00  0.00     0.000 C 
BRANCH  10  11
ATOM     11  C   UNL     1     183.719 181.525 201.688  1.00  0.00    -0.000 C 
BRANCH  11  12
ATOM     12  C   UNL     1     184.285 182.886 202.105  1.00  0.00    -0.000 C 
BRANCH  12  13
ATOM     13  C   UNL     1     185.458 183.295 201.206  1.00  0.00    -0.000 C 
BRANCH  13  14
ATOM     14  C   UNL     1     184.959 184.017 199.946  1.00  0.00    -0.000 C 
BRANCH  14  15
ATOM     15  C   UNL     1     183.920 185.106 200.261  1.00  0.00    -0.003 C 
ATOM     16  C   UNL     1     183.724 186.087 199.106  1.00  0.00     0.004 C 
ENDBRANCH  14  15
ENDBRANCH  13  14
ENDBRANCH  12  13
ENDBRANCH  11  12
ENDBRANCH  10  11
ENDBRANCH   1  10
TORSDOF 12
ENDMDL
MODEL 8
REMARK VINA RESULT:    -3.495      1.920      4.138
REMARK INTER + INTRA:          -7.678
REMARK INTER:                  -5.938
REMARK INTRA:                  -1.739
REMARK UNBOUND:                -1.732
REMARK SMILES CCCCCCCCCCCCCC(=O)[O-]
REMARK SMILES IDX 8 1 9 2 10 3 11 4 12 5 13 6 14 7 15 8 16 9 7 10 6 11 5 12
REMARK SMILES IDX 4 13 3 14 2 15 1 16
REMARK H PARENT
REMARK Flexibility Score: inf
ROOT
ATOM      1  C   UNL     1     182.810 182.771 200.057  1.00  0.00     0.000 C 
ENDROOT
BRANCH   1   2
ATOM      2  C   UNL     1     184.317 182.629 200.341  1.00  0.00     0.000 C 
BRANCH   2   3
ATOM      3  C   UNL     1     185.201 183.737 199.736  1.00  0.00     0.000 C 
BRANCH   3   4
ATOM      4  C   UNL     1     184.616 184.436 198.491  1.00  0.00     0.000 C 
BRANCH   4   5
ATOM      5  C   UNL     1     184.896 185.947 198.405  1.00  0.00     0.006 C 
BRANCH   5   6
ATOM      6  C   UNL     1     185.537 186.507 199.681  1.00  0.00     0.053 C 
BRANCH   6   7
ATOM      7  C   UNL     1     186.189 187.823 199.402  1.00  0.00     0.041 C 
ATOM      8  O   UNL     1     186.312 188.677 200.320  1.00  0.00    -0.550 OA
ATOM      9  O   UNL     1     186.707 188.089 198.141  1.00  0.00    -0.550 OA
ENDBRANCH   6   7
ENDBRANCH   5   6
ENDBRANCH   4   5
ENDBRANCH   3   4
ENDBRANCH   2   3
ENDBRANCH   1   2
BRANCH   1  10
ATOM     10  C   UNL     1     181.996 183.099 201.317  1.00  0.00     0.000 C 
BRANCH  10  11
ATOM     11  C   UNL     1     181.227 184.416 201.146  1.00  0.00    -0.000 C 
BRANCH  11  12
ATOM     12  C   UNL     1     182.188 185.604 201.025  1.00  0.00    -0.000 C 
BRANCH  12  13
ATOM     13  C   UNL     1     181.421 186.913 200.804  1.00  0.00    -0.000 C 
BRANCH  13  14
ATOM     14  C   UNL     1     181.669 187.464 199.392  1.00  0.00    -0.000 C 
BRANCH  14  15
ATOM     15  C   UNL     1     182.539 188.731 199.398  1.00  0.00    -0.003 C 
ATOM     16  C   UNL     1     182.808 189.257 200.808  1.00  0.00     0.004 C 
ENDBRANCH  14  15
ENDBRANCH  13  14
ENDBRANCH  12  13
ENDBRANCH  11  12
ENDBRANCH  10  11
ENDBRANCH   1  10
TORSDOF 12
ENDMDL
MODEL 9
REMARK VINA RESULT:    -3.093      1.832      2.632
REMARK INTER + INTRA:          -6.995
REMARK INTER:                  -5.457
REMARK INTRA:                  -1.538
REMARK UNBOUND:                -1.732
REMARK SMILES CCCCCCCCCCCCCC(=O)[O-]
REMARK SMILES IDX 8 1 9 2 10 3 11 4 12 5 13 6 14 7 15 8 16 9 7 10 6 11 5 12
REMARK SMILES IDX 4 13 3 14 2 15 1 16
REMARK H PARENT
REMARK Flexibility Score: inf
ROOT
ATOM      1  C   UNL     1     180.015 185.841 200.911  1.00  0.00     0.000 C 
ENDROOT
BRANCH   1   2
ATOM      2  C   UNL     1     180.776 187.179 200.895  1.00  0.00     0.000 C 
BRANCH   2   3
ATOM      3  C   UNL     1     181.207 187.667 199.498  1.00  0.00     0.000 C 
BRANCH   3   4
ATOM      4  C   UNL     1     182.677 187.381 199.128  1.00  0.00     0.000 C 
BRANCH   4   5
ATOM      5  C   UNL     1     183.690 187.623 200.261  1.00  0.00     0.006 C 
BRANCH   5   6
ATOM      6  C   UNL     1     185.124 187.246 199.868  1.00  0.00     0.053 C 
BRANCH   6   7
ATOM      7  C   UNL     1     185.638 188.178 198.818  1.00  0.00     0.041 C 
ATOM      8  O   UNL     1     185.552 189.424 198.979  1.00  0.00    -0.550 OA
ATOM      9  O   UNL     1     186.258 187.673 197.682  1.00  0.00    -0.550 OA
ENDBRANCH   6   7
ENDBRANCH   5   6
ENDBRANCH   4   5
ENDBRANCH   3   4
ENDBRANCH   2   3
ENDBRANCH   1   2
BRANCH   1  10
ATOM     10  C   UNL     1     180.366 184.970 202.125  1.00  0.00     0.000 C 
BRANCH  10  11
ATOM     11  C   UNL     1     181.821 184.491 202.055  1.00  0.00    -0.000 C 
BRANCH  11  12
ATOM     12  C   UNL     1     182.138 183.888 200.682  1.00  0.00    -0.000 C 
BRANCH  12  13
ATOM     13  C   UNL     1     183.651 183.832 200.439  1.00  0.00    -0.000 C 
BRANCH  13  14
ATOM     14  C   UNL     1     184.059 182.489 199.816  1.00  0.00    -0.000 C 
BRANCH  14  15
ATOM     15  C   UNL     1     184.595 182.642 198.384  1.00  0.00    -0.003 C 
ATOM     16  C   UNL     1     184.882 184.097 198.012  1.00  0.00     0.004 C 
ENDBRANCH  14  15
ENDBRANCH  13  14
ENDBRANCH  12  13
ENDBRANCH  11  12
ENDBRANCH  10  11
ENDBRANCH   1  10
TORSDOF 12
ENDMDL
