MODEL 1
REMARK VINA RESULT:    -3.739      0.000      0.000
REMARK INTER + INTRA:          -4.485
REMARK INTER:                  -4.394
REMARK INTRA:                  -0.090
REMARK UNBOUND:                -0.090
REMARK SMILES O=c1c(O)c(-c2ccc(O)c(O)c2)oc2cc(O)ccc12
REMARK SMILES IDX 5 1 3 2 2 3 1 4 21 5 15 6 14 7 16 8 17 9 19 10 20 11 6 12
REMARK SMILES IDX 7 13 8 14 9 15 13 16 11 17 10 18 12 20 4 22 18 24
REMARK H PARENT 10 19 12 21 4 23 18 25
REMARK Flexibility Score: inf
ROOT
ATOM      1  C   UNL     1      -3.907 -11.947  31.575  1.00  0.00     0.180 A 
ATOM      2  C   UNL     1      -2.539 -11.652  31.407  1.00  0.00     0.208 A 
ATOM      3  C   UNL     1      -1.913 -12.010  30.203  1.00  0.00     0.235 A 
ATOM      4  O   UNL     1      -0.692 -11.747  30.024  1.00  0.00    -0.285 OA
ATOM      5  C   UNL     1      -2.655 -12.669  29.209  1.00  0.00     0.069 A 
ATOM      6  C   UNL     1      -4.014 -12.950  29.464  1.00  0.00     0.142 A 
ATOM      7  O   UNL     1      -4.571 -12.586  30.614  1.00  0.00    -0.452 OA
ATOM      8  C   UNL     1      -4.783 -13.613  28.502  1.00  0.00     0.094 A 
ATOM      9  C   UNL     1      -4.213 -13.999  27.285  1.00  0.00     0.119 A 
ATOM     10  C   UNL     1      -2.864 -13.720  27.028  1.00  0.00     0.047 A 
ATOM     11  C   UNL     1      -2.086 -13.059  27.983  1.00  0.00     0.020 A 
ENDROOT
BRANCH   1  12
ATOM     12  C   UNL     1      -4.644 -11.585  32.808  1.00  0.00     0.025 A 
ATOM     13  C   UNL     1      -4.704 -10.239  33.205  1.00  0.00     0.016 A 
ATOM     14  C   UNL     1      -5.375  -9.875  34.376  1.00  0.00     0.051 A 
ATOM     15  C   UNL     1      -5.984 -10.854  35.173  1.00  0.00     0.157 A 
ATOM     16  C   UNL     1      -5.239 -12.565  33.622  1.00  0.00     0.062 A 
ATOM     17  C   UNL     1      -5.912 -12.201  34.798  1.00  0.00     0.158 A 
BRANCH  15  18
ATOM     18  O   UNL     1      -6.657 -10.495  36.339  1.00  0.00    -0.504 OA
ATOM     19  H   UNL     1      -6.314  -9.759  36.945  1.00  0.00     0.293 HD
ENDBRANCH  15  18
BRANCH  17  20
ATOM     20  O   UNL     1      -6.506 -13.174  35.600  1.00  0.00    -0.504 OA
ATOM     21  H   UNL     1      -7.507 -13.328  35.592  1.00  0.00     0.293 HD
ENDBRANCH  17  20
ENDBRANCH   1  12
BRANCH   2  22
ATOM     22  O   UNL     1      -1.815 -11.040  32.434  1.00  0.00    -0.502 OA
ATOM     23  H   UNL     1      -0.804 -10.985  32.425  1.00  0.00     0.293 HD
ENDBRANCH   2  22
BRANCH   9  24
ATOM     24  O   UNL     1      -4.994 -14.658  26.339  1.00  0.00    -0.508 OA
ATOM     25  H   UNL     1      -4.978 -14.393  25.361  1.00  0.00     0.293 HD
ENDBRANCH   9  24
TORSDOF 5
ENDMDL
MODEL 2
REMARK VINA RESULT:    -3.177      2.382      3.724
REMARK INTER + INTRA:          -3.824
REMARK INTER:                  -4.279
REMARK INTRA:                   0.455
REMARK UNBOUND:                -0.090
REMARK SMILES O=c1c(O)c(-c2ccc(O)c(O)c2)oc2cc(O)ccc12
REMARK SMILES IDX 5 1 3 2 2 3 1 4 21 5 15 6 14 7 16 8 17 9 19 10 20 11 6 12
REMARK SMILES IDX 7 13 8 14 9 15 13 16 11 17 10 18 12 20 4 22 18 24
REMARK H PARENT 10 19 12 21 4 23 18 25
REMARK Flexibility Score: inf
ROOT
ATOM      1  C   UNL     1      -5.373 -12.194  33.837  1.00  0.00     0.180 A 
ATOM      2  C   UNL     1      -5.285 -13.557  33.487  1.00  0.00     0.208 A 
ATOM      3  C   UNL     1      -4.432 -13.931  32.437  1.00  0.00     0.235 A 
ATOM      4  O   UNL     1      -4.328 -15.146  32.112  1.00  0.00    -0.285 OA
ATOM      5  C   UNL     1      -3.707 -12.943  31.751  1.00  0.00     0.069 A 
ATOM      6  C   UNL     1      -3.869 -11.599  32.147  1.00  0.00     0.142 A 
ATOM      7  O   UNL     1      -4.680 -11.287  33.151  1.00  0.00    -0.452 OA
ATOM      8  C   UNL     1      -3.171 -10.585  31.482  1.00  0.00     0.094 A 
ATOM      9  C   UNL     1      -2.310 -10.897  30.424  1.00  0.00     0.119 A 
ATOM     10  C   UNL     1      -2.146 -12.231  30.030  1.00  0.00     0.047 A 
ATOM     11  C   UNL     1      -2.840 -13.252  30.687  1.00  0.00     0.020 A 
ENDROOT
BRANCH   1  12
ATOM     12  C   UNL     1      -6.235 -11.721  34.945  1.00  0.00     0.025 A 
ATOM     13  C   UNL     1      -6.343 -10.344  35.195  1.00  0.00     0.016 A 
ATOM     14  C   UNL     1      -7.134  -9.875  36.248  1.00  0.00     0.051 A 
ATOM     15  C   UNL     1      -7.816 -10.779  37.074  1.00  0.00     0.157 A 
ATOM     16  C   UNL     1      -6.906 -12.625  35.789  1.00  0.00     0.062 A 
ATOM     17  C   UNL     1      -7.698 -12.155  36.847  1.00  0.00     0.158 A 
BRANCH  15  18
ATOM     18  O   UNL     1      -8.608 -10.316  38.123  1.00  0.00    -0.504 OA
ATOM     19  H   UNL     1      -8.989  -9.377  38.126  1.00  0.00     0.293 HD
ENDBRANCH  15  18
BRANCH  17  20
ATOM     20  O   UNL     1      -8.367 -13.052  37.678  1.00  0.00    -0.504 OA
ATOM     21  H   UNL     1      -7.866 -13.658  38.316  1.00  0.00     0.293 HD
ENDBRANCH  17  20
ENDBRANCH   1  12
BRANCH   2  22
ATOM     22  O   UNL     1      -6.056 -14.511  34.155  1.00  0.00    -0.502 OA
ATOM     23  H   UNL     1      -6.801 -15.023  33.698  1.00  0.00     0.293 HD
ENDBRANCH   2  22
BRANCH   9  24
ATOM     24  O   UNL     1      -1.623  -9.875  29.774  1.00  0.00    -0.508 OA
ATOM     25  H   UNL     1      -2.086  -9.262  29.113  1.00  0.00     0.293 HD
ENDBRANCH   9  24
TORSDOF 5
ENDMDL
MODEL 3
REMARK VINA RESULT:    -3.155      3.784      5.629
REMARK INTER + INTRA:          -3.798
REMARK INTER:                  -4.117
REMARK INTRA:                   0.319
REMARK UNBOUND:                -0.090
REMARK SMILES O=c1c(O)c(-c2ccc(O)c(O)c2)oc2cc(O)ccc12
REMARK SMILES IDX 5 1 3 2 2 3 1 4 21 5 15 6 14 7 16 8 17 9 19 10 20 11 6 12
REMARK SMILES IDX 7 13 8 14 9 15 13 16 11 17 10 18 12 20 4 22 18 24
REMARK H PARENT 10 19 12 21 4 23 18 25
REMARK Flexibility Score: inf
ROOT
ATOM      1  C   UNL     1      -4.380 -13.353  29.769  1.00  0.00     0.180 A 
ATOM      2  C   UNL     1      -4.575 -12.019  29.356  1.00  0.00     0.208 A 
ATOM      3  C   UNL     1      -3.574 -11.073  29.629  1.00  0.00     0.235 A 
ATOM      4  O   UNL     1      -3.720  -9.875  29.260  1.00  0.00    -0.285 OA
ATOM      5  C   UNL     1      -2.419 -11.472  30.321  1.00  0.00     0.069 A 
ATOM      6  C   UNL     1      -2.310 -12.821  30.721  1.00  0.00     0.142 A 
ATOM      7  O   UNL     1      -3.276 -13.686  30.435  1.00  0.00    -0.452 OA
ATOM      8  C   UNL     1      -1.179 -13.254  31.420  1.00  0.00     0.094 A 
ATOM      9  C   UNL     1      -0.150 -12.356  31.726  1.00  0.00     0.119 A 
ATOM     10  C   UNL     1      -0.254 -11.016  31.328  1.00  0.00     0.047 A 
ATOM     11  C   UNL     1      -1.381 -10.573  30.630  1.00  0.00     0.020 A 
ENDROOT
BRANCH   1  12
ATOM     12  C   UNL     1      -5.380 -14.412  29.502  1.00  0.00     0.025 A 
ATOM     13  C   UNL     1      -6.200 -14.316  28.367  1.00  0.00     0.016 A 
ATOM     14  C   UNL     1      -7.165 -15.292  28.104  1.00  0.00     0.051 A 
ATOM     15  C   UNL     1      -7.332 -16.372  28.982  1.00  0.00     0.157 A 
ATOM     16  C   UNL     1      -5.565 -15.487  30.390  1.00  0.00     0.062 A 
ATOM     17  C   UNL     1      -6.534 -16.467  30.128  1.00  0.00     0.158 A 
BRANCH  15  18
ATOM     18  O   UNL     1      -8.291 -17.350  28.723  1.00  0.00    -0.504 OA
ATOM     19  H   UNL     1      -8.224 -17.958  27.916  1.00  0.00     0.293 HD
ENDBRANCH  15  18
BRANCH  17  20
ATOM     20  O   UNL     1      -6.712 -17.534  31.007  1.00  0.00    -0.504 OA
ATOM     21  H   UNL     1      -7.559 -17.637  31.552  1.00  0.00     0.293 HD
ENDBRANCH  17  20
ENDBRANCH   1  12
BRANCH   2  22
ATOM     22  O   UNL     1      -5.756 -11.642  28.712  1.00  0.00    -0.502 OA
ATOM     23  H   UNL     1      -6.090 -10.686  28.709  1.00  0.00     0.293 HD
ENDBRANCH   2  22
BRANCH   9  24
ATOM     24  O   UNL     1       0.969 -12.804  32.423  1.00  0.00    -0.508 OA
ATOM     25  H   UNL     1       1.594 -12.159  32.891  1.00  0.00     0.293 HD
ENDBRANCH   9  24
TORSDOF 5
ENDMDL
MODEL 4
REMARK VINA RESULT:    -2.861      3.480      5.307
REMARK INTER + INTRA:          -3.453
REMARK INTER:                  -3.398
REMARK INTRA:                  -0.055
REMARK UNBOUND:                -0.090
REMARK SMILES O=c1c(O)c(-c2ccc(O)c(O)c2)oc2cc(O)ccc12
REMARK SMILES IDX 5 1 3 2 2 3 1 4 21 5 15 6 14 7 16 8 17 9 19 10 20 11 6 12
REMARK SMILES IDX 7 13 8 14 9 15 13 16 11 17 10 18 12 20 4 22 18 24
REMARK H PARENT 10 19 12 21 4 23 18 25
REMARK Flexibility Score: inf
ROOT
ATOM      1  C   UNL     1      -2.962 -13.485  29.140  1.00  0.00     0.180 A 
ATOM      2  C   UNL     1      -3.021 -13.313  27.742  1.00  0.00     0.208 A 
ATOM      3  C   UNL     1      -4.187 -13.700  27.062  1.00  0.00     0.235 A 
ATOM      4  O   UNL     1      -4.269 -13.547  25.812  1.00  0.00    -0.285 OA
ATOM      5  C   UNL     1      -5.251 -14.265  27.783  1.00  0.00     0.069 A 
ATOM      6  C   UNL     1      -5.104 -14.425  29.178  1.00  0.00     0.142 A 
ATOM      7  O   UNL     1      -3.988 -14.038  29.784  1.00  0.00    -0.452 OA
ATOM      8  C   UNL     1      -6.138 -14.992  29.930  1.00  0.00     0.094 A 
ATOM      9  C   UNL     1      -7.322 -15.402  29.307  1.00  0.00     0.119 A 
ATOM     10  C   UNL     1      -7.472 -15.242  27.923  1.00  0.00     0.047 A 
ATOM     11  C   UNL     1      -6.444 -14.678  27.162  1.00  0.00     0.020 A 
ENDROOT
BRANCH   1  12
ATOM     12  C   UNL     1      -1.776 -13.084  29.931  1.00  0.00     0.025 A 
ATOM     13  C   UNL     1      -0.524 -13.644  29.630  1.00  0.00     0.016 A 
ATOM     14  C   UNL     1       0.606 -13.296  30.376  1.00  0.00     0.051 A 
ATOM     15  C   UNL     1       0.496 -12.395  31.443  1.00  0.00     0.157 A 
ATOM     16  C   UNL     1      -1.884 -12.195  31.016  1.00  0.00     0.062 A 
ATOM     17  C   UNL     1      -0.751 -11.847  31.766  1.00  0.00     0.158 A 
BRANCH  15  18
ATOM     18  O   UNL     1       1.620 -12.043  32.188  1.00  0.00    -0.504 OA
ATOM     19  H   UNL     1       2.243 -12.744  32.572  1.00  0.00     0.293 HD
ENDBRANCH  15  18
BRANCH  17  20
ATOM     20  O   UNL     1      -0.860 -10.962  32.837  1.00  0.00    -0.504 OA
ATOM     21  H   UNL     1      -0.069 -10.415  33.155  1.00  0.00     0.293 HD
ENDBRANCH  17  20
ENDBRANCH   1  12
BRANCH   2  22
ATOM     22  O   UNL     1      -1.928 -12.794  27.045  1.00  0.00    -0.502 OA
ATOM     23  H   UNL     1      -1.952 -12.626  26.047  1.00  0.00     0.293 HD
ENDBRANCH   2  22
BRANCH   9  24
ATOM     24  O   UNL     1      -8.341 -15.964  30.071  1.00  0.00    -0.508 OA
ATOM     25  H   UNL     1      -8.612 -15.571  30.965  1.00  0.00     0.293 HD
ENDBRANCH   9  24
TORSDOF 5
ENDMDL
MODEL 5
REMARK VINA RESULT:    -2.615      2.824      5.723
REMARK INTER + INTRA:          -3.164
REMARK INTER:                  -3.194
REMARK INTRA:                   0.030
REMARK UNBOUND:                -0.090
REMARK SMILES O=c1c(O)c(-c2ccc(O)c(O)c2)oc2cc(O)ccc12
REMARK SMILES IDX 5 1 3 2 2 3 1 4 21 5 15 6 14 7 16 8 17 9 19 10 20 11 6 12
REMARK SMILES IDX 7 13 8 14 9 15 13 16 11 17 10 18 12 20 4 22 18 24
REMARK H PARENT 10 19 12 21 4 23 18 25
REMARK Flexibility Score: inf
ROOT
ATOM      1  C   UNL     1      -4.613 -13.410  29.127  1.00  0.00     0.180 A 
ATOM      2  C   UNL     1      -3.958 -12.991  27.951  1.00  0.00     0.208 A 
ATOM      3  C   UNL     1      -2.958 -12.010  28.047  1.00  0.00     0.235 A 
ATOM      4  O   UNL     1      -2.350 -11.625  27.011  1.00  0.00    -0.285 OA
ATOM      5  C   UNL     1      -2.652 -11.458  29.302  1.00  0.00     0.069 A 
ATOM      6  C   UNL     1      -3.370 -11.915  30.428  1.00  0.00     0.142 A 
ATOM      7  O   UNL     1      -4.302 -12.852  30.295  1.00  0.00    -0.452 OA
ATOM      8  C   UNL     1      -3.099 -11.384  31.693  1.00  0.00     0.094 A 
ATOM      9  C   UNL     1      -2.118 -10.399  31.851  1.00  0.00     0.119 A 
ATOM     10  C   UNL     1      -1.401  -9.945  30.735  1.00  0.00     0.047 A 
ATOM     11  C   UNL     1      -1.665 -10.469  29.466  1.00  0.00     0.020 A 
ENDROOT
BRANCH   1  12
ATOM     12  C   UNL     1      -5.664 -14.454  29.111  1.00  0.00     0.025 A 
ATOM     13  C   UNL     1      -6.745 -14.331  28.223  1.00  0.00     0.016 A 
ATOM     14  C   UNL     1      -7.759 -15.292  28.204  1.00  0.00     0.051 A 
ATOM     15  C   UNL     1      -7.714 -16.382  29.083  1.00  0.00     0.157 A 
ATOM     16  C   UNL     1      -5.634 -15.539  30.005  1.00  0.00     0.062 A 
ATOM     17  C   UNL     1      -6.652 -16.504  29.988  1.00  0.00     0.158 A 
BRANCH  15  18
ATOM     18  O   UNL     1      -8.722 -17.345  29.066  1.00  0.00    -0.504 OA
ATOM     19  H   UNL     1      -8.726 -18.120  29.718  1.00  0.00     0.293 HD
ENDBRANCH  15  18
BRANCH  17  20
ATOM     20  O   UNL     1      -6.617 -17.581  30.871  1.00  0.00    -0.504 OA
ATOM     21  H   UNL     1      -7.099 -17.553  31.761  1.00  0.00     0.293 HD
ENDBRANCH  17  20
ENDBRANCH   1  12
BRANCH   2  22
ATOM     22  O   UNL     1      -4.319 -13.522  26.711  1.00  0.00    -0.502 OA
ATOM     23  H   UNL     1      -3.634 -13.762  26.004  1.00  0.00     0.293 HD
ENDBRANCH   2  22
BRANCH   9  24
ATOM     24  O   UNL     1      -1.861  -9.881  33.117  1.00  0.00    -0.508 OA
ATOM     25  H   UNL     1      -1.041  -9.317  33.303  1.00  0.00     0.293 HD
ENDBRANCH   9  24
TORSDOF 5
ENDMDL
MODEL 6
REMARK VINA RESULT:    -2.478      1.779      2.525
REMARK INTER + INTRA:          -3.003
REMARK INTER:                  -2.903
REMARK INTRA:                  -0.100
REMARK UNBOUND:                -0.090
REMARK SMILES O=c1c(O)c(-c2ccc(O)c(O)c2)oc2cc(O)ccc12
REMARK SMILES IDX 5 1 3 2 2 3 1 4 21 5 15 6 14 7 16 8 17 9 19 10 20 11 6 12
REMARK SMILES IDX 7 13 8 14 9 15 13 16 11 17 10 18 12 20 4 22 18 24
REMARK H PARENT 10 19 12 21 4 23 18 25
REMARK Flexibility Score: inf
ROOT
ATOM      1  C   UNL     1      -4.034 -11.530  31.670  1.00  0.00     0.180 A 
ATOM      2  C   UNL     1      -4.404 -10.824  30.507  1.00  0.00     0.208 A 
ATOM      3  C   UNL     1      -3.706 -11.072  29.315  1.00  0.00     0.235 A 
ATOM      4  O   UNL     1      -4.025 -10.461  28.258  1.00  0.00    -0.285 OA
ATOM      5  C   UNL     1      -2.648 -11.996  29.314  1.00  0.00     0.069 A 
ATOM      6  C   UNL     1      -2.324 -12.643  30.526  1.00  0.00     0.142 A 
ATOM      7  O   UNL     1      -3.015 -12.387  31.630  1.00  0.00    -0.452 OA
ATOM      8  C   UNL     1      -1.271 -13.562  30.567  1.00  0.00     0.094 A 
ATOM      9  C   UNL     1      -0.535 -13.847  29.412  1.00  0.00     0.119 A 
ATOM     10  C   UNL     1      -0.855 -13.207  28.207  1.00  0.00     0.047 A 
ATOM     11  C   UNL     1      -1.905 -12.285  28.155  1.00  0.00     0.020 A 
ENDROOT
BRANCH   1  12
ATOM     12  C   UNL     1      -4.734 -11.339  32.961  1.00  0.00     0.025 A 
ATOM     13  C   UNL     1      -4.724 -10.074  33.572  1.00  0.00     0.016 A 
ATOM     14  C   UNL     1      -5.360  -9.875  34.800  1.00  0.00     0.051 A 
ATOM     15  C   UNL     1      -6.004 -10.942  35.442  1.00  0.00     0.157 A 
ATOM     16  C   UNL     1      -5.364 -12.411  33.619  1.00  0.00     0.062 A 
ATOM     17  C   UNL     1      -6.002 -12.212  34.853  1.00  0.00     0.158 A 
BRANCH  15  18
ATOM     18  O   UNL     1      -6.642 -10.747  36.665  1.00  0.00    -0.504 OA
ATOM     19  H   UNL     1      -6.539  -9.884  37.186  1.00  0.00     0.293 HD
ENDBRANCH  15  18
BRANCH  17  20
ATOM     20  O   UNL     1      -6.630 -13.274  35.500  1.00  0.00    -0.504 OA
ATOM     21  H   UNL     1      -7.634 -13.295  35.632  1.00  0.00     0.293 HD
ENDBRANCH  17  20
ENDBRANCH   1  12
BRANCH   2  22
ATOM     22  O   UNL     1      -5.429  -9.875  30.550  1.00  0.00    -0.502 OA
ATOM     23  H   UNL     1      -6.135  -9.808  29.828  1.00  0.00     0.293 HD
ENDBRANCH   2  22
BRANCH   9  24
ATOM     24  O   UNL     1       0.510 -14.765  29.472  1.00  0.00    -0.508 OA
ATOM     25  H   UNL     1       0.392 -15.676  29.900  1.00  0.00     0.293 HD
ENDBRANCH   9  24
TORSDOF 5
ENDMDL
MODEL 7
REMARK VINA RESULT:    -2.015      1.939      6.903
REMARK INTER + INTRA:          -2.459
REMARK INTER:                  -2.433
REMARK INTRA:                  -0.026
REMARK UNBOUND:                -0.090
REMARK SMILES O=c1c(O)c(-c2ccc(O)c(O)c2)oc2cc(O)ccc12
REMARK SMILES IDX 5 1 3 2 2 3 1 4 21 5 15 6 14 7 16 8 17 9 19 10 20 11 6 12
REMARK SMILES IDX 7 13 8 14 9 15 13 16 11 17 10 18 12 20 4 22 18 24
REMARK H PARENT 10 19 12 21 4 23 18 25
REMARK Flexibility Score: inf
ROOT
ATOM      1  C   UNL     1      -4.371 -12.720  31.329  1.00  0.00     0.180 A 
ATOM      2  C   UNL     1      -4.711 -14.043  31.678  1.00  0.00     0.208 A 
ATOM      3  C   UNL     1      -5.329 -14.277  32.917  1.00  0.00     0.235 A 
ATOM      4  O   UNL     1      -5.652 -15.452  33.248  1.00  0.00    -0.285 OA
ATOM      5  C   UNL     1      -5.573 -13.198  33.782  1.00  0.00     0.069 A 
ATOM      6  C   UNL     1      -5.181 -11.907  33.368  1.00  0.00     0.142 A 
ATOM      7  O   UNL     1      -4.607 -11.726  32.184  1.00  0.00    -0.452 OA
ATOM      8  C   UNL     1      -5.398 -10.808  34.206  1.00  0.00     0.094 A 
ATOM      9  C   UNL     1      -6.005 -10.981  35.455  1.00  0.00     0.119 A 
ATOM     10  C   UNL     1      -6.397 -12.261  35.868  1.00  0.00     0.047 A 
ATOM     11  C   UNL     1      -6.183 -13.367  35.039  1.00  0.00     0.020 A 
ENDROOT
BRANCH   1  12
ATOM     12  C   UNL     1      -3.736 -12.388  30.033  1.00  0.00     0.025 A 
ATOM     13  C   UNL     1      -4.347 -11.451  29.185  1.00  0.00     0.016 A 
ATOM     14  C   UNL     1      -3.777 -11.137  27.948  1.00  0.00     0.051 A 
ATOM     15  C   UNL     1      -2.595 -11.767  27.536  1.00  0.00     0.157 A 
ATOM     16  C   UNL     1      -2.561 -13.032  29.607  1.00  0.00     0.062 A 
ATOM     17  C   UNL     1      -1.989 -12.719  28.364  1.00  0.00     0.158 A 
BRANCH  15  18
ATOM     18  O   UNL     1      -2.021 -11.455  26.305  1.00  0.00    -0.504 OA
ATOM     19  H   UNL     1      -2.171 -10.556  25.863  1.00  0.00     0.293 HD
ENDBRANCH  15  18
BRANCH  17  20
ATOM     20  O   UNL     1      -0.821 -13.355  27.946  1.00  0.00    -0.504 OA
ATOM     21  H   UNL     1      -0.039 -12.833  27.570  1.00  0.00     0.293 HD
ENDBRANCH  17  20
ENDBRANCH   1  12
BRANCH   2  22
ATOM     22  O   UNL     1      -4.412 -15.102  30.818  1.00  0.00    -0.502 OA
ATOM     23  H   UNL     1      -4.920 -15.260  29.957  1.00  0.00     0.293 HD
ENDBRANCH   2  22
BRANCH   9  24
ATOM     24  O   UNL     1      -6.214  -9.876  36.276  1.00  0.00    -0.508 OA
ATOM     25  H   UNL     1      -6.119  -9.939  37.283  1.00  0.00     0.293 HD
ENDBRANCH   9  24
TORSDOF 5
ENDMDL
MODEL 8
REMARK VINA RESULT:    -1.201      3.166      4.970
REMARK INTER + INTRA:          -1.502
REMARK INTER:                  -1.895
REMARK INTRA:                   0.394
REMARK UNBOUND:                -0.090
REMARK SMILES O=c1c(O)c(-c2ccc(O)c(O)c2)oc2cc(O)ccc12
REMARK SMILES IDX 5 1 3 2 2 3 1 4 21 5 15 6 14 7 16 8 17 9 19 10 20 11 6 12
REMARK SMILES IDX 7 13 8 14 9 15 13 16 11 17 10 18 12 20 4 22 18 24
REMARK H PARENT 10 19 12 21 4 23 18 25
REMARK Flexibility Score: inf
ROOT
ATOM      1  C   UNL     1      -4.725 -13.575  29.926  1.00  0.00     0.180 A 
ATOM      2  C   UNL     1      -4.373 -12.684  30.961  1.00  0.00     0.208 A 
ATOM      3  C   UNL     1      -3.693 -11.501  30.632  1.00  0.00     0.235 A 
ATOM      4  O   UNL     1      -3.376 -10.683  31.539  1.00  0.00    -0.285 OA
ATOM      5  C   UNL     1      -3.363 -11.245  29.291  1.00  0.00     0.069 A 
ATOM      6  C   UNL     1      -3.730 -12.198  28.318  1.00  0.00     0.142 A 
ATOM      7  O   UNL     1      -4.380 -13.301  28.669  1.00  0.00    -0.452 OA
ATOM      8  C   UNL     1      -3.411 -11.983  26.973  1.00  0.00     0.094 A 
ATOM      9  C   UNL     1      -2.729 -10.825  26.585  1.00  0.00     0.119 A 
ATOM     10  C   UNL     1      -2.365  -9.875  27.549  1.00  0.00     0.047 A 
ATOM     11  C   UNL     1      -2.678 -10.081  28.896  1.00  0.00     0.020 A 
ENDROOT
BRANCH   1  12
ATOM     12  C   UNL     1      -5.460 -14.833  30.189  1.00  0.00     0.025 A 
ATOM     13  C   UNL     1      -5.366 -15.436  31.454  1.00  0.00     0.016 A 
ATOM     14  C   UNL     1      -6.034 -16.634  31.720  1.00  0.00     0.051 A 
ATOM     15  C   UNL     1      -6.794 -17.255  30.719  1.00  0.00     0.157 A 
ATOM     16  C   UNL     1      -6.207 -15.471  29.182  1.00  0.00     0.062 A 
ATOM     17  C   UNL     1      -6.876 -16.675  29.447  1.00  0.00     0.158 A 
BRANCH  15  18
ATOM     18  O   UNL     1      -7.464 -18.449  30.980  1.00  0.00    -0.504 OA
ATOM     19  H   UNL     1      -7.200 -19.046  31.754  1.00  0.00     0.293 HD
ENDBRANCH  15  18
BRANCH  17  20
ATOM     20  O   UNL     1      -7.620 -17.302  28.449  1.00  0.00    -0.504 OA
ATOM     21  H   UNL     1      -7.749 -18.306  28.435  1.00  0.00     0.293 HD
ENDBRANCH  17  20
ENDBRANCH   1  12
BRANCH   2  22
ATOM     22  O   UNL     1      -4.671 -12.990  32.291  1.00  0.00    -0.502 OA
ATOM     23  H   UNL     1      -5.605 -12.899  32.671  1.00  0.00     0.293 HD
ENDBRANCH   2  22
BRANCH   9  24
ATOM     24  O   UNL     1      -2.419 -10.627  25.242  1.00  0.00    -0.508 OA
ATOM     25  H   UNL     1      -1.459 -10.570  24.922  1.00  0.00     0.293 HD
ENDBRANCH   9  24
TORSDOF 5
ENDMDL
MODEL 9
REMARK VINA RESULT:    -1.162      1.517      3.377
REMARK INTER + INTRA:          -1.456
REMARK INTER:                  -1.310
REMARK INTRA:                  -0.146
REMARK UNBOUND:                -0.090
REMARK SMILES O=c1c(O)c(-c2ccc(O)c(O)c2)oc2cc(O)ccc12
REMARK SMILES IDX 5 1 3 2 2 3 1 4 21 5 15 6 14 7 16 8 17 9 19 10 20 11 6 12
REMARK SMILES IDX 7 13 8 14 9 15 13 16 11 17 10 18 12 20 4 22 18 24
REMARK H PARENT 10 19 12 21 4 23 18 25
REMARK Flexibility Score: inf
ROOT
ATOM      1  C   UNL     1      -4.138 -13.187  31.497  1.00  0.00     0.180 A 
ATOM      2  C   UNL     1      -4.824 -13.752  30.402  1.00  0.00     0.208 A 
ATOM      3  C   UNL     1      -4.106 -14.041  29.230  1.00  0.00     0.235 A 
ATOM      4  O   UNL     1      -4.695 -14.557  28.241  1.00  0.00    -0.285 OA
ATOM      5  C   UNL     1      -2.735 -13.743  29.170  1.00  0.00     0.069 A 
ATOM      6  C   UNL     1      -2.127 -13.156  30.301  1.00  0.00     0.142 A 
ATOM      7  O   UNL     1      -2.840 -12.907  31.393  1.00  0.00    -0.452 OA
ATOM      8  C   UNL     1      -0.766 -12.836  30.276  1.00  0.00     0.094 A 
ATOM      9  C   UNL     1       0.000 -13.096  29.135  1.00  0.00     0.119 A 
ATOM     10  C   UNL     1      -0.599 -13.680  28.011  1.00  0.00     0.047 A 
ATOM     11  C   UNL     1      -1.960 -14.003  28.025  1.00  0.00     0.020 A 
ENDROOT
BRANCH   1  12
ATOM     12  C   UNL     1      -4.820 -12.872  32.773  1.00  0.00     0.025 A 
ATOM     13  C   UNL     1      -5.378 -13.913  33.532  1.00  0.00     0.016 A 
ATOM     14  C   UNL     1      -6.044 -13.638  34.730  1.00  0.00     0.051 A 
ATOM     15  C   UNL     1      -6.174 -12.316  35.177  1.00  0.00     0.157 A 
ATOM     16  C   UNL     1      -4.970 -11.546  33.216  1.00  0.00     0.062 A 
ATOM     17  C   UNL     1      -5.641 -11.269  34.417  1.00  0.00     0.158 A 
BRANCH  15  18
ATOM     18  O   UNL     1      -6.835 -12.038  36.372  1.00  0.00    -0.504 OA
ATOM     19  H   UNL     1      -7.837 -12.154  36.463  1.00  0.00     0.293 HD
ENDBRANCH  15  18
BRANCH  17  20
ATOM     20  O   UNL     1      -5.784  -9.954  34.857  1.00  0.00    -0.504 OA
ATOM     21  H   UNL     1      -6.686  -9.578  35.119  1.00  0.00     0.293 HD
ENDBRANCH  17  20
ENDBRANCH   1  12
BRANCH   2  22
ATOM     22  O   UNL     1      -6.198 -13.992  30.474  1.00  0.00    -0.502 OA
ATOM     23  H   UNL     1      -6.809 -13.460  31.081  1.00  0.00     0.293 HD
ENDBRANCH   2  22
BRANCH   9  24
ATOM     24  O   UNL     1       1.354 -12.771  29.127  1.00  0.00    -0.508 OA
ATOM     25  H   UNL     1       2.059 -13.427  29.444  1.00  0.00     0.293 HD
ENDBRANCH   9  24
TORSDOF 5
ENDMDL
