MODEL 1
REMARK VINA RESULT:    11.569      0.000      0.000
REMARK INTER + INTRA:          16.639
REMARK INTER:                  16.979
REMARK INTRA:                  -0.341
REMARK UNBOUND:                -0.341
REMARK SMILES O=C([O-])CCCCCCCC(=O)[O-]
REMARK SMILES IDX 7 1 6 2 5 3 4 4 2 5 1 6 3 7 8 8 9 9 10 10 11 11 12 12 13 13
REMARK H PARENT
REMARK Flexibility Score: inf
ROOT
ATOM      1  C   UNL     1     -13.409  -7.833 -22.255  1.00  0.00     0.000 C 
ENDROOT
BRANCH   1   2
ATOM      2  C   UNL     1     -12.306  -8.878 -22.036  1.00  0.00     0.000 C 
BRANCH   2   3
ATOM      3  C   UNL     1     -11.969  -9.097 -20.549  1.00  0.00     0.006 C 
BRANCH   3   4
ATOM      4  C   UNL     1     -12.438  -7.955 -19.628  1.00  0.00     0.053 C 
BRANCH   4   5
ATOM      5  C   UNL     1     -13.028  -8.450 -18.344  1.00  0.00     0.041 C 
ATOM      6  O   UNL     1     -12.678  -9.563 -17.869  1.00  0.00    -0.550 OA
ATOM      7  O   UNL     1     -13.947  -7.670 -17.654  1.00  0.00    -0.550 OA
ENDBRANCH   4   5
ENDBRANCH   3   4
ENDBRANCH   2   3
ENDBRANCH   1   2
BRANCH   1   8
ATOM      8  C   UNL     1     -14.486  -8.363 -23.214  1.00  0.00     0.000 C 
BRANCH   8   9
ATOM      9  C   UNL     1     -15.440  -7.259 -23.708  1.00  0.00     0.006 C 
BRANCH   9  10
ATOM     10  C   UNL     1     -15.119  -6.725 -25.114  1.00  0.00     0.053 C 
BRANCH  10  11
ATOM     11  C   UNL     1     -14.545  -5.342 -25.071  1.00  0.00     0.041 C 
ATOM     12  O   UNL     1     -15.307  -4.340 -25.033  1.00  0.00    -0.550 OA
ATOM     13  O   UNL     1     -13.168  -5.162 -25.038  1.00  0.00    -0.550 OA
ENDBRANCH  10  11
ENDBRANCH   9  10
ENDBRANCH   8   9
ENDBRANCH   1   8
TORSDOF 8
ENDMDL
MODEL 2
REMARK VINA RESULT:    11.579     14.507     15.633
REMARK INTER + INTRA:          16.653
REMARK INTER:                  16.840
REMARK INTRA:                  -0.186
REMARK UNBOUND:                -0.341
REMARK SMILES O=C([O-])CCCCCCCC(=O)[O-]
REMARK SMILES IDX 7 1 6 2 5 3 4 4 2 5 1 6 3 7 8 8 9 9 10 10 11 11 12 12 13 13
REMARK H PARENT
REMARK Flexibility Score: inf
ROOT
ATOM      1  C   UNL     1     -24.808  -4.240 -13.126  1.00  0.00     0.000 C 
ENDROOT
BRANCH   1   2
ATOM      2  C   UNL     1     -25.512  -3.584 -11.930  1.00  0.00     0.000 C 
BRANCH   2   3
ATOM      3  C   UNL     1     -26.925  -4.143 -11.679  1.00  0.00     0.006 C 
BRANCH   3   4
ATOM      4  C   UNL     1     -27.831  -3.205 -10.862  1.00  0.00     0.053 C 
BRANCH   4   5
ATOM      5  C   UNL     1     -29.282  -3.559 -10.971  1.00  0.00     0.041 C 
ATOM      6  O   UNL     1     -30.040  -2.913 -11.742  1.00  0.00    -0.550 OA
ATOM      7  O   UNL     1     -29.795  -4.624 -10.240  1.00  0.00    -0.550 OA
ENDBRANCH   4   5
ENDBRANCH   3   4
ENDBRANCH   2   3
ENDBRANCH   1   2
BRANCH   1   8
ATOM      8  C   UNL     1     -24.820  -3.310 -14.349  1.00  0.00     0.000 C 
BRANCH   8   9
ATOM      9  C   UNL     1     -24.956  -4.076 -15.678  1.00  0.00     0.006 C 
BRANCH   9  10
ATOM     10  C   UNL     1     -24.560  -3.265 -16.923  1.00  0.00     0.053 C 
BRANCH  10  11
ATOM     11  C   UNL     1     -23.571  -3.995 -17.778  1.00  0.00     0.041 C 
ATOM     12  O   UNL     1     -22.471  -3.459 -18.076  1.00  0.00    -0.550 OA
ATOM     13  O   UNL     1     -23.851  -5.283 -18.219  1.00  0.00    -0.550 OA
ENDBRANCH  10  11
ENDBRANCH   9  10
ENDBRANCH   8   9
ENDBRANCH   1   8
TORSDOF 8
ENDMDL
MODEL 3
REMARK VINA RESULT:    11.609     14.443     16.281
REMARK INTER + INTRA:          16.698
REMARK INTER:                  16.910
REMARK INTRA:                  -0.211
REMARK UNBOUND:                -0.341
REMARK SMILES O=C([O-])CCCCCCCC(=O)[O-]
REMARK SMILES IDX 7 1 6 2 5 3 4 4 2 5 1 6 3 7 8 8 9 9 10 10 11 11 12 12 13 13
REMARK H PARENT
REMARK Flexibility Score: inf
ROOT
ATOM      1  C   UNL     1     -25.116  -4.197 -13.649  1.00  0.00     0.000 C 
ENDROOT
BRANCH   1   2
ATOM      2  C   UNL     1     -24.744  -2.922 -14.418  1.00  0.00     0.000 C 
BRANCH   2   3
ATOM      3  C   UNL     1     -24.773  -3.109 -15.947  1.00  0.00     0.006 C 
BRANCH   3   4
ATOM      4  C   UNL     1     -24.270  -4.487 -16.416  1.00  0.00     0.053 C 
BRANCH   4   5
ATOM      5  C   UNL     1     -23.598  -4.434 -17.753  1.00  0.00     0.041 C 
ATOM      6  O   UNL     1     -22.762  -3.528 -18.011  1.00  0.00    -0.550 OA
ATOM      7  O   UNL     1     -23.875  -5.403 -18.710  1.00  0.00    -0.550 OA
ENDBRANCH   4   5
ENDBRANCH   3   4
ENDBRANCH   2   3
ENDBRANCH   1   2
BRANCH   1   8
ATOM      8  C   UNL     1     -25.501  -3.871 -12.198  1.00  0.00     0.000 C 
BRANCH   8   9
ATOM      9  C   UNL     1     -26.934  -4.315 -11.847  1.00  0.00     0.006 C 
BRANCH   9  10
ATOM     10  C   UNL     1     -27.695  -3.345 -10.930  1.00  0.00     0.053 C 
BRANCH  10  11
ATOM     11  C   UNL     1     -29.173  -3.581 -10.966  1.00  0.00     0.041 C 
ATOM     12  O   UNL     1     -29.908  -2.889 -11.720  1.00  0.00    -0.550 OA
ATOM     13  O   UNL     1     -29.736  -4.587 -10.191  1.00  0.00    -0.550 OA
ENDBRANCH  10  11
ENDBRANCH   9  10
ENDBRANCH   8   9
ENDBRANCH   1   8
TORSDOF 8
ENDMDL
MODEL 4
REMARK VINA RESULT:    12.218      0.650      6.442
REMARK INTER + INTRA:          17.591
REMARK INTER:                  17.867
REMARK INTRA:                  -0.276
REMARK UNBOUND:                -0.341
REMARK SMILES O=C([O-])CCCCCCCC(=O)[O-]
REMARK SMILES IDX 7 1 6 2 5 3 4 4 2 5 1 6 3 7 8 8 9 9 10 10 11 11 12 12 13 13
REMARK H PARENT
REMARK Flexibility Score: inf
ROOT
ATOM      1  C   UNL     1     -13.877  -8.511 -22.958  1.00  0.00     0.000 C 
ENDROOT
BRANCH   1   2
ATOM      2  C   UNL     1     -15.346  -8.181 -23.257  1.00  0.00     0.000 C 
BRANCH   2   3
ATOM      3  C   UNL     1     -15.513  -7.020 -24.255  1.00  0.00     0.006 C 
BRANCH   3   4
ATOM      4  C   UNL     1     -14.215  -6.641 -24.993  1.00  0.00     0.053 C 
BRANCH   4   5
ATOM      5  C   UNL     1     -13.979  -5.163 -25.028  1.00  0.00     0.041 C 
ATOM      6  O   UNL     1     -14.948  -4.364 -25.125  1.00  0.00    -0.550 OA
ATOM      7  O   UNL     1     -12.687  -4.662 -24.927  1.00  0.00    -0.550 OA
ENDBRANCH   4   5
ENDBRANCH   3   4
ENDBRANCH   2   3
ENDBRANCH   1   2
BRANCH   1   8
ATOM      8  C   UNL     1     -13.388  -7.760 -21.710  1.00  0.00     0.000 C 
BRANCH   8   9
ATOM      9  C   UNL     1     -12.456  -8.612 -20.829  1.00  0.00     0.006 C 
BRANCH   9  10
ATOM     10  C   UNL     1     -12.142  -7.998 -19.455  1.00  0.00     0.053 C 
BRANCH  10  11
ATOM     11  C   UNL     1     -13.066  -8.503 -18.390  1.00  0.00     0.041 C 
ATOM     12  O   UNL     1     -14.114  -7.865 -18.105  1.00  0.00    -0.550 OA
ATOM     13  O   UNL     1     -12.786  -9.695 -17.734  1.00  0.00    -0.550 OA
ENDBRANCH  10  11
ENDBRANCH   9  10
ENDBRANCH   8   9
ENDBRANCH   1   8
TORSDOF 8
ENDMDL
MODEL 5
REMARK VINA RESULT:    13.678      8.433      9.943
REMARK INTER + INTRA:          19.734
REMARK INTER:                  19.005
REMARK INTRA:                   0.729
REMARK UNBOUND:                -0.341
REMARK SMILES O=C([O-])CCCCCCCC(=O)[O-]
REMARK SMILES IDX 7 1 6 2 5 3 4 4 2 5 1 6 3 7 8 8 9 9 10 10 11 11 12 12 13 13
REMARK H PARENT
REMARK Flexibility Score: inf
ROOT
ATOM      1  C   UNL     1     -20.286 -12.498 -25.065  1.00  0.00     0.000 C 
ENDROOT
BRANCH   1   2
ATOM      2  C   UNL     1     -21.203 -13.148 -24.020  1.00  0.00     0.000 C 
BRANCH   2   3
ATOM      3  C   UNL     1     -21.928 -14.400 -24.548  1.00  0.00     0.006 C 
BRANCH   3   4
ATOM      4  C   UNL     1     -22.825 -15.089 -23.503  1.00  0.00     0.053 C 
BRANCH   4   5
ATOM      5  C   UNL     1     -22.380 -14.833 -22.097  1.00  0.00     0.041 C 
ATOM      6  O   UNL     1     -22.345 -15.772 -21.258  1.00  0.00    -0.550 OA
ATOM      7  O   UNL     1     -21.977 -13.559 -21.716  1.00  0.00    -0.550 OA
ENDBRANCH   4   5
ENDBRANCH   3   4
ENDBRANCH   2   3
ENDBRANCH   1   2
BRANCH   1   8
ATOM      8  C   UNL     1     -18.927 -13.212 -25.125  1.00  0.00     0.000 C 
BRANCH   8   9
ATOM      9  C   UNL     1     -18.254 -13.328 -23.745  1.00  0.00     0.006 C 
BRANCH   9  10
ATOM     10  C   UNL     1     -16.783 -13.774 -23.790  1.00  0.00     0.053 C 
BRANCH  10  11
ATOM     11  C   UNL     1     -16.044 -13.396 -22.543  1.00  0.00     0.041 C 
ATOM     12  O   UNL     1     -16.269 -14.004 -21.463  1.00  0.00    -0.550 OA
ATOM     13  O   UNL     1     -15.083 -12.394 -22.582  1.00  0.00    -0.550 OA
ENDBRANCH  10  11
ENDBRANCH   9  10
ENDBRANCH   8   9
ENDBRANCH   1   8
TORSDOF 8
ENDMDL
MODEL 6
REMARK VINA RESULT:    14.014      8.477      9.807
REMARK INTER + INTRA:          20.228
REMARK INTER:                  20.433
REMARK INTRA:                  -0.205
REMARK UNBOUND:                -0.341
REMARK SMILES O=C([O-])CCCCCCCC(=O)[O-]
REMARK SMILES IDX 7 1 6 2 5 3 4 4 2 5 1 6 3 7 8 8 9 9 10 10 11 11 12 12 13 13
REMARK H PARENT
REMARK Flexibility Score: inf
ROOT
ATOM      1  C   UNL     1     -20.626 -12.943 -25.040  1.00  0.00     0.000 C 
ENDROOT
BRANCH   1   2
ATOM      2  C   UNL     1     -19.092 -12.901 -25.099  1.00  0.00     0.000 C 
BRANCH   2   3
ATOM      3  C   UNL     1     -18.428 -13.123 -23.728  1.00  0.00     0.006 C 
BRANCH   3   4
ATOM      4  C   UNL     1     -17.001 -13.694 -23.810  1.00  0.00     0.053 C 
BRANCH   4   5
ATOM      5  C   UNL     1     -16.189 -13.407 -22.586  1.00  0.00     0.041 C 
ATOM      6  O   UNL     1     -15.352 -12.465 -22.583  1.00  0.00    -0.550 OA
ATOM      7  O   UNL     1     -16.374 -14.162 -21.434  1.00  0.00    -0.550 OA
ENDBRANCH   4   5
ENDBRANCH   3   4
ENDBRANCH   2   3
ENDBRANCH   1   2
BRANCH   1   8
ATOM      8  C   UNL     1     -21.130 -14.384 -24.863  1.00  0.00     0.000 C 
BRANCH   8   9
ATOM      9  C   UNL     1     -22.608 -14.450 -24.436  1.00  0.00     0.006 C 
BRANCH   9  10
ATOM     10  C   UNL     1     -22.855 -15.182 -23.108  1.00  0.00     0.053 C 
BRANCH  10  11
ATOM     11  C   UNL     1     -22.173 -14.505 -21.959  1.00  0.00     0.041 C 
ATOM     12  O   UNL     1     -21.975 -13.261 -21.981  1.00  0.00    -0.550 OA
ATOM     13  O   UNL     1     -21.784 -15.244 -20.849  1.00  0.00    -0.550 OA
ENDBRANCH  10  11
ENDBRANCH   9  10
ENDBRANCH   8   9
ENDBRANCH   1   8
TORSDOF 8
ENDMDL
MODEL 7
REMARK VINA RESULT:    14.507      3.759      5.771
REMARK INTER + INTRA:          20.952
REMARK INTER:                  20.774
REMARK INTRA:                   0.177
REMARK UNBOUND:                -0.341
REMARK SMILES O=C([O-])CCCCCCCC(=O)[O-]
REMARK SMILES IDX 7 1 6 2 5 3 4 4 2 5 1 6 3 7 8 8 9 9 10 10 11 11 12 12 13 13
REMARK H PARENT
REMARK Flexibility Score: inf
ROOT
ATOM      1  C   UNL     1     -14.410  -9.181 -23.547  1.00  0.00     0.000 C 
ENDROOT
BRANCH   1   2
ATOM      2  C   UNL     1     -13.666 -10.524 -23.533  1.00  0.00     0.000 C 
BRANCH   2   3
ATOM      3  C   UNL     1     -14.606 -11.736 -23.671  1.00  0.00     0.006 C 
BRANCH   3   4
ATOM      4  C   UNL     1     -15.153 -12.257 -22.329  1.00  0.00     0.053 C 
BRANCH   4   5
ATOM      5  C   UNL     1     -16.127 -13.382 -22.497  1.00  0.00     0.041 C 
ATOM      6  O   UNL     1     -16.596 -13.654 -23.633  1.00  0.00    -0.550 OA
ATOM      7  O   UNL     1     -16.497 -14.151 -21.401  1.00  0.00    -0.550 OA
ENDBRANCH   4   5
ENDBRANCH   3   4
ENDBRANCH   2   3
ENDBRANCH   1   2
BRANCH   1   8
ATOM      8  C   UNL     1     -13.837  -8.224 -22.491  1.00  0.00     0.000 C 
BRANCH   8   9
ATOM      9  C   UNL     1     -12.372  -8.539 -22.134  1.00  0.00     0.006 C 
BRANCH   9  10
ATOM     10  C   UNL     1     -12.176  -9.163 -20.743  1.00  0.00     0.053 C 
BRANCH  10  11
ATOM     11  C   UNL     1     -12.711  -8.286 -19.653  1.00  0.00     0.041 C 
ATOM     12  O   UNL     1     -13.211  -7.163 -19.931  1.00  0.00    -0.550 OA
ATOM     13  O   UNL     1     -12.689  -8.722 -18.335  1.00  0.00    -0.550 OA
ENDBRANCH  10  11
ENDBRANCH   9  10
ENDBRANCH   8   9
ENDBRANCH   1   8
TORSDOF 8
ENDMDL
