MODEL 1
REMARK VINA RESULT:    -3.630      0.000      0.000
REMARK INTER + INTRA:          -4.446
REMARK INTER:                  -4.267
REMARK INTRA:                  -0.180
REMARK UNBOUND:                -0.180
REMARK SMILES O=C([O-])CCC(=O)[O-]
REMARK SMILES IDX 4 1 2 2 1 3 3 4 5 5 6 6 7 7 8 8
REMARK H PARENT
REMARK Flexibility Score: inf
ROOT
ATOM      1  C   UNL     1      11.471  78.592  30.491  1.00  0.00     0.059 C 
ENDROOT
BRANCH   1   2
ATOM      2  C   UNL     1      10.503  78.512  29.349  1.00  0.00     0.042 C 
ATOM      3  O   UNL     1       9.755  79.489  29.083  1.00  0.00    -0.550 OA
ATOM      4  O   UNL     1      10.456  77.372  28.557  1.00  0.00    -0.550 OA
ENDBRANCH   1   2
BRANCH   1   5
ATOM      5  C   UNL     1      11.338  77.387  31.428  1.00  0.00     0.059 C 
BRANCH   5   6
ATOM      6  C   UNL     1       9.961  77.292  32.011  1.00  0.00     0.042 C 
ATOM      7  O   UNL     1       9.527  78.204  32.764  1.00  0.00    -0.550 OA
ATOM      8  O   UNL     1       9.143  76.216  31.690  1.00  0.00    -0.550 OA
ENDBRANCH   5   6
ENDBRANCH   1   5
TORSDOF 3
ENDMDL
MODEL 2
REMARK VINA RESULT:    -3.627      1.396      3.190
REMARK INTER + INTRA:          -4.443
REMARK INTER:                  -4.295
REMARK INTRA:                  -0.148
REMARK UNBOUND:                -0.180
REMARK SMILES O=C([O-])CCC(=O)[O-]
REMARK SMILES IDX 4 1 2 2 1 3 3 4 5 5 6 6 7 7 8 8
REMARK H PARENT
REMARK Flexibility Score: inf
ROOT
ATOM      1  C   UNL     1      10.179  77.313  32.433  1.00  0.00     0.059 C 
ENDROOT
BRANCH   1   2
ATOM      2  C   UNL     1       8.976  76.874  31.655  1.00  0.00     0.042 C 
ATOM      3  O   UNL     1       8.836  75.666  31.332  1.00  0.00    -0.550 OA
ATOM      4  O   UNL     1       7.991  77.794  31.322  1.00  0.00    -0.550 OA
ENDBRANCH   1   2
BRANCH   1   5
ATOM      5  C   UNL     1      11.409  77.467  31.532  1.00  0.00     0.059 C 
BRANCH   5   6
ATOM      6  C   UNL     1      11.307  78.684  30.664  1.00  0.00     0.042 C 
ATOM      7  O   UNL     1      11.344  79.834  31.177  1.00  0.00    -0.550 OA
ATOM      8  O   UNL     1      11.212  78.548  29.284  1.00  0.00    -0.550 OA
ENDBRANCH   5   6
ENDBRANCH   1   5
TORSDOF 3
ENDMDL
MODEL 3
REMARK VINA RESULT:    -3.613      1.376      1.959
REMARK INTER + INTRA:          -4.427
REMARK INTER:                  -4.290
REMARK INTRA:                  -0.137
REMARK UNBOUND:                -0.180
REMARK SMILES O=C([O-])CCC(=O)[O-]
REMARK SMILES IDX 4 1 2 2 1 3 3 4 5 5 6 6 7 7 8 8
REMARK H PARENT
REMARK Flexibility Score: inf
ROOT
ATOM      1  C   UNL     1      11.337  77.373  31.416  1.00  0.00     0.059 C 
ENDROOT
BRANCH   1   2
ATOM      2  C   UNL     1      11.235  78.625  30.596  1.00  0.00     0.042 C 
ATOM      3  O   UNL     1      11.242  79.752  31.156  1.00  0.00    -0.550 OA
ATOM      4  O   UNL     1      11.173  78.544  29.211  1.00  0.00    -0.550 OA
ENDBRANCH   1   2
BRANCH   1   5
ATOM      5  C   UNL     1      10.136  77.214  32.353  1.00  0.00     0.059 C 
BRANCH   5   6
ATOM      6  C   UNL     1       8.916  76.757  31.614  1.00  0.00     0.042 C 
ATOM      7  O   UNL     1       8.751  75.534  31.359  1.00  0.00    -0.550 OA
ATOM      8  O   UNL     1       7.943  77.676  31.242  1.00  0.00    -0.550 OA
ENDBRANCH   5   6
ENDBRANCH   1   5
TORSDOF 3
ENDMDL
MODEL 4
REMARK VINA RESULT:    -3.603     12.532     13.531
REMARK INTER + INTRA:          -4.415
REMARK INTER:                  -4.234
REMARK INTRA:                  -0.181
REMARK UNBOUND:                -0.180
REMARK SMILES O=C([O-])CCC(=O)[O-]
REMARK SMILES IDX 4 1 2 2 1 3 3 4 5 5 6 6 7 7 8 8
REMARK H PARENT
REMARK Flexibility Score: inf
ROOT
ATOM      1  C   UNL     1      18.059  66.512  34.326  1.00  0.00     0.059 C 
ENDROOT
BRANCH   1   2
ATOM      2  C   UNL     1      19.436  67.017  34.016  1.00  0.00     0.042 C 
ATOM      3  O   UNL     1      20.291  67.131  34.932  1.00  0.00    -0.550 OA
ATOM      4  O   UNL     1      19.784  67.324  32.706  1.00  0.00    -0.550 OA
ENDBRANCH   1   2
BRANCH   1   5
ATOM      5  C   UNL     1      17.277  67.505  35.193  1.00  0.00     0.059 C 
BRANCH   5   6
ATOM      6  C   UNL     1      17.071  68.810  34.488  1.00  0.00     0.042 C 
ATOM      7  O   UNL     1      17.404  69.890  35.044  1.00  0.00    -0.550 OA
ATOM      8  O   UNL     1      16.549  68.830  33.200  1.00  0.00    -0.550 OA
ENDBRANCH   5   6
ENDBRANCH   1   5
TORSDOF 3
ENDMDL
MODEL 5
REMARK VINA RESULT:    -3.585     12.547     13.586
REMARK INTER + INTRA:          -4.393
REMARK INTER:                  -4.217
REMARK INTRA:                  -0.176
REMARK UNBOUND:                -0.180
REMARK SMILES O=C([O-])CCC(=O)[O-]
REMARK SMILES IDX 4 1 2 2 1 3 3 4 5 5 6 6 7 7 8 8
REMARK H PARENT
REMARK Flexibility Score: inf
ROOT
ATOM      1  C   UNL     1      17.266  67.351  35.044  1.00  0.00     0.059 C 
ENDROOT
BRANCH   1   2
ATOM      2  C   UNL     1      17.078  68.716  34.453  1.00  0.00     0.042 C 
ATOM      3  O   UNL     1      17.401  69.741  35.108  1.00  0.00    -0.550 OA
ATOM      4  O   UNL     1      16.581  68.851  33.163  1.00  0.00    -0.550 OA
ENDBRANCH   1   2
BRANCH   1   5
ATOM      5  C   UNL     1      18.093  66.448  34.123  1.00  0.00     0.059 C 
BRANCH   5   6
ATOM      6  C   UNL     1      19.445  67.030  33.847  1.00  0.00     0.042 C 
ATOM      7  O   UNL     1      19.780  67.328  32.670  1.00  0.00    -0.550 OA
ATOM      8  O   UNL     1      20.321  67.280  34.897  1.00  0.00    -0.550 OA
ENDBRANCH   5   6
ENDBRANCH   1   5
TORSDOF 3
ENDMDL
MODEL 6
REMARK VINA RESULT:    -3.584     16.036     16.797
REMARK INTER + INTRA:          -4.392
REMARK INTER:                  -4.273
REMARK INTRA:                  -0.119
REMARK UNBOUND:                -0.180
REMARK SMILES O=C([O-])CCC(=O)[O-]
REMARK SMILES IDX 4 1 2 2 1 3 3 4 5 5 6 6 7 7 8 8
REMARK H PARENT
REMARK Flexibility Score: inf
ROOT
ATOM      1  C   UNL     1      19.740  78.690  18.465  1.00  0.00     0.059 C 
ENDROOT
BRANCH   1   2
ATOM      2  C   UNL     1      20.333  79.840  17.707  1.00  0.00     0.042 C 
ATOM      3  O   UNL     1      20.269  79.873  16.451  1.00  0.00    -0.550 OA
ATOM      4  O   UNL     1      20.922  80.894  18.395  1.00  0.00    -0.550 OA
ENDBRANCH   1   2
BRANCH   1   5
ATOM      5  C   UNL     1      19.855  77.379  17.680  1.00  0.00     0.059 C 
BRANCH   5   6
ATOM      6  C   UNL     1      21.200  76.745  17.858  1.00  0.00     0.042 C 
ATOM      7  O   UNL     1      21.791  76.224  16.875  1.00  0.00    -0.550 OA
ATOM      8  O   UNL     1      21.818  76.765  19.102  1.00  0.00    -0.550 OA
ENDBRANCH   5   6
ENDBRANCH   1   5
TORSDOF 3
ENDMDL
MODEL 7
REMARK VINA RESULT:    -3.568     15.963     16.841
REMARK INTER + INTRA:          -4.373
REMARK INTER:                  -4.241
REMARK INTRA:                  -0.132
REMARK UNBOUND:                -0.180
REMARK SMILES O=C([O-])CCC(=O)[O-]
REMARK SMILES IDX 4 1 2 2 1 3 3 4 5 5 6 6 7 7 8 8
REMARK H PARENT
REMARK Flexibility Score: inf
ROOT
ATOM      1  C   UNL     1      19.775  77.387  17.882  1.00  0.00     0.059 C 
ENDROOT
BRANCH   1   2
ATOM      2  C   UNL     1      21.159  76.817  17.975  1.00  0.00     0.042 C 
ATOM      3  O   UNL     1      21.745  76.404  16.940  1.00  0.00    -0.550 OA
ATOM      4  O   UNL     1      21.813  76.778  19.199  1.00  0.00    -0.550 OA
ENDBRANCH   1   2
BRANCH   1   5
ATOM      5  C   UNL     1      19.683  78.755  18.565  1.00  0.00     0.059 C 
BRANCH   5   6
ATOM      6  C   UNL     1      20.308  79.831  17.731  1.00  0.00     0.042 C 
ATOM      7  O   UNL     1      20.204  79.802  16.476  1.00  0.00    -0.550 OA
ATOM      8  O   UNL     1      20.971  80.888  18.343  1.00  0.00    -0.550 OA
ENDBRANCH   5   6
ENDBRANCH   1   5
TORSDOF 3
ENDMDL
MODEL 8
REMARK VINA RESULT:    -3.528     12.004     12.995
REMARK INTER + INTRA:          -4.326
REMARK INTER:                  -4.144
REMARK INTRA:                  -0.182
REMARK UNBOUND:                -0.180
REMARK SMILES O=C([O-])CCC(=O)[O-]
REMARK SMILES IDX 4 1 2 2 1 3 3 4 5 5 6 6 7 7 8 8
REMARK H PARENT
REMARK Flexibility Score: inf
ROOT
ATOM      1  C   UNL     1      20.015  69.456  33.514  1.00  0.00     0.059 C 
ENDROOT
BRANCH   1   2
ATOM      2  C   UNL     1      19.839  67.967  33.528  1.00  0.00     0.042 C 
ATOM      3  O   UNL     1      19.433  67.367  32.499  1.00  0.00    -0.550 OA
ATOM      4  O   UNL     1      20.163  67.240  34.667  1.00  0.00    -0.550 OA
ENDBRANCH   1   2
BRANCH   1   5
ATOM      5  C   UNL     1      19.108  70.140  34.541  1.00  0.00     0.059 C 
BRANCH   5   6
ATOM      6  C   UNL     1      17.659  69.897  34.246  1.00  0.00     0.042 C 
ATOM      7  O   UNL     1      17.131  70.392  33.215  1.00  0.00    -0.550 OA
ATOM      8  O   UNL     1      16.903  69.093  35.090  1.00  0.00    -0.550 OA
ENDBRANCH   5   6
ENDBRANCH   1   5
TORSDOF 3
ENDMDL
MODEL 9
REMARK VINA RESULT:    -3.474      1.415      3.471
REMARK INTER + INTRA:          -4.263
REMARK INTER:                  -4.145
REMARK INTRA:                  -0.119
REMARK UNBOUND:                -0.180
REMARK SMILES O=C([O-])CCC(=O)[O-]
REMARK SMILES IDX 4 1 2 2 1 3 3 4 5 5 6 6 7 7 8 8
REMARK H PARENT
REMARK Flexibility Score: inf
ROOT
ATOM      1  C   UNL     1      11.512  77.492  31.477  1.00  0.00     0.059 C 
ENDROOT
BRANCH   1   2
ATOM      2  C   UNL     1      10.948  78.320  32.592  1.00  0.00     0.042 C 
ATOM      3  O   UNL     1      10.931  79.575  32.505  1.00  0.00    -0.550 OA
ATOM      4  O   UNL     1      10.407  77.700  33.711  1.00  0.00    -0.550 OA
ENDBRANCH   1   2
BRANCH   1   5
ATOM      5  C   UNL     1      10.403  76.857  30.630  1.00  0.00     0.059 C 
BRANCH   5   6
ATOM      6  C   UNL     1      10.178  77.615  29.358  1.00  0.00     0.042 C 
ATOM      7  O   UNL     1      10.597  77.155  28.263  1.00  0.00    -0.550 OA
ATOM      8  O   UNL     1       9.471  78.811  29.377  1.00  0.00    -0.550 OA
ENDBRANCH   5   6
ENDBRANCH   1   5
TORSDOF 3
ENDMDL
