MODEL 1
REMARK VINA RESULT:    -4.693      0.000      0.000
REMARK INTER + INTRA:         -12.432
REMARK INTER:                 -10.180
REMARK INTRA:                  -2.253
REMARK UNBOUND:                -2.253
REMARK SMILES CCCCCCCCCCCCCCCCCCCCCC(=O)[O-]
REMARK SMILES IDX 12 1 11 2 10 3 9 4 8 5 7 6 6 7 5 8 4 9 3 10 2 11 1 12 13 13
REMARK SMILES IDX 14 14 15 15 16 16 17 17 18 18 19 19 20 20 21 21 22 22 23 23
REMARK SMILES IDX 24 24
REMARK H PARENT
REMARK Flexibility Score: inf
ROOT
ATOM      1  C   UNL     1     -42.403 -32.421  38.892  1.00  0.00     0.000 C 
ENDROOT
BRANCH   1   2
ATOM      2  C   UNL     1     -41.843 -31.098  39.444  1.00  0.00     0.000 C 
BRANCH   2   3
ATOM      3  C   UNL     1     -42.943 -30.173  39.988  1.00  0.00     0.000 C 
BRANCH   3   4
ATOM      4  C   UNL     1     -42.431 -29.212  41.073  1.00  0.00    -0.000 C 
BRANCH   4   5
ATOM      5  C   UNL     1     -42.530 -27.755  40.605  1.00  0.00    -0.000 C 
BRANCH   5   6
ATOM      6  C   UNL     1     -41.319 -27.367  39.747  1.00  0.00    -0.000 C 
BRANCH   6   7
ATOM      7  C   UNL     1     -40.008 -27.996  40.249  1.00  0.00    -0.000 C 
BRANCH   7   8
ATOM      8  C   UNL     1     -39.107 -27.008  41.023  1.00  0.00    -0.000 C 
BRANCH   8   9
ATOM      9  C   UNL     1     -39.390 -25.543  40.646  1.00  0.00    -0.000 C 
BRANCH   9  10
ATOM     10  C   UNL     1     -39.878 -24.710  41.849  1.00  0.00    -0.000 C 
BRANCH  10  11
ATOM     11  C   UNL     1     -41.216 -23.995  41.601  1.00  0.00    -0.003 C 
ATOM     12  C   UNL     1     -41.474 -23.700  40.125  1.00  0.00     0.004 C 
ENDBRANCH  10  11
ENDBRANCH   9  10
ENDBRANCH   8   9
ENDBRANCH   7   8
ENDBRANCH   6   7
ENDBRANCH   5   6
ENDBRANCH   4   5
ENDBRANCH   3   4
ENDBRANCH   2   3
ENDBRANCH   1   2
BRANCH   1  13
ATOM     13  C   UNL     1     -42.127 -33.612  39.825  1.00  0.00     0.000 C 
BRANCH  13  14
ATOM     14  C   UNL     1     -40.974 -34.499  39.322  1.00  0.00     0.000 C 
BRANCH  14  15
ATOM     15  C   UNL     1     -40.645 -34.254  37.839  1.00  0.00     0.000 C 
BRANCH  15  16
ATOM     16  C   UNL     1     -40.162 -35.523  37.119  1.00  0.00     0.000 C 
BRANCH  16  17
ATOM     17  C   UNL     1     -41.130 -35.914  35.993  1.00  0.00     0.000 C 
BRANCH  17  18
ATOM     18  C   UNL     1     -42.541 -35.332  36.188  1.00  0.00     0.000 C 
BRANCH  18  19
ATOM     19  C   UNL     1     -43.621 -36.357  36.593  1.00  0.00     0.000 C 
BRANCH  19  20
ATOM     20  C   UNL     1     -45.041 -35.784  36.744  1.00  0.00     0.006 C 
BRANCH  20  21
ATOM     21  C   UNL     1     -45.061 -34.253  36.824  1.00  0.00     0.053 C 
BRANCH  21  22
ATOM     22  C   UNL     1     -45.899 -33.797  37.977  1.00  0.00     0.041 C 
ATOM     23  O   UNL     1     -45.643 -34.196  39.143  1.00  0.00    -0.550 OA
ATOM     24  O   UNL     1     -46.989 -32.962  37.757  1.00  0.00    -0.550 OA
ENDBRANCH  21  22
ENDBRANCH  20  21
ENDBRANCH  19  20
ENDBRANCH  18  19
ENDBRANCH  17  18
ENDBRANCH  16  17
ENDBRANCH  15  16
ENDBRANCH  14  15
ENDBRANCH  13  14
ENDBRANCH   1  13
TORSDOF 20
ENDMDL
MODEL 2
REMARK VINA RESULT:    -4.678      4.516      7.847
REMARK INTER + INTRA:         -12.401
REMARK INTER:                  -9.497
REMARK INTRA:                  -2.904
REMARK UNBOUND:                -2.253
REMARK SMILES CCCCCCCCCCCCCCCCCCCCCC(=O)[O-]
REMARK SMILES IDX 12 1 11 2 10 3 9 4 8 5 7 6 6 7 5 8 4 9 3 10 2 11 1 12 13 13
REMARK SMILES IDX 14 14 15 15 16 16 17 17 18 18 19 19 20 20 21 21 22 22 23 23
REMARK SMILES IDX 24 24
REMARK H PARENT
REMARK Flexibility Score: inf
ROOT
ATOM      1  C   UNL     1     -43.875 -32.020  39.311  1.00  0.00     0.000 C 
ENDROOT
BRANCH   1   2
ATOM      2  C   UNL     1     -43.669 -33.516  39.610  1.00  0.00     0.000 C 
BRANCH   2   3
ATOM      3  C   UNL     1     -42.211 -33.961  39.421  1.00  0.00     0.000 C 
BRANCH   3   4
ATOM      4  C   UNL     1     -41.313 -32.842  38.870  1.00  0.00    -0.000 C 
BRANCH   4   5
ATOM      5  C   UNL     1     -40.239 -33.412  37.935  1.00  0.00    -0.000 C 
BRANCH   5   6
ATOM      6  C   UNL     1     -40.082 -34.926  38.132  1.00  0.00    -0.000 C 
BRANCH   6   7
ATOM      7  C   UNL     1     -40.109 -35.705  36.806  1.00  0.00    -0.000 C 
BRANCH   7   8
ATOM      8  C   UNL     1     -41.344 -35.394  35.932  1.00  0.00    -0.000 C 
BRANCH   8   9
ATOM      9  C   UNL     1     -42.607 -36.121  36.427  1.00  0.00    -0.000 C 
BRANCH   9  10
ATOM     10  C   UNL     1     -43.874 -35.250  36.303  1.00  0.00    -0.000 C 
BRANCH  10  11
ATOM     11  C   UNL     1     -45.138 -35.916  36.873  1.00  0.00    -0.003 C 
ATOM     12  C   UNL     1     -45.102 -37.440  36.788  1.00  0.00     0.004 C 
ENDBRANCH  10  11
ENDBRANCH   9  10
ENDBRANCH   8   9
ENDBRANCH   7   8
ENDBRANCH   6   7
ENDBRANCH   5   6
ENDBRANCH   4   5
ENDBRANCH   3   4
ENDBRANCH   2   3
ENDBRANCH   1   2
BRANCH   1  13
ATOM     13  C   UNL     1     -44.877 -31.361  40.275  1.00  0.00     0.000 C 
BRANCH  13  14
ATOM     14  C   UNL     1     -45.736 -32.392  41.027  1.00  0.00     0.000 C 
BRANCH  14  15
ATOM     15  C   UNL     1     -47.239 -32.226  40.747  1.00  0.00     0.000 C 
BRANCH  15  16
ATOM     16  C   UNL     1     -47.727 -33.096  39.579  1.00  0.00     0.000 C 
BRANCH  16  17
ATOM     17  C   UNL     1     -47.863 -32.262  38.297  1.00  0.00     0.000 C 
BRANCH  17  18
ATOM     18  C   UNL     1     -46.817 -32.630  37.229  1.00  0.00     0.000 C 
BRANCH  18  19
ATOM     19  C   UNL     1     -46.545 -31.535  36.177  1.00  0.00     0.000 C 
BRANCH  19  20
ATOM     20  C   UNL     1     -47.800 -30.843  35.615  1.00  0.00     0.006 C 
BRANCH  20  21
ATOM     21  C   UNL     1     -47.472 -29.612  34.762  1.00  0.00     0.053 C 
BRANCH  21  22
ATOM     22  C   UNL     1     -46.547 -28.694  35.497  1.00  0.00     0.041 C 
ATOM     23  O   UNL     1     -45.399 -28.452  35.040  1.00  0.00    -0.550 OA
ATOM     24  O   UNL     1     -46.938 -28.137  36.709  1.00  0.00    -0.550 OA
ENDBRANCH  21  22
ENDBRANCH  20  21
ENDBRANCH  19  20
ENDBRANCH  18  19
ENDBRANCH  17  18
ENDBRANCH  16  17
ENDBRANCH  15  16
ENDBRANCH  14  15
ENDBRANCH  13  14
ENDBRANCH   1  13
TORSDOF 20
ENDMDL
MODEL 3
REMARK VINA RESULT:    -4.666      1.588      2.567
REMARK INTER + INTRA:         -12.375
REMARK INTER:                  -9.342
REMARK INTRA:                  -3.033
REMARK UNBOUND:                -2.253
REMARK SMILES CCCCCCCCCCCCCCCCCCCCCC(=O)[O-]
REMARK SMILES IDX 12 1 11 2 10 3 9 4 8 5 7 6 6 7 5 8 4 9 3 10 2 11 1 12 13 13
REMARK SMILES IDX 14 14 15 15 16 16 17 17 18 18 19 19 20 20 21 21 22 22 23 23
REMARK SMILES IDX 24 24
REMARK H PARENT
REMARK Flexibility Score: inf
ROOT
ATOM      1  C   UNL     1     -43.525 -30.064  40.025  1.00  0.00     0.000 C 
ENDROOT
BRANCH   1   2
ATOM      2  C   UNL     1     -42.517 -29.254  40.861  1.00  0.00     0.000 C 
BRANCH   2   3
ATOM      3  C   UNL     1     -42.891 -27.767  40.959  1.00  0.00     0.000 C 
BRANCH   3   4
ATOM      4  C   UNL     1     -43.668 -27.266  39.732  1.00  0.00    -0.000 C 
BRANCH   4   5
ATOM      5  C   UNL     1     -42.841 -26.244  38.941  1.00  0.00    -0.000 C 
BRANCH   5   6
ATOM      6  C   UNL     1     -41.729 -26.935  38.140  1.00  0.00    -0.000 C 
BRANCH   6   7
ATOM      7  C   UNL     1     -40.326 -26.412  38.495  1.00  0.00    -0.000 C 
BRANCH   7   8
ATOM      8  C   UNL     1     -39.564 -27.316  39.488  1.00  0.00    -0.000 C 
BRANCH   8   9
ATOM      9  C   UNL     1     -39.347 -26.633  40.850  1.00  0.00    -0.000 C 
BRANCH   9  10
ATOM     10  C   UNL     1     -39.207 -25.101  40.724  1.00  0.00    -0.000 C 
BRANCH  10  11
ATOM     11  C   UNL     1     -39.942 -24.322  41.827  1.00  0.00    -0.003 C 
ATOM     12  C   UNL     1     -41.445 -24.210  41.581  1.00  0.00     0.004 C 
ENDBRANCH  10  11
ENDBRANCH   9  10
ENDBRANCH   8   9
ENDBRANCH   7   8
ENDBRANCH   6   7
ENDBRANCH   5   6
ENDBRANCH   4   5
ENDBRANCH   3   4
ENDBRANCH   2   3
ENDBRANCH   1   2
BRANCH   1  13
ATOM     13  C   UNL     1     -42.879 -30.706  38.785  1.00  0.00     0.000 C 
BRANCH  13  14
ATOM     14  C   UNL     1     -41.352 -30.520  38.754  1.00  0.00     0.000 C 
BRANCH  14  15
ATOM     15  C   UNL     1     -40.609 -31.804  38.349  1.00  0.00     0.000 C 
BRANCH  15  16
ATOM     16  C   UNL     1     -41.107 -33.044  39.106  1.00  0.00     0.000 C 
BRANCH  16  17
ATOM     17  C   UNL     1     -40.751 -34.329  38.343  1.00  0.00     0.000 C 
BRANCH  17  18
ATOM     18  C   UNL     1     -41.977 -35.001  37.699  1.00  0.00     0.000 C 
BRANCH  18  19
ATOM     19  C   UNL     1     -43.293 -34.856  38.491  1.00  0.00     0.000 C 
BRANCH  19  20
ATOM     20  C   UNL     1     -44.473 -34.270  37.694  1.00  0.00     0.006 C 
BRANCH  20  21
ATOM     21  C   UNL     1     -44.846 -35.117  36.472  1.00  0.00     0.053 C 
BRANCH  21  22
ATOM     22  C   UNL     1     -45.271 -36.488  36.893  1.00  0.00     0.041 C 
ATOM     23  O   UNL     1     -44.626 -37.498  36.506  1.00  0.00    -0.550 OA
ATOM     24  O   UNL     1     -46.405 -36.655  37.680  1.00  0.00    -0.550 OA
ENDBRANCH  21  22
ENDBRANCH  20  21
ENDBRANCH  19  20
ENDBRANCH  18  19
ENDBRANCH  17  18
ENDBRANCH  16  17
ENDBRANCH  15  16
ENDBRANCH  14  15
ENDBRANCH  13  14
ENDBRANCH   1  13
TORSDOF 20
ENDMDL
MODEL 4
REMARK VINA RESULT:    -4.640      3.804      7.578
REMARK INTER + INTRA:         -12.317
REMARK INTER:                  -8.903
REMARK INTRA:                  -3.414
REMARK UNBOUND:                -2.253
REMARK SMILES CCCCCCCCCCCCCCCCCCCCCC(=O)[O-]
REMARK SMILES IDX 12 1 11 2 10 3 9 4 8 5 7 6 6 7 5 8 4 9 3 10 2 11 1 12 13 13
REMARK SMILES IDX 14 14 15 15 16 16 17 17 18 18 19 19 20 20 21 21 22 22 23 23
REMARK SMILES IDX 24 24
REMARK H PARENT
REMARK Flexibility Score: inf
ROOT
ATOM      1  C   UNL     1     -41.656 -35.577  36.206  1.00  0.00     0.000 C 
ENDROOT
BRANCH   1   2
ATOM      2  C   UNL     1     -42.850 -35.435  37.166  1.00  0.00     0.000 C 
BRANCH   2   3
ATOM      3  C   UNL     1     -44.192 -35.764  36.493  1.00  0.00     0.000 C 
BRANCH   3   4
ATOM      4  C   UNL     1     -44.840 -37.041  37.050  1.00  0.00    -0.000 C 
BRANCH   4   5
ATOM      5  C   UNL     1     -46.369 -36.966  36.954  1.00  0.00    -0.000 C 
BRANCH   5   6
ATOM      6  C   UNL     1     -47.016 -37.100  38.338  1.00  0.00    -0.000 C 
BRANCH   6   7
ATOM      7  C   UNL     1     -45.993 -37.010  39.485  1.00  0.00    -0.000 C 
BRANCH   7   8
ATOM      8  C   UNL     1     -46.173 -35.759  40.374  1.00  0.00    -0.000 C 
BRANCH   8   9
ATOM      9  C   UNL     1     -45.804 -34.461  39.634  1.00  0.00    -0.000 C 
BRANCH   9  10
ATOM     10  C   UNL     1     -46.883 -33.369  39.791  1.00  0.00    -0.000 C 
BRANCH  10  11
ATOM     11  C   UNL     1     -47.472 -32.888  38.454  1.00  0.00    -0.003 C 
ATOM     12  C   UNL     1     -46.572 -33.193  37.258  1.00  0.00     0.004 C 
ENDBRANCH  10  11
ENDBRANCH   9  10
ENDBRANCH   8   9
ENDBRANCH   7   8
ENDBRANCH   6   7
ENDBRANCH   5   6
ENDBRANCH   4   5
ENDBRANCH   3   4
ENDBRANCH   2   3
ENDBRANCH   1   2
BRANCH   1  13
ATOM     13  C   UNL     1     -40.328 -35.143  36.850  1.00  0.00     0.000 C 
BRANCH  13  14
ATOM     14  C   UNL     1     -40.376 -35.195  38.388  1.00  0.00     0.000 C 
BRANCH  14  15
ATOM     15  C   UNL     1     -40.003 -33.850  39.036  1.00  0.00     0.000 C 
BRANCH  15  16
ATOM     16  C   UNL     1     -40.122 -32.667  38.063  1.00  0.00     0.000 C 
BRANCH  16  17
ATOM     17  C   UNL     1     -41.086 -31.605  38.612  1.00  0.00     0.000 C 
BRANCH  17  18
ATOM     18  C   UNL     1     -42.367 -32.211  39.211  1.00  0.00     0.000 C 
BRANCH  18  19
ATOM     19  C   UNL     1     -43.685 -31.676  38.613  1.00  0.00     0.000 C 
BRANCH  19  20
ATOM     20  C   UNL     1     -43.600 -30.265  38.004  1.00  0.00     0.006 C 
BRANCH  20  21
ATOM     21  C   UNL     1     -44.800 -29.384  38.370  1.00  0.00     0.053 C 
BRANCH  21  22
ATOM     22  C   UNL     1     -45.891 -29.534  37.356  1.00  0.00     0.041 C 
ATOM     23  O   UNL     1     -45.607 -29.676  36.137  1.00  0.00    -0.550 OA
ATOM     24  O   UNL     1     -47.222 -29.478  37.752  1.00  0.00    -0.550 OA
ENDBRANCH  21  22
ENDBRANCH  20  21
ENDBRANCH  19  20
ENDBRANCH  18  19
ENDBRANCH  17  18
ENDBRANCH  16  17
ENDBRANCH  15  16
ENDBRANCH  14  15
ENDBRANCH  13  14
ENDBRANCH   1  13
TORSDOF 20
ENDMDL
MODEL 5
REMARK VINA RESULT:    -4.594      3.527      5.701
REMARK INTER + INTRA:         -12.219
REMARK INTER:                  -9.614
REMARK INTRA:                  -2.605
REMARK UNBOUND:                -2.253
REMARK SMILES CCCCCCCCCCCCCCCCCCCCCC(=O)[O-]
REMARK SMILES IDX 12 1 11 2 10 3 9 4 8 5 7 6 6 7 5 8 4 9 3 10 2 11 1 12 13 13
REMARK SMILES IDX 14 14 15 15 16 16 17 17 18 18 19 19 20 20 21 21 22 22 23 23
REMARK SMILES IDX 24 24
REMARK H PARENT
REMARK Flexibility Score: inf
ROOT
ATOM      1  C   UNL     1     -46.345 -36.276  39.101  1.00  0.00     0.000 C 
ENDROOT
BRANCH   1   2
ATOM      2  C   UNL     1     -46.897 -35.094  39.919  1.00  0.00     0.000 C 
BRANCH   2   3
ATOM      3  C   UNL     1     -46.871 -33.772  39.137  1.00  0.00     0.000 C 
BRANCH   3   4
ATOM      4  C   UNL     1     -46.132 -32.652  39.884  1.00  0.00    -0.000 C 
BRANCH   4   5
ATOM      5  C   UNL     1     -45.432 -31.706  38.901  1.00  0.00    -0.000 C 
BRANCH   5   6
ATOM      6  C   UNL     1     -44.135 -32.326  38.366  1.00  0.00    -0.000 C 
BRANCH   6   7
ATOM      7  C   UNL     1     -42.960 -32.194  39.351  1.00  0.00    -0.000 C 
BRANCH   7   8
ATOM      8  C   UNL     1     -41.709 -31.531  38.734  1.00  0.00    -0.000 C 
BRANCH   8   9
ATOM      9  C   UNL     1     -41.755 -29.995  38.831  1.00  0.00    -0.000 C 
BRANCH   9  10
ATOM     10  C   UNL     1     -41.642 -29.495  40.287  1.00  0.00    -0.000 C 
BRANCH  10  11
ATOM     11  C   UNL     1     -42.970 -28.982  40.867  1.00  0.00    -0.003 C 
ATOM     12  C   UNL     1     -43.889 -28.370  39.811  1.00  0.00     0.004 C 
ENDBRANCH  10  11
ENDBRANCH   9  10
ENDBRANCH   8   9
ENDBRANCH   7   8
ENDBRANCH   6   7
ENDBRANCH   5   6
ENDBRANCH   4   5
ENDBRANCH   3   4
ENDBRANCH   2   3
ENDBRANCH   1   2
BRANCH   1  13
ATOM     13  C   UNL     1     -45.006 -35.945  38.420  1.00  0.00     0.000 C 
BRANCH  13  14
ATOM     14  C   UNL     1     -45.045 -36.185  36.900  1.00  0.00     0.000 C 
BRANCH  14  15
ATOM     15  C   UNL     1     -43.903 -35.469  36.160  1.00  0.00     0.000 C 
BRANCH  15  16
ATOM     16  C   UNL     1     -42.599 -35.433  36.971  1.00  0.00     0.000 C 
BRANCH  16  17
ATOM     17  C   UNL     1     -41.388 -35.728  36.073  1.00  0.00     0.000 C 
BRANCH  17  18
ATOM     18  C   UNL     1     -40.045 -35.563  36.804  1.00  0.00     0.000 C 
BRANCH  18  19
ATOM     19  C   UNL     1     -40.018 -34.458  37.881  1.00  0.00     0.000 C 
BRANCH  19  20
ATOM     20  C   UNL     1     -39.495 -34.902  39.259  1.00  0.00     0.006 C 
BRANCH  20  21
ATOM     21  C   UNL     1     -38.950 -36.335  39.256  1.00  0.00     0.053 C 
BRANCH  21  22
ATOM     22  C   UNL     1     -38.347 -36.672  40.584  1.00  0.00     0.041 C 
ATOM     23  O   UNL     1     -37.548 -37.639  40.689  1.00  0.00    -0.550 OA
ATOM     24  O   UNL     1     -38.699 -35.941  41.713  1.00  0.00    -0.550 OA
ENDBRANCH  21  22
ENDBRANCH  20  21
ENDBRANCH  19  20
ENDBRANCH  18  19
ENDBRANCH  17  18
ENDBRANCH  16  17
ENDBRANCH  15  16
ENDBRANCH  14  15
ENDBRANCH  13  14
ENDBRANCH   1  13
TORSDOF 20
ENDMDL
MODEL 6
REMARK VINA RESULT:    -4.556      3.316      8.715
REMARK INTER + INTRA:         -12.135
REMARK INTER:                  -9.295
REMARK INTRA:                  -2.840
REMARK UNBOUND:                -2.253
REMARK SMILES CCCCCCCCCCCCCCCCCCCCCC(=O)[O-]
REMARK SMILES IDX 12 1 11 2 10 3 9 4 8 5 7 6 6 7 5 8 4 9 3 10 2 11 1 12 13 13
REMARK SMILES IDX 14 14 15 15 16 16 17 17 18 18 19 19 20 20 21 21 22 22 23 23
REMARK SMILES IDX 24 24
REMARK H PARENT
REMARK Flexibility Score: inf
ROOT
ATOM      1  C   UNL     1     -42.237 -31.990  40.190  1.00  0.00     0.000 C 
ENDROOT
BRANCH   1   2
ATOM      2  C   UNL     1     -42.903 -33.345  40.493  1.00  0.00     0.000 C 
BRANCH   2   3
ATOM      3  C   UNL     1     -44.415 -33.333  40.224  1.00  0.00     0.000 C 
BRANCH   3   4
ATOM      4  C   UNL     1     -45.013 -34.745  40.120  1.00  0.00    -0.000 C 
BRANCH   4   5
ATOM      5  C   UNL     1     -45.684 -34.956  38.757  1.00  0.00    -0.000 C 
BRANCH   5   6
ATOM      6  C   UNL     1     -45.045 -34.067  37.683  1.00  0.00    -0.000 C 
BRANCH   6   7
ATOM      7  C   UNL     1     -44.698 -34.840  36.399  1.00  0.00    -0.000 C 
BRANCH   7   8
ATOM      8  C   UNL     1     -43.605 -35.913  36.601  1.00  0.00    -0.000 C 
BRANCH   8   9
ATOM      9  C   UNL     1     -42.284 -35.309  37.112  1.00  0.00    -0.000 C 
BRANCH   9  10
ATOM     10  C   UNL     1     -41.097 -35.612  36.173  1.00  0.00    -0.000 C 
BRANCH  10  11
ATOM     11  C   UNL     1     -39.743 -35.688  36.897  1.00  0.00    -0.003 C 
ATOM     12  C   UNL     1     -39.820 -35.256  38.360  1.00  0.00     0.004 C 
ENDBRANCH  10  11
ENDBRANCH   9  10
ENDBRANCH   8   9
ENDBRANCH   7   8
ENDBRANCH   6   7
ENDBRANCH   5   6
ENDBRANCH   4   5
ENDBRANCH   3   4
ENDBRANCH   2   3
ENDBRANCH   1   2
BRANCH   1  13
ATOM     13  C   UNL     1     -41.646 -31.930  38.772  1.00  0.00     0.000 C 
BRANCH  13  14
ATOM     14  C   UNL     1     -42.005 -30.624  38.040  1.00  0.00     0.000 C 
BRANCH  14  15
ATOM     15  C   UNL     1     -43.456 -30.184  38.295  1.00  0.00     0.000 C 
BRANCH  15  16
ATOM     16  C   UNL     1     -43.706 -28.713  37.929  1.00  0.00     0.000 C 
BRANCH  16  17
ATOM     17  C   UNL     1     -43.001 -27.777  38.923  1.00  0.00     0.000 C 
BRANCH  17  18
ATOM     18  C   UNL     1     -43.181 -28.214  40.388  1.00  0.00     0.000 C 
BRANCH  18  19
ATOM     19  C   UNL     1     -41.872 -28.533  41.140  1.00  0.00     0.000 C 
BRANCH  19  20
ATOM     20  C   UNL     1     -40.583 -28.102  40.418  1.00  0.00     0.006 C 
BRANCH  20  21
ATOM     21  C   UNL     1     -39.786 -27.051  41.198  1.00  0.00     0.053 C 
BRANCH  21  22
ATOM     22  C   UNL     1     -40.443 -25.710  41.098  1.00  0.00     0.041 C 
ATOM     23  O   UNL     1     -40.829 -25.276  39.981  1.00  0.00    -0.550 OA
ATOM     24  O   UNL     1     -40.594 -24.923  42.233  1.00  0.00    -0.550 OA
ENDBRANCH  21  22
ENDBRANCH  20  21
ENDBRANCH  19  20
ENDBRANCH  18  19
ENDBRANCH  17  18
ENDBRANCH  16  17
ENDBRANCH  15  16
ENDBRANCH  14  15
ENDBRANCH  13  14
ENDBRANCH   1  13
TORSDOF 20
ENDMDL
MODEL 7
REMARK VINA RESULT:    -4.510      1.333      2.241
REMARK INTER + INTRA:         -12.037
REMARK INTER:                  -9.899
REMARK INTRA:                  -2.138
REMARK UNBOUND:                -2.253
REMARK SMILES CCCCCCCCCCCCCCCCCCCCCC(=O)[O-]
REMARK SMILES IDX 12 1 11 2 10 3 9 4 8 5 7 6 6 7 5 8 4 9 3 10 2 11 1 12 13 13
REMARK SMILES IDX 14 14 15 15 16 16 17 17 18 18 19 19 20 20 21 21 22 22 23 23
REMARK SMILES IDX 24 24
REMARK H PARENT
REMARK Flexibility Score: inf
ROOT
ATOM      1  C   UNL     1     -43.439 -31.790  39.235  1.00  0.00     0.000 C 
ENDROOT
BRANCH   1   2
ATOM      2  C   UNL     1     -43.240 -30.276  39.422  1.00  0.00     0.000 C 
BRANCH   2   3
ATOM      3  C   UNL     1     -42.236 -29.945  40.537  1.00  0.00     0.000 C 
BRANCH   3   4
ATOM      4  C   UNL     1     -42.310 -28.479  40.990  1.00  0.00    -0.000 C 
BRANCH   4   5
ATOM      5  C   UNL     1     -42.463 -27.541  39.786  1.00  0.00    -0.000 C 
BRANCH   5   6
ATOM      6  C   UNL     1     -43.001 -26.171  40.218  1.00  0.00    -0.000 C 
BRANCH   6   7
ATOM      7  C   UNL     1     -41.900 -25.100  40.308  1.00  0.00    -0.000 C 
BRANCH   7   8
ATOM      8  C   UNL     1     -41.396 -24.853  41.747  1.00  0.00    -0.000 C 
BRANCH   8   9
ATOM      9  C   UNL     1     -39.944 -24.340  41.775  1.00  0.00    -0.000 C 
BRANCH   9  10
ATOM     10  C   UNL     1     -39.205 -24.594  40.445  1.00  0.00    -0.000 C 
BRANCH  10  11
ATOM     11  C   UNL     1     -38.161 -25.720  40.526  1.00  0.00    -0.003 C 
ATOM     12  C   UNL     1     -38.784 -27.108  40.658  1.00  0.00     0.004 C 
ENDBRANCH  10  11
ENDBRANCH   9  10
ENDBRANCH   8   9
ENDBRANCH   7   8
ENDBRANCH   6   7
ENDBRANCH   5   6
ENDBRANCH   4   5
ENDBRANCH   3   4
ENDBRANCH   2   3
ENDBRANCH   1   2
BRANCH   1  13
ATOM     13  C   UNL     1     -42.145 -32.507  38.815  1.00  0.00     0.000 C 
BRANCH  13  14
ATOM     14  C   UNL     1     -41.715 -33.586  39.825  1.00  0.00     0.000 C 
BRANCH  14  15
ATOM     15  C   UNL     1     -40.747 -34.614  39.214  1.00  0.00     0.000 C 
BRANCH  15  16
ATOM     16  C   UNL     1     -40.330 -34.259  37.779  1.00  0.00     0.000 C 
BRANCH  16  17
ATOM     17  C   UNL     1     -39.832 -35.506  37.032  1.00  0.00     0.000 C 
BRANCH  17  18
ATOM     18  C   UNL     1     -40.907 -36.128  36.123  1.00  0.00     0.000 C 
BRANCH  18  19
ATOM     19  C   UNL     1     -42.223 -35.330  36.026  1.00  0.00     0.000 C 
BRANCH  19  20
ATOM     20  C   UNL     1     -43.482 -36.089  36.484  1.00  0.00     0.006 C 
BRANCH  20  21
ATOM     21  C   UNL     1     -44.255 -35.352  37.584  1.00  0.00     0.053 C 
BRANCH  21  22
ATOM     22  C   UNL     1     -45.391 -36.190  38.080  1.00  0.00     0.041 C 
ATOM     23  O   UNL     1     -45.586 -36.324  39.316  1.00  0.00    -0.550 OA
ATOM     24  O   UNL     1     -46.211 -36.854  37.176  1.00  0.00    -0.550 OA
ENDBRANCH  21  22
ENDBRANCH  20  21
ENDBRANCH  19  20
ENDBRANCH  18  19
ENDBRANCH  17  18
ENDBRANCH  16  17
ENDBRANCH  15  16
ENDBRANCH  14  15
ENDBRANCH  13  14
ENDBRANCH   1  13
TORSDOF 20
ENDMDL
MODEL 8
REMARK VINA RESULT:    -4.509      3.273      8.424
REMARK INTER + INTRA:         -12.034
REMARK INTER:                  -8.339
REMARK INTRA:                  -3.694
REMARK UNBOUND:                -2.253
REMARK SMILES CCCCCCCCCCCCCCCCCCCCCC(=O)[O-]
REMARK SMILES IDX 12 1 11 2 10 3 9 4 8 5 7 6 6 7 5 8 4 9 3 10 2 11 1 12 13 13
REMARK SMILES IDX 14 14 15 15 16 16 17 17 18 18 19 19 20 20 21 21 22 22 23 23
REMARK SMILES IDX 24 24
REMARK H PARENT
REMARK Flexibility Score: inf
ROOT
ATOM      1  C   UNL     1     -45.012 -32.153  40.347  1.00  0.00     0.000 C 
ENDROOT
BRANCH   1   2
ATOM      2  C   UNL     1     -46.168 -32.635  39.452  1.00  0.00     0.000 C 
BRANCH   2   3
ATOM      3  C   UNL     1     -45.799 -33.879  38.629  1.00  0.00     0.000 C 
BRANCH   3   4
ATOM      4  C   UNL     1     -45.478 -33.550  37.163  1.00  0.00    -0.000 C 
BRANCH   4   5
ATOM      5  C   UNL     1     -44.878 -34.767  36.447  1.00  0.00    -0.000 C 
BRANCH   5   6
ATOM      6  C   UNL     1     -44.528 -35.878  37.446  1.00  0.00    -0.000 C 
BRANCH   6   7
ATOM      7  C   UNL     1     -45.178 -37.226  37.089  1.00  0.00    -0.000 C 
BRANCH   7   8
ATOM      8  C   UNL     1     -46.639 -37.354  37.574  1.00  0.00    -0.000 C 
BRANCH   8   9
ATOM      9  C   UNL     1     -46.727 -37.793  39.047  1.00  0.00    -0.000 C 
BRANCH   9  10
ATOM     10  C   UNL     1     -47.674 -36.896  39.872  1.00  0.00    -0.000 C 
BRANCH  10  11
ATOM     11  C   UNL     1     -46.966 -36.128  41.001  1.00  0.00    -0.003 C 
ATOM     12  C   UNL     1     -45.517 -36.564  41.206  1.00  0.00     0.004 C 
ENDBRANCH  10  11
ENDBRANCH   9  10
ENDBRANCH   8   9
ENDBRANCH   7   8
ENDBRANCH   6   7
ENDBRANCH   5   6
ENDBRANCH   4   5
ENDBRANCH   3   4
ENDBRANCH   2   3
ENDBRANCH   1   2
BRANCH   1  13
ATOM     13  C   UNL     1     -43.956 -33.246  40.583  1.00  0.00     0.000 C 
BRANCH  13  14
ATOM     14  C   UNL     1     -42.534 -32.777  40.226  1.00  0.00     0.000 C 
BRANCH  14  15
ATOM     15  C   UNL     1     -42.448 -32.174  38.814  1.00  0.00     0.000 C 
BRANCH  15  16
ATOM     16  C   UNL     1     -41.739 -30.812  38.791  1.00  0.00     0.000 C 
BRANCH  16  17
ATOM     17  C   UNL     1     -42.032 -30.022  40.075  1.00  0.00     0.000 C 
BRANCH  17  18
ATOM     18  C   UNL     1     -43.112 -28.942  39.881  1.00  0.00     0.000 C 
BRANCH  18  19
ATOM     19  C   UNL     1     -43.451 -28.615  38.412  1.00  0.00     0.000 C 
BRANCH  19  20
ATOM     20  C   UNL     1     -44.933 -28.786  38.031  1.00  0.00     0.006 C 
BRANCH  20  21
ATOM     21  C   UNL     1     -45.184 -30.021  37.157  1.00  0.00     0.053 C 
BRANCH  21  22
ATOM     22  C   UNL     1     -45.905 -29.640  35.902  1.00  0.00     0.041 C 
ATOM     23  O   UNL     1     -46.799 -30.391  35.432  1.00  0.00    -0.550 OA
ATOM     24  O   UNL     1     -45.561 -28.473  35.230  1.00  0.00    -0.550 OA
ENDBRANCH  21  22
ENDBRANCH  20  21
ENDBRANCH  19  20
ENDBRANCH  18  19
ENDBRANCH  17  18
ENDBRANCH  16  17
ENDBRANCH  15  16
ENDBRANCH  14  15
ENDBRANCH  13  14
ENDBRANCH   1  13
TORSDOF 20
ENDMDL
MODEL 9
REMARK VINA RESULT:    -4.474      3.181      6.020
REMARK INTER + INTRA:         -11.959
REMARK INTER:                  -8.042
REMARK INTRA:                  -3.917
REMARK UNBOUND:                -2.253
REMARK SMILES CCCCCCCCCCCCCCCCCCCCCC(=O)[O-]
REMARK SMILES IDX 12 1 11 2 10 3 9 4 8 5 7 6 6 7 5 8 4 9 3 10 2 11 1 12 13 13
REMARK SMILES IDX 14 14 15 15 16 16 17 17 18 18 19 19 20 20 21 21 22 22 23 23
REMARK SMILES IDX 24 24
REMARK H PARENT
REMARK Flexibility Score: inf
ROOT
ATOM      1  C   UNL     1     -43.901 -25.635  39.661  1.00  0.00     0.000 C 
ENDROOT
BRANCH   1   2
ATOM      2  C   UNL     1     -43.355 -24.532  40.585  1.00  0.00     0.000 C 
BRANCH   2   3
ATOM      3  C   UNL     1     -42.286 -25.052  41.558  1.00  0.00     0.000 C 
BRANCH   3   4
ATOM      4  C   UNL     1     -41.128 -24.062  41.757  1.00  0.00    -0.000 C 
BRANCH   4   5
ATOM      5  C   UNL     1     -39.781 -24.724  41.442  1.00  0.00    -0.000 C 
BRANCH   5   6
ATOM      6  C   UNL     1     -39.234 -24.246  40.090  1.00  0.00    -0.000 C 
BRANCH   6   7
ATOM      7  C   UNL     1     -39.942 -22.981  39.574  1.00  0.00    -0.000 C 
BRANCH   7   8
ATOM      8  C   UNL     1     -39.801 -22.774  38.050  1.00  0.00    -0.000 C 
BRANCH   8   9
ATOM      9  C   UNL     1     -41.129 -22.354  37.395  1.00  0.00    -0.000 C 
BRANCH   9  10
ATOM     10  C   UNL     1     -42.177 -21.895  38.430  1.00  0.00    -0.000 C 
BRANCH  10  11
ATOM     11  C   UNL     1     -43.604 -21.807  37.865  1.00  0.00    -0.003 C 
ATOM     12  C   UNL     1     -43.713 -22.315  36.429  1.00  0.00     0.004 C 
ENDBRANCH  10  11
ENDBRANCH   9  10
ENDBRANCH   8   9
ENDBRANCH   7   8
ENDBRANCH   6   7
ENDBRANCH   5   6
ENDBRANCH   4   5
ENDBRANCH   3   4
ENDBRANCH   2   3
ENDBRANCH   1   2
BRANCH   1  13
ATOM     13  C   UNL     1     -43.328 -25.546  38.236  1.00  0.00     0.000 C 
BRANCH  13  14
ATOM     14  C   UNL     1     -41.850 -25.968  38.169  1.00  0.00     0.000 C 
BRANCH  14  15
ATOM     15  C   UNL     1     -41.645 -27.455  38.502  1.00  0.00     0.000 C 
BRANCH  15  16
ATOM     16  C   UNL     1     -40.367 -27.713  39.314  1.00  0.00     0.000 C 
BRANCH  16  17
ATOM     17  C   UNL     1     -40.699 -28.382  40.657  1.00  0.00     0.000 C 
BRANCH  17  18
ATOM     18  C   UNL     1     -42.203 -28.657  40.833  1.00  0.00     0.000 C 
BRANCH  18  19
ATOM     19  C   UNL     1     -42.639 -30.110  40.553  1.00  0.00     0.000 C 
BRANCH  19  20
ATOM     20  C   UNL     1     -43.945 -30.256  39.751  1.00  0.00     0.006 C 
BRANCH  20  21
ATOM     21  C   UNL     1     -43.719 -30.808  38.339  1.00  0.00     0.053 C 
BRANCH  21  22
ATOM     22  C   UNL     1     -44.934 -31.537  37.858  1.00  0.00     0.041 C 
ATOM     23  O   UNL     1     -46.037 -30.937  37.765  1.00  0.00    -0.550 OA
ATOM     24  O   UNL     1     -44.857 -32.890  37.550  1.00  0.00    -0.550 OA
ENDBRANCH  21  22
ENDBRANCH  20  21
ENDBRANCH  19  20
ENDBRANCH  18  19
ENDBRANCH  17  18
ENDBRANCH  16  17
ENDBRANCH  15  16
ENDBRANCH  14  15
ENDBRANCH  13  14
ENDBRANCH   1  13
TORSDOF 20
ENDMDL
