MODEL 1
REMARK VINA RESULT:    -2.843      0.000      0.000
REMARK INTER + INTRA:          -2.843
REMARK INTER:                  -2.843
REMARK INTRA:                   0.000
REMARK UNBOUND:                 0.000
REMARK SMILES CC(=O)[O-]
REMARK SMILES IDX 1 1 2 2 3 3 4 4
REMARK H PARENT
REMARK Flexibility Score: inf
ROOT
ATOM      1  C   UNL     1     -18.476  -7.136  13.656  1.00  0.00     0.063 C 
ATOM      2  C   UNL     1     -18.795  -7.699  15.000  1.00  0.00     0.038 C 
ATOM      3  O   UNL     1     -19.058  -6.930  15.961  1.00  0.00    -0.550 OA
ATOM      4  O   UNL     1     -18.856  -9.074  15.181  1.00  0.00    -0.550 OA
ENDROOT
TORSDOF 0
ENDMDL
MODEL 2
REMARK VINA RESULT:    -2.756     17.657     18.316
REMARK INTER + INTRA:          -2.756
REMARK INTER:                  -2.756
REMARK INTRA:                   0.000
REMARK UNBOUND:                 0.000
REMARK SMILES CC(=O)[O-]
REMARK SMILES IDX 1 1 2 2 3 3 4 4
REMARK H PARENT
REMARK Flexibility Score: inf
ROOT
ATOM      1  C   UNL     1      -9.214 -23.221  20.457  1.00  0.00     0.063 C 
ATOM      2  C   UNL     1      -9.515 -22.774  19.068  1.00  0.00     0.038 C 
ATOM      3  O   UNL     1      -9.850 -23.613  18.192  1.00  0.00    -0.550 OA
ATOM      4  O   UNL     1      -9.480 -21.422  18.749  1.00  0.00    -0.550 OA
ENDROOT
TORSDOF 0
ENDMDL
MODEL 3
REMARK VINA RESULT:    -2.605      1.462      2.102
REMARK INTER + INTRA:          -2.605
REMARK INTER:                  -2.605
REMARK INTRA:                   0.000
REMARK UNBOUND:                 0.000
REMARK SMILES CC(=O)[O-]
REMARK SMILES IDX 1 1 2 2 3 3 4 4
REMARK H PARENT
REMARK Flexibility Score: inf
ROOT
ATOM      1  C   UNL     1     -18.931  -9.002  15.442  1.00  0.00     0.063 C 
ATOM      2  C   UNL     1     -18.823  -7.524  15.279  1.00  0.00     0.038 C 
ATOM      3  O   UNL     1     -18.416  -7.036  14.192  1.00  0.00    -0.550 OA
ATOM      4  O   UNL     1     -19.221  -6.679  16.307  1.00  0.00    -0.550 OA
ENDROOT
TORSDOF 0
ENDMDL
MODEL 4
REMARK VINA RESULT:    -2.488     17.710     18.217
REMARK INTER + INTRA:          -2.488
REMARK INTER:                  -2.488
REMARK INTRA:                   0.000
REMARK UNBOUND:                 0.000
REMARK SMILES CC(=O)[O-]
REMARK SMILES IDX 1 1 2 2 3 3 4 4
REMARK H PARENT
REMARK Flexibility Score: inf
ROOT
ATOM      1  C   UNL     1     -10.201 -23.595  17.783  1.00  0.00     0.063 C 
ATOM      2  C   UNL     1      -9.541 -22.827  18.877  1.00  0.00     0.038 C 
ATOM      3  O   UNL     1      -9.476 -21.571  18.817  1.00  0.00    -0.550 OA
ATOM      4  O   UNL     1      -9.043 -23.490  19.991  1.00  0.00    -0.550 OA
ENDROOT
TORSDOF 0
ENDMDL
MODEL 5
REMARK VINA RESULT:    -2.141      8.983      9.322
REMARK INTER + INTRA:          -2.141
REMARK INTER:                  -2.141
REMARK INTRA:                   0.000
REMARK UNBOUND:                 0.000
REMARK SMILES CC(=O)[O-]
REMARK SMILES IDX 1 1 2 2 3 3 4 4
REMARK H PARENT
REMARK Flexibility Score: inf
ROOT
ATOM      1  C   UNL     1     -11.609 -13.744  16.981  1.00  0.00     0.063 C 
ATOM      2  C   UNL     1     -11.362 -12.369  17.500  1.00  0.00     0.038 C 
ATOM      3  O   UNL     1     -12.060 -11.915  18.444  1.00  0.00    -0.550 OA
ATOM      4  O   UNL     1     -10.325 -11.604  16.981  1.00  0.00    -0.550 OA
ENDROOT
TORSDOF 0
ENDMDL
MODEL 6
REMARK VINA RESULT:    -2.131      8.947      9.325
REMARK INTER + INTRA:          -2.131
REMARK INTER:                  -2.131
REMARK INTRA:                   0.000
REMARK UNBOUND:                 0.000
REMARK SMILES CC(=O)[O-]
REMARK SMILES IDX 1 1 2 2 3 3 4 4
REMARK H PARENT
REMARK Flexibility Score: inf
ROOT
ATOM      1  C   UNL     1     -11.633 -13.846  16.963  1.00  0.00     0.063 C 
ATOM      2  C   UNL     1     -11.343 -12.436  17.349  1.00  0.00     0.038 C 
ATOM      3  O   UNL     1     -10.491 -11.767  16.708  1.00  0.00    -0.550 OA
ATOM      4  O   UNL     1     -12.050 -11.838  18.385  1.00  0.00    -0.550 OA
ENDROOT
TORSDOF 0
ENDMDL
MODEL 7
REMARK VINA RESULT:    -2.104      8.936      9.196
REMARK INTER + INTRA:          -2.104
REMARK INTER:                  -2.104
REMARK INTRA:                   0.000
REMARK UNBOUND:                 0.000
REMARK SMILES CC(=O)[O-]
REMARK SMILES IDX 1 1 2 2 3 3 4 4
REMARK H PARENT
REMARK Flexibility Score: inf
ROOT
ATOM      1  C   UNL     1     -10.231 -11.723  17.049  1.00  0.00     0.063 C 
ATOM      2  C   UNL     1     -11.413 -12.410  17.642  1.00  0.00     0.038 C 
ATOM      3  O   UNL     1     -12.126 -11.819  18.494  1.00  0.00    -0.550 OA
ATOM      4  O   UNL     1     -11.764 -13.684  17.215  1.00  0.00    -0.550 OA
ENDROOT
TORSDOF 0
ENDMDL
MODEL 8
REMARK VINA RESULT:    -2.068      9.119      9.344
REMARK INTER + INTRA:          -2.068
REMARK INTER:                  -2.068
REMARK INTRA:                   0.000
REMARK UNBOUND:                 0.000
REMARK SMILES CC(=O)[O-]
REMARK SMILES IDX 1 1 2 2 3 3 4 4
REMARK H PARENT
REMARK Flexibility Score: inf
ROOT
ATOM      1  C   UNL     1     -11.548 -12.348  17.779  1.00  0.00     0.063 C 
ATOM      2  C   UNL     1     -11.678 -13.212  16.571  1.00  0.00     0.038 C 
ATOM      3  O   UNL     1     -12.039 -14.412  16.688  1.00  0.00    -0.550 OA
ATOM      4  O   UNL     1     -11.454 -12.680  15.308  1.00  0.00    -0.550 OA
ENDROOT
TORSDOF 0
ENDMDL
MODEL 9
REMARK VINA RESULT:    -1.989      9.162      9.453
REMARK INTER + INTRA:          -1.989
REMARK INTER:                  -1.989
REMARK INTRA:                   0.000
REMARK UNBOUND:                 0.000
REMARK SMILES CC(=O)[O-]
REMARK SMILES IDX 1 1 2 2 3 3 4 4
REMARK H PARENT
REMARK Flexibility Score: inf
ROOT
ATOM      1  C   UNL     1     -10.185 -13.444  13.600  1.00  0.00     0.063 C 
ATOM      2  C   UNL     1     -11.112 -13.101  14.716  1.00  0.00     0.038 C 
ATOM      3  O   UNL     1     -10.750 -12.296  15.613  1.00  0.00    -0.550 OA
ATOM      4  O   UNL     1     -12.397 -13.627  14.740  1.00  0.00    -0.550 OA
ENDROOT
TORSDOF 0
ENDMDL
