MODEL 1
REMARK VINA RESULT:    -2.995      0.000      0.000
REMARK INTER + INTRA:          -4.656
REMARK INTER:                  -4.571
REMARK INTRA:                  -0.085
REMARK UNBOUND:                -0.085
REMARK SMILES CC1=CCC[C@H](C)C(=O)C[C@H](C(C)C)C(=O)C1
REMARK SMILES IDX 8 1 9 2 6 3 7 4 5 5 4 6 3 7 2 8 1 9 10 11 11 12 15 13 16 14
REMARK SMILES IDX 17 15 12 17 13 18 14 19
REMARK H PARENT
REMARK Flexibility Score: 70.00
ROOT
ATOM      1  C   UNL     1      -8.966 -11.975  -4.017  1.00  0.00     0.136 C 
ATOM      2  O   UNL     1      -9.484 -11.517  -3.009  1.00  0.00    -0.299 OA
ENDROOT
BRANCH   1   3
ATOM      3  C   UNL     1      -9.520 -11.535  -5.364  1.00  0.00     0.053 C 
ATOM      4  C   UNL     1      -8.438 -11.109  -6.369  1.00  0.00     0.016 C 
BRANCH   3   5
ATOM      5  C   UNL     1     -10.529 -12.555  -5.941  1.00  0.00     0.015 C 
BRANCH   5   6
ATOM      6  C   UNL     1     -10.094 -13.193  -7.274  1.00  0.00     0.028 C 
BRANCH   6   7
ATOM      7  C   UNL     1     -10.127 -14.700  -7.240  1.00  0.00    -0.028 C 
ATOM      8  C   UNL     1      -9.152 -15.496  -6.732  1.00  0.00    -0.070 CG0
ATOM      9  C   UNL     1      -9.325 -16.988  -6.867  1.00  0.00     0.039 C 
ATOM     10  G   UNL     1      -7.922 -14.964  -6.005  1.00  0.00     0.000 G0
ENDBRANCH   6   7
ENDBRANCH   5   6
ENDBRANCH   3   5
ENDBRANCH   1   3
BRANCH   1  11
ATOM     11  C   UNL     1      -7.799 -12.931  -3.852  1.00  0.00     0.087 C 
BRANCH  11  12
ATOM     12  C   UNL     1      -8.257 -14.359  -3.456  1.00  0.00     0.066 C 
BRANCH  12  13
ATOM     13  C   UNL     1      -7.885 -15.371  -4.531  1.00  0.00     0.140 C 
ATOM     14  O   UNL     1      -7.566 -16.511  -4.226  1.00  0.00    -0.299 OA
BRANCH  13  15
ATOM     15  C   UNL     1      -7.928 -14.974  -5.985  1.00  0.00     0.106 CG0
ATOM     16  G   UNL     1      -9.165 -15.474  -6.720  1.00  0.00     0.000 G0
ENDBRANCH  13  15
ENDBRANCH  12  13
BRANCH  12  17
ATOM     17  C   UNL     1      -7.793 -14.757  -2.020  1.00  0.00    -0.006 C 
ATOM     18  C   UNL     1      -7.172 -13.565  -1.274  1.00  0.00     0.008 C 
ATOM     19  C   UNL     1      -8.879 -15.424  -1.156  1.00  0.00     0.008 C 
ENDBRANCH  12  17
ENDBRANCH  11  12
ENDBRANCH   1  11
TORSDOF 1
ENDMDL
MODEL 2
REMARK VINA RESULT:    -2.927      2.161      4.741
REMARK INTER + INTRA:          -4.551
REMARK INTER:                  -4.319
REMARK INTRA:                  -0.232
REMARK UNBOUND:                -0.085
REMARK SMILES CC1=CCC[C@H](C)C(=O)C[C@H](C(C)C)C(=O)C1
REMARK SMILES IDX 8 1 9 2 6 3 7 4 5 5 4 6 3 7 2 8 1 9 10 11 11 12 15 13 16 14
REMARK SMILES IDX 17 15 12 17 13 18 14 19
REMARK H PARENT
REMARK Flexibility Score: 70.00
ROOT
ATOM      1  C   UNL     1      -7.576 -13.958  -4.557  1.00  0.00     0.136 C 
ATOM      2  O   UNL     1      -6.522 -13.342  -4.503  1.00  0.00    -0.299 OA
ENDROOT
BRANCH   1   3
ATOM      3  C   UNL     1      -8.521 -13.857  -3.368  1.00  0.00     0.053 C 
ATOM      4  C   UNL     1      -8.091 -14.707  -2.161  1.00  0.00     0.016 C 
BRANCH   3   5
ATOM      5  C   UNL     1      -8.843 -12.390  -3.003  1.00  0.00     0.015 C 
BRANCH   5   6
ATOM      6  C   UNL     1      -9.581 -11.608  -4.107  1.00  0.00     0.028 C 
BRANCH   6   7
ATOM      7  C   UNL     1      -8.665 -10.707  -4.897  1.00  0.00    -0.028 C 
ATOM      8  C   UNL     1      -8.496 -10.744  -6.243  1.00  0.00    -0.070 CG0
ATOM      9  C   UNL     1      -7.468  -9.819  -6.844  1.00  0.00     0.039 C 
ATOM     10  G   UNL     1      -9.310 -11.638  -7.171  1.00  0.00     0.000 G0
ENDBRANCH   6   7
ENDBRANCH   5   6
ENDBRANCH   3   5
ENDBRANCH   1   3
BRANCH   1  11
ATOM     11  C   UNL     1      -7.874 -14.761  -5.809  1.00  0.00     0.087 C 
BRANCH  11  12
ATOM     12  C   UNL     1      -9.073 -14.187  -6.608  1.00  0.00     0.066 C 
BRANCH  12  13
ATOM     13  C   UNL     1      -8.657 -12.970  -7.422  1.00  0.00     0.140 C 
ATOM     14  O   UNL     1      -7.815 -13.071  -8.303  1.00  0.00    -0.299 OA
BRANCH  13  15
ATOM     15  C   UNL     1      -9.301 -11.633  -7.158  1.00  0.00     0.106 CG0
ATOM     16  G   UNL     1      -8.488 -10.732  -6.236  1.00  0.00     0.000 G0
ENDBRANCH  13  15
ENDBRANCH  12  13
BRANCH  12  17
ATOM     17  C   UNL     1      -9.816 -15.283  -7.435  1.00  0.00    -0.006 C 
ATOM     18  C   UNL     1      -9.334 -16.695  -7.069  1.00  0.00     0.008 C 
ATOM     19  C   UNL     1     -11.353 -15.205  -7.368  1.00  0.00     0.008 C 
ENDBRANCH  12  17
ENDBRANCH  11  12
ENDBRANCH   1  11
TORSDOF 1
ENDMDL
MODEL 3
REMARK VINA RESULT:    -2.796      2.596      4.572
REMARK INTER + INTRA:          -4.352
REMARK INTER:                  -3.859
REMARK INTRA:                  -0.493
REMARK UNBOUND:                -0.085
REMARK SMILES CC1=CCC[C@H](C)C(=O)C[C@H](C(C)C)C(=O)C1
REMARK SMILES IDX 8 1 9 2 6 3 7 4 5 5 4 6 3 7 2 8 1 9 10 11 11 12 15 13 16 14
REMARK SMILES IDX 17 15 12 17 13 18 14 19
REMARK H PARENT
REMARK Flexibility Score: 70.00
ROOT
ATOM      1  C   UNL     1     -10.240 -13.362  -6.762  1.00  0.00     0.136 C 
ATOM      2  O   UNL     1     -11.387 -13.675  -7.045  1.00  0.00    -0.299 OA
ENDROOT
BRANCH   1   3
ATOM      3  C   UNL     1      -9.126 -14.331  -7.132  1.00  0.00     0.053 C 
ATOM      4  C   UNL     1      -9.470 -15.803  -6.853  1.00  0.00     0.016 C 
BRANCH   3   5
ATOM      5  C   UNL     1      -8.589 -14.084  -8.560  1.00  0.00     0.015 C 
BRANCH   5   6
ATOM      6  C   UNL     1      -7.148 -13.541  -8.611  1.00  0.00     0.028 C 
BRANCH   6   7
ATOM      7  C   UNL     1      -7.077 -12.114  -9.095  1.00  0.00    -0.028 C 
ATOM      8  C   UNL     1      -6.899 -11.025  -8.307  1.00  0.00    -0.070 CG0
ATOM      9  C   UNL     1      -6.943  -9.669  -8.966  1.00  0.00     0.039 C 
ATOM     10  G   UNL     1      -6.621 -11.104  -6.810  1.00  0.00     0.000 G0
ENDBRANCH   6   7
ENDBRANCH   5   6
ENDBRANCH   3   5
ENDBRANCH   1   3
BRANCH   1  11
ATOM     11  C   UNL     1     -10.009 -12.024  -6.084  1.00  0.00     0.087 C 
BRANCH  11  12
ATOM     12  C   UNL     1      -8.631 -11.951  -5.376  1.00  0.00     0.066 C 
BRANCH  12  13
ATOM     13  C   UNL     1      -7.797 -10.799  -5.919  1.00  0.00     0.140 C 
ATOM     14  O   UNL     1      -8.072  -9.644  -5.630  1.00  0.00    -0.299 OA
BRANCH  13  15
ATOM     15  C   UNL     1      -6.608 -11.083  -6.802  1.00  0.00     0.106 CG0
ATOM     16  G   UNL     1      -6.920 -11.011  -8.292  1.00  0.00     0.000 G0
ENDBRANCH  13  15
ENDBRANCH  12  13
BRANCH  12  17
ATOM     17  C   UNL     1      -8.760 -11.965  -3.820  1.00  0.00    -0.006 C 
ATOM     18  C   UNL     1     -10.163 -11.538  -3.363  1.00  0.00     0.008 C 
ATOM     19  C   UNL     1      -8.360 -13.297  -3.156  1.00  0.00     0.008 C 
ENDBRANCH  12  17
ENDBRANCH  11  12
ENDBRANCH   1  11
TORSDOF 1
ENDMDL
MODEL 4
REMARK VINA RESULT:    -2.749     13.964     15.900
REMARK INTER + INTRA:          -4.279
REMARK INTER:                  -4.645
REMARK INTRA:                   0.365
REMARK UNBOUND:                -0.085
REMARK SMILES CC1=CCC[C@H](C)C(=O)C[C@H](C(C)C)C(=O)C1
REMARK SMILES IDX 8 1 9 2 6 3 7 4 5 5 4 6 3 7 2 8 1 9 10 11 11 12 15 13 16 14
REMARK SMILES IDX 17 15 12 17 13 18 14 19
REMARK H PARENT
REMARK Flexibility Score: 70.00
ROOT
ATOM      1  C   UNL     1     -22.447 -12.730  -7.079  1.00  0.00     0.136 C 
ATOM      2  O   UNL     1     -22.981 -13.715  -7.567  1.00  0.00    -0.299 OA
ENDROOT
BRANCH   1   3
ATOM      3  C   UNL     1     -21.100 -12.299  -7.643  1.00  0.00     0.053 C 
ATOM      4  C   UNL     1     -20.467 -13.331  -8.590  1.00  0.00     0.016 C 
BRANCH   3   5
ATOM      5  C   UNL     1     -21.145 -10.870  -8.230  1.00  0.00     0.015 C 
BRANCH   5   6
ATOM      6  C   UNL     1     -21.963 -10.743  -9.530  1.00  0.00     0.028 C 
BRANCH   6   7
ATOM      7  C   UNL     1     -22.989  -9.640  -9.471  1.00  0.00    -0.028 C 
ATOM      8  C   UNL     1     -24.321  -9.816  -9.278  1.00  0.00    -0.070 CG0
ATOM      9  C   UNL     1     -25.203  -8.594  -9.337  1.00  0.00     0.039 C 
ATOM     10  G   UNL     1     -24.958 -11.166  -8.970  1.00  0.00     0.000 G0
ENDBRANCH   6   7
ENDBRANCH   5   6
ENDBRANCH   3   5
ENDBRANCH   1   3
BRANCH   1  11
ATOM     11  C   UNL     1     -23.172 -12.000  -5.964  1.00  0.00     0.087 C 
BRANCH  11  12
ATOM     12  C   UNL     1     -24.117 -10.893  -6.499  1.00  0.00     0.066 C 
BRANCH  12  13
ATOM     13  C   UNL     1     -25.122 -11.463  -7.491  1.00  0.00     0.140 C 
ATOM     14  O   UNL     1     -26.058 -12.146  -7.102  1.00  0.00    -0.299 OA
BRANCH  13  15
ATOM     15  C   UNL     1     -24.976 -11.168  -8.962  1.00  0.00     0.106 CG0
ATOM     16  G   UNL     1     -24.317  -9.825  -9.255  1.00  0.00     0.000 G0
ENDBRANCH  13  15
ENDBRANCH  12  13
BRANCH  12  17
ATOM     17  C   UNL     1     -24.762 -10.055  -5.351  1.00  0.00    -0.006 C 
ATOM     18  C   UNL     1     -24.312 -10.547  -3.967  1.00  0.00     0.008 C 
ATOM     19  C   UNL     1     -24.556  -8.534  -5.474  1.00  0.00     0.008 C 
ENDBRANCH  12  17
ENDBRANCH  11  12
ENDBRANCH   1  11
TORSDOF 1
ENDMDL
MODEL 5
REMARK VINA RESULT:    -2.658     15.047     17.240
REMARK INTER + INTRA:          -4.142
REMARK INTER:                  -4.017
REMARK INTRA:                  -0.124
REMARK UNBOUND:                -0.085
REMARK SMILES CC1=CCC[C@H](C)C(=O)C[C@H](C(C)C)C(=O)C1
REMARK SMILES IDX 8 1 9 2 6 3 7 4 5 5 4 6 3 7 2 8 1 9 10 11 11 12 15 13 16 14
REMARK SMILES IDX 17 15 12 17 13 18 14 19
REMARK H PARENT
REMARK Flexibility Score: 70.00
ROOT
ATOM      1  C   UNL     1     -23.976 -10.793  -5.899  1.00  0.00     0.136 C 
ATOM      2  O   UNL     1     -23.660 -11.970  -5.809  1.00  0.00    -0.299 OA
ENDROOT
BRANCH   1   3
ATOM      3  C   UNL     1     -24.999 -10.254  -4.909  1.00  0.00     0.053 C 
ATOM      4  C   UNL     1     -25.251 -11.185  -3.712  1.00  0.00     0.016 C 
BRANCH   3   5
ATOM      5  C   UNL     1     -24.702  -8.793  -4.502  1.00  0.00     0.015 C 
BRANCH   5   6
ATOM      6  C   UNL     1     -25.768  -7.778  -4.958  1.00  0.00     0.028 C 
BRANCH   6   7
ATOM      7  C   UNL     1     -25.213  -6.721  -5.880  1.00  0.00    -0.028 C 
ATOM      8  C   UNL     1     -25.080  -6.844  -7.225  1.00  0.00    -0.070 CG0
ATOM      9  C   UNL     1     -24.421  -5.709  -7.969  1.00  0.00     0.039 C 
ATOM     10  G   UNL     1     -25.592  -8.041  -8.018  1.00  0.00     0.000 G0
ENDBRANCH   6   7
ENDBRANCH   5   6
ENDBRANCH   3   5
ENDBRANCH   1   3
BRANCH   1  11
ATOM     11  C   UNL     1     -23.313  -9.953  -6.975  1.00  0.00     0.087 C 
BRANCH  11  12
ATOM     12  C   UNL     1     -24.012 -10.098  -8.352  1.00  0.00     0.066 C 
BRANCH  12  13
ATOM     13  C   UNL     1     -24.556  -8.761  -8.833  1.00  0.00     0.140 C 
ATOM     14  O   UNL     1     -24.160  -8.270  -9.881  1.00  0.00    -0.299 OA
BRANCH  13  15
ATOM     15  C   UNL     1     -25.607  -8.043  -8.026  1.00  0.00     0.106 CG0
ATOM     16  G   UNL     1     -25.068  -6.855  -7.236  1.00  0.00     0.000 G0
ENDBRANCH  13  15
ENDBRANCH  12  13
BRANCH  12  17
ATOM     17  C   UNL     1     -23.117 -10.835  -9.398  1.00  0.00    -0.006 C 
ATOM     18  C   UNL     1     -21.634 -10.807  -8.998  1.00  0.00     0.008 C 
ATOM     19  C   UNL     1     -23.560 -12.275  -9.719  1.00  0.00     0.008 C 
ENDBRANCH  12  17
ENDBRANCH  11  12
ENDBRANCH   1  11
TORSDOF 1
ENDMDL
MODEL 6
REMARK VINA RESULT:    -2.629      2.037      4.192
REMARK INTER + INTRA:          -4.096
REMARK INTER:                  -3.909
REMARK INTRA:                  -0.187
REMARK UNBOUND:                -0.085
REMARK SMILES CC1=CCC[C@H](C)C(=O)C[C@H](C(C)C)C(=O)C1
REMARK SMILES IDX 8 1 9 2 6 3 7 4 5 5 4 6 3 7 2 8 1 9 10 11 11 12 15 13 16 14
REMARK SMILES IDX 17 15 12 17 13 18 14 19
REMARK H PARENT
REMARK Flexibility Score: 70.00
ROOT
ATOM      1  C   UNL     1      -7.783 -14.358  -6.698  1.00  0.00     0.136 C 
ATOM      2  O   UNL     1      -6.637 -14.707  -6.454  1.00  0.00    -0.299 OA
ENDROOT
BRANCH   1   3
ATOM      3  C   UNL     1      -8.131 -14.017  -8.140  1.00  0.00     0.053 C 
ATOM      4  C   UNL     1      -9.641 -14.018  -8.429  1.00  0.00     0.016 C 
BRANCH   3   5
ATOM      5  C   UNL     1      -7.412 -12.738  -8.626  1.00  0.00     0.015 C 
BRANCH   5   6
ATOM      6  C   UNL     1      -8.266 -11.459  -8.541  1.00  0.00     0.028 C 
BRANCH   6   7
ATOM      7  C   UNL     1      -7.822 -10.531  -7.438  1.00  0.00    -0.028 C 
ATOM      8  C   UNL     1      -8.386 -10.449  -6.206  1.00  0.00    -0.070 CG0
ATOM      9  C   UNL     1      -7.858  -9.396  -5.264  1.00  0.00     0.039 C 
ATOM     10  G   UNL     1      -9.488 -11.382  -5.719  1.00  0.00     0.000 G0
ENDBRANCH   6   7
ENDBRANCH   5   6
ENDBRANCH   3   5
ENDBRANCH   1   3
BRANCH   1  11
ATOM     11  C   UNL     1      -8.777 -14.310  -5.552  1.00  0.00     0.087 C 
BRANCH  11  12
ATOM     12  C   UNL     1      -8.318 -13.364  -4.412  1.00  0.00     0.066 C 
BRANCH  12  13
ATOM     13  C   UNL     1      -9.143 -12.084  -4.398  1.00  0.00     0.140 C 
ATOM     14  O   UNL     1      -9.515 -11.598  -3.340  1.00  0.00    -0.299 OA
BRANCH  13  15
ATOM     15  C   UNL     1      -9.486 -11.397  -5.695  1.00  0.00     0.106 CG0
ATOM     16  G   UNL     1      -8.397 -10.456  -6.197  1.00  0.00     0.000 G0
ENDBRANCH  13  15
ENDBRANCH  12  13
BRANCH  12  17
ATOM     17  C   UNL     1      -8.243 -14.088  -3.031  1.00  0.00    -0.006 C 
ATOM     18  C   UNL     1      -8.078 -15.607  -3.195  1.00  0.00     0.008 C 
ATOM     19  C   UNL     1      -7.174 -13.531  -2.072  1.00  0.00     0.008 C 
ENDBRANCH  12  17
ENDBRANCH  11  12
ENDBRANCH   1  11
TORSDOF 1
ENDMDL
MODEL 7
REMARK VINA RESULT:    -2.587      1.510      2.118
REMARK INTER + INTRA:          -4.033
REMARK INTER:                  -4.225
REMARK INTRA:                   0.192
REMARK UNBOUND:                -0.085
REMARK SMILES CC1=CCC[C@H](C)C(=O)C[C@H](C(C)C)C(=O)C1
REMARK SMILES IDX 8 1 9 2 6 3 7 4 5 5 4 6 3 7 2 8 1 9 10 11 11 12 15 13 16 14
REMARK SMILES IDX 17 15 12 17 13 18 14 19
REMARK H PARENT
REMARK Flexibility Score: 70.00
ROOT
ATOM      1  C   UNL     1      -8.879 -12.225  -3.665  1.00  0.00     0.136 C 
ATOM      2  O   UNL     1      -9.627 -11.496  -3.031  1.00  0.00    -0.299 OA
ENDROOT
BRANCH   1   3
ATOM      3  C   UNL     1      -9.022 -12.247  -5.180  1.00  0.00     0.053 C 
ATOM      4  C   UNL     1     -10.428 -11.868  -5.674  1.00  0.00     0.016 C 
BRANCH   3   5
ATOM      5  C   UNL     1      -7.890 -11.465  -5.885  1.00  0.00     0.015 C 
BRANCH   5   6
ATOM      6  C   UNL     1      -6.628 -12.300  -6.175  1.00  0.00     0.028 C 
BRANCH   6   7
ATOM      7  C   UNL     1      -6.945 -13.674  -6.710  1.00  0.00    -0.028 C 
ATOM      8  C   UNL     1      -6.830 -14.833  -6.014  1.00  0.00    -0.070 CG0
ATOM      9  C   UNL     1      -7.109 -16.120  -6.749  1.00  0.00     0.039 C 
ATOM     10  G   UNL     1      -6.474 -14.897  -4.534  1.00  0.00     0.000 G0
ENDBRANCH   6   7
ENDBRANCH   5   6
ENDBRANCH   3   5
ENDBRANCH   1   3
BRANCH   1  11
ATOM     11  C   UNL     1      -7.851 -13.038  -2.899  1.00  0.00     0.087 C 
BRANCH  11  12
ATOM     12  C   UNL     1      -8.299 -14.507  -2.686  1.00  0.00     0.066 C 
BRANCH  12  13
ATOM     13  C   UNL     1      -7.587 -15.442  -3.653  1.00  0.00     0.140 C 
ATOM     14  O   UNL     1      -7.921 -16.614  -3.743  1.00  0.00    -0.299 OA
BRANCH  13  15
ATOM     15  C   UNL     1      -6.473 -14.917  -4.524  1.00  0.00     0.106 CG0
ATOM     16  G   UNL     1      -6.840 -14.829  -6.001  1.00  0.00     0.000 G0
ENDBRANCH  13  15
ENDBRANCH  12  13
BRANCH  12  17
ATOM     17  C   UNL     1      -8.207 -14.947  -1.191  1.00  0.00    -0.006 C 
ATOM     18  C   UNL     1      -9.251 -16.021  -0.850  1.00  0.00     0.008 C 
ATOM     19  C   UNL     1      -6.805 -15.398  -0.741  1.00  0.00     0.008 C 
ENDBRANCH  12  17
ENDBRANCH  11  12
ENDBRANCH   1  11
TORSDOF 1
ENDMDL
MODEL 8
REMARK VINA RESULT:    -2.580      2.555      4.488
REMARK INTER + INTRA:          -4.022
REMARK INTER:                  -4.001
REMARK INTRA:                  -0.021
REMARK UNBOUND:                -0.085
REMARK SMILES CC1=CCC[C@H](C)C(=O)C[C@H](C(C)C)C(=O)C1
REMARK SMILES IDX 8 1 9 2 6 3 7 4 5 5 4 6 3 7 2 8 1 9 10 11 11 12 15 13 16 14
REMARK SMILES IDX 17 15 12 17 13 18 14 19
REMARK H PARENT
REMARK Flexibility Score: 70.00
ROOT
ATOM      1  C   UNL     1      -9.336 -11.651  -4.515  1.00  0.00     0.136 C 
ATOM      2  O   UNL     1     -10.402 -11.625  -3.918  1.00  0.00    -0.299 OA
ENDROOT
BRANCH   1   3
ATOM      3  C   UNL     1      -8.369 -12.781  -4.195  1.00  0.00     0.053 C 
ATOM      4  C   UNL     1      -8.125 -12.979  -2.690  1.00  0.00     0.016 C 
BRANCH   3   5
ATOM      5  C   UNL     1      -8.732 -14.087  -4.938  1.00  0.00     0.015 C 
BRANCH   5   6
ATOM      6  C   UNL     1      -9.478 -13.874  -6.268  1.00  0.00     0.028 C 
BRANCH   6   7
ATOM      7  C   UNL     1      -8.606 -14.116  -7.475  1.00  0.00    -0.028 C 
ATOM      8  C   UNL     1      -8.118 -13.153  -8.297  1.00  0.00    -0.070 CG0
ATOM      9  C   UNL     1      -7.334 -13.597  -9.506  1.00  0.00     0.039 C 
ATOM     10  G   UNL     1      -8.289 -11.660  -8.042  1.00  0.00     0.000 G0
ENDBRANCH   6   7
ENDBRANCH   5   6
ENDBRANCH   3   5
ENDBRANCH   1   3
BRANCH   1  11
ATOM     11  C   UNL     1      -9.065 -10.568  -5.543  1.00  0.00     0.087 C 
BRANCH  11  12
ATOM     12  C   UNL     1      -7.553 -10.410  -5.850  1.00  0.00     0.066 C 
BRANCH  12  13
ATOM     13  C   UNL     1      -7.199 -11.030  -7.194  1.00  0.00     0.140 C 
ATOM     14  O   UNL     1      -6.040 -11.049  -7.583  1.00  0.00    -0.299 OA
BRANCH  13  15
ATOM     15  C   UNL     1      -8.281 -11.645  -8.046  1.00  0.00     0.106 CG0
ATOM     16  G   UNL     1      -8.097 -13.138  -8.286  1.00  0.00     0.000 G0
ENDBRANCH  13  15
ENDBRANCH  12  13
BRANCH  12  17
ATOM     17  C   UNL     1      -7.063  -8.938  -5.679  1.00  0.00    -0.006 C 
ATOM     18  C   UNL     1      -7.183  -8.143  -6.988  1.00  0.00     0.008 C 
ATOM     19  C   UNL     1      -7.729  -8.170  -4.522  1.00  0.00     0.008 C 
ENDBRANCH  12  17
ENDBRANCH  11  12
ENDBRANCH   1  11
TORSDOF 1
ENDMDL
MODEL 9
REMARK VINA RESULT:    -2.510      1.775      4.148
REMARK INTER + INTRA:          -3.915
REMARK INTER:                  -3.597
REMARK INTRA:                  -0.319
REMARK UNBOUND:                -0.085
REMARK SMILES CC1=CCC[C@H](C)C(=O)C[C@H](C(C)C)C(=O)C1
REMARK SMILES IDX 8 1 9 2 6 3 7 4 5 5 4 6 3 7 2 8 1 9 10 11 11 12 15 13 16 14
REMARK SMILES IDX 17 15 12 17 13 18 14 19
REMARK H PARENT
REMARK Flexibility Score: 70.00
ROOT
ATOM      1  C   UNL     1      -9.751 -12.817  -5.550  1.00  0.00     0.136 C 
ATOM      2  O   UNL     1     -10.736 -12.138  -5.802  1.00  0.00    -0.299 OA
ENDROOT
BRANCH   1   3
ATOM      3  C   UNL     1      -8.691 -12.221  -4.636  1.00  0.00     0.053 C 
ATOM      4  C   UNL     1      -8.497 -10.706  -4.819  1.00  0.00     0.016 C 
BRANCH   3   5
ATOM      5  C   UNL     1      -8.887 -12.643  -3.162  1.00  0.00     0.015 C 
BRANCH   5   6
ATOM      6  C   UNL     1      -7.664 -13.338  -2.533  1.00  0.00     0.028 C 
BRANCH   6   7
ATOM      7  C   UNL     1      -7.961 -14.744  -2.075  1.00  0.00    -0.028 C 
ATOM      8  C   UNL     1      -7.754 -15.868  -2.806  1.00  0.00    -0.070 CG0
ATOM      9  C   UNL     1      -8.197 -17.181  -2.210  1.00  0.00     0.039 C 
ATOM     10  G   UNL     1      -7.070 -15.875  -4.168  1.00  0.00     0.000 G0
ENDBRANCH   6   7
ENDBRANCH   5   6
ENDBRANCH   3   5
ENDBRANCH   1   3
BRANCH   1  11
ATOM     11  C   UNL     1      -9.668 -14.209  -6.150  1.00  0.00     0.087 C 
BRANCH  11  12
ATOM     12  C   UNL     1      -8.209 -14.727  -6.240  1.00  0.00     0.066 C 
BRANCH  12  13
ATOM     13  C   UNL     1      -8.007 -15.949  -5.354  1.00  0.00     0.140 C 
ATOM     14  O   UNL     1      -8.591 -16.995  -5.597  1.00  0.00    -0.299 OA
BRANCH  13  15
ATOM     15  C   UNL     1      -7.064 -15.878  -4.180  1.00  0.00     0.106 CG0
ATOM     16  G   UNL     1      -7.768 -15.866  -2.828  1.00  0.00     0.000 G0
ENDBRANCH  13  15
ENDBRANCH  12  13
BRANCH  12  17
ATOM     17  C   UNL     1      -7.738 -14.926  -7.714  1.00  0.00    -0.006 C 
ATOM     18  C   UNL     1      -8.923 -14.947  -8.691  1.00  0.00     0.008 C 
ATOM     19  C   UNL     1      -6.670 -13.921  -8.187  1.00  0.00     0.008 C 
ENDBRANCH  12  17
ENDBRANCH  11  12
ENDBRANCH   1  11
TORSDOF 1
ENDMDL
