MODEL 1
REMARK VINA RESULT:    -3.134      0.000      0.000
REMARK INTER + INTRA:          -7.165
REMARK INTER:                  -5.698
REMARK INTRA:                  -1.466
REMARK UNBOUND:                -1.466
REMARK SMILES CCCCCCCCCCCCCC[C@H](C)C(=O)[O-]
REMARK SMILES IDX 9 1 10 2 11 3 12 4 13 5 14 6 15 7 16 8 17 9 18 10 19 11 8 12
REMARK SMILES IDX 7 13 6 14 5 15 4 16 3 17 2 18 1 19
REMARK H PARENT
REMARK Flexibility Score: inf
ROOT
ATOM      1  C   UNL     1      24.619  18.902  26.371  1.00  0.00     0.000 C 
ENDROOT
BRANCH   1   2
ATOM      2  C   UNL     1      24.466  18.875  24.841  1.00  0.00     0.000 C 
BRANCH   2   3
ATOM      3  C   UNL     1      25.622  19.593  24.122  1.00  0.00     0.000 C 
BRANCH   3   4
ATOM      4  C   UNL     1      26.133  20.817  24.900  1.00  0.00     0.000 C 
BRANCH   4   5
ATOM      5  C   UNL     1      27.631  20.726  25.231  1.00  0.00     0.001 C 
BRANCH   5   6
ATOM      6  C   UNL     1      28.215  19.382  24.767  1.00  0.00     0.009 C 
BRANCH   6   7
ATOM      7  C   UNL     1      29.636  19.533  24.185  1.00  0.00     0.032 C 
ATOM      8  C   UNL     1      30.116  20.983  24.309  1.00  0.00     0.014 C 
BRANCH   7   9
ATOM      9  C   UNL     1      29.686  19.104  22.744  1.00  0.00     0.044 C 
ATOM     10  O   UNL     1      30.795  18.876  22.190  1.00  0.00    -0.550 OA
ATOM     11  O   UNL     1      28.513  18.957  22.013  1.00  0.00    -0.550 OA
ENDBRANCH   7   9
ENDBRANCH   6   7
ENDBRANCH   5   6
ENDBRANCH   4   5
ENDBRANCH   3   4
ENDBRANCH   2   3
ENDBRANCH   1   2
BRANCH   1  12
ATOM     12  C   UNL     1      23.265  18.884  27.099  1.00  0.00     0.000 C 
BRANCH  12  13
ATOM     13  C   UNL     1      22.361  20.070  26.710  1.00  0.00    -0.000 C 
BRANCH  13  14
ATOM     14  C   UNL     1      22.617  21.370  27.496  1.00  0.00    -0.000 C 
BRANCH  14  15
ATOM     15  C   UNL     1      22.743  22.641  26.634  1.00  0.00    -0.000 C 
BRANCH  15  16
ATOM     16  C   UNL     1      24.153  23.270  26.654  1.00  0.00    -0.000 C 
BRANCH  16  17
ATOM     17  C   UNL     1      24.186  24.613  27.405  1.00  0.00    -0.000 C 
BRANCH  17  18
ATOM     18  C   UNL     1      25.299  25.543  26.899  1.00  0.00    -0.003 C 
ATOM     19  C   UNL     1      25.148  25.892  25.418  1.00  0.00     0.004 C 
ENDBRANCH  17  18
ENDBRANCH  16  17
ENDBRANCH  15  16
ENDBRANCH  14  15
ENDBRANCH  13  14
ENDBRANCH  12  13
ENDBRANCH   1  12
TORSDOF 14
ENDMDL
MODEL 2
REMARK VINA RESULT:    -2.563      2.962      6.499
REMARK INTER + INTRA:          -6.127
REMARK INTER:                  -4.968
REMARK INTRA:                  -1.159
REMARK UNBOUND:                -1.466
REMARK SMILES CCCCCCCCCCCCCC[C@H](C)C(=O)[O-]
REMARK SMILES IDX 9 1 10 2 11 3 12 4 13 5 14 6 15 7 16 8 17 9 18 10 19 11 8 12
REMARK SMILES IDX 7 13 6 14 5 15 4 16 3 17 2 18 1 19
REMARK H PARENT
REMARK Flexibility Score: inf
ROOT
ATOM      1  C   UNL     1      25.159  18.875  25.865  1.00  0.00     0.000 C 
ENDROOT
BRANCH   1   2
ATOM      2  C   UNL     1      23.840  19.096  26.622  1.00  0.00     0.000 C 
BRANCH   2   3
ATOM      3  C   UNL     1      23.002  20.240  26.023  1.00  0.00     0.000 C 
BRANCH   3   4
ATOM      4  C   UNL     1      22.286  21.073  27.097  1.00  0.00     0.000 C 
BRANCH   4   5
ATOM      5  C   UNL     1      22.568  22.578  26.967  1.00  0.00     0.001 C 
BRANCH   5   6
ATOM      6  C   UNL     1      23.966  22.825  26.374  1.00  0.00     0.009 C 
BRANCH   6   7
ATOM      7  C   UNL     1      24.633  24.086  26.961  1.00  0.00     0.032 C 
ATOM      8  C   UNL     1      23.736  24.724  28.026  1.00  0.00     0.014 C 
BRANCH   7   9
ATOM      9  C   UNL     1      24.940  25.093  25.886  1.00  0.00     0.044 C 
ATOM     10  O   UNL     1      25.902  25.894  26.025  1.00  0.00    -0.550 OA
ATOM     11  O   UNL     1      24.164  25.149  24.733  1.00  0.00    -0.550 OA
ENDBRANCH   7   9
ENDBRANCH   6   7
ENDBRANCH   5   6
ENDBRANCH   4   5
ENDBRANCH   3   4
ENDBRANCH   2   3
ENDBRANCH   1   2
BRANCH   1  12
ATOM     12  C   UNL     1      25.049  19.232  24.373  1.00  0.00     0.000 C 
BRANCH  12  13
ATOM     13  C   UNL     1      26.422  19.353  23.683  1.00  0.00    -0.000 C 
BRANCH  13  14
ATOM     14  C   UNL     1      27.615  19.557  24.636  1.00  0.00    -0.000 C 
BRANCH  14  15
ATOM     15  C   UNL     1      27.923  21.024  24.992  1.00  0.00    -0.000 C 
BRANCH  15  16
ATOM     16  C   UNL     1      29.423  21.382  24.916  1.00  0.00    -0.000 C 
BRANCH  16  17
ATOM     17  C   UNL     1      30.243  20.316  24.169  1.00  0.00    -0.000 C 
BRANCH  17  18
ATOM     18  C   UNL     1      30.155  20.468  22.642  1.00  0.00    -0.003 C 
ATOM     19  C   UNL     1      30.745  19.272  21.895  1.00  0.00     0.004 C 
ENDBRANCH  17  18
ENDBRANCH  16  17
ENDBRANCH  15  16
ENDBRANCH  14  15
ENDBRANCH  13  14
ENDBRANCH  12  13
ENDBRANCH   1  12
TORSDOF 14
ENDMDL
MODEL 3
REMARK VINA RESULT:    -2.404      1.513      1.895
REMARK INTER + INTRA:          -5.838
REMARK INTER:                  -5.156
REMARK INTRA:                  -0.682
REMARK UNBOUND:                -1.466
REMARK SMILES CCCCCCCCCCCCCC[C@H](C)C(=O)[O-]
REMARK SMILES IDX 9 1 10 2 11 3 12 4 13 5 14 6 15 7 16 8 17 9 18 10 19 11 8 12
REMARK SMILES IDX 7 13 6 14 5 15 4 16 3 17 2 18 1 19
REMARK H PARENT
REMARK Flexibility Score: inf
ROOT
ATOM      1  C   UNL     1      25.214  19.405  26.376  1.00  0.00     0.000 C 
ENDROOT
BRANCH   1   2
ATOM      2  C   UNL     1      26.030  18.889  25.180  1.00  0.00     0.000 C 
BRANCH   2   3
ATOM      3  C   UNL     1      26.104  19.913  24.033  1.00  0.00     0.000 C 
BRANCH   3   4
ATOM      4  C   UNL     1      25.967  19.260  22.648  1.00  0.00     0.000 C 
BRANCH   4   5
ATOM      5  C   UNL     1      27.323  18.875  22.036  1.00  0.00     0.001 C 
BRANCH   5   6
ATOM      6  C   UNL     1      28.427  18.875  23.106  1.00  0.00     0.009 C 
BRANCH   6   7
ATOM      7  C   UNL     1      29.323  20.128  23.018  1.00  0.00     0.032 C 
ATOM      8  C   UNL     1      30.377  19.960  21.920  1.00  0.00     0.014 C 
BRANCH   7   9
ATOM      9  C   UNL     1      30.000  20.410  24.332  1.00  0.00     0.044 C 
ATOM     10  O   UNL     1      30.916  19.651  24.748  1.00  0.00    -0.550 OA
ATOM     11  O   UNL     1      29.619  21.506  25.098  1.00  0.00    -0.550 OA
ENDBRANCH   7   9
ENDBRANCH   6   7
ENDBRANCH   5   6
ENDBRANCH   4   5
ENDBRANCH   3   4
ENDBRANCH   2   3
ENDBRANCH   1   2
BRANCH   1  12
ATOM     12  C   UNL     1      23.736  18.988  26.305  1.00  0.00     0.000 C 
BRANCH  12  13
ATOM     13  C   UNL     1      22.804  20.151  25.914  1.00  0.00    -0.000 C 
BRANCH  13  14
ATOM     14  C   UNL     1      22.346  21.041  27.084  1.00  0.00    -0.000 C 
BRANCH  14  15
ATOM     15  C   UNL     1      22.545  22.554  26.871  1.00  0.00    -0.000 C 
BRANCH  15  16
ATOM     16  C   UNL     1      24.026  22.984  26.805  1.00  0.00    -0.000 C 
BRANCH  16  17
ATOM     17  C   UNL     1      24.283  24.320  27.525  1.00  0.00    -0.000 C 
BRANCH  17  18
ATOM     18  C   UNL     1      25.119  25.293  26.679  1.00  0.00    -0.003 C 
ATOM     19  C   UNL     1      24.665  25.347  25.220  1.00  0.00     0.004 C 
ENDBRANCH  17  18
ENDBRANCH  16  17
ENDBRANCH  15  16
ENDBRANCH  14  15
ENDBRANCH  13  14
ENDBRANCH  12  13
ENDBRANCH   1  12
TORSDOF 14
ENDMDL
MODEL 4
REMARK VINA RESULT:    -1.902      2.970      6.311
REMARK INTER + INTRA:          -4.925
REMARK INTER:                  -3.566
REMARK INTRA:                  -1.359
REMARK UNBOUND:                -1.466
REMARK SMILES CCCCCCCCCCCCCC[C@H](C)C(=O)[O-]
REMARK SMILES IDX 9 1 10 2 11 3 12 4 13 5 14 6 15 7 16 8 17 9 18 10 19 11 8 12
REMARK SMILES IDX 7 13 6 14 5 15 4 16 3 17 2 18 1 19
REMARK H PARENT
REMARK Flexibility Score: inf
ROOT
ATOM      1  C   UNL     1      24.640  19.499  26.089  1.00  0.00     0.000 C 
ENDROOT
BRANCH   1   2
ATOM      2  C   UNL     1      23.430  18.875  26.803  1.00  0.00     0.000 C 
BRANCH   2   3
ATOM      3  C   UNL     1      22.506  19.935  27.428  1.00  0.00     0.000 C 
BRANCH   3   4
ATOM      4  C   UNL     1      22.331  21.171  26.530  1.00  0.00     0.000 C 
BRANCH   4   5
ATOM      5  C   UNL     1      22.946  22.440  27.141  1.00  0.00     0.001 C 
BRANCH   5   6
ATOM      6  C   UNL     1      24.106  22.959  26.275  1.00  0.00     0.009 C 
BRANCH   6   7
ATOM      7  C   UNL     1      24.724  24.252  26.844  1.00  0.00     0.032 C 
ATOM      8  C   UNL     1      23.807  24.866  27.907  1.00  0.00     0.014 C 
BRANCH   7   9
ATOM      9  C   UNL     1      24.985  25.259  25.756  1.00  0.00     0.044 C 
ATOM     10  O   UNL     1      24.300  25.239  24.699  1.00  0.00    -0.550 OA
ATOM     11  O   UNL     1      25.982  26.215  25.908  1.00  0.00    -0.550 OA
ENDBRANCH   7   9
ENDBRANCH   6   7
ENDBRANCH   5   6
ENDBRANCH   4   5
ENDBRANCH   3   4
ENDBRANCH   2   3
ENDBRANCH   1   2
BRANCH   1  12
ATOM     12  C   UNL     1      24.728  19.088  24.610  1.00  0.00     0.000 C 
BRANCH  12  13
ATOM     13  C   UNL     1      25.770  19.906  23.822  1.00  0.00    -0.000 C 
BRANCH  13  14
ATOM     14  C   UNL     1      26.350  19.200  22.582  1.00  0.00    -0.000 C 
BRANCH  14  15
ATOM     15  C   UNL     1      27.858  18.892  22.651  1.00  0.00    -0.000 C 
BRANCH  15  16
ATOM     16  C   UNL     1      28.425  18.879  24.087  1.00  0.00    -0.000 C 
BRANCH  16  17
ATOM     17  C   UNL     1      29.515  19.945  24.298  1.00  0.00    -0.000 C 
BRANCH  17  18
ATOM     18  C   UNL     1      28.954  21.255  24.871  1.00  0.00    -0.003 C 
ATOM     19  C   UNL     1      28.010  21.027  26.052  1.00  0.00     0.004 C 
ENDBRANCH  17  18
ENDBRANCH  16  17
ENDBRANCH  15  16
ENDBRANCH  14  15
ENDBRANCH  13  14
ENDBRANCH  12  13
ENDBRANCH   1  12
TORSDOF 14
ENDMDL
MODEL 5
REMARK VINA RESULT:    -1.657     20.248     22.960
REMARK INTER + INTRA:          -4.479
REMARK INTER:                  -4.160
REMARK INTRA:                  -0.320
REMARK UNBOUND:                -1.466
REMARK SMILES CCCCCCCCCCCCCC[C@H](C)C(=O)[O-]
REMARK SMILES IDX 9 1 10 2 11 3 12 4 13 5 14 6 15 7 16 8 17 9 18 10 19 11 8 12
REMARK SMILES IDX 7 13 6 14 5 15 4 16 3 17 2 18 1 19
REMARK H PARENT
REMARK Flexibility Score: inf
ROOT
ATOM      1  C   UNL     1      13.234  34.958  13.256  1.00  0.00     0.000 C 
ENDROOT
BRANCH   1   2
ATOM      2  C   UNL     1      13.005  34.396  11.843  1.00  0.00     0.000 C 
BRANCH   2   3
ATOM      3  C   UNL     1      14.275  33.761  11.249  1.00  0.00     0.000 C 
BRANCH   3   4
ATOM      4  C   UNL     1      13.975  32.499  10.426  1.00  0.00     0.000 C 
BRANCH   4   5
ATOM      5  C   UNL     1      12.967  31.566  11.115  1.00  0.00     0.001 C 
BRANCH   5   6
ATOM      6  C   UNL     1      13.647  30.747  12.224  1.00  0.00     0.009 C 
BRANCH   6   7
ATOM      7  C   UNL     1      13.029  29.340  12.371  1.00  0.00     0.032 C 
ATOM      8  C   UNL     1      13.616  28.619  13.589  1.00  0.00     0.014 C 
BRANCH   7   9
ATOM      9  C   UNL     1      13.253  28.513  11.135  1.00  0.00     0.044 C 
ATOM     10  O   UNL     1      13.765  29.034  10.108  1.00  0.00    -0.550 OA
ATOM     11  O   UNL     1      12.895  27.170  11.114  1.00  0.00    -0.550 OA
ENDBRANCH   7   9
ENDBRANCH   6   7
ENDBRANCH   5   6
ENDBRANCH   4   5
ENDBRANCH   3   4
ENDBRANCH   2   3
ENDBRANCH   1   2
BRANCH   1  12
ATOM     12  C   UNL     1      13.224  36.495  13.287  1.00  0.00     0.000 C 
BRANCH  12  13
ATOM     13  C   UNL     1      13.078  37.121  11.887  1.00  0.00    -0.000 C 
BRANCH  13  14
ATOM     14  C   UNL     1      13.575  38.574  11.767  1.00  0.00    -0.000 C 
BRANCH  14  15
ATOM     15  C   UNL     1      13.770  39.081  10.325  1.00  0.00    -0.000 C 
BRANCH  15  16
ATOM     16  C   UNL     1      15.246  39.125   9.875  1.00  0.00    -0.000 C 
BRANCH  16  17
ATOM     17  C   UNL     1      16.178  38.373  10.841  1.00  0.00    -0.000 C 
BRANCH  17  18
ATOM     18  C   UNL     1      17.560  39.033  10.960  1.00  0.00    -0.003 C 
ATOM     19  C   UNL     1      18.706  38.024  10.879  1.00  0.00     0.004 C 
ENDBRANCH  17  18
ENDBRANCH  16  17
ENDBRANCH  15  16
ENDBRANCH  14  15
ENDBRANCH  13  14
ENDBRANCH  12  13
ENDBRANCH   1  12
TORSDOF 14
ENDMDL
MODEL 6
REMARK VINA RESULT:    -1.156      1.546      3.949
REMARK INTER + INTRA:          -3.568
REMARK INTER:                  -3.134
REMARK INTRA:                  -0.434
REMARK UNBOUND:                -1.466
REMARK SMILES CCCCCCCCCCCCCC[C@H](C)C(=O)[O-]
REMARK SMILES IDX 9 1 10 2 11 3 12 4 13 5 14 6 15 7 16 8 17 9 18 10 19 11 8 12
REMARK SMILES IDX 7 13 6 14 5 15 4 16 3 17 2 18 1 19
REMARK H PARENT
REMARK Flexibility Score: inf
ROOT
ATOM      1  C   UNL     1      24.887  22.832  26.136  1.00  0.00     0.000 C 
ENDROOT
BRANCH   1   2
ATOM      2  C   UNL     1      25.632  21.589  26.650  1.00  0.00     0.000 C 
BRANCH   2   3
ATOM      3  C   UNL     1      26.619  21.023  25.613  1.00  0.00     0.000 C 
BRANCH   3   4
ATOM      4  C   UNL     1      25.910  20.422  24.389  1.00  0.00     0.000 C 
BRANCH   4   5
ATOM      5  C   UNL     1      26.794  19.427  23.621  1.00  0.00     0.001 C 
BRANCH   5   6
ATOM      6  C   UNL     1      28.031  20.130  23.037  1.00  0.00     0.009 C 
BRANCH   6   7
ATOM      7  C   UNL     1      29.331  19.710  23.752  1.00  0.00     0.032 C 
ATOM      8  C   UNL     1      29.911  20.883  24.548  1.00  0.00     0.014 C 
BRANCH   7   9
ATOM      9  C   UNL     1      30.356  19.205  22.773  1.00  0.00     0.044 C 
ATOM     10  O   UNL     1      30.058  19.076  21.555  1.00  0.00    -0.550 OA
ATOM     11  O   UNL     1      31.636  18.875  23.203  1.00  0.00    -0.550 OA
ENDBRANCH   7   9
ENDBRANCH   6   7
ENDBRANCH   5   6
ENDBRANCH   4   5
ENDBRANCH   3   4
ENDBRANCH   2   3
ENDBRANCH   1   2
BRANCH   1  12
ATOM     12  C   UNL     1      23.648  23.168  26.982  1.00  0.00     0.000 C 
BRANCH  12  13
ATOM     13  C   UNL     1      22.588  22.050  26.961  1.00  0.00    -0.000 C 
BRANCH  13  14
ATOM     14  C   UNL     1      22.964  20.810  26.129  1.00  0.00    -0.000 C 
BRANCH  14  15
ATOM     15  C   UNL     1      22.559  19.459  26.750  1.00  0.00    -0.000 C 
BRANCH  15  16
ATOM     16  C   UNL     1      23.411  19.056  27.973  1.00  0.00    -0.000 C 
BRANCH  16  17
ATOM     17  C   UNL     1      22.564  18.876  29.245  1.00  0.00    -0.000 C 
BRANCH  17  18
ATOM     18  C   UNL     1      21.277  19.716  29.219  1.00  0.00    -0.003 C 
ATOM     19  C   UNL     1      20.021  18.877  29.458  1.00  0.00     0.004 C 
ENDBRANCH  17  18
ENDBRANCH  16  17
ENDBRANCH  15  16
ENDBRANCH  14  15
ENDBRANCH  13  14
ENDBRANCH  12  13
ENDBRANCH   1  12
TORSDOF 14
ENDMDL
