MODEL 1
REMARK VINA RESULT:     0.818      0.000      0.000
REMARK INTER + INTRA:           4.275
REMARK INTER:                   0.985
REMARK INTRA:                   3.290
REMARK UNBOUND:                 3.290
REMARK SMILES O=c1c(O)c(-c2ccc(O)cc2O)oc2cc(O)cc(O)c12
REMARK SMILES IDX 5 1 3 2 2 3 1 4 22 5 20 6 19 7 17 8 16 9 15 10 14 11 6 12
REMARK SMILES IDX 8 13 7 14 9 15 11 16 12 17 10 18 13 20 4 22 21 24 18 26
REMARK H PARENT 10 19 13 21 4 23 21 25 18 27
REMARK Flexibility Score: inf
ROOT
ATOM      1  C   UNL     1     -14.036  18.514 -19.845  1.00  0.00     0.184 A 
ATOM      2  C   UNL     1     -14.024  17.663 -18.729  1.00  0.00     0.208 A 
ATOM      3  C   UNL     1     -13.980  16.275 -18.933  1.00  0.00     0.238 A 
ATOM      4  O   UNL     1     -14.023  15.515 -17.931  1.00  0.00    -0.285 OA
ATOM      5  C   UNL     1     -13.932  15.758 -20.251  1.00  0.00     0.111 A 
ATOM      6  C   UNL     1     -13.843  14.371 -20.574  1.00  0.00     0.134 A 
ATOM      7  C   UNL     1     -13.933  13.967 -21.912  1.00  0.00     0.093 A 
ATOM      8  C   UNL     1     -14.041  14.905 -22.942  1.00  0.00     0.123 A 
ATOM      9  C   UNL     1     -14.069  16.264 -22.641  1.00  0.00     0.094 A 
ATOM     10  C   UNL     1     -14.018  16.696 -21.313  1.00  0.00     0.146 A 
ATOM     11  O   UNL     1     -14.058  18.001 -21.069  1.00  0.00    -0.451 OA
ENDROOT
BRANCH   1  12
ATOM     12  C   UNL     1     -14.067  19.984 -19.700  1.00  0.00     0.063 A 
ATOM     13  C   UNL     1     -14.107  22.176 -20.752  1.00  0.00     0.047 A 
ATOM     14  C   UNL     1     -14.083  20.783 -20.854  1.00  0.00     0.020 A 
ATOM     15  C   UNL     1     -14.098  22.789 -19.496  1.00  0.00     0.119 A 
ATOM     16  C   UNL     1     -14.057  22.003 -18.338  1.00  0.00     0.093 A 
ATOM     17  C   UNL     1     -14.028  20.603 -18.432  1.00  0.00     0.130 A 
BRANCH  15  18
ATOM     18  O   UNL     1     -14.124  24.179 -19.410  1.00  0.00    -0.508 OA
ATOM     19  H   UNL     1     -14.812  24.728 -19.913  1.00  0.00     0.293 HD
ENDBRANCH  15  18
BRANCH  17  20
ATOM     20  O   UNL     1     -13.938  19.831 -17.273  1.00  0.00    -0.507 OA
ATOM     21  H   UNL     1     -14.682  19.203 -16.994  1.00  0.00     0.293 HD
ENDBRANCH  17  20
ENDBRANCH   1  12
BRANCH   2  22
ATOM     22  O   UNL     1     -14.091  18.199 -17.440  1.00  0.00    -0.502 OA
ATOM     23  H   UNL     1     -13.384  18.016 -16.738  1.00  0.00     0.293 HD
ENDBRANCH   2  22
BRANCH   6  24
ATOM     24  O   UNL     1     -13.642  13.360 -19.629  1.00  0.00    -0.507 OA
ATOM     25  H   UNL     1     -13.375  13.516 -18.669  1.00  0.00     0.293 HD
ENDBRANCH   6  24
BRANCH   8  26
ATOM     26  O   UNL     1     -14.115  14.494 -24.272  1.00  0.00    -0.508 OA
ATOM     27  H   UNL     1     -14.589  13.639 -24.537  1.00  0.00     0.293 HD
ENDBRANCH   8  26
TORSDOF 6
ENDMDL
MODEL 2
REMARK VINA RESULT:     2.035      1.275      6.554
REMARK INTER + INTRA:           5.742
REMARK INTER:                   5.131
REMARK INTRA:                   0.611
REMARK UNBOUND:                 3.290
REMARK SMILES O=c1c(O)c(-c2ccc(O)cc2O)oc2cc(O)cc(O)c12
REMARK SMILES IDX 5 1 3 2 2 3 1 4 22 5 20 6 19 7 17 8 16 9 15 10 14 11 6 12
REMARK SMILES IDX 8 13 7 14 9 15 11 16 12 17 10 18 13 20 4 22 21 24 18 26
REMARK H PARENT 10 19 13 21 4 23 21 25 18 27
REMARK Flexibility Score: inf
ROOT
ATOM      1  C   UNL     1     -13.998  16.211 -20.744  1.00  0.00     0.184 A 
ATOM      2  C   UNL     1     -13.864  15.863 -19.390  1.00  0.00     0.208 A 
ATOM      3  C   UNL     1     -13.856  16.881 -18.424  1.00  0.00     0.238 A 
ATOM      4  O   UNL     1     -13.682  16.568 -17.217  1.00  0.00    -0.285 OA
ATOM      5  C   UNL     1     -13.999  18.232 -18.823  1.00  0.00     0.111 A 
ATOM      6  C   UNL     1     -14.047  19.342 -17.927  1.00  0.00     0.134 A 
ATOM      7  C   UNL     1     -14.061  20.644 -18.440  1.00  0.00     0.093 A 
ATOM      8  C   UNL     1     -14.096  20.875 -19.818  1.00  0.00     0.123 A 
ATOM      9  C   UNL     1     -14.109  19.798 -20.700  1.00  0.00     0.094 A 
ATOM     10  C   UNL     1     -14.059  18.488 -20.218  1.00  0.00     0.146 A 
ATOM     11  O   UNL     1     -14.064  17.489 -21.095  1.00  0.00    -0.451 OA
ENDROOT
BRANCH   1  12
ATOM     12  C   UNL     1     -14.029  15.188 -21.809  1.00  0.00     0.063 A 
ATOM     13  C   UNL     1     -13.959  12.839 -22.437  1.00  0.00     0.047 A 
ATOM     14  C   UNL     1     -13.938  13.833 -21.454  1.00  0.00     0.020 A 
ATOM     15  C   UNL     1     -14.054  13.188 -23.787  1.00  0.00     0.119 A 
ATOM     16  C   UNL     1     -14.121  14.538 -24.153  1.00  0.00     0.093 A 
ATOM     17  C   UNL     1     -14.096  15.542 -23.173  1.00  0.00     0.130 A 
BRANCH  15  18
ATOM     18  O   UNL     1     -14.077  12.187 -24.755  1.00  0.00    -0.508 OA
ATOM     19  H   UNL     1     -14.922  11.668 -24.961  1.00  0.00     0.293 HD
ENDBRANCH  15  18
BRANCH  17  20
ATOM     20  O   UNL     1     -14.112  16.884 -23.553  1.00  0.00    -0.507 OA
ATOM     21  H   UNL     1     -13.632  17.595 -23.014  1.00  0.00     0.293 HD
ENDBRANCH  17  20
ENDBRANCH   1  12
BRANCH   2  22
ATOM     22  O   UNL     1     -13.705  14.524 -19.025  1.00  0.00    -0.502 OA
ATOM     23  H   UNL     1     -12.950  14.209 -18.428  1.00  0.00     0.293 HD
ENDBRANCH   2  22
BRANCH   6  24
ATOM     24  O   UNL     1     -14.109  19.219 -16.535  1.00  0.00    -0.507 OA
ATOM     25  H   UNL     1     -13.758  19.903 -15.882  1.00  0.00     0.293 HD
ENDBRANCH   6  24
BRANCH   8  26
ATOM     26  O   UNL     1     -14.125  22.175 -20.319  1.00  0.00    -0.508 OA
ATOM     27  H   UNL     1     -13.451  22.872 -20.025  1.00  0.00     0.293 HD
ENDBRANCH   8  26
TORSDOF 6
ENDMDL
