MODEL 1
REMARK VINA RESULT:    -3.590      0.000      0.000
REMARK INTER + INTRA:          -3.816
REMARK INTER:                  -3.800
REMARK INTRA:                  -0.016
REMARK UNBOUND:                -0.016
REMARK SMILES O=C([O-])c1cccnc1
REMARK SMILES IDX 4 1 5 2 9 3 6 4 8 5 7 6 2 7 1 8 3 9
REMARK H PARENT
REMARK Flexibility Score: inf
ROOT
ATOM      1  C   UNL     1      35.185  -1.971  23.402  1.00  0.00     0.016 A 
ATOM      2  C   UNL     1      36.295  -1.860  24.255  1.00  0.00     0.013 A 
ATOM      3  C   UNL     1      33.900  -1.848  23.958  1.00  0.00     0.120 A 
ATOM      4  C   UNL     1      36.110  -1.632  25.619  1.00  0.00     0.021 A 
ATOM      5  N   UNL     1      33.747  -1.626  25.291  1.00  0.00    -0.264 NA
ATOM      6  C   UNL     1      34.815  -1.516  26.125  1.00  0.00     0.111 A 
ENDROOT
BRANCH   1   7
ATOM      7  C   UNL     1      35.368  -2.213  21.955  1.00  0.00     0.073 C 
ATOM      8  O   UNL     1      35.628  -1.260  21.174  1.00  0.00    -0.545 OA
ATOM      9  O   UNL     1      35.256  -3.498  21.436  1.00  0.00    -0.545 OA
ENDBRANCH   1   7
TORSDOF 1
ENDMDL
MODEL 2
REMARK VINA RESULT:    -3.522      0.920      1.601
REMARK INTER + INTRA:          -3.744
REMARK INTER:                  -3.728
REMARK INTRA:                  -0.016
REMARK UNBOUND:                -0.016
REMARK SMILES O=C([O-])c1cccnc1
REMARK SMILES IDX 4 1 5 2 9 3 6 4 8 5 7 6 2 7 1 8 3 9
REMARK H PARENT
REMARK Flexibility Score: inf
ROOT
ATOM      1  C   UNL     1      35.209  -2.000  23.387  1.00  0.00     0.016 A 
ATOM      2  C   UNL     1      33.923  -1.933  23.949  1.00  0.00     0.013 A 
ATOM      3  C   UNL     1      36.318  -1.854  24.238  1.00  0.00     0.120 A 
ATOM      4  C   UNL     1      33.768  -1.728  25.321  1.00  0.00     0.021 A 
ATOM      5  N   UNL     1      36.140  -1.655  25.571  1.00  0.00    -0.264 NA
ATOM      6  C   UNL     1      34.900  -1.590  26.125  1.00  0.00     0.111 A 
ENDROOT
BRANCH   1   7
ATOM      7  C   UNL     1      35.386  -2.216  21.935  1.00  0.00     0.073 C 
ATOM      8  O   UNL     1      35.635  -1.248  21.169  1.00  0.00    -0.545 OA
ATOM      9  O   UNL     1      35.280  -3.493  21.396  1.00  0.00    -0.545 OA
ENDBRANCH   1   7
TORSDOF 1
ENDMDL
MODEL 3
REMARK VINA RESULT:    -3.086     22.335     23.094
REMARK INTER + INTRA:          -3.283
REMARK INTER:                  -3.261
REMARK INTRA:                  -0.022
REMARK UNBOUND:                -0.016
REMARK SMILES O=C([O-])c1cccnc1
REMARK SMILES IDX 4 1 5 2 9 3 6 4 8 5 7 6 2 7 1 8 3 9
REMARK H PARENT
REMARK Flexibility Score: inf
ROOT
ATOM      1  C   UNL     1      21.816   4.800   6.505  1.00  0.00     0.016 A 
ATOM      2  C   UNL     1      20.599   5.431   6.810  1.00  0.00     0.013 A 
ATOM      3  C   UNL     1      22.878   5.590   6.031  1.00  0.00     0.120 A 
ATOM      4  C   UNL     1      20.463   6.809   6.641  1.00  0.00     0.021 A 
ATOM      5  N   UNL     1      22.719   6.931   5.875  1.00  0.00    -0.264 NA
ATOM      6  C   UNL     1      21.546   7.552   6.168  1.00  0.00     0.111 A 
ENDROOT
BRANCH   1   7
ATOM      7  C   UNL     1      21.973   3.340   6.679  1.00  0.00     0.073 C 
ATOM      8  O   UNL     1      21.301   2.723   7.548  1.00  0.00    -0.545 OA
ATOM      9  O   UNL     1      22.864   2.627   5.885  1.00  0.00    -0.545 OA
ENDBRANCH   1   7
TORSDOF 1
ENDMDL
MODEL 4
REMARK VINA RESULT:    -2.814     23.201     23.954
REMARK INTER + INTRA:          -2.995
REMARK INTER:                  -2.977
REMARK INTRA:                  -0.017
REMARK UNBOUND:                -0.016
REMARK SMILES O=C([O-])c1cccnc1
REMARK SMILES IDX 4 1 5 2 9 3 6 4 8 5 7 6 2 7 1 8 3 9
REMARK H PARENT
REMARK Flexibility Score: inf
ROOT
ATOM      1  C   UNL     1      20.909   6.802   6.712  1.00  0.00     0.016 A 
ATOM      2  C   UNL     1      20.677   5.416   6.717  1.00  0.00     0.013 A 
ATOM      3  C   UNL     1      22.162   7.267   6.278  1.00  0.00     0.120 A 
ATOM      4  C   UNL     1      21.677   4.537   6.299  1.00  0.00     0.021 A 
ATOM      5  N   UNL     1      23.119   6.389   5.875  1.00  0.00    -0.264 NA
ATOM      6  C   UNL     1      22.905   5.047   5.876  1.00  0.00     0.111 A 
ENDROOT
BRANCH   1   7
ATOM      7  C   UNL     1      19.858   7.743   7.153  1.00  0.00     0.073 C 
ATOM      8  O   UNL     1      19.498   7.781   8.359  1.00  0.00    -0.545 OA
ATOM      9  O   UNL     1      19.253   8.601   6.242  1.00  0.00    -0.545 OA
ENDBRANCH   1   7
TORSDOF 1
ENDMDL
MODEL 5
REMARK VINA RESULT:    -2.555      2.326      2.917
REMARK INTER + INTRA:          -2.720
REMARK INTER:                  -2.700
REMARK INTRA:                  -0.020
REMARK UNBOUND:                -0.016
REMARK SMILES O=C([O-])c1cccnc1
REMARK SMILES IDX 4 1 5 2 9 3 6 4 8 5 7 6 2 7 1 8 3 9
REMARK H PARENT
REMARK Flexibility Score: inf
ROOT
ATOM      1  C   UNL     1      34.256  -2.141  24.731  1.00  0.00     0.016 A 
ATOM      2  C   UNL     1      33.897  -2.938  25.830  1.00  0.00     0.013 A 
ATOM      3  C   UNL     1      33.231  -1.582  23.948  1.00  0.00     0.120 A 
ATOM      4  C   UNL     1      32.552  -3.161  26.125  1.00  0.00     0.021 A 
ATOM      5  N   UNL     1      31.927  -1.815  24.256  1.00  0.00    -0.264 NA
ATOM      6  C   UNL     1      31.569  -2.585  25.318  1.00  0.00     0.111 A 
ENDROOT
BRANCH   1   7
ATOM      7  C   UNL     1      35.679  -1.898  24.409  1.00  0.00     0.073 C 
ATOM      8  O   UNL     1      36.072  -1.894  23.213  1.00  0.00    -0.545 OA
ATOM      9  O   UNL     1      36.601  -1.670  25.423  1.00  0.00    -0.545 OA
ENDBRANCH   1   7
TORSDOF 1
ENDMDL
MODEL 6
REMARK VINA RESULT:    -2.553      1.920      2.634
REMARK INTER + INTRA:          -2.719
REMARK INTER:                  -2.699
REMARK INTRA:                  -0.019
REMARK UNBOUND:                -0.016
REMARK SMILES O=C([O-])c1cccnc1
REMARK SMILES IDX 4 1 5 2 9 3 6 4 8 5 7 6 2 7 1 8 3 9
REMARK H PARENT
REMARK Flexibility Score: inf
ROOT
ATOM      1  C   UNL     1      34.159  -2.266  24.283  1.00  0.00     0.016 A 
ATOM      2  C   UNL     1      32.881  -1.685  24.257  1.00  0.00     0.013 A 
ATOM      3  C   UNL     1      34.423  -3.256  25.246  1.00  0.00     0.120 A 
ATOM      4  C   UNL     1      31.907  -2.091  25.171  1.00  0.00     0.021 A 
ATOM      5  N   UNL     1      33.457  -3.634  26.125  1.00  0.00    -0.264 NA
ATOM      6  C   UNL     1      32.216  -3.078  26.107  1.00  0.00     0.111 A 
ENDROOT
BRANCH   1   7
ATOM      7  C   UNL     1      35.199  -1.843  23.321  1.00  0.00     0.073 C 
ATOM      8  O   UNL     1      36.375  -1.614  23.709  1.00  0.00    -0.545 OA
ATOM      9  O   UNL     1      34.892  -1.692  21.974  1.00  0.00    -0.545 OA
ENDBRANCH   1   7
TORSDOF 1
ENDMDL
MODEL 7
REMARK VINA RESULT:    -2.548      2.719      3.657
REMARK INTER + INTRA:          -2.713
REMARK INTER:                  -2.691
REMARK INTRA:                  -0.022
REMARK UNBOUND:                -0.016
REMARK SMILES O=C([O-])c1cccnc1
REMARK SMILES IDX 4 1 5 2 9 3 6 4 8 5 7 6 2 7 1 8 3 9
REMARK H PARENT
REMARK Flexibility Score: inf
ROOT
ATOM      1  C   UNL     1      35.331  -1.702  24.007  1.00  0.00     0.016 A 
ATOM      2  C   UNL     1      36.471  -2.004  23.244  1.00  0.00     0.013 A 
ATOM      3  C   UNL     1      34.090  -1.623  23.351  1.00  0.00     0.120 A 
ATOM      4  C   UNL     1      36.358  -2.218  21.870  1.00  0.00     0.021 A 
ATOM      5  N   UNL     1      34.007  -1.836  22.010  1.00  0.00    -0.264 NA
ATOM      6  C   UNL     1      35.105  -2.129  21.263  1.00  0.00     0.111 A 
ENDROOT
BRANCH   1   7
ATOM      7  C   UNL     1      35.437  -1.473  25.464  1.00  0.00     0.073 C 
ATOM      8  O   UNL     1      36.380  -1.983  26.125  1.00  0.00    -0.545 OA
ATOM      9  O   UNL     1      34.497  -0.690  26.124  1.00  0.00    -0.545 OA
ENDBRANCH   1   7
TORSDOF 1
ENDMDL
MODEL 8
REMARK VINA RESULT:    -1.767      2.849      3.859
REMARK INTER + INTRA:          -1.886
REMARK INTER:                  -1.870
REMARK INTRA:                  -0.016
REMARK UNBOUND:                -0.016
REMARK SMILES O=C([O-])c1cccnc1
REMARK SMILES IDX 4 1 5 2 9 3 6 4 8 5 7 6 2 7 1 8 3 9
REMARK H PARENT
REMARK Flexibility Score: inf
ROOT
ATOM      1  C   UNL     1      34.636  -1.719  24.115  1.00  0.00     0.016 A 
ATOM      2  C   UNL     1      33.880  -1.532  22.947  1.00  0.00     0.013 A 
ATOM      3  C   UNL     1      36.008  -1.999  23.985  1.00  0.00     0.120 A 
ATOM      4  C   UNL     1      34.489  -1.625  21.695  1.00  0.00     0.021 A 
ATOM      5  N   UNL     1      36.577  -2.084  22.753  1.00  0.00    -0.264 NA
ATOM      6  C   UNL     1      35.854  -1.904  21.617  1.00  0.00     0.111 A 
ENDROOT
BRANCH   1   7
ATOM      7  C   UNL     1      34.001  -1.625  25.447  1.00  0.00     0.073 C 
ATOM      8  O   UNL     1      34.090  -0.567  26.125  1.00  0.00    -0.545 OA
ATOM      9  O   UNL     1      33.298  -2.703  25.970  1.00  0.00    -0.545 OA
ENDBRANCH   1   7
TORSDOF 1
ENDMDL
