MODEL 1
REMARK VINA RESULT:    -3.944      0.000      0.000
REMARK INTER + INTRA:         -10.527
REMARK INTER:                  -7.634
REMARK INTRA:                  -2.893
REMARK UNBOUND:                -2.893
REMARK SMILES CCCCCCCCCCCCCCCCCC(=O)[O-]
REMARK SMILES IDX 10 1 11 2 12 3 13 4 14 5 15 6 16 7 17 8 18 9 19 10 20 11
REMARK SMILES IDX 9 12 8 13 7 14 6 15 5 16 4 17 3 18 2 19 1 20
REMARK H PARENT
REMARK Flexibility Score: inf
ROOT
ATOM      1  C   UNL     1      -1.964  39.237  21.636  1.00  0.00     0.000 C 
ENDROOT
BRANCH   1   2
ATOM      2  C   UNL     1      -2.087  40.541  20.832  1.00  0.00     0.000 C 
BRANCH   2   3
ATOM      3  C   UNL     1      -3.292  40.540  19.878  1.00  0.00     0.000 C 
BRANCH   3   4
ATOM      4  C   UNL     1      -2.890  40.810  18.419  1.00  0.00     0.000 C 
BRANCH   4   5
ATOM      5  C   UNL     1      -2.704  39.519  17.603  1.00  0.00     0.000 C 
BRANCH   5   6
ATOM      6  C   UNL     1      -1.234  39.065  17.488  1.00  0.00     0.000 C 
BRANCH   6   7
ATOM      7  C   UNL     1      -0.942  37.822  18.349  1.00  0.00     0.006 C 
BRANCH   7   8
ATOM      8  C   UNL     1      -1.950  36.692  18.101  1.00  0.00     0.053 C 
BRANCH   8   9
ATOM      9  C   UNL     1      -1.321  35.536  17.387  1.00  0.00     0.041 C 
ATOM     10  O   UNL     1      -2.009  34.523  17.089  1.00  0.00    -0.550 OA
ATOM     11  O   UNL     1       0.018  35.588  17.021  1.00  0.00    -0.550 OA
ENDBRANCH   8   9
ENDBRANCH   7   8
ENDBRANCH   6   7
ENDBRANCH   5   6
ENDBRANCH   4   5
ENDBRANCH   3   4
ENDBRANCH   2   3
ENDBRANCH   1   2
BRANCH   1  12
ATOM     12  C   UNL     1      -3.111  38.276  21.301  1.00  0.00     0.000 C 
BRANCH  12  13
ATOM     13  C   UNL     1      -3.805  37.781  22.579  1.00  0.00    -0.000 C 
BRANCH  13  14
ATOM     14  C   UNL     1      -4.131  38.921  23.558  1.00  0.00    -0.000 C 
BRANCH  14  15
ATOM     15  C   UNL     1      -5.409  39.685  23.173  1.00  0.00    -0.000 C 
BRANCH  15  16
ATOM     16  C   UNL     1      -6.601  38.750  22.914  1.00  0.00    -0.000 C 
BRANCH  16  17
ATOM     17  C   UNL     1      -7.541  39.273  21.813  1.00  0.00    -0.000 C 
BRANCH  17  18
ATOM     18  C   UNL     1      -6.849  39.330  20.435  1.00  0.00    -0.000 C 
BRANCH  18  19
ATOM     19  C   UNL     1      -6.881  37.993  19.675  1.00  0.00    -0.003 C 
ATOM     20  C   UNL     1      -5.707  37.823  18.713  1.00  0.00     0.004 C 
ENDBRANCH  18  19
ENDBRANCH  17  18
ENDBRANCH  16  17
ENDBRANCH  15  16
ENDBRANCH  14  15
ENDBRANCH  13  14
ENDBRANCH  12  13
ENDBRANCH   1  12
TORSDOF 16
ENDMDL
MODEL 2
REMARK VINA RESULT:    -3.944      2.718      5.972
REMARK INTER + INTRA:         -10.526
REMARK INTER:                  -7.455
REMARK INTRA:                  -3.072
REMARK UNBOUND:                -2.893
REMARK SMILES CCCCCCCCCCCCCCCCCC(=O)[O-]
REMARK SMILES IDX 10 1 11 2 12 3 13 4 14 5 15 6 16 7 17 8 18 9 19 10 20 11
REMARK SMILES IDX 9 12 8 13 7 14 6 15 5 16 4 17 3 18 2 19 1 20
REMARK H PARENT
REMARK Flexibility Score: inf
ROOT
ATOM      1  C   UNL     1      -3.639  37.594  19.872  1.00  0.00     0.000 C 
ENDROOT
BRANCH   1   2
ATOM      2  C   UNL     1      -4.640  38.537  19.186  1.00  0.00     0.000 C 
BRANCH   2   3
ATOM      3  C   UNL     1      -5.894  37.806  18.680  1.00  0.00     0.000 C 
BRANCH   3   4
ATOM      4  C   UNL     1      -7.117  38.037  19.583  1.00  0.00     0.000 C 
BRANCH   4   5
ATOM      5  C   UNL     1      -6.946  39.247  20.518  1.00  0.00     0.000 C 
BRANCH   5   6
ATOM      6  C   UNL     1      -7.229  38.928  22.001  1.00  0.00     0.000 C 
BRANCH   6   7
ATOM      7  C   UNL     1      -5.993  38.353  22.716  1.00  0.00     0.006 C 
BRANCH   7   8
ATOM      8  C   UNL     1      -4.996  39.445  23.126  1.00  0.00     0.053 C 
BRANCH   8   9
ATOM      9  C   UNL     1      -3.673  38.868  23.521  1.00  0.00     0.041 C 
ATOM     10  O   UNL     1      -2.778  39.608  24.010  1.00  0.00    -0.550 OA
ATOM     11  O   UNL     1      -3.437  37.506  23.380  1.00  0.00    -0.550 OA
ENDBRANCH   8   9
ENDBRANCH   7   8
ENDBRANCH   6   7
ENDBRANCH   5   6
ENDBRANCH   4   5
ENDBRANCH   3   4
ENDBRANCH   2   3
ENDBRANCH   1   2
BRANCH   1  12
ATOM     12  C   UNL     1      -2.281  38.279  20.060  1.00  0.00     0.000 C 
BRANCH  12  13
ATOM     13  C   UNL     1      -2.441  39.805  20.149  1.00  0.00    -0.000 C 
BRANCH  13  14
ATOM     14  C   UNL     1      -1.391  40.562  19.320  1.00  0.00    -0.000 C 
BRANCH  14  15
ATOM     15  C   UNL     1      -1.190  39.954  17.921  1.00  0.00    -0.000 C 
BRANCH  15  16
ATOM     16  C   UNL     1      -2.287  40.373  16.931  1.00  0.00    -0.000 C 
BRANCH  16  17
ATOM     17  C   UNL     1      -2.777  39.206  16.054  1.00  0.00    -0.000 C 
BRANCH  17  18
ATOM     18  C   UNL     1      -1.939  37.927  16.267  1.00  0.00    -0.000 C 
BRANCH  18  19
ATOM     19  C   UNL     1      -2.787  36.653  16.416  1.00  0.00    -0.003 C 
ATOM     20  C   UNL     1      -2.056  35.529  17.147  1.00  0.00     0.004 C 
ENDBRANCH  18  19
ENDBRANCH  17  18
ENDBRANCH  16  17
ENDBRANCH  15  16
ENDBRANCH  14  15
ENDBRANCH  13  14
ENDBRANCH  12  13
ENDBRANCH   1  12
TORSDOF 16
ENDMDL
MODEL 3
REMARK VINA RESULT:    -3.933      3.304      7.301
REMARK INTER + INTRA:         -10.504
REMARK INTER:                  -8.943
REMARK INTRA:                  -1.561
REMARK UNBOUND:                -2.893
REMARK SMILES CCCCCCCCCCCCCCCCCC(=O)[O-]
REMARK SMILES IDX 10 1 11 2 12 3 13 4 14 5 15 6 16 7 17 8 18 9 19 10 20 11
REMARK SMILES IDX 9 12 8 13 7 14 6 15 5 16 4 17 3 18 2 19 1 20
REMARK H PARENT
REMARK Flexibility Score: inf
ROOT
ATOM      1  C   UNL     1      -2.668  37.426  19.306  1.00  0.00     0.000 C 
ENDROOT
BRANCH   1   2
ATOM      2  C   UNL     1      -3.077  38.877  19.603  1.00  0.00     0.000 C 
BRANCH   2   3
ATOM      3  C   UNL     1      -4.503  39.201  19.130  1.00  0.00     0.000 C 
BRANCH   3   4
ATOM      4  C   UNL     1      -5.270  37.951  18.668  1.00  0.00     0.000 C 
BRANCH   4   5
ATOM      5  C   UNL     1      -6.636  37.801  19.362  1.00  0.00     0.000 C 
BRANCH   5   6
ATOM      6  C   UNL     1      -7.019  39.007  20.244  1.00  0.00     0.000 C 
BRANCH   6   7
ATOM      7  C   UNL     1      -7.217  38.609  21.717  1.00  0.00     0.006 C 
BRANCH   7   8
ATOM      8  C   UNL     1      -6.364  37.396  22.111  1.00  0.00     0.053 C 
BRANCH   8   9
ATOM      9  C   UNL     1      -4.992  37.802  22.551  1.00  0.00     0.041 C 
ATOM     10  O   UNL     1      -4.059  36.957  22.585  1.00  0.00    -0.550 OA
ATOM     11  O   UNL     1      -4.734  39.124  22.895  1.00  0.00    -0.550 OA
ENDBRANCH   8   9
ENDBRANCH   7   8
ENDBRANCH   6   7
ENDBRANCH   5   6
ENDBRANCH   4   5
ENDBRANCH   3   4
ENDBRANCH   2   3
ENDBRANCH   1   2
BRANCH   1  12
ATOM     12  C   UNL     1      -1.482  37.378  18.335  1.00  0.00     0.000 C 
BRANCH  12  13
ATOM     13  C   UNL     1      -1.966  37.317  16.878  1.00  0.00    -0.000 C 
BRANCH  13  14
ATOM     14  C   UNL     1      -1.800  35.920  16.255  1.00  0.00    -0.000 C 
BRANCH  14  15
ATOM     15  C   UNL     1      -0.860  35.017  17.071  1.00  0.00    -0.000 C 
BRANCH  15  16
ATOM     16  C   UNL     1      -1.425  33.602  17.269  1.00  0.00    -0.000 C 
BRANCH  16  17
ATOM     17  C   UNL     1      -0.339  32.569  17.622  1.00  0.00    -0.000 C 
BRANCH  17  18
ATOM     18  C   UNL     1      -0.902  31.134  17.695  1.00  0.00    -0.000 C 
BRANCH  18  19
ATOM     19  C   UNL     1       0.101  30.056  17.253  1.00  0.00    -0.003 C 
ATOM     20  C   UNL     1       1.291  30.624  16.483  1.00  0.00     0.004 C 
ENDBRANCH  18  19
ENDBRANCH  17  18
ENDBRANCH  16  17
ENDBRANCH  15  16
ENDBRANCH  14  15
ENDBRANCH  13  14
ENDBRANCH  12  13
ENDBRANCH   1  12
TORSDOF 16
ENDMDL
MODEL 4
REMARK VINA RESULT:    -3.925      2.148      3.561
REMARK INTER + INTRA:         -10.489
REMARK INTER:                  -8.533
REMARK INTRA:                  -1.956
REMARK UNBOUND:                -2.893
REMARK SMILES CCCCCCCCCCCCCCCCCC(=O)[O-]
REMARK SMILES IDX 10 1 11 2 12 3 13 4 14 5 15 6 16 7 17 8 18 9 19 10 20 11
REMARK SMILES IDX 9 12 8 13 7 14 6 15 5 16 4 17 3 18 2 19 1 20
REMARK H PARENT
REMARK Flexibility Score: inf
ROOT
ATOM      1  C   UNL     1      -3.611  39.003  18.250  1.00  0.00     0.000 C 
ENDROOT
BRANCH   1   2
ATOM      2  C   UNL     1      -2.647  39.517  17.168  1.00  0.00     0.000 C 
BRANCH   2   3
ATOM      3  C   UNL     1      -2.060  38.386  16.310  1.00  0.00     0.000 C 
BRANCH   3   4
ATOM      4  C   UNL     1      -2.672  37.015  16.642  1.00  0.00     0.000 C 
BRANCH   4   5
ATOM      5  C   UNL     1      -1.800  35.842  16.160  1.00  0.00     0.000 C 
BRANCH   5   6
ATOM      6  C   UNL     1      -1.763  34.653  17.143  1.00  0.00     0.000 C 
BRANCH   6   7
ATOM      7  C   UNL     1      -0.478  33.818  16.995  1.00  0.00     0.006 C 
BRANCH   7   8
ATOM      8  C   UNL     1      -0.448  32.620  17.954  1.00  0.00     0.053 C 
BRANCH   8   9
ATOM      9  C   UNL     1      -0.203  31.334  17.227  1.00  0.00     0.041 C 
ATOM     10  O   UNL     1      -0.746  30.268  17.621  1.00  0.00    -0.550 OA
ATOM     11  O   UNL     1       0.602  31.317  16.095  1.00  0.00    -0.550 OA
ENDBRANCH   8   9
ENDBRANCH   7   8
ENDBRANCH   6   7
ENDBRANCH   5   6
ENDBRANCH   4   5
ENDBRANCH   3   4
ENDBRANCH   2   3
ENDBRANCH   1   2
BRANCH   1  12
ATOM     12  C   UNL     1      -3.293  39.632  19.611  1.00  0.00     0.000 C 
BRANCH  12  13
ATOM     13  C   UNL     1      -2.960  38.553  20.652  1.00  0.00    -0.000 C 
BRANCH  13  14
ATOM     14  C   UNL     1      -3.429  37.151  20.227  1.00  0.00    -0.000 C 
BRANCH  14  15
ATOM     15  C   UNL     1      -4.172  36.410  21.351  1.00  0.00    -0.000 C 
BRANCH  15  16
ATOM     16  C   UNL     1      -4.886  37.366  22.319  1.00  0.00    -0.000 C 
BRANCH  16  17
ATOM     17  C   UNL     1      -6.410  37.402  22.107  1.00  0.00    -0.000 C 
BRANCH  17  18
ATOM     18  C   UNL     1      -6.925  38.830  21.825  1.00  0.00    -0.000 C 
BRANCH  18  19
ATOM     19  C   UNL     1      -6.860  39.225  20.340  1.00  0.00    -0.003 C 
ATOM     20  C   UNL     1      -7.028  38.036  19.396  1.00  0.00     0.004 C 
ENDBRANCH  18  19
ENDBRANCH  17  18
ENDBRANCH  16  17
ENDBRANCH  15  16
ENDBRANCH  14  15
ENDBRANCH  13  14
ENDBRANCH  12  13
ENDBRANCH   1  12
TORSDOF 16
ENDMDL
MODEL 5
REMARK VINA RESULT:    -3.854      1.259      2.125
REMARK INTER + INTRA:         -10.353
REMARK INTER:                  -7.515
REMARK INTRA:                  -2.838
REMARK UNBOUND:                -2.893
REMARK SMILES CCCCCCCCCCCCCCCCCC(=O)[O-]
REMARK SMILES IDX 10 1 11 2 12 3 13 4 14 5 15 6 16 7 17 8 18 9 19 10 20 11
REMARK SMILES IDX 9 12 8 13 7 14 6 15 5 16 4 17 3 18 2 19 1 20
REMARK H PARENT
REMARK Flexibility Score: inf
ROOT
ATOM      1  C   UNL     1      -2.031  39.468  21.963  1.00  0.00     0.000 C 
ENDROOT
BRANCH   1   2
ATOM      2  C   UNL     1      -1.870  39.553  20.437  1.00  0.00     0.000 C 
BRANCH   2   3
ATOM      3  C   UNL     1      -3.123  40.103  19.737  1.00  0.00     0.000 C 
BRANCH   3   4
ATOM      4  C   UNL     1      -3.155  39.770  18.237  1.00  0.00     0.000 C 
BRANCH   4   5
ATOM      5  C   UNL     1      -2.761  38.312  17.943  1.00  0.00     0.000 C 
BRANCH   5   6
ATOM      6  C   UNL     1      -3.822  37.534  17.135  1.00  0.00     0.000 C 
BRANCH   6   7
ATOM      7  C   UNL     1      -3.184  36.582  16.108  1.00  0.00     0.006 C 
BRANCH   7   8
ATOM      8  C   UNL     1      -1.658  36.514  16.246  1.00  0.00     0.053 C 
BRANCH   8   9
ATOM      9  C   UNL     1      -1.198  35.147  16.647  1.00  0.00     0.041 C 
ATOM     10  O   UNL     1      -1.893  34.447  17.431  1.00  0.00    -0.550 OA
ATOM     11  O   UNL     1      -0.015  34.630  16.131  1.00  0.00    -0.550 OA
ENDBRANCH   8   9
ENDBRANCH   7   8
ENDBRANCH   6   7
ENDBRANCH   5   6
ENDBRANCH   4   5
ENDBRANCH   3   4
ENDBRANCH   2   3
ENDBRANCH   1   2
BRANCH   1  12
ATOM     12  C   UNL     1      -3.423  39.941  22.395  1.00  0.00     0.000 C 
BRANCH  12  13
ATOM     13  C   UNL     1      -4.113  38.889  23.278  1.00  0.00    -0.000 C 
BRANCH  13  14
ATOM     14  C   UNL     1      -3.770  37.448  22.864  1.00  0.00    -0.000 C 
BRANCH  14  15
ATOM     15  C   UNL     1      -4.924  36.757  22.117  1.00  0.00    -0.000 C 
BRANCH  15  16
ATOM     16  C   UNL     1      -4.936  37.082  20.616  1.00  0.00    -0.000 C 
BRANCH  16  17
ATOM     17  C   UNL     1      -6.358  37.277  20.058  1.00  0.00    -0.000 C 
BRANCH  17  18
ATOM     18  C   UNL     1      -6.606  38.726  19.590  1.00  0.00    -0.000 C 
BRANCH  18  19
ATOM     19  C   UNL     1      -6.717  39.736  20.744  1.00  0.00    -0.003 C 
ATOM     20  C   UNL     1      -7.704  39.302  21.826  1.00  0.00     0.004 C 
ENDBRANCH  18  19
ENDBRANCH  17  18
ENDBRANCH  16  17
ENDBRANCH  15  16
ENDBRANCH  14  15
ENDBRANCH  13  14
ENDBRANCH  12  13
ENDBRANCH   1  12
TORSDOF 16
ENDMDL
MODEL 6
REMARK VINA RESULT:    -3.824      1.218      2.844
REMARK INTER + INTRA:         -10.293
REMARK INTER:                  -7.718
REMARK INTRA:                  -2.575
REMARK UNBOUND:                -2.893
REMARK SMILES CCCCCCCCCCCCCCCCCC(=O)[O-]
REMARK SMILES IDX 10 1 11 2 12 3 13 4 14 5 15 6 16 7 17 8 18 9 19 10 20 11
REMARK SMILES IDX 9 12 8 13 7 14 6 15 5 16 4 17 3 18 2 19 1 20
REMARK H PARENT
REMARK Flexibility Score: inf
ROOT
ATOM      1  C   UNL     1      -3.576  37.475  19.113  1.00  0.00     0.000 C 
ENDROOT
BRANCH   1   2
ATOM      2  C   UNL     1      -2.333  38.187  19.670  1.00  0.00     0.000 C 
BRANCH   2   3
ATOM      3  C   UNL     1      -2.515  39.710  19.767  1.00  0.00     0.000 C 
BRANCH   3   4
ATOM      4  C   UNL     1      -1.527  40.480  18.875  1.00  0.00     0.000 C 
BRANCH   4   5
ATOM      5  C   UNL     1      -1.387  39.864  17.472  1.00  0.00     0.000 C 
BRANCH   5   6
ATOM      6  C   UNL     1       0.077  39.640  17.038  1.00  0.00     0.000 C 
BRANCH   6   7
ATOM      7  C   UNL     1       0.362  38.166  16.697  1.00  0.00     0.006 C 
BRANCH   7   8
ATOM      8  C   UNL     1      -0.925  37.362  16.470  1.00  0.00     0.053 C 
BRANCH   8   9
ATOM      9  C   UNL     1      -0.760  35.927  16.864  1.00  0.00     0.041 C 
ATOM     10  O   UNL     1       0.392  35.432  16.991  1.00  0.00    -0.550 OA
ATOM     11  O   UNL     1      -1.877  35.143  17.124  1.00  0.00    -0.550 OA
ENDBRANCH   8   9
ENDBRANCH   7   8
ENDBRANCH   6   7
ENDBRANCH   5   6
ENDBRANCH   4   5
ENDBRANCH   3   4
ENDBRANCH   2   3
ENDBRANCH   1   2
BRANCH   1  12
ATOM     12  C   UNL     1      -4.712  38.472  18.858  1.00  0.00     0.000 C 
BRANCH  12  13
ATOM     13  C   UNL     1      -6.016  37.742  18.501  1.00  0.00    -0.000 C 
BRANCH  13  14
ATOM     14  C   UNL     1      -7.067  37.820  19.621  1.00  0.00    -0.000 C 
BRANCH  14  15
ATOM     15  C   UNL     1      -7.047  39.170  20.358  1.00  0.00    -0.000 C 
BRANCH  15  16
ATOM     16  C   UNL     1      -7.467  39.046  21.830  1.00  0.00    -0.000 C 
BRANCH  16  17
ATOM     17  C   UNL     1      -6.515  38.153  22.649  1.00  0.00    -0.000 C 
BRANCH  17  18
ATOM     18  C   UNL     1      -5.063  38.675  22.624  1.00  0.00    -0.000 C 
BRANCH  18  19
ATOM     19  C   UNL     1      -4.011  37.578  22.862  1.00  0.00    -0.003 C 
ATOM     20  C   UNL     1      -4.419  36.223  22.289  1.00  0.00     0.004 C 
ENDBRANCH  18  19
ENDBRANCH  17  18
ENDBRANCH  16  17
ENDBRANCH  15  16
ENDBRANCH  14  15
ENDBRANCH  13  14
ENDBRANCH  12  13
ENDBRANCH   1  12
TORSDOF 16
ENDMDL
MODEL 7
REMARK VINA RESULT:    -3.817      1.277      2.199
REMARK INTER + INTRA:         -10.280
REMARK INTER:                  -7.378
REMARK INTRA:                  -2.902
REMARK UNBOUND:                -2.893
REMARK SMILES CCCCCCCCCCCCCCCCCC(=O)[O-]
REMARK SMILES IDX 10 1 11 2 12 3 13 4 14 5 15 6 16 7 17 8 18 9 19 10 20 11
REMARK SMILES IDX 9 12 8 13 7 14 6 15 5 16 4 17 3 18 2 19 1 20
REMARK H PARENT
REMARK Flexibility Score: inf
ROOT
ATOM      1  C   UNL     1      -3.082  38.698  23.369  1.00  0.00     0.000 C 
ENDROOT
BRANCH   1   2
ATOM      2  C   UNL     1      -1.962  39.507  22.696  1.00  0.00     0.000 C 
BRANCH   2   3
ATOM      3  C   UNL     1      -1.925  39.317  21.171  1.00  0.00     0.000 C 
BRANCH   3   4
ATOM      4  C   UNL     1      -2.718  40.401  20.422  1.00  0.00     0.000 C 
BRANCH   4   5
ATOM      5  C   UNL     1      -3.637  39.820  19.333  1.00  0.00     0.000 C 
BRANCH   5   6
ATOM      6  C   UNL     1      -2.882  39.344  18.074  1.00  0.00     0.000 C 
BRANCH   6   7
ATOM      7  C   UNL     1      -3.230  37.891  17.703  1.00  0.00     0.006 C 
BRANCH   7   8
ATOM      8  C   UNL     1      -2.157  36.899  18.169  1.00  0.00     0.053 C 
BRANCH   8   9
ATOM      9  C   UNL     1      -0.958  36.916  17.272  1.00  0.00     0.041 C 
ATOM     10  O   UNL     1      -1.057  36.546  16.072  1.00  0.00    -0.550 OA
ATOM     11  O   UNL     1       0.264  37.372  17.752  1.00  0.00    -0.550 OA
ENDBRANCH   8   9
ENDBRANCH   7   8
ENDBRANCH   6   7
ENDBRANCH   5   6
ENDBRANCH   4   5
ENDBRANCH   3   4
ENDBRANCH   2   3
ENDBRANCH   1   2
BRANCH   1  12
ATOM     12  C   UNL     1      -3.966  39.600  24.237  1.00  0.00     0.000 C 
BRANCH  12  13
ATOM     13  C   UNL     1      -5.385  39.703  23.658  1.00  0.00    -0.000 C 
BRANCH  13  14
ATOM     14  C   UNL     1      -5.621  41.016  22.893  1.00  0.00    -0.000 C 
BRANCH  14  15
ATOM     15  C   UNL     1      -6.271  40.791  21.517  1.00  0.00    -0.000 C 
BRANCH  15  16
ATOM     16  C   UNL     1      -7.076  39.484  21.450  1.00  0.00    -0.000 C 
BRANCH  16  17
ATOM     17  C   UNL     1      -7.137  38.892  20.030  1.00  0.00    -0.000 C 
BRANCH  17  18
ATOM     18  C   UNL     1      -6.477  37.500  19.951  1.00  0.00    -0.000 C 
BRANCH  18  19
ATOM     19  C   UNL     1      -5.783  37.073  21.256  1.00  0.00    -0.003 C 
ATOM     20  C   UNL     1      -4.357  36.570  21.039  1.00  0.00     0.004 C 
ENDBRANCH  18  19
ENDBRANCH  17  18
ENDBRANCH  16  17
ENDBRANCH  15  16
ENDBRANCH  14  15
ENDBRANCH  13  14
ENDBRANCH  12  13
ENDBRANCH   1  12
TORSDOF 16
ENDMDL
MODEL 8
REMARK VINA RESULT:    -3.799      1.253      1.872
REMARK INTER + INTRA:         -10.246
REMARK INTER:                  -7.673
REMARK INTRA:                  -2.572
REMARK UNBOUND:                -2.893
REMARK SMILES CCCCCCCCCCCCCCCCCC(=O)[O-]
REMARK SMILES IDX 10 1 11 2 12 3 13 4 14 5 15 6 16 7 17 8 18 9 19 10 20 11
REMARK SMILES IDX 9 12 8 13 7 14 6 15 5 16 4 17 3 18 2 19 1 20
REMARK H PARENT
REMARK Flexibility Score: inf
ROOT
ATOM      1  C   UNL     1      -3.486  37.529  20.850  1.00  0.00     0.000 C 
ENDROOT
BRANCH   1   2
ATOM      2  C   UNL     1      -2.319  38.527  20.792  1.00  0.00     0.000 C 
BRANCH   2   3
ATOM      3  C   UNL     1      -2.466  39.547  19.652  1.00  0.00     0.000 C 
BRANCH   3   4
ATOM      4  C   UNL     1      -3.734  39.318  18.815  1.00  0.00     0.000 C 
BRANCH   4   5
ATOM      5  C   UNL     1      -3.426  38.819  17.392  1.00  0.00     0.000 C 
BRANCH   5   6
ATOM      6  C   UNL     1      -4.240  37.574  16.982  1.00  0.00     0.000 C 
BRANCH   6   7
ATOM      7  C   UNL     1      -3.379  36.539  16.235  1.00  0.00     0.006 C 
BRANCH   7   8
ATOM      8  C   UNL     1      -1.877  36.813  16.388  1.00  0.00     0.053 C 
BRANCH   8   9
ATOM      9  C   UNL     1      -1.155  35.636  16.967  1.00  0.00     0.041 C 
ATOM     10  O   UNL     1       0.101  35.645  17.062  1.00  0.00    -0.550 OA
ATOM     11  O   UNL     1      -1.871  34.540  17.432  1.00  0.00    -0.550 OA
ENDBRANCH   8   9
ENDBRANCH   7   8
ENDBRANCH   6   7
ENDBRANCH   5   6
ENDBRANCH   4   5
ENDBRANCH   3   4
ENDBRANCH   2   3
ENDBRANCH   1   2
BRANCH   1  12
ATOM     12  C   UNL     1      -3.999  37.367  22.286  1.00  0.00     0.000 C 
BRANCH  12  13
ATOM     13  C   UNL     1      -3.172  38.215  23.264  1.00  0.00    -0.000 C 
BRANCH  13  14
ATOM     14  C   UNL     1      -3.983  39.364  23.887  1.00  0.00    -0.000 C 
BRANCH  14  15
ATOM     15  C   UNL     1      -5.336  39.579  23.188  1.00  0.00    -0.000 C 
BRANCH  15  16
ATOM     16  C   UNL     1      -5.266  40.638  22.076  1.00  0.00    -0.000 C 
BRANCH  16  17
ATOM     17  C   UNL     1      -6.562  40.723  21.250  1.00  0.00    -0.000 C 
BRANCH  17  18
ATOM     18  C   UNL     1      -7.253  39.350  21.109  1.00  0.00    -0.000 C 
BRANCH  18  19
ATOM     19  C   UNL     1      -7.213  38.785  19.679  1.00  0.00    -0.003 C 
ATOM     20  C   UNL     1      -6.761  37.327  19.625  1.00  0.00     0.004 C 
ENDBRANCH  18  19
ENDBRANCH  17  18
ENDBRANCH  16  17
ENDBRANCH  15  16
ENDBRANCH  14  15
ENDBRANCH  13  14
ENDBRANCH  12  13
ENDBRANCH   1  12
TORSDOF 16
ENDMDL
MODEL 9
REMARK VINA RESULT:    -3.784      3.156      6.654
REMARK INTER + INTRA:         -10.217
REMARK INTER:                  -7.359
REMARK INTRA:                  -2.858
REMARK UNBOUND:                -2.893
REMARK SMILES CCCCCCCCCCCCCCCCCC(=O)[O-]
REMARK SMILES IDX 10 1 11 2 12 3 13 4 14 5 15 6 16 7 17 8 18 9 19 10 20 11
REMARK SMILES IDX 9 12 8 13 7 14 6 15 5 16 4 17 3 18 2 19 1 20
REMARK H PARENT
REMARK Flexibility Score: inf
ROOT
ATOM      1  C   UNL     1      -1.249  38.240  19.212  1.00  0.00     0.000 C 
ENDROOT
BRANCH   1   2
ATOM      2  C   UNL     1      -2.704  38.409  19.676  1.00  0.00     0.000 C 
BRANCH   2   3
ATOM      3  C   UNL     1      -3.432  37.066  19.850  1.00  0.00     0.000 C 
BRANCH   3   4
ATOM      4  C   UNL     1      -4.936  37.241  20.117  1.00  0.00     0.000 C 
BRANCH   4   5
ATOM      5  C   UNL     1      -5.674  37.914  18.947  1.00  0.00     0.000 C 
BRANCH   5   6
ATOM      6  C   UNL     1      -7.011  38.568  19.352  1.00  0.00     0.000 C 
BRANCH   6   7
ATOM      7  C   UNL     1      -7.167  38.670  20.880  1.00  0.00     0.006 C 
BRANCH   7   8
ATOM      8  C   UNL     1      -7.106  40.121  21.376  1.00  0.00     0.053 C 
BRANCH   8   9
ATOM      9  C   UNL     1      -5.900  40.364  22.230  1.00  0.00     0.041 C 
ATOM     10  O   UNL     1      -4.755  40.426  21.709  1.00  0.00    -0.550 OA
ATOM     11  O   UNL     1      -6.044  40.554  23.599  1.00  0.00    -0.550 OA
ENDBRANCH   8   9
ENDBRANCH   7   8
ENDBRANCH   6   7
ENDBRANCH   5   6
ENDBRANCH   4   5
ENDBRANCH   3   4
ENDBRANCH   2   3
ENDBRANCH   1   2
BRANCH   1  12
ATOM     12  C   UNL     1      -0.928  39.193  18.055  1.00  0.00     0.000 C 
BRANCH  12  13
ATOM     13  C   UNL     1      -2.210  39.628  17.328  1.00  0.00    -0.000 C 
BRANCH  13  14
ATOM     14  C   UNL     1      -2.402  38.912  15.981  1.00  0.00    -0.000 C 
BRANCH  14  15
ATOM     15  C   UNL     1      -3.762  38.201  15.877  1.00  0.00    -0.000 C 
BRANCH  15  16
ATOM     16  C   UNL     1      -3.664  36.695  16.162  1.00  0.00    -0.000 C 
BRANCH  16  17
ATOM     17  C   UNL     1      -2.246  36.136  15.943  1.00  0.00    -0.000 C 
BRANCH  17  18
ATOM     18  C   UNL     1      -1.789  35.235  17.109  1.00  0.00    -0.000 C 
BRANCH  18  19
ATOM     19  C   UNL     1      -0.285  34.917  17.089  1.00  0.00    -0.003 C 
ATOM     20  C   UNL     1       0.573  36.105  16.658  1.00  0.00     0.004 C 
ENDBRANCH  18  19
ENDBRANCH  17  18
ENDBRANCH  16  17
ENDBRANCH  15  16
ENDBRANCH  14  15
ENDBRANCH  13  14
ENDBRANCH  12  13
ENDBRANCH   1  12
TORSDOF 16
ENDMDL
