MODEL 1
REMARK VINA RESULT:    -6.885      0.000      0.000
REMARK INTER + INTRA:         -10.917
REMARK INTER:                  -9.702
REMARK INTRA:                  -1.215
REMARK UNBOUND:                -1.215
REMARK SMILES OC[C@H]1O[C@H](O[C@H]2OC=C[C@@H]3[C@H](O)[C@@H]4O[C@]4(CO)[C@H]23)[C@@H](O)[C@H](O)[C@@H]1O
REMARK SMILES IDX 6 1 7 2 10 3 9 4 11 5 8 6 19 7 12 8 16 9 14 10 15 11 13 12
REMARK SMILES IDX 17 14 18 15 5 17 20 18 4 19 22 20 3 21 24 22 21 23 23 25
REMARK SMILES IDX 2 27 1 28 25 30
REMARK H PARENT 13 13 18 16 21 24 23 26 1 29 25 31
REMARK Flexibility Score: inf
ROOT
ATOM      1  O   UNL     1      24.197 -23.841  26.660  1.00  0.00    -0.310 OA
ENDROOT
BRANCH   1   2
ATOM      2  C   UNL     1      24.457 -23.863  28.056  1.00  0.00     0.315 C 
ATOM      3  C   UNL     1      23.510 -23.213  30.682  1.00  0.00     0.018 C 
ATOM      4  C   UNL     1      24.060 -22.221  29.986  1.00  0.00     0.186 C 
ATOM      5  C   UNL     1      22.762 -24.338  29.990  1.00  0.00     0.059 C 
ATOM      6  O   UNL     1      24.231 -22.488  28.590  1.00  0.00    -0.472 OA
ATOM      7  C   UNL     1      23.496 -24.872  28.736  1.00  0.00     0.105 C 
ATOM      8  C   UNL     1      22.566 -25.593  30.880  1.00  0.00     0.154 C 
ATOM      9  C   UNL     1      24.206 -26.148  29.193  1.00  0.00     0.130 C 
ATOM     10  C   UNL     1      23.645 -26.586  30.481  1.00  0.00     0.183 C 
ATOM     11  O   UNL     1      24.938 -26.013  30.393  1.00  0.00    -0.360 OA
BRANCH   8  12
ATOM     12  O   UNL     1      22.636 -25.329  32.256  1.00  0.00    -0.390 OA
ATOM     13  H   UNL     1      22.077 -26.019  32.702  1.00  0.00     0.211 HD
ENDBRANCH   8  12
BRANCH   9  14
ATOM     14  C   UNL     1      24.792 -27.168  28.205  1.00  0.00     0.195 C 
BRANCH  14  15
ATOM     15  O   UNL     1      23.967 -27.363  27.086  1.00  0.00    -0.393 OA
ATOM     16  H   UNL     1      23.468 -26.518  26.950  1.00  0.00     0.210 HD
ENDBRANCH  14  15
ENDBRANCH   9  14
ENDBRANCH   1   2
BRANCH   1  17
ATOM     17  C   UNL     1      25.249 -24.407  25.890  1.00  0.00     0.286 C 
ATOM     18  C   UNL     1      26.044 -23.342  25.089  1.00  0.00     0.202 C 
ATOM     19  O   UNL     1      24.737 -25.411  25.028  1.00  0.00    -0.341 OA
ATOM     20  C   UNL     1      25.219 -22.770  23.913  1.00  0.00     0.179 C 
ATOM     21  C   UNL     1      23.795 -24.882  24.108  1.00  0.00     0.178 C 
ATOM     22  C   UNL     1      24.486 -23.889  23.141  1.00  0.00     0.177 C 
BRANCH  18  23
ATOM     23  O   UNL     1      27.215 -23.945  24.598  1.00  0.00    -0.385 OA
ATOM     24  H   UNL     1      27.220 -24.884  24.926  1.00  0.00     0.211 HD
ENDBRANCH  18  23
BRANCH  20  25
ATOM     25  O   UNL     1      24.346 -21.751  24.344  1.00  0.00    -0.387 OA
ATOM     26  H   UNL     1      24.807 -21.213  25.037  1.00  0.00     0.211 HD
ENDBRANCH  20  25
BRANCH  21  27
ATOM     27  C   UNL     1      23.176 -26.050  23.330  1.00  0.00     0.191 C 
BRANCH  27  28
ATOM     28  O   UNL     1      23.658 -26.046  22.015  1.00  0.00    -0.394 OA
ATOM     29  H   UNL     1      24.188 -26.878  21.912  1.00  0.00     0.210 HD
ENDBRANCH  27  28
ENDBRANCH  21  27
BRANCH  22  30
ATOM     30  O   UNL     1      23.576 -23.346  22.212  1.00  0.00    -0.387 OA
ATOM     31  H   UNL     1      24.099 -23.044  21.421  1.00  0.00     0.211 HD
ENDBRANCH  22  30
ENDBRANCH   1  17
TORSDOF 10
ENDMDL
MODEL 2
REMARK VINA RESULT:    -6.785      1.634      2.714
REMARK INTER + INTRA:         -10.776
REMARK INTER:                 -10.050
REMARK INTRA:                  -0.726
REMARK UNBOUND:                -1.215
REMARK SMILES OC[C@H]1O[C@H](O[C@H]2OC=C[C@@H]3[C@H](O)[C@@H]4O[C@]4(CO)[C@H]23)[C@@H](O)[C@H](O)[C@@H]1O
REMARK SMILES IDX 6 1 7 2 10 3 9 4 11 5 8 6 19 7 12 8 16 9 14 10 15 11 13 12
REMARK SMILES IDX 17 14 18 15 5 17 20 18 4 19 22 20 3 21 24 22 21 23 23 25
REMARK SMILES IDX 2 27 1 28 25 30
REMARK H PARENT 13 13 18 16 21 24 23 26 1 29 25 31
REMARK Flexibility Score: inf
ROOT
ATOM      1  O   UNL     1      23.350 -24.921  26.968  1.00  0.00    -0.310 OA
ENDROOT
BRANCH   1   2
ATOM      2  C   UNL     1      23.910 -24.797  28.267  1.00  0.00     0.315 C 
ATOM      3  C   UNL     1      23.453 -24.165  31.025  1.00  0.00     0.018 C 
ATOM      4  C   UNL     1      23.622 -23.136  30.200  1.00  0.00     0.186 C 
ATOM      5  C   UNL     1      22.817 -25.459  30.549  1.00  0.00     0.059 C 
ATOM      6  O   UNL     1      23.532 -23.459  28.808  1.00  0.00    -0.472 OA
ATOM      7  C   UNL     1      23.349 -25.924  29.172  1.00  0.00     0.105 C 
ATOM      8  C   UNL     1      23.083 -26.665  31.488  1.00  0.00     0.154 C 
ATOM      9  C   UNL     1      24.388 -27.004  29.482  1.00  0.00     0.130 C 
ATOM     10  C   UNL     1      24.227 -27.455  30.873  1.00  0.00     0.183 C 
ATOM     11  O   UNL     1      25.323 -26.648  30.478  1.00  0.00    -0.360 OA
BRANCH   8  12
ATOM     12  O   UNL     1      23.399 -26.299  32.805  1.00  0.00    -0.390 OA
ATOM     13  H   UNL     1      23.256 -25.318  32.865  1.00  0.00     0.211 HD
ENDBRANCH   8  12
BRANCH   9  14
ATOM     14  C   UNL     1      24.938 -27.956  28.408  1.00  0.00     0.195 C 
BRANCH  14  15
ATOM     15  O   UNL     1      26.162 -27.517  27.880  1.00  0.00    -0.393 OA
ATOM     16  H   UNL     1      25.949 -26.812  27.216  1.00  0.00     0.210 HD
ENDBRANCH  14  15
ENDBRANCH   9  14
ENDBRANCH   1   2
BRANCH   1  17
ATOM     17  C   UNL     1      22.815 -23.700  26.476  1.00  0.00     0.286 C 
ATOM     18  C   UNL     1      21.504 -23.902  25.672  1.00  0.00     0.202 C 
ATOM     19  O   UNL     1      23.788 -23.022  25.695  1.00  0.00    -0.341 OA
ATOM     20  C   UNL     1      21.762 -24.575  24.304  1.00  0.00     0.179 C 
ATOM     21  C   UNL     1      24.178 -23.785  24.564  1.00  0.00     0.178 C 
ATOM     22  C   UNL     1      22.984 -23.955  23.592  1.00  0.00     0.177 C 
BRANCH  18  23
ATOM     23  O   UNL     1      20.910 -22.643  25.476  1.00  0.00    -0.385 OA
ATOM     24  H   UNL     1      21.076 -22.110  26.299  1.00  0.00     0.211 HD
ENDBRANCH  18  23
BRANCH  20  25
ATOM     25  O   UNL     1      21.866 -25.975  24.430  1.00  0.00    -0.387 OA
ATOM     26  H   UNL     1      21.495 -26.394  23.612  1.00  0.00     0.211 HD
ENDBRANCH  20  25
BRANCH  21  27
ATOM     27  C   UNL     1      25.338 -23.058  23.872  1.00  0.00     0.191 C 
BRANCH  27  28
ATOM     28  O   UNL     1      25.185 -21.674  24.029  1.00  0.00    -0.394 OA
ATOM     29  H   UNL     1      24.501 -21.395  23.365  1.00  0.00     0.210 HD
ENDBRANCH  27  28
ENDBRANCH  21  27
BRANCH  22  30
ATOM     30  O   UNL     1      23.339 -24.708  22.455  1.00  0.00    -0.387 OA
ATOM     31  H   UNL     1      22.937 -25.612  22.557  1.00  0.00     0.211 HD
ENDBRANCH  22  30
ENDBRANCH   1  17
TORSDOF 10
ENDMDL
MODEL 3
REMARK VINA RESULT:    -6.572      1.708      3.418
REMARK INTER + INTRA:         -10.477
REMARK INTER:                  -9.094
REMARK INTRA:                  -1.383
REMARK UNBOUND:                -1.215
REMARK SMILES OC[C@H]1O[C@H](O[C@H]2OC=C[C@@H]3[C@H](O)[C@@H]4O[C@]4(CO)[C@H]23)[C@@H](O)[C@H](O)[C@@H]1O
REMARK SMILES IDX 6 1 7 2 10 3 9 4 11 5 8 6 19 7 12 8 16 9 14 10 15 11 13 12
REMARK SMILES IDX 17 14 18 15 5 17 20 18 4 19 22 20 3 21 24 22 21 23 23 25
REMARK SMILES IDX 2 27 1 28 25 30
REMARK H PARENT 13 13 18 16 21 24 23 26 1 29 25 31
REMARK Flexibility Score: inf
ROOT
ATOM      1  O   UNL     1      24.491 -25.329  26.411  1.00  0.00    -0.310 OA
ENDROOT
BRANCH   1   2
ATOM      2  C   UNL     1      24.012 -26.153  27.464  1.00  0.00     0.315 C 
ATOM      3  C   UNL     1      24.680 -27.785  29.725  1.00  0.00     0.018 C 
ATOM      4  C   UNL     1      24.797 -28.352  28.526  1.00  0.00     0.186 C 
ATOM      5  C   UNL     1      24.914 -26.297  29.916  1.00  0.00     0.059 C 
ATOM      6  O   UNL     1      24.766 -27.440  27.423  1.00  0.00    -0.472 OA
ATOM      7  C   UNL     1      24.246 -25.433  28.818  1.00  0.00     0.105 C 
ATOM      8  C   UNL     1      24.333 -25.742  31.243  1.00  0.00     0.154 C 
ATOM      9  C   UNL     1      22.949 -24.914  29.442  1.00  0.00     0.130 C 
ATOM     10  C   UNL     1      23.000 -25.095  30.902  1.00  0.00     0.183 C 
ATOM     11  O   UNL     1      22.172 -25.903  30.084  1.00  0.00    -0.360 OA
BRANCH   8  12
ATOM     12  O   UNL     1      24.158 -26.717  32.236  1.00  0.00    -0.390 OA
ATOM     13  H   UNL     1      24.937 -27.329  32.169  1.00  0.00     0.211 HD
ENDBRANCH   8  12
BRANCH   9  14
ATOM     14  C   UNL     1      22.132 -23.770  28.822  1.00  0.00     0.195 C 
BRANCH  14  15
ATOM     15  O   UNL     1      21.227 -24.225  27.850  1.00  0.00    -0.393 OA
ATOM     16  H   UNL     1      21.569 -23.909  26.974  1.00  0.00     0.210 HD
ENDBRANCH  14  15
ENDBRANCH   9  14
ENDBRANCH   1   2
BRANCH   1  17
ATOM     17  C   UNL     1      23.569 -25.212  25.336  1.00  0.00     0.286 C 
ATOM     18  C   UNL     1      24.261 -25.245  23.948  1.00  0.00     0.202 C 
ATOM     19  O   UNL     1      22.792 -24.035  25.486  1.00  0.00    -0.341 OA
ATOM     20  C   UNL     1      25.061 -23.950  23.670  1.00  0.00     0.179 C 
ATOM     21  C   UNL     1      23.598 -22.867  25.464  1.00  0.00     0.178 C 
ATOM     22  C   UNL     1      24.256 -22.694  24.073  1.00  0.00     0.177 C 
BRANCH  18  23
ATOM     23  O   UNL     1      23.270 -25.410  22.966  1.00  0.00    -0.385 OA
ATOM     24  H   UNL     1      23.735 -25.653  22.120  1.00  0.00     0.211 HD
ENDBRANCH  18  23
BRANCH  20  25
ATOM     25  O   UNL     1      26.333 -23.991  24.274  1.00  0.00    -0.387 OA
ATOM     26  H   UNL     1      26.247 -23.684  25.212  1.00  0.00     0.211 HD
ENDBRANCH  20  25
BRANCH  21  27
ATOM     27  C   UNL     1      22.707 -21.663  25.793  1.00  0.00     0.191 C 
BRANCH  27  28
ATOM     28  O   UNL     1      21.366 -22.066  25.822  1.00  0.00    -0.394 OA
ATOM     29  H   UNL     1      20.936 -21.654  25.028  1.00  0.00     0.210 HD
ENDBRANCH  27  28
ENDBRANCH  21  27
BRANCH  22  30
ATOM     30  O   UNL     1      25.064 -21.541  24.016  1.00  0.00    -0.387 OA
ATOM     31  H   UNL     1      25.152 -21.283  23.059  1.00  0.00     0.211 HD
ENDBRANCH  22  30
ENDBRANCH   1  17
TORSDOF 10
ENDMDL
MODEL 4
REMARK VINA RESULT:    -6.369      1.904      2.877
REMARK INTER + INTRA:         -10.190
REMARK INTER:                  -9.027
REMARK INTRA:                  -1.163
REMARK UNBOUND:                -1.215
REMARK SMILES OC[C@H]1O[C@H](O[C@H]2OC=C[C@@H]3[C@H](O)[C@@H]4O[C@]4(CO)[C@H]23)[C@@H](O)[C@H](O)[C@@H]1O
REMARK SMILES IDX 6 1 7 2 10 3 9 4 11 5 8 6 19 7 12 8 16 9 14 10 15 11 13 12
REMARK SMILES IDX 17 14 18 15 5 17 20 18 4 19 22 20 3 21 24 22 21 23 23 25
REMARK SMILES IDX 2 27 1 28 25 30
REMARK H PARENT 13 13 18 16 21 24 23 26 1 29 25 31
REMARK Flexibility Score: inf
ROOT
ATOM      1  O   UNL     1      23.921 -23.927  27.111  1.00  0.00    -0.310 OA
ENDROOT
BRANCH   1   2
ATOM      2  C   UNL     1      23.902 -23.331  28.399  1.00  0.00     0.315 C 
ATOM      3  C   UNL     1      22.565 -21.536  30.191  1.00  0.00     0.018 C 
ATOM      4  C   UNL     1      23.370 -20.984  29.287  1.00  0.00     0.186 C 
ATOM      5  C   UNL     1      21.816 -22.823  29.894  1.00  0.00     0.059 C 
ATOM      6  O   UNL     1      23.769 -21.855  28.224  1.00  0.00    -0.472 OA
ATOM      7  C   UNL     1      22.697 -23.890  29.200  1.00  0.00     0.105 C 
ATOM      8  C   UNL     1      21.281 -23.537  31.163  1.00  0.00     0.154 C 
ATOM      9  C   UNL     1      23.123 -24.851  30.312  1.00  0.00     0.130 C 
ATOM     10  C   UNL     1      22.269 -24.644  31.493  1.00  0.00     0.183 C 
ATOM     11  O   UNL     1      23.621 -24.219  31.473  1.00  0.00    -0.360 OA
BRANCH   8  12
ATOM     12  O   UNL     1      21.120 -22.686  32.267  1.00  0.00    -0.390 OA
ATOM     13  H   UNL     1      21.187 -21.758  31.918  1.00  0.00     0.211 HD
ENDBRANCH   8  12
BRANCH   9  14
ATOM     14  C   UNL     1      23.742 -26.227  30.024  1.00  0.00     0.195 C 
BRANCH  14  15
ATOM     15  O   UNL     1      23.500 -26.659  28.711  1.00  0.00    -0.393 OA
ATOM     16  H   UNL     1      23.275 -25.850  28.183  1.00  0.00     0.210 HD
ENDBRANCH  14  15
ENDBRANCH   9  14
ENDBRANCH   1   2
BRANCH   1  17
ATOM     17  C   UNL     1      23.153 -23.209  26.155  1.00  0.00     0.286 C 
ATOM     18  C   UNL     1      21.659 -23.628  26.152  1.00  0.00     0.202 C 
ATOM     19  O   UNL     1      23.722 -23.355  24.864  1.00  0.00    -0.341 OA
ATOM     20  C   UNL     1      21.455 -25.040  25.555  1.00  0.00     0.179 C 
ATOM     21  C   UNL     1      23.734 -24.711  24.445  1.00  0.00     0.178 C 
ATOM     22  C   UNL     1      22.286 -25.232  24.266  1.00  0.00     0.177 C 
BRANCH  18  23
ATOM     23  O   UNL     1      20.940 -22.686  25.397  1.00  0.00    -0.385 OA
ATOM     24  H   UNL     1      20.093 -22.505  25.887  1.00  0.00     0.211 HD
ENDBRANCH  18  23
BRANCH  20  25
ATOM     25  O   UNL     1      21.705 -26.044  26.511  1.00  0.00    -0.387 OA
ATOM     26  H   UNL     1      22.546 -25.825  26.987  1.00  0.00     0.211 HD
ENDBRANCH  20  25
BRANCH  21  27
ATOM     27  C   UNL     1      24.506 -24.798  23.123  1.00  0.00     0.191 C 
BRANCH  27  28
ATOM     28  O   UNL     1      23.602 -24.917  22.059  1.00  0.00    -0.394 OA
ATOM     29  H   UNL     1      23.021 -24.113  22.099  1.00  0.00     0.210 HD
ENDBRANCH  27  28
ENDBRANCH  21  27
BRANCH  22  30
ATOM     30  O   UNL     1      22.263 -26.577  23.849  1.00  0.00    -0.387 OA
ATOM     31  H   UNL     1      22.391 -26.588  22.862  1.00  0.00     0.211 HD
ENDBRANCH  22  30
ENDBRANCH   1  17
TORSDOF 10
ENDMDL
MODEL 5
REMARK VINA RESULT:    -6.337      2.449      4.163
REMARK INTER + INTRA:         -10.146
REMARK INTER:                  -9.356
REMARK INTRA:                  -0.789
REMARK UNBOUND:                -1.215
REMARK SMILES OC[C@H]1O[C@H](O[C@H]2OC=C[C@@H]3[C@H](O)[C@@H]4O[C@]4(CO)[C@H]23)[C@@H](O)[C@H](O)[C@@H]1O
REMARK SMILES IDX 6 1 7 2 10 3 9 4 11 5 8 6 19 7 12 8 16 9 14 10 15 11 13 12
REMARK SMILES IDX 17 14 18 15 5 17 20 18 4 19 22 20 3 21 24 22 21 23 23 25
REMARK SMILES IDX 2 27 1 28 25 30
REMARK H PARENT 13 13 18 16 21 24 23 26 1 29 25 31
REMARK Flexibility Score: inf
ROOT
ATOM      1  O   UNL     1      23.087 -22.401  26.718  1.00  0.00    -0.310 OA
ENDROOT
BRANCH   1   2
ATOM      2  C   UNL     1      22.602 -22.197  28.037  1.00  0.00     0.315 C 
ATOM      3  C   UNL     1      23.242 -21.997  30.824  1.00  0.00     0.018 C 
ATOM      4  C   UNL     1      23.127 -23.226  30.327  1.00  0.00     0.186 C 
ATOM      5  C   UNL     1      23.739 -20.846  29.967  1.00  0.00     0.059 C 
ATOM      6  O   UNL     1      23.122 -23.299  28.897  1.00  0.00    -0.472 OA
ATOM      7  C   UNL     1      23.102 -20.824  28.555  1.00  0.00     0.105 C 
ATOM      8  C   UNL     1      23.411 -19.448  30.554  1.00  0.00     0.154 C 
ATOM      9  C   UNL     1      21.988 -19.778  28.629  1.00  0.00     0.130 C 
ATOM     10  C   UNL     1      22.174 -18.946  29.828  1.00  0.00     0.183 C 
ATOM     11  O   UNL     1      21.136 -19.907  29.747  1.00  0.00    -0.360 OA
BRANCH   8  12
ATOM     12  O   UNL     1      23.191 -19.453  31.940  1.00  0.00    -0.390 OA
ATOM     13  H   UNL     1      23.949 -18.954  32.345  1.00  0.00     0.211 HD
ENDBRANCH   8  12
BRANCH   9  14
ATOM     14  C   UNL     1      21.306 -19.206  27.376  1.00  0.00     0.195 C 
BRANCH  14  15
ATOM     15  O   UNL     1      21.314 -20.111  26.303  1.00  0.00    -0.393 OA
ATOM     16  H   UNL     1      20.446 -20.589  26.327  1.00  0.00     0.210 HD
ENDBRANCH  14  15
ENDBRANCH   9  14
ENDBRANCH   1   2
BRANCH   1  17
ATOM     17  C   UNL     1      23.995 -23.490  26.624  1.00  0.00     0.286 C 
ATOM     18  C   UNL     1      25.266 -23.139  25.807  1.00  0.00     0.202 C 
ATOM     19  O   UNL     1      23.340 -24.624  26.078  1.00  0.00    -0.341 OA
ATOM     20  C   UNL     1      24.964 -22.998  24.297  1.00  0.00     0.179 C 
ATOM     21  C   UNL     1      22.862 -24.374  24.765  1.00  0.00     0.178 C 
ATOM     22  C   UNL     1      24.047 -24.137  23.797  1.00  0.00     0.177 C 
BRANCH  18  23
ATOM     23  O   UNL     1      26.213 -24.159  26.007  1.00  0.00    -0.385 OA
ATOM     24  H   UNL     1      25.707 -25.004  26.147  1.00  0.00     0.211 HD
ENDBRANCH  18  23
BRANCH  20  25
ATOM     25  O   UNL     1      24.451 -21.721  23.992  1.00  0.00    -0.387 OA
ATOM     26  H   UNL     1      24.348 -21.213  24.837  1.00  0.00     0.211 HD
ENDBRANCH  20  25
BRANCH  21  27
ATOM     27  C   UNL     1      22.034 -25.585  24.318  1.00  0.00     0.191 C 
BRANCH  27  28
ATOM     28  O   UNL     1      22.825 -26.429  23.529  1.00  0.00    -0.394 OA
ATOM     29  H   UNL     1      22.198 -27.043  23.066  1.00  0.00     0.210 HD
ENDBRANCH  27  28
ENDBRANCH  21  27
BRANCH  22  30
ATOM     30  O   UNL     1      23.606 -23.886  22.483  1.00  0.00    -0.387 OA
ATOM     31  H   UNL     1      23.110 -24.692  22.174  1.00  0.00     0.211 HD
ENDBRANCH  22  30
ENDBRANCH   1  17
TORSDOF 10
ENDMDL
MODEL 6
REMARK VINA RESULT:    -6.205      3.980      6.659
REMARK INTER + INTRA:          -9.960
REMARK INTER:                  -8.863
REMARK INTRA:                  -1.097
REMARK UNBOUND:                -1.215
REMARK SMILES OC[C@H]1O[C@H](O[C@H]2OC=C[C@@H]3[C@H](O)[C@@H]4O[C@]4(CO)[C@H]23)[C@@H](O)[C@H](O)[C@@H]1O
REMARK SMILES IDX 6 1 7 2 10 3 9 4 11 5 8 6 19 7 12 8 16 9 14 10 15 11 13 12
REMARK SMILES IDX 17 14 18 15 5 17 20 18 4 19 22 20 3 21 24 22 21 23 23 25
REMARK SMILES IDX 2 27 1 28 25 30
REMARK H PARENT 13 13 18 16 21 24 23 26 1 29 25 31
REMARK Flexibility Score: inf
ROOT
ATOM      1  O   UNL     1      21.408 -21.156  29.051  1.00  0.00    -0.310 OA
ENDROOT
BRANCH   1   2
ATOM      2  C   UNL     1      22.416 -22.151  28.954  1.00  0.00     0.315 C 
ATOM      3  C   UNL     1      23.208 -24.832  29.588  1.00  0.00     0.018 C 
ATOM      4  C   UNL     1      23.351 -23.926  30.552  1.00  0.00     0.186 C 
ATOM      5  C   UNL     1      22.097 -24.717  28.560  1.00  0.00     0.059 C 
ATOM      6  O   UNL     1      22.667 -22.690  30.323  1.00  0.00    -0.472 OA
ATOM      7  C   UNL     1      21.927 -23.279  28.010  1.00  0.00     0.105 C 
ATOM      8  C   UNL     1      22.329 -25.583  27.295  1.00  0.00     0.154 C 
ATOM      9  C   UNL     1      22.648 -23.273  26.660  1.00  0.00     0.130 C 
ATOM     10  C   UNL     1      22.887 -24.658  26.225  1.00  0.00     0.183 C 
ATOM     11  O   UNL     1      23.943 -23.834  26.685  1.00  0.00    -0.360 OA
BRANCH   8  12
ATOM     12  O   UNL     1      23.198 -26.666  27.500  1.00  0.00    -0.390 OA
ATOM     13  H   UNL     1      23.272 -26.783  28.484  1.00  0.00     0.211 HD
ENDBRANCH   8  12
BRANCH   9  14
ATOM     14  C   UNL     1      22.464 -22.148  25.629  1.00  0.00     0.195 C 
BRANCH  14  15
ATOM     15  O   UNL     1      21.405 -21.289  25.959  1.00  0.00    -0.393 OA
ATOM     16  H   UNL     1      21.188 -21.457  26.912  1.00  0.00     0.210 HD
ENDBRANCH  14  15
ENDBRANCH   9  14
ENDBRANCH   1   2
BRANCH   1  17
ATOM     17  C   UNL     1      21.853 -19.977  29.709  1.00  0.00     0.286 C 
ATOM     18  C   UNL     1      20.936 -19.570  30.892  1.00  0.00     0.202 C 
ATOM     19  O   UNL     1      21.976 -18.915  28.775  1.00  0.00    -0.341 OA
ATOM     20  C   UNL     1      19.572 -19.028  30.407  1.00  0.00     0.179 C 
ATOM     21  C   UNL     1      20.731 -18.602  28.170  1.00  0.00     0.178 C 
ATOM     22  C   UNL     1      19.743 -18.047  29.225  1.00  0.00     0.177 C 
BRANCH  18  23
ATOM     23  O   UNL     1      21.599 -18.584  31.643  1.00  0.00    -0.385 OA
ATOM     24  H   UNL     1      22.173 -18.073  31.012  1.00  0.00     0.211 HD
ENDBRANCH  18  23
BRANCH  20  25
ATOM     25  O   UNL     1      18.677 -20.075  30.112  1.00  0.00    -0.387 OA
ATOM     26  H   UNL     1      18.558 -20.121  29.129  1.00  0.00     0.211 HD
ENDBRANCH  20  25
BRANCH  21  27
ATOM     27  C   UNL     1      20.981 -17.565  27.068  1.00  0.00     0.191 C 
BRANCH  27  28
ATOM     28  O   UNL     1      21.381 -18.216  25.893  1.00  0.00    -0.394 OA
ATOM     29  H   UNL     1      22.283 -17.865  25.676  1.00  0.00     0.210 HD
ENDBRANCH  27  28
ENDBRANCH  21  27
BRANCH  22  30
ATOM     30  O   UNL     1      18.496 -17.724  28.655  1.00  0.00    -0.387 OA
ATOM     31  H   UNL     1      18.599 -17.763  27.666  1.00  0.00     0.211 HD
ENDBRANCH  22  30
ENDBRANCH   1  17
TORSDOF 10
ENDMDL
MODEL 7
REMARK VINA RESULT:    -6.155      1.888      2.451
REMARK INTER + INTRA:          -9.888
REMARK INTER:                  -8.619
REMARK INTRA:                  -1.269
REMARK UNBOUND:                -1.215
REMARK SMILES OC[C@H]1O[C@H](O[C@H]2OC=C[C@@H]3[C@H](O)[C@@H]4O[C@]4(CO)[C@H]23)[C@@H](O)[C@H](O)[C@@H]1O
REMARK SMILES IDX 6 1 7 2 10 3 9 4 11 5 8 6 19 7 12 8 16 9 14 10 15 11 13 12
REMARK SMILES IDX 17 14 18 15 5 17 20 18 4 19 22 20 3 21 24 22 21 23 23 25
REMARK SMILES IDX 2 27 1 28 25 30
REMARK H PARENT 13 13 18 16 21 24 23 26 1 29 25 31
REMARK Flexibility Score: inf
ROOT
ATOM      1  O   UNL     1      23.841 -25.564  28.330  1.00  0.00    -0.310 OA
ENDROOT
BRANCH   1   2
ATOM      2  C   UNL     1      24.216 -25.520  29.698  1.00  0.00     0.315 C 
ATOM      3  C   UNL     1      23.361 -25.137  32.408  1.00  0.00     0.018 C 
ATOM      4  C   UNL     1      23.578 -24.037  31.692  1.00  0.00     0.186 C 
ATOM      5  C   UNL     1      22.870 -26.416  31.754  1.00  0.00     0.059 C 
ATOM      6  O   UNL     1      23.692 -24.250  30.281  1.00  0.00    -0.472 OA
ATOM      7  C   UNL     1      23.606 -26.742  30.432  1.00  0.00     0.105 C 
ATOM      8  C   UNL     1      23.079 -27.680  32.628  1.00  0.00     0.154 C 
ATOM      9  C   UNL     1      24.656 -27.793  30.800  1.00  0.00     0.130 C 
ATOM     10  C   UNL     1      24.338 -28.363  32.119  1.00  0.00     0.183 C 
ATOM     11  O   UNL     1      25.428 -27.476  31.939  1.00  0.00    -0.360 OA
BRANCH   8  12
ATOM     12  O   UNL     1      23.196 -27.409  34.000  1.00  0.00    -0.390 OA
ATOM     13  H   UNL     1      23.831 -26.650  34.082  1.00  0.00     0.211 HD
ENDBRANCH   8  12
BRANCH   9  14
ATOM     14  C   UNL     1      25.397 -28.628  29.744  1.00  0.00     0.195 C 
BRANCH  14  15
ATOM     15  O   UNL     1      24.735 -28.635  28.507  1.00  0.00    -0.393 OA
ATOM     16  H   UNL     1      23.864 -28.180  28.647  1.00  0.00     0.210 HD
ENDBRANCH  14  15
ENDBRANCH   9  14
ENDBRANCH   1   2
BRANCH   1  17
ATOM     17  C   UNL     1      24.928 -25.319  27.448  1.00  0.00     0.286 C 
ATOM     18  C   UNL     1      25.397 -23.841  27.473  1.00  0.00     0.202 C 
ATOM     19  O   UNL     1      24.587 -25.720  26.130  1.00  0.00    -0.341 OA
ATOM     20  C   UNL     1      24.374 -22.898  26.798  1.00  0.00     0.179 C 
ATOM     21  C   UNL     1      23.480 -24.987  25.629  1.00  0.00     0.178 C 
ATOM     22  C   UNL     1      23.851 -23.491  25.471  1.00  0.00     0.177 C 
BRANCH  18  23
ATOM     23  O   UNL     1      26.631 -23.759  26.804  1.00  0.00    -0.385 OA
ATOM     24  H   UNL     1      26.531 -24.251  25.945  1.00  0.00     0.211 HD
ENDBRANCH  18  23
BRANCH  20  25
ATOM     25  O   UNL     1      23.332 -22.552  27.681  1.00  0.00    -0.387 OA
ATOM     26  H   UNL     1      23.540 -21.670  28.083  1.00  0.00     0.211 HD
ENDBRANCH  20  25
BRANCH  21  27
ATOM     27  C   UNL     1      23.079 -25.589  24.277  1.00  0.00     0.191 C 
BRANCH  27  28
ATOM     28  O   UNL     1      21.733 -25.302  24.015  1.00  0.00    -0.394 OA
ATOM     29  H   UNL     1      21.466 -24.609  24.674  1.00  0.00     0.210 HD
ENDBRANCH  27  28
ENDBRANCH  21  27
BRANCH  22  30
ATOM     30  O   UNL     1      22.772 -22.735  24.973  1.00  0.00    -0.387 OA
ATOM     31  H   UNL     1      22.768 -21.864  25.454  1.00  0.00     0.211 HD
ENDBRANCH  22  30
ENDBRANCH   1  17
TORSDOF 10
ENDMDL
MODEL 8
REMARK VINA RESULT:    -6.154      2.138      6.783
REMARK INTER + INTRA:          -9.887
REMARK INTER:                  -8.651
REMARK INTRA:                  -1.236
REMARK UNBOUND:                -1.215
REMARK SMILES OC[C@H]1O[C@H](O[C@H]2OC=C[C@@H]3[C@H](O)[C@@H]4O[C@]4(CO)[C@H]23)[C@@H](O)[C@H](O)[C@@H]1O
REMARK SMILES IDX 6 1 7 2 10 3 9 4 11 5 8 6 19 7 12 8 16 9 14 10 15 11 13 12
REMARK SMILES IDX 17 14 18 15 5 17 20 18 4 19 22 20 3 21 24 22 21 23 23 25
REMARK SMILES IDX 2 27 1 28 25 30
REMARK H PARENT 13 13 18 16 21 24 23 26 1 29 25 31
REMARK Flexibility Score: inf
ROOT
ATOM      1  O   UNL     1      22.779 -23.077  27.926  1.00  0.00    -0.310 OA
ENDROOT
BRANCH   1   2
ATOM      2  C   UNL     1      22.989 -24.002  26.870  1.00  0.00     0.315 C 
ATOM      3  C   UNL     1      22.145 -24.930  24.292  1.00  0.00     0.018 C 
ATOM      4  C   UNL     1      21.446 -25.364  25.338  1.00  0.00     0.186 C 
ATOM      5  C   UNL     1      22.802 -23.561  24.298  1.00  0.00     0.059 C 
ATOM      6  O   UNL     1      21.682 -24.651  26.557  1.00  0.00    -0.472 OA
ATOM      7  C   UNL     1      23.526 -23.243  25.629  1.00  0.00     0.105 C 
ATOM      8  C   UNL     1      23.901 -23.394  23.217  1.00  0.00     0.154 C 
ATOM      9  C   UNL     1      25.007 -23.522  25.362  1.00  0.00     0.130 C 
ATOM     10  C   UNL     1      25.236 -23.609  23.911  1.00  0.00     0.183 C 
ATOM     11  O   UNL     1      25.265 -24.761  24.735  1.00  0.00    -0.360 OA
BRANCH   8  12
ATOM     12  O   UNL     1      23.770 -24.277  22.134  1.00  0.00    -0.390 OA
ATOM     13  H   UNL     1      22.926 -24.030  21.672  1.00  0.00     0.211 HD
ENDBRANCH   8  12
BRANCH   9  14
ATOM     14  C   UNL     1      26.122 -23.043  26.304  1.00  0.00     0.195 C 
BRANCH  14  15
ATOM     15  O   UNL     1      26.588 -24.067  27.145  1.00  0.00    -0.393 OA
ATOM     16  H   UNL     1      27.551 -23.888  27.304  1.00  0.00     0.210 HD
ENDBRANCH  14  15
ENDBRANCH   9  14
ENDBRANCH   1   2
BRANCH   1  17
ATOM     17  C   UNL     1      23.496 -23.411  29.107  1.00  0.00     0.286 C 
ATOM     18  C   UNL     1      23.127 -24.816  29.652  1.00  0.00     0.202 C 
ATOM     19  O   UNL     1      23.295 -22.415  30.097  1.00  0.00    -0.341 OA
ATOM     20  C   UNL     1      21.707 -24.845  30.264  1.00  0.00     0.179 C 
ATOM     21  C   UNL     1      21.928 -22.307  30.464  1.00  0.00     0.178 C 
ATOM     22  C   UNL     1      21.451 -23.609  31.155  1.00  0.00     0.177 C 
BRANCH  18  23
ATOM     23  O   UNL     1      24.071 -25.170  30.632  1.00  0.00    -0.385 OA
ATOM     24  H   UNL     1      23.652 -25.867  31.204  1.00  0.00     0.211 HD
ENDBRANCH  18  23
BRANCH  20  25
ATOM     25  O   UNL     1      20.722 -25.005  29.269  1.00  0.00    -0.387 OA
ATOM     26  H   UNL     1      20.934 -24.399  28.514  1.00  0.00     0.211 HD
ENDBRANCH  20  25
BRANCH  21  27
ATOM     27  C   UNL     1      21.779 -21.109  31.410  1.00  0.00     0.191 C 
BRANCH  27  28
ATOM     28  O   UNL     1      20.457 -20.647  31.376  1.00  0.00    -0.394 OA
ATOM     29  H   UNL     1      20.511 -19.656  31.358  1.00  0.00     0.210 HD
ENDBRANCH  27  28
ENDBRANCH  21  27
BRANCH  22  30
ATOM     30  O   UNL     1      20.096 -23.534  31.533  1.00  0.00    -0.387 OA
ATOM     31  H   UNL     1      20.067 -23.339  32.508  1.00  0.00     0.211 HD
ENDBRANCH  22  30
ENDBRANCH   1  17
TORSDOF 10
ENDMDL
MODEL 9
REMARK VINA RESULT:    -6.139      2.852      5.025
REMARK INTER + INTRA:          -9.866
REMARK INTER:                  -8.814
REMARK INTRA:                  -1.052
REMARK UNBOUND:                -1.215
REMARK SMILES OC[C@H]1O[C@H](O[C@H]2OC=C[C@@H]3[C@H](O)[C@@H]4O[C@]4(CO)[C@H]23)[C@@H](O)[C@H](O)[C@@H]1O
REMARK SMILES IDX 6 1 7 2 10 3 9 4 11 5 8 6 19 7 12 8 16 9 14 10 15 11 13 12
REMARK SMILES IDX 17 14 18 15 5 17 20 18 4 19 22 20 3 21 24 22 21 23 23 25
REMARK SMILES IDX 2 27 1 28 25 30
REMARK H PARENT 13 13 18 16 21 24 23 26 1 29 25 31
REMARK Flexibility Score: inf
ROOT
ATOM      1  O   UNL     1      22.802 -22.976  27.738  1.00  0.00    -0.310 OA
ENDROOT
BRANCH   1   2
ATOM      2  C   UNL     1      22.185 -22.180  28.739  1.00  0.00     0.315 C 
ATOM      3  C   UNL     1      22.444 -20.931  31.307  1.00  0.00     0.018 C 
ATOM      4  C   UNL     1      22.146 -22.228  31.304  1.00  0.00     0.186 C 
ATOM      5  C   UNL     1      23.290 -20.316  30.205  1.00  0.00     0.059 C 
ATOM      6  O   UNL     1      22.333 -22.886  30.046  1.00  0.00    -0.472 OA
ATOM      7  C   UNL     1      22.883 -20.797  28.790  1.00  0.00     0.105 C 
ATOM      8  C   UNL     1      23.182 -18.771  30.129  1.00  0.00     0.154 C 
ATOM      9  C   UNL     1      22.015 -19.676  28.215  1.00  0.00     0.130 C 
ATOM     10  C   UNL     1      22.197 -18.454  29.016  1.00  0.00     0.183 C 
ATOM     11  O   UNL     1      21.003 -19.214  29.085  1.00  0.00    -0.360 OA
BRANCH   8  12
ATOM     12  O   UNL     1      22.769 -18.171  31.327  1.00  0.00    -0.390 OA
ATOM     13  H   UNL     1      22.078 -18.770  31.716  1.00  0.00     0.211 HD
ENDBRANCH   8  12
BRANCH   9  14
ATOM     14  C   UNL     1      21.657 -19.589  26.723  1.00  0.00     0.195 C 
BRANCH  14  15
ATOM     15  O   UNL     1      21.265 -20.829  26.195  1.00  0.00    -0.393 OA
ATOM     16  H   UNL     1      20.908 -21.361  26.952  1.00  0.00     0.210 HD
ENDBRANCH  14  15
ENDBRANCH   9  14
ENDBRANCH   1   2
BRANCH   1  17
ATOM     17  C   UNL     1      21.947 -23.991  27.231  1.00  0.00     0.286 C 
ATOM     18  C   UNL     1      22.528 -25.416  27.428  1.00  0.00     0.202 C 
ATOM     19  O   UNL     1      21.658 -23.746  25.864  1.00  0.00    -0.341 OA
ATOM     20  C   UNL     1      23.733 -25.683  26.495  1.00  0.00     0.179 C 
ATOM     21  C   UNL     1      22.832 -23.765  25.067  1.00  0.00     0.178 C 
ATOM     22  C   UNL     1      23.456 -25.182  25.060  1.00  0.00     0.177 C 
BRANCH  18  23
ATOM     23  O   UNL     1      21.509 -26.347  27.164  1.00  0.00    -0.385 OA
ATOM     24  H   UNL     1      21.753 -27.189  27.635  1.00  0.00     0.211 HD
ENDBRANCH  18  23
BRANCH  20  25
ATOM     25  O   UNL     1      24.925 -25.154  27.030  1.00  0.00    -0.387 OA
ATOM     26  H   UNL     1      25.202 -24.380  26.477  1.00  0.00     0.211 HD
ENDBRANCH  20  25
BRANCH  21  27
ATOM     27  C   UNL     1      22.454 -23.335  23.644  1.00  0.00     0.191 C 
BRANCH  27  28
ATOM     28  O   UNL     1      23.608 -22.966  22.943  1.00  0.00    -0.394 OA
ATOM     29  H   UNL     1      24.374 -23.319  23.465  1.00  0.00     0.210 HD
ENDBRANCH  27  28
ENDBRANCH  21  27
BRANCH  22  30
ATOM     30  O   UNL     1      24.625 -25.234  24.276  1.00  0.00    -0.387 OA
ATOM     31  H   UNL     1      24.714 -26.163  23.930  1.00  0.00     0.211 HD
ENDBRANCH  22  30
ENDBRANCH   1  17
TORSDOF 10
ENDMDL
