MODEL 1
REMARK VINA RESULT:    -7.425      0.000      0.000
REMARK INTER + INTRA:         -10.050
REMARK INTER:                 -10.247
REMARK INTRA:                   0.197
REMARK UNBOUND:                 0.197
REMARK SMILES CC[C@H](CC[C@@H](C)[C@@H]1CC[C@H]2[C@@H]3CC=C4C[C@H](O)CC[C@@]4(C)[C@H]3CC[C@]21C)C(C)C
REMARK SMILES IDX 5 1 4 2 3 3 2 4 1 5 28 6 29 7 30 8 6 9 7 10 8 11 9 12 26 13
REMARK SMILES IDX 10 14 11 15 25 16 27 17 12 18 24 19 23 20 13 21 21 22 14 23
REMARK SMILES IDX 15 24 20 25 22 26 16 27 19 28 17 29 18 30
REMARK H PARENT 18 31
REMARK Flexibility Score: inf
ROOT
ATOM      1  C   UNL     1      -7.601  -1.576   7.915  1.00  0.00     0.004 C 
ENDROOT
BRANCH   1   2
ATOM      2  C   UNL     1      -7.699  -0.031   7.807  1.00  0.00     0.004 C 
BRANCH   2   3
ATOM      3  C   UNL     1      -9.087   0.583   7.429  1.00  0.00    -0.009 C 
BRANCH   3   4
ATOM      4  C   UNL     1      -9.454   1.751   8.398  1.00  0.00     0.000 C 
ATOM      5  C   UNL     1      -8.228   2.412   9.035  1.00  0.00     0.004 C 
ENDBRANCH   3   4
BRANCH   3   6
ATOM      6  C   UNL     1      -9.228   0.956   5.908  1.00  0.00    -0.014 C 
ATOM      7  C   UNL     1      -8.183   2.004   5.471  1.00  0.00     0.007 C 
ATOM      8  C   UNL     1      -9.080  -0.258   4.973  1.00  0.00     0.007 C 
ENDBRANCH   3   6
ENDBRANCH   2   3
ENDBRANCH   1   2
BRANCH   1   9
ATOM      9  C   UNL     1      -6.175  -2.184   7.741  1.00  0.00    -0.011 C 
ATOM     10  C   UNL     1      -5.677  -2.660   9.125  1.00  0.00     0.008 C 
BRANCH   9  11
ATOM     11  C   UNL     1      -6.154  -3.365   6.696  1.00  0.00    -0.002 C 
ATOM     12  C   UNL     1      -7.383  -3.409   5.787  1.00  0.00     0.005 C 
ATOM     13  C   UNL     1      -6.047  -4.834   7.242  1.00  0.00    -0.026 C 
ATOM     14  C   UNL     1      -7.306  -4.753   5.096  1.00  0.00     0.005 C 
ATOM     15  C   UNL     1      -6.675  -5.720   6.109  1.00  0.00    -0.001 C 
ATOM     16  C   UNL     1      -4.566  -5.218   7.515  1.00  0.00     0.007 C 
ATOM     17  C   UNL     1      -6.886  -5.043   8.534  1.00  0.00     0.012 C 
ATOM     18  C   UNL     1      -5.674  -6.705   5.436  1.00  0.00     0.000 C 
ATOM     19  C   UNL     1      -4.385  -6.727   7.691  1.00  0.00     0.005 C 
ATOM     20  C   UNL     1      -4.924  -7.562   6.489  1.00  0.00     0.003 C 
ATOM     21  C   UNL     1      -6.419  -7.652   4.476  1.00  0.00     0.031 C 
ATOM     22  C   UNL     1      -3.853  -8.511   5.819  1.00  0.00    -0.008 C 
ATOM     23  C   UNL     1      -5.527  -8.723   3.923  1.00  0.00    -0.027 C 
ATOM     24  C   UNL     1      -4.402  -9.158   4.537  1.00  0.00    -0.065 C 
ATOM     25  C   UNL     1      -2.550  -7.750   5.399  1.00  0.00     0.014 C 
ATOM     26  C   UNL     1      -3.514  -9.627   6.845  1.00  0.00     0.016 C 
ATOM     27  C   UNL     1      -3.477 -10.080   3.774  1.00  0.00     0.063 C 
ATOM     28  C   UNL     1      -1.554  -8.615   4.591  1.00  0.00     0.033 C 
ATOM     29  C   UNL     1      -2.216  -9.294   3.375  1.00  0.00     0.118 C 
BRANCH  29  30
ATOM     30  O   UNL     1      -1.296 -10.125   2.713  1.00  0.00    -0.393 OA
ATOM     31  H   UNL     1      -0.721  -9.546   2.147  1.00  0.00     0.210 HD
ENDBRANCH  29  30
ENDBRANCH   9  11
ENDBRANCH   1   9
TORSDOF 7
ENDMDL
MODEL 2
REMARK VINA RESULT:    -7.218      1.214      2.037
REMARK INTER + INTRA:          -9.764
REMARK INTER:                  -8.734
REMARK INTRA:                  -1.030
REMARK UNBOUND:                 0.197
REMARK SMILES CC[C@H](CC[C@@H](C)[C@@H]1CC[C@H]2[C@@H]3CC=C4C[C@H](O)CC[C@@]4(C)[C@H]3CC[C@]21C)C(C)C
REMARK SMILES IDX 5 1 4 2 3 3 2 4 1 5 28 6 29 7 30 8 6 9 7 10 8 11 9 12 26 13
REMARK SMILES IDX 10 14 11 15 25 16 27 17 12 18 24 19 23 20 13 21 21 22 14 23
REMARK SMILES IDX 15 24 20 25 22 26 16 27 19 28 17 29 18 30
REMARK H PARENT 18 31
REMARK Flexibility Score: inf
ROOT
ATOM      1  C   UNL     1      -7.497  -1.689   5.763  1.00  0.00     0.004 C 
ENDROOT
BRANCH   1   2
ATOM      2  C   UNL     1      -8.203  -0.307   5.798  1.00  0.00     0.004 C 
BRANCH   2   3
ATOM      3  C   UNL     1      -8.661   0.237   7.191  1.00  0.00    -0.009 C 
BRANCH   3   4
ATOM      4  C   UNL     1      -7.685  -0.236   8.314  1.00  0.00     0.000 C 
ATOM      5  C   UNL     1      -8.354  -1.152   9.345  1.00  0.00     0.004 C 
ENDBRANCH   3   4
BRANCH   3   6
ATOM      6  C   UNL     1      -8.944   1.784   7.211  1.00  0.00    -0.014 C 
ATOM      7  C   UNL     1      -8.226   2.488   8.379  1.00  0.00     0.007 C 
ATOM      8  C   UNL     1      -8.515   2.492   5.912  1.00  0.00     0.007 C 
ENDBRANCH   3   6
ENDBRANCH   2   3
ENDBRANCH   1   2
BRANCH   1   9
ATOM      9  C   UNL     1      -8.409  -2.929   6.019  1.00  0.00    -0.011 C 
ATOM     10  C   UNL     1      -9.844  -2.581   5.561  1.00  0.00     0.008 C 
BRANCH   9  11
ATOM     11  C   UNL     1      -7.879  -4.221   5.284  1.00  0.00    -0.002 C 
ATOM     12  C   UNL     1      -8.891  -4.844   4.323  1.00  0.00     0.005 C 
ATOM     13  C   UNL     1      -7.413  -5.434   6.166  1.00  0.00    -0.026 C 
ATOM     14  C   UNL     1      -8.311  -6.198   3.974  1.00  0.00     0.005 C 
ATOM     15  C   UNL     1      -7.571  -6.683   5.230  1.00  0.00    -0.001 C 
ATOM     16  C   UNL     1      -5.942  -5.248   6.631  1.00  0.00     0.007 C 
ATOM     17  C   UNL     1      -8.327  -5.645   7.405  1.00  0.00     0.012 C 
ATOM     18  C   UNL     1      -6.232  -7.398   4.883  1.00  0.00     0.000 C 
ATOM     19  C   UNL     1      -5.339  -6.548   7.170  1.00  0.00     0.005 C 
ATOM     20  C   UNL     1      -5.419  -7.734   6.161  1.00  0.00     0.003 C 
ATOM     21  C   UNL     1      -6.506  -8.708   4.120  1.00  0.00     0.031 C 
ATOM     22  C   UNL     1      -4.025  -8.393   5.814  1.00  0.00    -0.008 C 
ATOM     23  C   UNL     1      -5.261  -9.514   3.901  1.00  0.00    -0.027 C 
ATOM     24  C   UNL     1      -4.160  -9.425   4.682  1.00  0.00    -0.065 C 
ATOM     25  C   UNL     1      -2.967  -7.346   5.325  1.00  0.00     0.014 C 
ATOM     26  C   UNL     1      -3.517  -9.109   7.095  1.00  0.00     0.016 C 
ATOM     27  C   UNL     1      -2.898 -10.125   4.228  1.00  0.00     0.063 C 
ATOM     28  C   UNL     1      -1.650  -7.979   4.819  1.00  0.00     0.033 C 
ATOM     29  C   UNL     1      -1.890  -9.065   3.750  1.00  0.00     0.118 C 
BRANCH  29  30
ATOM     30  O   UNL     1      -0.676  -9.662   3.372  1.00  0.00    -0.393 OA
ATOM     31  H   UNL     1       0.040  -9.277   3.943  1.00  0.00     0.210 HD
ENDBRANCH  29  30
ENDBRANCH   9  11
ENDBRANCH   1   9
TORSDOF 7
ENDMDL
MODEL 3
REMARK VINA RESULT:    -6.841      3.214      8.476
REMARK INTER + INTRA:          -9.243
REMARK INTER:                  -7.026
REMARK INTRA:                  -2.217
REMARK UNBOUND:                 0.197
REMARK SMILES CC[C@H](CC[C@@H](C)[C@@H]1CC[C@H]2[C@@H]3CC=C4C[C@H](O)CC[C@@]4(C)[C@H]3CC[C@]21C)C(C)C
REMARK SMILES IDX 5 1 4 2 3 3 2 4 1 5 28 6 29 7 30 8 6 9 7 10 8 11 9 12 26 13
REMARK SMILES IDX 10 14 11 15 25 16 27 17 12 18 24 19 23 20 13 21 21 22 14 23
REMARK SMILES IDX 15 24 20 25 22 26 16 27 19 28 17 29 18 30
REMARK H PARENT 18 31
REMARK Flexibility Score: inf
ROOT
ATOM      1  C   UNL     1      -5.151  -7.170   4.031  1.00  0.00     0.004 C 
ENDROOT
BRANCH   1   2
ATOM      2  C   UNL     1      -4.486  -6.179   5.023  1.00  0.00     0.004 C 
BRANCH   2   3
ATOM      3  C   UNL     1      -4.250  -6.669   6.489  1.00  0.00    -0.009 C 
BRANCH   3   4
ATOM      4  C   UNL     1      -2.946  -7.523   6.580  1.00  0.00     0.000 C 
ATOM      5  C   UNL     1      -3.175  -9.005   6.268  1.00  0.00     0.004 C 
ENDBRANCH   3   4
BRANCH   3   6
ATOM      6  C   UNL     1      -4.333  -5.526   7.565  1.00  0.00    -0.014 C 
ATOM      7  C   UNL     1      -5.165  -4.326   7.071  1.00  0.00     0.007 C 
ATOM      8  C   UNL     1      -4.948  -5.996   8.896  1.00  0.00     0.007 C 
ENDBRANCH   3   6
ENDBRANCH   2   3
ENDBRANCH   1   2
BRANCH   1   9
ATOM      9  C   UNL     1      -6.622  -7.578   4.355  1.00  0.00    -0.011 C 
ATOM     10  C   UNL     1      -6.631  -9.064   4.782  1.00  0.00     0.008 C 
BRANCH   9  11
ATOM     11  C   UNL     1      -7.262  -6.666   5.472  1.00  0.00    -0.002 C 
ATOM     12  C   UNL     1      -8.004  -7.446   6.557  1.00  0.00     0.005 C 
ATOM     13  C   UNL     1      -8.300  -5.573   5.028  1.00  0.00    -0.026 C 
ATOM     14  C   UNL     1      -8.776  -6.397   7.328  1.00  0.00     0.005 C 
ATOM     15  C   UNL     1      -9.173  -5.321   6.307  1.00  0.00    -0.001 C 
ATOM     16  C   UNL     1      -7.577  -4.279   4.562  1.00  0.00     0.007 C 
ATOM     17  C   UNL     1      -9.239  -6.080   3.898  1.00  0.00     0.012 C 
ATOM     18  C   UNL     1      -9.052  -3.882   6.892  1.00  0.00     0.000 C 
ATOM     19  C   UNL     1      -8.531  -3.086   4.475  1.00  0.00     0.005 C 
ATOM     20  C   UNL     1      -9.296  -2.803   5.804  1.00  0.00     0.003 C 
ATOM     21  C   UNL     1     -10.078  -3.677   8.023  1.00  0.00     0.031 C 
ATOM     22  C   UNL     1      -9.102  -1.342   6.373  1.00  0.00    -0.008 C 
ATOM     23  C   UNL     1     -10.113  -2.260   8.513  1.00  0.00    -0.027 C 
ATOM     24  C   UNL     1      -9.730  -1.196   7.769  1.00  0.00    -0.065 C 
ATOM     25  C   UNL     1      -7.593  -0.951   6.531  1.00  0.00     0.014 C 
ATOM     26  C   UNL     1      -9.809  -0.364   5.395  1.00  0.00     0.016 C 
ATOM     27  C   UNL     1      -9.604   0.148   8.449  1.00  0.00     0.063 C 
ATOM     28  C   UNL     1      -7.371   0.405   7.241  1.00  0.00     0.033 C 
ATOM     29  C   UNL     1      -8.110   0.492   8.592  1.00  0.00     0.118 C 
BRANCH  29  30
ATOM     30  O   UNL     1      -7.940   1.763   9.166  1.00  0.00    -0.393 OA
ATOM     31  H   UNL     1      -7.077   1.758   9.657  1.00  0.00     0.210 HD
ENDBRANCH  29  30
ENDBRANCH   9  11
ENDBRANCH   1   9
TORSDOF 7
ENDMDL
MODEL 4
REMARK VINA RESULT:    -6.731      3.234      8.744
REMARK INTER + INTRA:          -9.092
REMARK INTER:                  -7.211
REMARK INTRA:                  -1.881
REMARK UNBOUND:                 0.197
REMARK SMILES CC[C@H](CC[C@@H](C)[C@@H]1CC[C@H]2[C@@H]3CC=C4C[C@H](O)CC[C@@]4(C)[C@H]3CC[C@]21C)C(C)C
REMARK SMILES IDX 5 1 4 2 3 3 2 4 1 5 28 6 29 7 30 8 6 9 7 10 8 11 9 12 26 13
REMARK SMILES IDX 10 14 11 15 25 16 27 17 12 18 24 19 23 20 13 21 21 22 14 23
REMARK SMILES IDX 15 24 20 25 22 26 16 27 19 28 17 29 18 30
REMARK H PARENT 18 31
REMARK Flexibility Score: inf
ROOT
ATOM      1  C   UNL     1      -6.160  -9.694   5.849  1.00  0.00     0.004 C 
ENDROOT
BRANCH   1   2
ATOM      2  C   UNL     1      -4.613  -9.723   5.970  1.00  0.00     0.004 C 
BRANCH   2   3
ATOM      3  C   UNL     1      -3.787  -8.959   4.884  1.00  0.00    -0.009 C 
BRANCH   3   4
ATOM      4  C   UNL     1      -2.923  -7.835   5.541  1.00  0.00     0.000 C 
ATOM      5  C   UNL     1      -2.437  -8.196   6.948  1.00  0.00     0.004 C 
ENDBRANCH   3   4
BRANCH   3   6
ATOM      6  C   UNL     1      -2.974  -9.899   3.921  1.00  0.00    -0.014 C 
ATOM      7  C   UNL     1      -3.702 -10.120   2.579  1.00  0.00     0.007 C 
ATOM      8  C   UNL     1      -1.568  -9.361   3.599  1.00  0.00     0.007 C 
ENDBRANCH   3   6
ENDBRANCH   2   3
ENDBRANCH   1   2
BRANCH   1   9
ATOM      9  C   UNL     1      -6.734  -8.998   4.576  1.00  0.00    -0.011 C 
ATOM     10  C   UNL     1      -7.600 -10.024   3.810  1.00  0.00     0.008 C 
BRANCH   9  11
ATOM     11  C   UNL     1      -7.565  -7.704   4.926  1.00  0.00    -0.002 C 
ATOM     12  C   UNL     1      -8.680  -7.396   3.926  1.00  0.00     0.005 C 
ATOM     13  C   UNL     1      -6.795  -6.341   5.050  1.00  0.00    -0.026 C 
ATOM     14  C   UNL     1      -9.133  -5.994   4.270  1.00  0.00     0.005 C 
ATOM     15  C   UNL     1      -7.883  -5.248   4.760  1.00  0.00    -0.001 C 
ATOM     16  C   UNL     1      -6.182  -6.178   6.469  1.00  0.00     0.007 C 
ATOM     17  C   UNL     1      -5.676  -6.199   3.981  1.00  0.00     0.012 C 
ATOM     18  C   UNL     1      -8.192  -4.314   5.968  1.00  0.00     0.000 C 
ATOM     19  C   UNL     1      -5.750  -4.737   6.748  1.00  0.00     0.005 C 
ATOM     20  C   UNL     1      -6.895  -3.696   6.555  1.00  0.00     0.003 C 
ATOM     21  C   UNL     1      -9.125  -3.169   5.533  1.00  0.00     0.031 C 
ATOM     22  C   UNL     1      -7.192  -2.806   7.826  1.00  0.00    -0.008 C 
ATOM     23  C   UNL     1      -9.326  -2.152   6.617  1.00  0.00    -0.027 C 
ATOM     24  C   UNL     1      -8.446  -1.939   7.622  1.00  0.00    -0.065 C 
ATOM     25  C   UNL     1      -7.458  -3.660   9.112  1.00  0.00     0.014 C 
ATOM     26  C   UNL     1      -5.964  -1.880   8.042  1.00  0.00     0.016 C 
ATOM     27  C   UNL     1      -8.865  -1.046   8.768  1.00  0.00     0.063 C 
ATOM     28  C   UNL     1      -7.916  -2.826  10.331  1.00  0.00     0.033 C 
ATOM     29  C   UNL     1      -9.123  -1.922  10.007  1.00  0.00     0.118 C 
BRANCH  29  30
ATOM     30  O   UNL     1      -9.459  -1.131  11.118  1.00  0.00    -0.393 OA
ATOM     31  H   UNL     1      -9.030  -1.536  11.917  1.00  0.00     0.210 HD
ENDBRANCH  29  30
ENDBRANCH   9  11
ENDBRANCH   1   9
TORSDOF 7
ENDMDL
MODEL 5
REMARK VINA RESULT:    -6.680      2.187      3.680
REMARK INTER + INTRA:          -9.022
REMARK INTER:                  -7.651
REMARK INTRA:                  -1.371
REMARK UNBOUND:                 0.197
REMARK SMILES CC[C@H](CC[C@@H](C)[C@@H]1CC[C@H]2[C@@H]3CC=C4C[C@H](O)CC[C@@]4(C)[C@H]3CC[C@]21C)C(C)C
REMARK SMILES IDX 5 1 4 2 3 3 2 4 1 5 28 6 29 7 30 8 6 9 7 10 8 11 9 12 26 13
REMARK SMILES IDX 10 14 11 15 25 16 27 17 12 18 24 19 23 20 13 21 21 22 14 23
REMARK SMILES IDX 15 24 20 25 22 26 16 27 19 28 17 29 18 30
REMARK H PARENT 18 31
REMARK Flexibility Score: inf
ROOT
ATOM      1  C   UNL     1      -8.476   1.271   8.632  1.00  0.00     0.004 C 
ENDROOT
BRANCH   1   2
ATOM      2  C   UNL     1      -9.749   1.418   7.757  1.00  0.00     0.004 C 
BRANCH   2   3
ATOM      3  C   UNL     1      -9.612   1.141   6.224  1.00  0.00    -0.009 C 
BRANCH   3   4
ATOM      4  C   UNL     1      -8.617   2.151   5.570  1.00  0.00     0.000 C 
ATOM      5  C   UNL     1      -9.026   3.614   5.772  1.00  0.00     0.004 C 
ENDBRANCH   3   4
BRANCH   3   6
ATOM      6  C   UNL     1      -9.309  -0.361   5.871  1.00  0.00    -0.014 C 
ATOM      7  C   UNL     1     -10.111  -0.839   4.643  1.00  0.00     0.007 C 
ATOM      8  C   UNL     1      -7.820  -0.624   5.580  1.00  0.00     0.007 C 
ENDBRANCH   3   6
ENDBRANCH   2   3
ENDBRANCH   1   2
BRANCH   1   9
ATOM      9  C   UNL     1      -8.462   0.067   9.624  1.00  0.00    -0.011 C 
ATOM     10  C   UNL     1      -9.555   0.304  10.691  1.00  0.00     0.008 C 
BRANCH   9  11
ATOM     11  C   UNL     1      -8.679  -1.313   8.890  1.00  0.00    -0.002 C 
ATOM     12  C   UNL     1     -10.125  -1.808   8.918  1.00  0.00     0.005 C 
ATOM     13  C   UNL     1      -7.855  -2.553   9.390  1.00  0.00    -0.026 C 
ATOM     14  C   UNL     1     -10.052  -3.244   8.446  1.00  0.00     0.005 C 
ATOM     15  C   UNL     1      -8.710  -3.794   8.953  1.00  0.00    -0.001 C 
ATOM     16  C   UNL     1      -6.441  -2.576   8.746  1.00  0.00     0.007 C 
ATOM     17  C   UNL     1      -7.722  -2.584  10.938  1.00  0.00     0.012 C 
ATOM     18  C   UNL     1      -8.018  -4.713   7.904  1.00  0.00     0.000 C 
ATOM     19  C   UNL     1      -5.754  -3.933   8.912  1.00  0.00     0.005 C 
ATOM     20  C   UNL     1      -6.594  -5.126   8.361  1.00  0.00     0.003 C 
ATOM     21  C   UNL     1      -8.849  -5.990   7.680  1.00  0.00     0.031 C 
ATOM     22  C   UNL     1      -5.856  -5.998   7.269  1.00  0.00    -0.008 C 
ATOM     23  C   UNL     1      -8.148  -6.982   6.799  1.00  0.00    -0.027 C 
ATOM     24  C   UNL     1      -6.805  -7.034   6.644  1.00  0.00    -0.065 C 
ATOM     25  C   UNL     1      -5.307  -5.138   6.081  1.00  0.00     0.014 C 
ATOM     26  C   UNL     1      -4.690  -6.740   7.977  1.00  0.00     0.016 C 
ATOM     27  C   UNL     1      -6.240  -7.930   5.565  1.00  0.00     0.063 C 
ATOM     28  C   UNL     1      -4.729  -5.977   4.917  1.00  0.00     0.033 C 
ATOM     29  C   UNL     1      -5.719  -7.049   4.415  1.00  0.00     0.118 C 
BRANCH  29  30
ATOM     30  O   UNL     1      -5.129  -7.834   3.411  1.00  0.00    -0.393 OA
ATOM     31  H   UNL     1      -5.063  -8.763   3.755  1.00  0.00     0.210 HD
ENDBRANCH  29  30
ENDBRANCH   9  11
ENDBRANCH   1   9
TORSDOF 7
ENDMDL
MODEL 6
REMARK VINA RESULT:    -6.490     11.092     15.383
REMARK INTER + INTRA:          -8.759
REMARK INTER:                  -8.013
REMARK INTRA:                  -0.746
REMARK UNBOUND:                 0.197
REMARK SMILES CC[C@H](CC[C@@H](C)[C@@H]1CC[C@H]2[C@@H]3CC=C4C[C@H](O)CC[C@@]4(C)[C@H]3CC[C@]21C)C(C)C
REMARK SMILES IDX 5 1 4 2 3 3 2 4 1 5 28 6 29 7 30 8 6 9 7 10 8 11 9 12 26 13
REMARK SMILES IDX 10 14 11 15 25 16 27 17 12 18 24 19 23 20 13 21 21 22 14 23
REMARK SMILES IDX 15 24 20 25 22 26 16 27 19 28 17 29 18 30
REMARK H PARENT 18 31
REMARK Flexibility Score: inf
ROOT
ATOM      1  C   UNL     1       1.677  -5.406  -5.230  1.00  0.00     0.004 C 
ENDROOT
BRANCH   1   2
ATOM      2  C   UNL     1       3.198  -5.130  -5.371  1.00  0.00     0.004 C 
BRANCH   2   3
ATOM      3  C   UNL     1       4.175  -6.334  -5.169  1.00  0.00    -0.009 C 
BRANCH   3   4
ATOM      4  C   UNL     1       4.638  -6.903  -6.548  1.00  0.00     0.000 C 
ATOM      5  C   UNL     1       4.186  -8.347  -6.784  1.00  0.00     0.004 C 
ENDBRANCH   3   4
BRANCH   3   6
ATOM      6  C   UNL     1       5.359  -6.037  -4.178  1.00  0.00    -0.014 C 
ATOM      7  C   UNL     1       6.334  -7.226  -4.071  1.00  0.00     0.007 C 
ATOM      8  C   UNL     1       6.184  -4.800  -4.579  1.00  0.00     0.007 C 
ENDBRANCH   3   6
ENDBRANCH   2   3
ENDBRANCH   1   2
BRANCH   1   9
ATOM      9  C   UNL     1       0.833  -5.267  -6.536  1.00  0.00    -0.011 C 
ATOM     10  C   UNL     1       1.730  -5.645  -7.737  1.00  0.00     0.008 C 
BRANCH   9  11
ATOM     11  C   UNL     1      -0.469  -6.156  -6.501  1.00  0.00    -0.002 C 
ATOM     12  C   UNL     1      -0.305  -7.520  -7.173  1.00  0.00     0.005 C 
ATOM     13  C   UNL     1      -1.776  -5.578  -7.154  1.00  0.00    -0.026 C 
ATOM     14  C   UNL     1      -1.712  -8.063  -7.296  1.00  0.00     0.005 C 
ATOM     15  C   UNL     1      -2.622  -6.846  -7.525  1.00  0.00    -0.001 C 
ATOM     16  C   UNL     1      -2.532  -4.655  -6.159  1.00  0.00     0.007 C 
ATOM     17  C   UNL     1      -1.482  -4.798  -8.466  1.00  0.00     0.012 C 
ATOM     18  C   UNL     1      -3.969  -6.967  -6.752  1.00  0.00     0.000 C 
ATOM     19  C   UNL     1      -3.967  -4.372  -6.610  1.00  0.00     0.005 C 
ATOM     20  C   UNL     1      -4.805  -5.664  -6.859  1.00  0.00     0.003 C 
ATOM     21  C   UNL     1      -4.807  -8.131  -7.314  1.00  0.00     0.031 C 
ATOM     22  C   UNL     1      -6.139  -5.750  -6.017  1.00  0.00    -0.008 C 
ATOM     23  C   UNL     1      -6.179  -8.191  -6.713  1.00  0.00    -0.027 C 
ATOM     24  C   UNL     1      -6.813  -7.124  -6.176  1.00  0.00    -0.065 C 
ATOM     25  C   UNL     1      -5.897  -5.559  -4.481  1.00  0.00     0.014 C 
ATOM     26  C   UNL     1      -7.098  -4.650  -6.550  1.00  0.00     0.016 C 
ATOM     27  C   UNL     1      -8.094  -7.360  -5.408  1.00  0.00     0.063 C 
ATOM     28  C   UNL     1      -7.154  -5.805  -3.615  1.00  0.00     0.033 C 
ATOM     29  C   UNL     1      -7.813  -7.169  -3.907  1.00  0.00     0.118 C 
BRANCH  29  30
ATOM     30  O   UNL     1      -8.989  -7.321  -3.153  1.00  0.00    -0.393 OA
ATOM     31  H   UNL     1      -9.730  -7.511  -3.787  1.00  0.00     0.210 HD
ENDBRANCH  29  30
ENDBRANCH   9  11
ENDBRANCH   1   9
TORSDOF 7
ENDMDL
MODEL 7
REMARK VINA RESULT:    -6.487      3.168      9.323
REMARK INTER + INTRA:          -8.755
REMARK INTER:                  -8.550
REMARK INTRA:                  -0.205
REMARK UNBOUND:                 0.197
REMARK SMILES CC[C@H](CC[C@@H](C)[C@@H]1CC[C@H]2[C@@H]3CC=C4C[C@H](O)CC[C@@]4(C)[C@H]3CC[C@]21C)C(C)C
REMARK SMILES IDX 5 1 4 2 3 3 2 4 1 5 28 6 29 7 30 8 6 9 7 10 8 11 9 12 26 13
REMARK SMILES IDX 10 14 11 15 25 16 27 17 12 18 24 19 23 20 13 21 21 22 14 23
REMARK SMILES IDX 15 24 20 25 22 26 16 27 19 28 17 29 18 30
REMARK H PARENT 18 31
REMARK Flexibility Score: inf
ROOT
ATOM      1  C   UNL     1      -4.454  -7.791   6.942  1.00  0.00     0.004 C 
ENDROOT
BRANCH   1   2
ATOM      2  C   UNL     1      -3.359  -8.856   6.664  1.00  0.00     0.004 C 
BRANCH   2   3
ATOM      3  C   UNL     1      -3.470  -9.683   5.342  1.00  0.00    -0.009 C 
BRANCH   3   4
ATOM      4  C   UNL     1      -4.964  -9.999   5.016  1.00  0.00     0.000 C 
ATOM      5  C   UNL     1      -5.426  -9.404   3.681  1.00  0.00     0.004 C 
ENDBRANCH   3   4
BRANCH   3   6
ATOM      6  C   UNL     1      -2.676  -9.066   4.134  1.00  0.00    -0.014 C 
ATOM      7  C   UNL     1      -1.427  -8.290   4.599  1.00  0.00     0.007 C 
ATOM      8  C   UNL     1      -2.209 -10.123   3.116  1.00  0.00     0.007 C 
ENDBRANCH   3   6
ENDBRANCH   2   3
ENDBRANCH   1   2
BRANCH   1   9
ATOM      9  C   UNL     1      -4.150  -6.348   6.431  1.00  0.00    -0.011 C 
ATOM     10  C   UNL     1      -4.656  -6.231   4.975  1.00  0.00     0.008 C 
BRANCH   9  11
ATOM     11  C   UNL     1      -4.801  -5.242   7.347  1.00  0.00    -0.002 C 
ATOM     12  C   UNL     1      -4.668  -5.522   8.844  1.00  0.00     0.005 C 
ATOM     13  C   UNL     1      -6.331  -4.936   7.164  1.00  0.00    -0.026 C 
ATOM     14  C   UNL     1      -5.599  -4.531   9.508  1.00  0.00     0.005 C 
ATOM     15  C   UNL     1      -6.780  -4.340   8.544  1.00  0.00    -0.001 C 
ATOM     16  C   UNL     1      -6.559  -3.930   6.002  1.00  0.00     0.007 C 
ATOM     17  C   UNL     1      -7.160  -6.225   6.906  1.00  0.00     0.012 C 
ATOM     18  C   UNL     1      -7.250  -2.857   8.478  1.00  0.00     0.000 C 
ATOM     19  C   UNL     1      -7.968  -3.331   6.026  1.00  0.00     0.005 C 
ATOM     20  C   UNL     1      -8.329  -2.650   7.382  1.00  0.00     0.003 C 
ATOM     21  C   UNL     1      -7.842  -2.423   9.833  1.00  0.00     0.031 C 
ATOM     22  C   UNL     1      -8.759  -1.134   7.259  1.00  0.00    -0.008 C 
ATOM     23  C   UNL     1      -8.455  -1.056   9.778  1.00  0.00    -0.027 C 
ATOM     24  C   UNL     1      -8.920  -0.484   8.643  1.00  0.00    -0.065 C 
ATOM     25  C   UNL     1      -7.704  -0.268   6.491  1.00  0.00     0.014 C 
ATOM     26  C   UNL     1     -10.124  -1.097   6.519  1.00  0.00     0.016 C 
ATOM     27  C   UNL     1      -9.310   0.976   8.681  1.00  0.00     0.063 C 
ATOM     28  C   UNL     1      -8.013   1.246   6.500  1.00  0.00     0.033 C 
ATOM     29  C   UNL     1      -8.247   1.792   7.924  1.00  0.00     0.118 C 
BRANCH  29  30
ATOM     30  O   UNL     1      -8.596   3.152   7.880  1.00  0.00    -0.393 OA
ATOM     31  H   UNL     1      -8.509   3.455   6.939  1.00  0.00     0.210 HD
ENDBRANCH  29  30
ENDBRANCH   9  11
ENDBRANCH   1   9
TORSDOF 7
ENDMDL
MODEL 8
REMARK VINA RESULT:    -6.323     12.258     17.030
REMARK INTER + INTRA:          -8.529
REMARK INTER:                  -6.635
REMARK INTRA:                  -1.894
REMARK UNBOUND:                 0.197
REMARK SMILES CC[C@H](CC[C@@H](C)[C@@H]1CC[C@H]2[C@@H]3CC=C4C[C@H](O)CC[C@@]4(C)[C@H]3CC[C@]21C)C(C)C
REMARK SMILES IDX 5 1 4 2 3 3 2 4 1 5 28 6 29 7 30 8 6 9 7 10 8 11 9 12 26 13
REMARK SMILES IDX 10 14 11 15 25 16 27 17 12 18 24 19 23 20 13 21 21 22 14 23
REMARK SMILES IDX 15 24 20 25 22 26 16 27 19 28 17 29 18 30
REMARK H PARENT 18 31
REMARK Flexibility Score: inf
ROOT
ATOM      1  C   UNL     1       5.942  -8.089  -5.081  1.00  0.00     0.004 C 
ENDROOT
BRANCH   1   2
ATOM      2  C   UNL     1       6.046  -6.795  -4.231  1.00  0.00     0.004 C 
BRANCH   2   3
ATOM      3  C   UNL     1       7.382  -5.986  -4.303  1.00  0.00    -0.009 C 
BRANCH   3   4
ATOM      4  C   UNL     1       8.597  -6.946  -4.506  1.00  0.00     0.000 C 
ATOM      5  C   UNL     1       9.776  -6.629  -3.581  1.00  0.00     0.004 C 
ENDBRANCH   3   4
BRANCH   3   6
ATOM      6  C   UNL     1       7.348  -4.787  -5.320  1.00  0.00    -0.014 C 
ATOM      7  C   UNL     1       8.071  -5.127  -6.639  1.00  0.00     0.007 C 
ATOM      8  C   UNL     1       5.919  -4.342  -5.679  1.00  0.00     0.007 C 
ENDBRANCH   3   6
ENDBRANCH   2   3
ENDBRANCH   1   2
BRANCH   1   9
ATOM      9  C   UNL     1       5.615  -7.888  -6.594  1.00  0.00    -0.011 C 
ATOM     10  C   UNL     1       6.548  -8.805  -7.419  1.00  0.00     0.008 C 
BRANCH   9  11
ATOM     11  C   UNL     1       4.100  -8.182  -6.921  1.00  0.00    -0.002 C 
ATOM     12  C   UNL     1       3.896  -9.250  -7.997  1.00  0.00     0.005 C 
ATOM     13  C   UNL     1       3.205  -6.988  -7.412  1.00  0.00    -0.026 C 
ATOM     14  C   UNL     1       2.431  -9.155  -8.364  1.00  0.00     0.005 C 
ATOM     15  C   UNL     1       2.050  -7.673  -8.224  1.00  0.00    -0.001 C 
ATOM     16  C   UNL     1       2.656  -6.175  -6.208  1.00  0.00     0.007 C 
ATOM     17  C   UNL     1       3.970  -6.039  -8.376  1.00  0.00     0.012 C 
ATOM     18  C   UNL     1       0.633  -7.487  -7.604  1.00  0.00     0.000 C 
ATOM     19  C   UNL     1       1.506  -5.250  -6.612  1.00  0.00     0.005 C 
ATOM     20  C   UNL     1       0.330  -5.993  -7.317  1.00  0.00     0.003 C 
ATOM     21  C   UNL     1      -0.445  -8.030  -8.561  1.00  0.00     0.031 C 
ATOM     22  C   UNL     1      -1.076  -5.802  -6.619  1.00  0.00    -0.008 C 
ATOM     23  C   UNL     1      -1.835  -7.731  -8.084  1.00  0.00    -0.027 C 
ATOM     24  C   UNL     1      -2.144  -6.706  -7.257  1.00  0.00    -0.065 C 
ATOM     25  C   UNL     1      -1.048  -6.168  -5.097  1.00  0.00     0.014 C 
ATOM     26  C   UNL     1      -1.490  -4.317  -6.807  1.00  0.00     0.016 C 
ATOM     27  C   UNL     1      -3.539  -6.645  -6.676  1.00  0.00     0.063 C 
ATOM     28  C   UNL     1      -2.441  -6.154  -4.426  1.00  0.00     0.033 C 
ATOM     29  C   UNL     1      -3.470  -7.017  -5.184  1.00  0.00     0.118 C 
BRANCH  29  30
ATOM     30  O   UNL     1      -4.736  -6.918  -4.584  1.00  0.00    -0.393 OA
ATOM     31  H   UNL     1      -5.068  -7.841  -4.428  1.00  0.00     0.210 HD
ENDBRANCH  29  30
ENDBRANCH   9  11
ENDBRANCH   1   9
TORSDOF 7
ENDMDL
MODEL 9
REMARK VINA RESULT:    -6.215     11.388     15.634
REMARK INTER + INTRA:          -8.380
REMARK INTER:                  -6.661
REMARK INTRA:                  -1.719
REMARK UNBOUND:                 0.197
REMARK SMILES CC[C@H](CC[C@@H](C)[C@@H]1CC[C@H]2[C@@H]3CC=C4C[C@H](O)CC[C@@]4(C)[C@H]3CC[C@]21C)C(C)C
REMARK SMILES IDX 5 1 4 2 3 3 2 4 1 5 28 6 29 7 30 8 6 9 7 10 8 11 9 12 26 13
REMARK SMILES IDX 10 14 11 15 25 16 27 17 12 18 24 19 23 20 13 21 21 22 14 23
REMARK SMILES IDX 15 24 20 25 22 26 16 27 19 28 17 29 18 30
REMARK H PARENT 18 31
REMARK Flexibility Score: inf
ROOT
ATOM      1  C   UNL     1       1.007  -7.455  -8.752  1.00  0.00     0.004 C 
ENDROOT
BRANCH   1   2
ATOM      2  C   UNL     1       0.882  -6.101  -8.005  1.00  0.00     0.004 C 
BRANCH   2   3
ATOM      3  C   UNL     1       2.134  -5.587  -7.222  1.00  0.00    -0.009 C 
BRANCH   3   4
ATOM      4  C   UNL     1       1.744  -5.188  -5.763  1.00  0.00     0.000 C 
ATOM      5  C   UNL     1       0.231  -5.200  -5.521  1.00  0.00     0.004 C 
ENDBRANCH   3   4
BRANCH   3   6
ATOM      6  C   UNL     1       3.377  -6.546  -7.303  1.00  0.00    -0.014 C 
ATOM      7  C   UNL     1       4.405  -6.072  -8.350  1.00  0.00     0.007 C 
ATOM      8  C   UNL     1       4.117  -6.688  -5.961  1.00  0.00     0.007 C 
ENDBRANCH   3   6
ENDBRANCH   2   3
ENDBRANCH   1   2
BRANCH   1   9
ATOM      9  C   UNL     1      -0.189  -8.443  -8.582  1.00  0.00    -0.011 C 
ATOM     10  C   UNL     1       0.380  -9.852  -8.296  1.00  0.00     0.008 C 
BRANCH   9  11
ATOM     11  C   UNL     1      -1.179  -7.991  -7.440  1.00  0.00    -0.002 C 
ATOM     12  C   UNL     1      -1.125  -8.872  -6.191  1.00  0.00     0.005 C 
ATOM     13  C   UNL     1      -2.712  -7.919  -7.775  1.00  0.00    -0.026 C 
ATOM     14  C   UNL     1      -2.332  -8.461  -5.375  1.00  0.00     0.005 C 
ATOM     15  C   UNL     1      -3.424  -8.083  -6.387  1.00  0.00    -0.001 C 
ATOM     16  C   UNL     1      -3.069  -6.565  -8.448  1.00  0.00     0.007 C 
ATOM     17  C   UNL     1      -3.168  -9.091  -8.689  1.00  0.00     0.012 C 
ATOM     18  C   UNL     1      -4.239  -6.835  -5.933  1.00  0.00     0.000 C 
ATOM     19  C   UNL     1      -4.577  -6.305  -8.454  1.00  0.00     0.005 C 
ATOM     20  C   UNL     1      -5.225  -6.368  -7.037  1.00  0.00     0.003 C 
ATOM     21  C   UNL     1      -5.046  -7.157  -4.661  1.00  0.00     0.031 C 
ATOM     22  C   UNL     1      -6.002  -5.058  -6.614  1.00  0.00    -0.008 C 
ATOM     23  C   UNL     1      -5.970  -6.041  -4.273  1.00  0.00    -0.027 C 
ATOM     24  C   UNL     1      -6.451  -5.124  -5.144  1.00  0.00    -0.065 C 
ATOM     25  C   UNL     1      -5.125  -3.767  -6.744  1.00  0.00     0.014 C 
ATOM     26  C   UNL     1      -7.256  -4.948  -7.523  1.00  0.00     0.016 C 
ATOM     27  C   UNL     1      -7.192  -3.927  -4.592  1.00  0.00     0.063 C 
ATOM     28  C   UNL     1      -5.799  -2.495  -6.180  1.00  0.00     0.033 C 
ATOM     29  C   UNL     1      -6.296  -2.683  -4.732  1.00  0.00     0.118 C 
BRANCH  29  30
ATOM     30  O   UNL     1      -6.964  -1.531  -4.285  1.00  0.00    -0.393 OA
ATOM     31  H   UNL     1      -6.419  -0.745  -4.552  1.00  0.00     0.210 HD
ENDBRANCH  29  30
ENDBRANCH   9  11
ENDBRANCH   1   9
TORSDOF 7
ENDMDL
