MODEL 1
REMARK VINA RESULT:    -2.748      0.000      0.000
REMARK INTER + INTRA:          -3.076
REMARK INTER:                  -3.070
REMARK INTRA:                  -0.006
REMARK UNBOUND:                -0.006
REMARK SMILES CCCC(=O)[O-]
REMARK SMILES IDX 3 1 4 2 5 3 6 4 2 5 1 6
REMARK H PARENT
REMARK Flexibility Score: inf
ROOT
ATOM      1  C   UNL     1      17.168 -45.591  27.706  1.00  0.00     0.052 C 
ENDROOT
BRANCH   1   2
ATOM      2  C   UNL     1      17.096 -45.288  29.172  1.00  0.00     0.041 C 
ATOM      3  O   UNL     1      15.987 -45.300  29.768  1.00  0.00    -0.550 OA
ATOM      4  O   UNL     1      18.258 -45.024  29.885  1.00  0.00    -0.550 OA
ENDBRANCH   1   2
BRANCH   1   5
ATOM      5  C   UNL     1      17.131 -44.312  26.860  1.00  0.00     0.003 C 
ATOM      6  C   UNL     1      17.774 -44.505  25.486  1.00  0.00     0.004 C 
ENDBRANCH   1   5
TORSDOF 2
ENDMDL
MODEL 2
REMARK VINA RESULT:    -2.738      4.278      5.072
REMARK INTER + INTRA:          -3.065
REMARK INTER:                  -3.059
REMARK INTRA:                  -0.006
REMARK UNBOUND:                -0.006
REMARK SMILES CCCC(=O)[O-]
REMARK SMILES IDX 3 1 4 2 5 3 6 4 2 5 1 6
REMARK H PARENT
REMARK Flexibility Score: inf
ROOT
ATOM      1  C   UNL     1      18.868 -42.547  25.327  1.00  0.00     0.052 C 
ENDROOT
BRANCH   1   2
ATOM      2  C   UNL     1      18.481 -41.107  25.176  1.00  0.00     0.041 C 
ATOM      3  O   UNL     1      18.547 -40.325  26.160  1.00  0.00    -0.550 OA
ATOM      4  O   UNL     1      18.078 -40.622  23.938  1.00  0.00    -0.550 OA
ENDBRANCH   1   2
BRANCH   1   5
ATOM      5  C   UNL     1      17.802 -43.344  26.087  1.00  0.00     0.003 C 
ATOM      6  C   UNL     1      17.652 -44.770  25.556  1.00  0.00     0.004 C 
ENDBRANCH   1   5
TORSDOF 2
ENDMDL
MODEL 3
REMARK VINA RESULT:    -2.736      4.860      5.718
REMARK INTER + INTRA:          -3.061
REMARK INTER:                  -3.026
REMARK INTRA:                  -0.035
REMARK UNBOUND:                -0.006
REMARK SMILES CCCC(=O)[O-]
REMARK SMILES IDX 3 1 4 2 5 3 6 4 2 5 1 6
REMARK H PARENT
REMARK Flexibility Score: inf
ROOT
ATOM      1  C   UNL     1      18.301 -41.315  24.559  1.00  0.00     0.052 C 
ENDROOT
BRANCH   1   2
ATOM      2  C   UNL     1      18.489 -40.017  25.284  1.00  0.00     0.041 C 
ATOM      3  O   UNL     1      18.555 -39.996  26.541  1.00  0.00    -0.550 OA
ATOM      4  O   UNL     1      18.625 -38.834  24.568  1.00  0.00    -0.550 OA
ENDBRANCH   1   2
BRANCH   1   5
ATOM      5  C   UNL     1      18.966 -42.481  25.303  1.00  0.00     0.003 C 
ATOM      6  C   UNL     1      17.980 -43.605  25.621  1.00  0.00     0.004 C 
ENDBRANCH   1   5
TORSDOF 2
ENDMDL
MODEL 4
REMARK VINA RESULT:    -2.702      1.557      1.835
REMARK INTER + INTRA:          -3.024
REMARK INTER:                  -3.013
REMARK INTRA:                  -0.011
REMARK UNBOUND:                -0.006
REMARK SMILES CCCC(=O)[O-]
REMARK SMILES IDX 3 1 4 2 5 3 6 4 2 5 1 6
REMARK H PARENT
REMARK Flexibility Score: inf
ROOT
ATOM      1  C   UNL     1      17.508 -44.754  26.182  1.00  0.00     0.052 C 
ENDROOT
BRANCH   1   2
ATOM      2  C   UNL     1      16.894 -44.920  27.539  1.00  0.00     0.041 C 
ATOM      3  O   UNL     1      15.773 -44.408  27.795  1.00  0.00    -0.550 OA
ATOM      4  O   UNL     1      17.546 -45.669  28.510  1.00  0.00    -0.550 OA
ENDBRANCH   1   2
BRANCH   1   5
ATOM      5  C   UNL     1      17.437 -43.300  25.701  1.00  0.00     0.003 C 
ATOM      6  C   UNL     1      18.811 -42.743  25.327  1.00  0.00     0.004 C 
ENDBRANCH   1   5
TORSDOF 2
ENDMDL
MODEL 5
REMARK VINA RESULT:    -2.690      3.471      4.186
REMARK INTER + INTRA:          -3.010
REMARK INTER:                  -2.980
REMARK INTRA:                  -0.030
REMARK UNBOUND:                -0.006
REMARK SMILES CCCC(=O)[O-]
REMARK SMILES IDX 3 1 4 2 5 3 6 4 2 5 1 6
REMARK H PARENT
REMARK Flexibility Score: inf
ROOT
ATOM      1  C   UNL     1      18.922 -42.617  25.348  1.00  0.00     0.052 C 
ENDROOT
BRANCH   1   2
ATOM      2  C   UNL     1      17.849 -43.595  25.719  1.00  0.00     0.041 C 
ATOM      3  O   UNL     1      17.923 -44.793  25.339  1.00  0.00    -0.550 OA
ATOM      4  O   UNL     1      16.784 -43.189  26.513  1.00  0.00    -0.550 OA
ENDBRANCH   1   2
BRANCH   1   5
ATOM      5  C   UNL     1      18.462 -41.168  25.543  1.00  0.00     0.003 C 
ATOM      6  C   UNL     1      18.256 -40.439  24.215  1.00  0.00     0.004 C 
ENDBRANCH   1   5
TORSDOF 2
ENDMDL
MODEL 6
REMARK VINA RESULT:    -2.677     10.943     11.678
REMARK INTER + INTRA:          -2.996
REMARK INTER:                  -2.989
REMARK INTRA:                  -0.008
REMARK UNBOUND:                -0.006
REMARK SMILES CCCC(=O)[O-]
REMARK SMILES IDX 3 1 4 2 5 3 6 4 2 5 1 6
REMARK H PARENT
REMARK Flexibility Score: inf
ROOT
ATOM      1  C   UNL     1      16.570 -55.785  28.882  1.00  0.00     0.052 C 
ENDROOT
BRANCH   1   2
ATOM      2  C   UNL     1      15.179 -55.979  28.360  1.00  0.00     0.041 C 
ATOM      3  O   UNL     1      14.232 -55.277  28.803  1.00  0.00    -0.550 OA
ATOM      4  O   UNL     1      14.935 -56.912  27.361  1.00  0.00    -0.550 OA
ENDBRANCH   1   2
BRANCH   1   5
ATOM      5  C   UNL     1      16.888 -56.756  30.025  1.00  0.00     0.003 C 
ATOM      6  C   UNL     1      17.853 -56.155  31.048  1.00  0.00     0.004 C 
ENDBRANCH   1   5
TORSDOF 2
ENDMDL
MODEL 7
REMARK VINA RESULT:    -2.639      3.052      3.982
REMARK INTER + INTRA:          -2.954
REMARK INTER:                  -2.916
REMARK INTRA:                  -0.037
REMARK UNBOUND:                -0.006
REMARK SMILES CCCC(=O)[O-]
REMARK SMILES IDX 3 1 4 2 5 3 6 4 2 5 1 6
REMARK H PARENT
REMARK Flexibility Score: inf
ROOT
ATOM      1  C   UNL     1      17.734 -44.216  25.625  1.00  0.00     0.052 C 
ENDROOT
BRANCH   1   2
ATOM      2  C   UNL     1      18.526 -42.944  25.638  1.00  0.00     0.041 C 
ATOM      3  O   UNL     1      19.131 -42.563  24.602  1.00  0.00    -0.550 OA
ATOM      4  O   UNL     1      18.567 -42.162  26.786  1.00  0.00    -0.550 OA
ENDBRANCH   1   2
BRANCH   1   5
ATOM      5  C   UNL     1      16.812 -44.323  26.846  1.00  0.00     0.003 C 
ATOM      6  C   UNL     1      17.222 -45.454  27.788  1.00  0.00     0.004 C 
ENDBRANCH   1   5
TORSDOF 2
ENDMDL
MODEL 8
REMARK VINA RESULT:    -2.540      9.605     10.210
REMARK INTER + INTRA:          -2.843
REMARK INTER:                  -2.825
REMARK INTRA:                  -0.018
REMARK UNBOUND:                -0.006
REMARK SMILES CCCC(=O)[O-]
REMARK SMILES IDX 3 1 4 2 5 3 6 4 2 5 1 6
REMARK H PARENT
REMARK Flexibility Score: inf
ROOT
ATOM      1  C   UNL     1      26.403 -39.540  26.889  1.00  0.00     0.052 C 
ENDROOT
BRANCH   1   2
ATOM      2  C   UNL     1      25.424 -38.806  27.754  1.00  0.00     0.041 C 
ATOM      3  O   UNL     1      24.665 -39.441  28.533  1.00  0.00    -0.550 OA
ATOM      4  O   UNL     1      25.373 -37.418  27.725  1.00  0.00    -0.550 OA
ENDBRANCH   1   2
BRANCH   1   5
ATOM      5  C   UNL     1      25.949 -40.978  26.613  1.00  0.00     0.003 C 
ATOM      6  C   UNL     1      25.892 -41.293  25.117  1.00  0.00     0.004 C 
ENDBRANCH   1   5
TORSDOF 2
ENDMDL
MODEL 9
REMARK VINA RESULT:    -2.524      2.443      4.385
REMARK INTER + INTRA:          -2.825
REMARK INTER:                  -2.803
REMARK INTRA:                  -0.022
REMARK UNBOUND:                -0.006
REMARK SMILES CCCC(=O)[O-]
REMARK SMILES IDX 3 1 4 2 5 3 6 4 2 5 1 6
REMARK H PARENT
REMARK Flexibility Score: inf
ROOT
ATOM      1  C   UNL     1      15.998 -44.417  30.745  1.00  0.00     0.052 C 
ENDROOT
BRANCH   1   2
ATOM      2  C   UNL     1      16.337 -45.243  29.541  1.00  0.00     0.041 C 
ATOM      3  O   UNL     1      17.500 -45.704  29.396  1.00  0.00    -0.550 OA
ATOM      4  O   UNL     1      15.359 -45.532  28.598  1.00  0.00    -0.550 OA
ENDBRANCH   1   2
BRANCH   1   5
ATOM      5  C   UNL     1      14.897 -45.070  31.589  1.00  0.00     0.003 C 
ATOM      6  C   UNL     1      15.431 -45.634  32.906  1.00  0.00     0.004 C 
ENDBRANCH   1   5
TORSDOF 2
ENDMDL
