MODEL 1
REMARK VINA RESULT:    -3.603      0.000      0.000
REMARK INTER + INTRA:          -8.068
REMARK INTER:                  -6.553
REMARK INTRA:                  -1.516
REMARK UNBOUND:                -1.516
REMARK SMILES CCCCCC=CCC=CCCCCCCCC(=O)[O-]
REMARK SMILES IDX 11 1 12 2 13 3 14 4 15 5 16 6 17 7 18 8 19 9 20 10 10 11
REMARK SMILES IDX 9 12 8 13 7 14 6 15 5 16 4 17 3 18 2 19 1 20
REMARK H PARENT
REMARK Flexibility Score: inf
ROOT
ATOM      1  C   UNL     1     -18.102 -22.377   3.897  1.00  0.00     0.027 C 
ENDROOT
BRANCH   1   2
ATOM      2  C   UNL     1     -17.011 -21.329   3.619  1.00  0.00     0.004 C 
BRANCH   2   3
ATOM      3  C   UNL     1     -16.127 -21.662   2.401  1.00  0.00     0.000 C 
BRANCH   3   4
ATOM      4  C   UNL     1     -15.378 -20.432   1.860  1.00  0.00     0.000 C 
BRANCH   4   5
ATOM      5  C   UNL     1     -14.144 -20.805   1.018  1.00  0.00     0.000 C 
BRANCH   5   6
ATOM      6  C   UNL     1     -13.876 -22.316   0.894  1.00  0.00     0.006 C 
BRANCH   6   7
ATOM      7  C   UNL     1     -13.962 -22.822  -0.551  1.00  0.00     0.053 C 
BRANCH   7   8
ATOM      8  C   UNL     1     -15.306 -23.425  -0.816  1.00  0.00     0.041 C 
ATOM      9  O   UNL     1     -15.914 -23.171  -1.890  1.00  0.00    -0.550 OA
ATOM     10  O   UNL     1     -15.907 -24.232   0.144  1.00  0.00    -0.550 OA
ENDBRANCH   7   8
ENDBRANCH   6   7
ENDBRANCH   5   6
ENDBRANCH   4   5
ENDBRANCH   3   4
ENDBRANCH   2   3
ENDBRANCH   1   2
BRANCH   1  11
ATOM     11  C   UNL     1     -17.688 -23.761   3.460  1.00  0.00    -0.031 C 
ATOM     12  C   UNL     1     -17.337 -24.775   4.277  1.00  0.00    -0.027 C 
BRANCH  12  13
ATOM     13  C   UNL     1     -17.264 -24.708   5.781  1.00  0.00     0.054 C 
BRANCH  13  14
ATOM     14  C   UNL     1     -16.006 -24.014   6.218  1.00  0.00    -0.027 C 
ATOM     15  C   UNL     1     -15.824 -23.609   7.485  1.00  0.00    -0.031 C 
BRANCH  15  16
ATOM     16  C   UNL     1     -14.555 -22.929   7.919  1.00  0.00     0.027 C 
BRANCH  16  17
ATOM     17  C   UNL     1     -14.857 -21.650   8.715  1.00  0.00     0.004 C 
BRANCH  17  18
ATOM     18  C   UNL     1     -14.840 -20.390   7.836  1.00  0.00     0.000 C 
BRANCH  18  19
ATOM     19  C   UNL     1     -16.249 -19.936   7.425  1.00  0.00    -0.003 C 
ATOM     20  C   UNL     1     -16.185 -18.810   6.396  1.00  0.00     0.004 C 
ENDBRANCH  18  19
ENDBRANCH  17  18
ENDBRANCH  16  17
ENDBRANCH  15  16
ENDBRANCH  13  14
ENDBRANCH  12  13
ENDBRANCH   1  11
TORSDOF 14
ENDMDL
MODEL 2
REMARK VINA RESULT:    -3.508      2.474      6.490
REMARK INTER + INTRA:          -7.895
REMARK INTER:                  -6.088
REMARK INTRA:                  -1.807
REMARK UNBOUND:                -1.516
REMARK SMILES CCCCCC=CCC=CCCCCCCCC(=O)[O-]
REMARK SMILES IDX 11 1 12 2 13 3 14 4 15 5 16 6 17 7 18 8 19 9 20 10 10 11
REMARK SMILES IDX 9 12 8 13 7 14 6 15 5 16 4 17 3 18 2 19 1 20
REMARK H PARENT
REMARK Flexibility Score: inf
ROOT
ATOM      1  C   UNL     1     -16.502 -20.840   6.143  1.00  0.00     0.027 C 
ENDROOT
BRANCH   1   2
ATOM      2  C   UNL     1     -16.130 -19.610   6.988  1.00  0.00     0.004 C 
BRANCH   2   3
ATOM      3  C   UNL     1     -15.302 -19.946   8.243  1.00  0.00     0.000 C 
BRANCH   3   4
ATOM      4  C   UNL     1     -14.337 -21.122   8.017  1.00  0.00     0.000 C 
BRANCH   4   5
ATOM      5  C   UNL     1     -14.450 -22.207   9.104  1.00  0.00     0.000 C 
BRANCH   5   6
ATOM      6  C   UNL     1     -14.773 -23.618   8.581  1.00  0.00     0.006 C 
BRANCH   6   7
ATOM      7  C   UNL     1     -16.279 -23.870   8.431  1.00  0.00     0.053 C 
BRANCH   7   8
ATOM      8  C   UNL     1     -16.583 -24.445   7.082  1.00  0.00     0.041 C 
ATOM      9  O   UNL     1     -15.703 -24.443   6.180  1.00  0.00    -0.550 OA
ATOM     10  O   UNL     1     -17.852 -24.942   6.808  1.00  0.00    -0.550 OA
ENDBRANCH   7   8
ENDBRANCH   6   7
ENDBRANCH   5   6
ENDBRANCH   4   5
ENDBRANCH   3   4
ENDBRANCH   2   3
ENDBRANCH   1   2
BRANCH   1  11
ATOM     11  C   UNL     1     -16.655 -20.502   4.680  1.00  0.00    -0.031 C 
ATOM     12  C   UNL     1     -17.298 -21.249   3.760  1.00  0.00    -0.027 C 
BRANCH  12  13
ATOM     13  C   UNL     1     -17.962 -22.579   4.013  1.00  0.00     0.054 C 
BRANCH  13  14
ATOM     14  C   UNL     1     -17.317 -23.656   3.189  1.00  0.00    -0.027 C 
ATOM     15  C   UNL     1     -16.491 -23.370   2.171  1.00  0.00    -0.031 C 
BRANCH  15  16
ATOM     16  C   UNL     1     -15.836 -24.454   1.360  1.00  0.00     0.027 C 
BRANCH  16  17
ATOM     17  C   UNL     1     -14.597 -23.922   0.624  1.00  0.00     0.004 C 
BRANCH  17  18
ATOM     18  C   UNL     1     -14.832 -22.538  -0.001  1.00  0.00     0.000 C 
BRANCH  18  19
ATOM     19  C   UNL     1     -13.875 -21.468   0.550  1.00  0.00    -0.003 C 
ATOM     20  C   UNL     1     -14.640 -20.389   1.310  1.00  0.00     0.004 C 
ENDBRANCH  18  19
ENDBRANCH  17  18
ENDBRANCH  16  17
ENDBRANCH  15  16
ENDBRANCH  13  14
ENDBRANCH  12  13
ENDBRANCH   1  11
TORSDOF 14
ENDMDL
MODEL 3
REMARK VINA RESULT:    -3.448      3.428      8.176
REMARK INTER + INTRA:          -7.786
REMARK INTER:                  -6.565
REMARK INTRA:                  -1.222
REMARK UNBOUND:                -1.516
REMARK SMILES CCCCCC=CCC=CCCCCCCCC(=O)[O-]
REMARK SMILES IDX 11 1 12 2 13 3 14 4 15 5 16 6 17 7 18 8 19 9 20 10 10 11
REMARK SMILES IDX 9 12 8 13 7 14 6 15 5 16 4 17 3 18 2 19 1 20
REMARK H PARENT
REMARK Flexibility Score: inf
ROOT
ATOM      1  C   UNL     1     -16.544 -20.875   3.825  1.00  0.00     0.027 C 
ENDROOT
BRANCH   1   2
ATOM      2  C   UNL     1     -17.386 -22.037   3.273  1.00  0.00     0.004 C 
BRANCH   2   3
ATOM      3  C   UNL     1     -17.778 -23.081   4.337  1.00  0.00     0.000 C 
BRANCH   3   4
ATOM      4  C   UNL     1     -16.716 -23.228   5.440  1.00  0.00     0.000 C 
BRANCH   4   5
ATOM      5  C   UNL     1     -17.312 -23.155   6.858  1.00  0.00     0.000 C 
BRANCH   5   6
ATOM      6  C   UNL     1     -17.103 -21.813   7.581  1.00  0.00     0.006 C 
BRANCH   6   7
ATOM      7  C   UNL     1     -15.659 -21.304   7.493  1.00  0.00     0.053 C 
BRANCH   7   8
ATOM      8  C   UNL     1     -15.624 -19.809   7.579  1.00  0.00     0.041 C 
ATOM      9  O   UNL     1     -16.290 -19.112   6.768  1.00  0.00    -0.550 OA
ATOM     10  O   UNL     1     -14.819 -19.186   8.526  1.00  0.00    -0.550 OA
ENDBRANCH   7   8
ENDBRANCH   6   7
ENDBRANCH   5   6
ENDBRANCH   4   5
ENDBRANCH   3   4
ENDBRANCH   2   3
ENDBRANCH   1   2
BRANCH   1  11
ATOM     11  C   UNL     1     -16.176 -19.878   2.754  1.00  0.00    -0.031 C 
ATOM     12  C   UNL     1     -15.338 -20.101   1.722  1.00  0.00    -0.027 C 
BRANCH  12  13
ATOM     13  C   UNL     1     -14.586 -21.381   1.459  1.00  0.00     0.054 C 
BRANCH  13  14
ATOM     14  C   UNL     1     -15.159 -22.095   0.269  1.00  0.00    -0.027 C 
ATOM     15  C   UNL     1     -15.393 -23.417   0.281  1.00  0.00    -0.031 C 
BRANCH  15  16
ATOM     16  C   UNL     1     -15.983 -24.123  -0.908  1.00  0.00     0.027 C 
BRANCH  16  17
ATOM     17  C   UNL     1     -14.881 -24.711  -1.804  1.00  0.00     0.004 C 
BRANCH  17  18
ATOM     18  C   UNL     1     -14.711 -23.932  -3.118  1.00  0.00     0.000 C 
BRANCH  18  19
ATOM     19  C   UNL     1     -14.514 -24.853  -4.332  1.00  0.00    -0.003 C 
ATOM     20  C   UNL     1     -14.205 -24.045  -5.589  1.00  0.00     0.004 C 
ENDBRANCH  18  19
ENDBRANCH  17  18
ENDBRANCH  16  17
ENDBRANCH  15  16
ENDBRANCH  13  14
ENDBRANCH  12  13
ENDBRANCH   1  11
TORSDOF 14
ENDMDL
MODEL 4
REMARK VINA RESULT:    -3.395      1.688      2.629
REMARK INTER + INTRA:          -7.690
REMARK INTER:                  -6.354
REMARK INTRA:                  -1.336
REMARK UNBOUND:                -1.516
REMARK SMILES CCCCCC=CCC=CCCCCCCCC(=O)[O-]
REMARK SMILES IDX 11 1 12 2 13 3 14 4 15 5 16 6 17 7 18 8 19 9 20 10 10 11
REMARK SMILES IDX 9 12 8 13 7 14 6 15 5 16 4 17 3 18 2 19 1 20
REMARK H PARENT
REMARK Flexibility Score: inf
ROOT
ATOM      1  C   UNL     1     -17.477 -25.125   2.453  1.00  0.00     0.027 C 
ENDROOT
BRANCH   1   2
ATOM      2  C   UNL     1     -17.714 -25.046   0.935  1.00  0.00     0.004 C 
BRANCH   2   3
ATOM      3  C   UNL     1     -16.415 -25.028   0.105  1.00  0.00     0.000 C 
BRANCH   3   4
ATOM      4  C   UNL     1     -16.444 -23.975  -1.016  1.00  0.00     0.000 C 
BRANCH   4   5
ATOM      5  C   UNL     1     -15.073 -23.318  -1.255  1.00  0.00     0.000 C 
BRANCH   5   6
ATOM      6  C   UNL     1     -14.203 -23.153   0.004  1.00  0.00     0.006 C 
BRANCH   6   7
ATOM      7  C   UNL     1     -13.909 -21.685   0.340  1.00  0.00     0.053 C 
BRANCH   7   8
ATOM      8  C   UNL     1     -14.933 -21.150   1.292  1.00  0.00     0.041 C 
ATOM      9  O   UNL     1     -14.958 -19.921   1.570  1.00  0.00    -0.550 OA
ATOM     10  O   UNL     1     -15.832 -22.015   1.905  1.00  0.00    -0.550 OA
ENDBRANCH   7   8
ENDBRANCH   6   7
ENDBRANCH   5   6
ENDBRANCH   4   5
ENDBRANCH   3   4
ENDBRANCH   2   3
ENDBRANCH   1   2
BRANCH   1  11
ATOM     11  C   UNL     1     -18.227 -24.050   3.203  1.00  0.00    -0.031 C 
ATOM     12  C   UNL     1     -17.865 -23.515   4.386  1.00  0.00    -0.027 C 
BRANCH  12  13
ATOM     13  C   UNL     1     -16.658 -23.910   5.199  1.00  0.00     0.054 C 
BRANCH  13  14
ATOM     14  C   UNL     1     -16.677 -23.228   6.537  1.00  0.00    -0.027 C 
ATOM     15  C   UNL     1     -15.702 -23.413   7.440  1.00  0.00    -0.031 C 
BRANCH  15  16
ATOM     16  C   UNL     1     -15.718 -22.715   8.771  1.00  0.00     0.027 C 
BRANCH  16  17
ATOM     17  C   UNL     1     -14.404 -21.956   9.014  1.00  0.00     0.004 C 
BRANCH  17  18
ATOM     18  C   UNL     1     -14.197 -20.803   8.020  1.00  0.00     0.000 C 
BRANCH  18  19
ATOM     19  C   UNL     1     -15.215 -19.667   8.209  1.00  0.00    -0.003 C 
ATOM     20  C   UNL     1     -16.178 -19.592   7.027  1.00  0.00     0.004 C 
ENDBRANCH  18  19
ENDBRANCH  17  18
ENDBRANCH  16  17
ENDBRANCH  15  16
ENDBRANCH  13  14
ENDBRANCH  12  13
ENDBRANCH   1  11
TORSDOF 14
ENDMDL
MODEL 5
REMARK VINA RESULT:    -3.377      1.908      6.707
REMARK INTER + INTRA:          -7.657
REMARK INTER:                  -6.026
REMARK INTRA:                  -1.630
REMARK UNBOUND:                -1.516
REMARK SMILES CCCCCC=CCC=CCCCCCCCC(=O)[O-]
REMARK SMILES IDX 11 1 12 2 13 3 14 4 15 5 16 6 17 7 18 8 19 9 20 10 10 11
REMARK SMILES IDX 9 12 8 13 7 14 6 15 5 16 4 17 3 18 2 19 1 20
REMARK H PARENT
REMARK Flexibility Score: inf
ROOT
ATOM      1  C   UNL     1     -16.472 -20.486   6.198  1.00  0.00     0.027 C 
ENDROOT
BRANCH   1   2
ATOM      2  C   UNL     1     -16.358 -21.149   7.581  1.00  0.00     0.004 C 
BRANCH   2   3
ATOM      3  C   UNL     1     -16.294 -22.688   7.528  1.00  0.00     0.000 C 
BRANCH   3   4
ATOM      4  C   UNL     1     -17.486 -23.354   8.237  1.00  0.00     0.000 C 
BRANCH   4   5
ATOM      5  C   UNL     1     -17.758 -24.783   7.733  1.00  0.00     0.000 C 
BRANCH   5   6
ATOM      6  C   UNL     1     -17.192 -25.099   6.337  1.00  0.00     0.006 C 
BRANCH   6   7
ATOM      7  C   UNL     1     -18.270 -25.125   5.246  1.00  0.00     0.053 C 
BRANCH   7   8
ATOM      8  C   UNL     1     -17.657 -24.904   3.898  1.00  0.00     0.041 C 
ATOM      9  O   UNL     1     -16.407 -24.796   3.781  1.00  0.00    -0.550 OA
ATOM     10  O   UNL     1     -18.470 -24.772   2.778  1.00  0.00    -0.550 OA
ENDBRANCH   7   8
ENDBRANCH   6   7
ENDBRANCH   5   6
ENDBRANCH   4   5
ENDBRANCH   3   4
ENDBRANCH   2   3
ENDBRANCH   1   2
BRANCH   1  11
ATOM     11  C   UNL     1     -16.897 -21.464   5.130  1.00  0.00    -0.031 C 
ATOM     12  C   UNL     1     -16.881 -21.238   3.801  1.00  0.00    -0.027 C 
BRANCH  12  13
ATOM     13  C   UNL     1     -16.464 -19.954   3.131  1.00  0.00     0.054 C 
BRANCH  13  14
ATOM     14  C   UNL     1     -15.516 -20.232   2.000  1.00  0.00    -0.027 C 
ATOM     15  C   UNL     1     -15.316 -21.474   1.533  1.00  0.00    -0.031 C 
BRANCH  15  16
ATOM     16  C   UNL     1     -14.377 -21.743   0.390  1.00  0.00     0.027 C 
BRANCH  16  17
ATOM     17  C   UNL     1     -14.432 -23.218  -0.036  1.00  0.00     0.004 C 
BRANCH  17  18
ATOM     18  C   UNL     1     -14.914 -23.397  -1.484  1.00  0.00     0.000 C 
BRANCH  18  19
ATOM     19  C   UNL     1     -16.366 -23.893  -1.569  1.00  0.00    -0.003 C 
ATOM     20  C   UNL     1     -16.789 -24.576  -0.271  1.00  0.00     0.004 C 
ENDBRANCH  18  19
ENDBRANCH  17  18
ENDBRANCH  16  17
ENDBRANCH  15  16
ENDBRANCH  13  14
ENDBRANCH  12  13
ENDBRANCH   1  11
TORSDOF 14
ENDMDL
MODEL 6
REMARK VINA RESULT:    -3.372      3.085      7.311
REMARK INTER + INTRA:          -7.647
REMARK INTER:                  -6.439
REMARK INTRA:                  -1.208
REMARK UNBOUND:                -1.516
REMARK SMILES CCCCCC=CCC=CCCCCCCCC(=O)[O-]
REMARK SMILES IDX 11 1 12 2 13 3 14 4 15 5 16 6 17 7 18 8 19 9 20 10 10 11
REMARK SMILES IDX 9 12 8 13 7 14 6 15 5 16 4 17 3 18 2 19 1 20
REMARK H PARENT
REMARK Flexibility Score: inf
ROOT
ATOM      1  C   UNL     1     -16.746 -23.962   5.896  1.00  0.00     0.027 C 
ENDROOT
BRANCH   1   2
ATOM      2  C   UNL     1     -17.345 -24.217   7.290  1.00  0.00     0.004 C 
BRANCH   2   3
ATOM      3  C   UNL     1     -17.320 -22.982   8.212  1.00  0.00     0.000 C 
BRANCH   3   4
ATOM      4  C   UNL     1     -16.028 -22.891   9.043  1.00  0.00     0.000 C 
BRANCH   4   5
ATOM      5  C   UNL     1     -14.792 -22.551   8.191  1.00  0.00     0.000 C 
BRANCH   5   6
ATOM      6  C   UNL     1     -14.485 -21.048   8.063  1.00  0.00     0.006 C 
BRANCH   6   7
ATOM      7  C   UNL     1     -15.750 -20.189   7.940  1.00  0.00     0.053 C 
BRANCH   7   8
ATOM      8  C   UNL     1     -15.444 -18.906   7.231  1.00  0.00     0.041 C 
ATOM      9  O   UNL     1     -14.549 -18.136   7.672  1.00  0.00    -0.550 OA
ATOM     10  O   UNL     1     -16.179 -18.539   6.109  1.00  0.00    -0.550 OA
ENDBRANCH   7   8
ENDBRANCH   6   7
ENDBRANCH   5   6
ENDBRANCH   4   5
ENDBRANCH   3   4
ENDBRANCH   2   3
ENDBRANCH   1   2
BRANCH   1  11
ATOM     11  C   UNL     1     -17.251 -22.676   5.286  1.00  0.00    -0.031 C 
ATOM     12  C   UNL     1     -17.615 -22.503   4.000  1.00  0.00    -0.027 C 
BRANCH  12  13
ATOM     13  C   UNL     1     -17.559 -23.553   2.920  1.00  0.00     0.054 C 
BRANCH  13  14
ATOM     14  C   UNL     1     -16.293 -23.423   2.122  1.00  0.00    -0.027 C 
ATOM     15  C   UNL     1     -15.824 -22.229   1.727  1.00  0.00    -0.031 C 
BRANCH  15  16
ATOM     16  C   UNL     1     -14.547 -22.105   0.943  1.00  0.00     0.027 C 
BRANCH  16  17
ATOM     17  C   UNL     1     -14.196 -23.429   0.246  1.00  0.00     0.004 C 
BRANCH  17  18
ATOM     18  C   UNL     1     -14.361 -23.353  -1.280  1.00  0.00     0.000 C 
BRANCH  18  19
ATOM     19  C   UNL     1     -15.825 -23.494  -1.725  1.00  0.00    -0.003 C 
ATOM     20  C   UNL     1     -16.394 -24.850  -1.317  1.00  0.00     0.004 C 
ENDBRANCH  18  19
ENDBRANCH  17  18
ENDBRANCH  16  17
ENDBRANCH  15  16
ENDBRANCH  13  14
ENDBRANCH  12  13
ENDBRANCH   1  11
TORSDOF 14
ENDMDL
MODEL 7
REMARK VINA RESULT:    -3.339      3.201      6.736
REMARK INTER + INTRA:          -7.588
REMARK INTER:                  -6.129
REMARK INTRA:                  -1.459
REMARK UNBOUND:                -1.516
REMARK SMILES CCCCCC=CCC=CCCCCCCCC(=O)[O-]
REMARK SMILES IDX 11 1 12 2 13 3 14 4 15 5 16 6 17 7 18 8 19 9 20 10 10 11
REMARK SMILES IDX 9 12 8 13 7 14 6 15 5 16 4 17 3 18 2 19 1 20
REMARK H PARENT
REMARK Flexibility Score: inf
ROOT
ATOM      1  C   UNL     1     -17.272 -22.079   3.884  1.00  0.00     0.027 C 
ENDROOT
BRANCH   1   2
ATOM      2  C   UNL     1     -16.984 -21.628   5.326  1.00  0.00     0.004 C 
BRANCH   2   3
ATOM      3  C   UNL     1     -17.094 -22.761   6.365  1.00  0.00     0.000 C 
BRANCH   3   4
ATOM      4  C   UNL     1     -15.720 -23.255   6.849  1.00  0.00     0.000 C 
BRANCH   4   5
ATOM      5  C   UNL     1     -15.257 -22.562   8.143  1.00  0.00     0.000 C 
BRANCH   5   6
ATOM      6  C   UNL     1     -14.557 -21.206   7.939  1.00  0.00     0.006 C 
BRANCH   6   7
ATOM      7  C   UNL     1     -15.396 -20.020   8.433  1.00  0.00     0.053 C 
BRANCH   7   8
ATOM      8  C   UNL     1     -15.155 -18.816   7.576  1.00  0.00     0.041 C 
ATOM      9  O   UNL     1     -14.231 -18.009   7.863  1.00  0.00    -0.550 OA
ATOM     10  O   UNL     1     -15.981 -18.562   6.487  1.00  0.00    -0.550 OA
ENDBRANCH   7   8
ENDBRANCH   6   7
ENDBRANCH   5   6
ENDBRANCH   4   5
ENDBRANCH   3   4
ENDBRANCH   2   3
ENDBRANCH   1   2
BRANCH   1  11
ATOM     11  C   UNL     1     -18.288 -23.194   3.828  1.00  0.00    -0.031 C 
ATOM     12  C   UNL     1     -18.026 -24.486   3.548  1.00  0.00    -0.027 C 
BRANCH  12  13
ATOM     13  C   UNL     1     -16.673 -25.057   3.208  1.00  0.00     0.054 C 
BRANCH  13  14
ATOM     14  C   UNL     1     -16.387 -24.902   1.742  1.00  0.00    -0.027 C 
ATOM     15  C   UNL     1     -15.136 -24.784   1.272  1.00  0.00    -0.031 C 
BRANCH  15  16
ATOM     16  C   UNL     1     -14.856 -24.645  -0.198  1.00  0.00     0.027 C 
BRANCH  16  17
ATOM     17  C   UNL     1     -14.123 -23.329  -0.500  1.00  0.00     0.004 C 
BRANCH  17  18
ATOM     18  C   UNL     1     -14.922 -22.094  -0.053  1.00  0.00     0.000 C 
BRANCH  18  19
ATOM     19  C   UNL     1     -14.155 -21.227   0.958  1.00  0.00    -0.003 C 
ATOM     20  C   UNL     1     -15.055 -20.143   1.545  1.00  0.00     0.004 C 
ENDBRANCH  18  19
ENDBRANCH  17  18
ENDBRANCH  16  17
ENDBRANCH  15  16
ENDBRANCH  13  14
ENDBRANCH  12  13
ENDBRANCH   1  11
TORSDOF 14
ENDMDL
MODEL 8
REMARK VINA RESULT:    -3.336      3.758      8.621
REMARK INTER + INTRA:          -7.583
REMARK INTER:                  -6.659
REMARK INTRA:                  -0.924
REMARK UNBOUND:                -1.516
REMARK SMILES CCCCCC=CCC=CCCCCCCCC(=O)[O-]
REMARK SMILES IDX 11 1 12 2 13 3 14 4 15 5 16 6 17 7 18 8 19 9 20 10 10 11
REMARK SMILES IDX 9 12 8 13 7 14 6 15 5 16 4 17 3 18 2 19 1 20
REMARK H PARENT
REMARK Flexibility Score: inf
ROOT
ATOM      1  C   UNL     1     -17.685 -22.194   3.841  1.00  0.00     0.027 C 
ENDROOT
BRANCH   1   2
ATOM      2  C   UNL     1     -17.225 -22.133   5.308  1.00  0.00     0.004 C 
BRANCH   2   3
ATOM      3  C   UNL     1     -17.084 -23.516   5.972  1.00  0.00     0.000 C 
BRANCH   3   4
ATOM      4  C   UNL     1     -16.710 -23.422   7.462  1.00  0.00     0.000 C 
BRANCH   4   5
ATOM      5  C   UNL     1     -15.190 -23.332   7.693  1.00  0.00     0.000 C 
BRANCH   5   6
ATOM      6  C   UNL     1     -14.753 -22.287   8.735  1.00  0.00     0.006 C 
BRANCH   6   7
ATOM      7  C   UNL     1     -14.132 -21.035   8.103  1.00  0.00     0.053 C 
BRANCH   7   8
ATOM      8  C   UNL     1     -15.038 -19.855   8.279  1.00  0.00     0.041 C 
ATOM      9  O   UNL     1     -16.223 -19.898   7.855  1.00  0.00    -0.550 OA
ATOM     10  O   UNL     1     -14.557 -18.693   8.872  1.00  0.00    -0.550 OA
ENDBRANCH   7   8
ENDBRANCH   6   7
ENDBRANCH   5   6
ENDBRANCH   4   5
ENDBRANCH   3   4
ENDBRANCH   2   3
ENDBRANCH   1   2
BRANCH   1  11
ATOM     11  C   UNL     1     -17.747 -23.610   3.322  1.00  0.00    -0.031 C 
ATOM     12  C   UNL     1     -16.981 -24.124   2.339  1.00  0.00    -0.027 C 
BRANCH  12  13
ATOM     13  C   UNL     1     -15.937 -23.374   1.552  1.00  0.00     0.054 C 
BRANCH  13  14
ATOM     14  C   UNL     1     -15.649 -24.074   0.255  1.00  0.00    -0.027 C 
ATOM     15  C   UNL     1     -16.386 -23.860  -0.846  1.00  0.00    -0.031 C 
BRANCH  15  16
ATOM     16  C   UNL     1     -16.081 -24.553  -2.145  1.00  0.00     0.027 C 
BRANCH  16  17
ATOM     17  C   UNL     1     -14.899 -23.884  -2.864  1.00  0.00     0.004 C 
BRANCH  17  18
ATOM     18  C   UNL     1     -14.595 -24.531  -4.224  1.00  0.00     0.000 C 
BRANCH  18  19
ATOM     19  C   UNL     1     -14.154 -23.506  -5.282  1.00  0.00    -0.003 C 
ATOM     20  C   UNL     1     -14.179 -24.117  -6.680  1.00  0.00     0.004 C 
ENDBRANCH  18  19
ENDBRANCH  17  18
ENDBRANCH  16  17
ENDBRANCH  15  16
ENDBRANCH  13  14
ENDBRANCH  12  13
ENDBRANCH   1  11
TORSDOF 14
ENDMDL
MODEL 9
REMARK VINA RESULT:    -3.279      2.617      3.884
REMARK INTER + INTRA:          -7.479
REMARK INTER:                  -6.484
REMARK INTRA:                  -0.995
REMARK UNBOUND:                -1.516
REMARK SMILES CCCCCC=CCC=CCCCCCCCC(=O)[O-]
REMARK SMILES IDX 11 1 12 2 13 3 14 4 15 5 16 6 17 7 18 8 19 9 20 10 10 11
REMARK SMILES IDX 9 12 8 13 7 14 6 15 5 16 4 17 3 18 2 19 1 20
REMARK H PARENT
REMARK Flexibility Score: inf
ROOT
ATOM      1  C   UNL     1     -16.432 -24.638   3.311  1.00  0.00     0.027 C 
ENDROOT
BRANCH   1   2
ATOM      2  C   UNL     1     -15.849 -24.874   1.908  1.00  0.00     0.004 C 
BRANCH   2   3
ATOM      3  C   UNL     1     -16.380 -23.896   0.842  1.00  0.00     0.000 C 
BRANCH   3   4
ATOM      4  C   UNL     1     -16.388 -24.506  -0.570  1.00  0.00     0.000 C 
BRANCH   4   5
ATOM      5  C   UNL     1     -15.687 -23.615  -1.612  1.00  0.00     0.000 C 
BRANCH   5   6
ATOM      6  C   UNL     1     -15.221 -24.347  -2.883  1.00  0.00     0.006 C 
BRANCH   6   7
ATOM      7  C   UNL     1     -14.020 -23.670  -3.556  1.00  0.00     0.053 C 
BRANCH   7   8
ATOM      8  C   UNL     1     -14.230 -23.580  -5.036  1.00  0.00     0.041 C 
ATOM      9  O   UNL     1     -14.190 -22.462  -5.614  1.00  0.00    -0.550 OA
ATOM     10  O   UNL     1     -14.515 -24.727  -5.768  1.00  0.00    -0.550 OA
ENDBRANCH   7   8
ENDBRANCH   6   7
ENDBRANCH   5   6
ENDBRANCH   4   5
ENDBRANCH   3   4
ENDBRANCH   2   3
ENDBRANCH   1   2
BRANCH   1  11
ATOM     11  C   UNL     1     -17.791 -23.982   3.261  1.00  0.00    -0.031 C 
ATOM     12  C   UNL     1     -18.079 -22.731   3.670  1.00  0.00    -0.027 C 
BRANCH  12  13
ATOM     13  C   UNL     1     -17.104 -21.758   4.284  1.00  0.00     0.054 C 
BRANCH  13  14
ATOM     14  C   UNL     1     -16.998 -21.981   5.765  1.00  0.00    -0.027 C 
ATOM     15  C   UNL     1     -16.645 -20.996   6.606  1.00  0.00    -0.031 C 
BRANCH  15  16
ATOM     16  C   UNL     1     -16.558 -21.221   8.090  1.00  0.00     0.027 C 
BRANCH  16  17
ATOM     17  C   UNL     1     -17.947 -21.485   8.692  1.00  0.00     0.004 C 
BRANCH  17  18
ATOM     18  C   UNL     1     -18.182 -22.973   8.999  1.00  0.00     0.000 C 
BRANCH  18  19
ATOM     19  C   UNL     1     -16.874 -23.772   9.098  1.00  0.00    -0.003 C 
ATOM     20  C   UNL     1     -16.894 -24.975   8.158  1.00  0.00     0.004 C 
ENDBRANCH  18  19
ENDBRANCH  17  18
ENDBRANCH  16  17
ENDBRANCH  15  16
ENDBRANCH  13  14
ENDBRANCH  12  13
ENDBRANCH   1  11
TORSDOF 14
ENDMDL
