MODEL 1
REMARK VINA RESULT:    -4.045      0.000      0.000
REMARK INTER + INTRA:          -9.444
REMARK INTER:                  -7.355
REMARK INTRA:                  -2.089
REMARK UNBOUND:                -2.089
REMARK SMILES CCCCCCCCCCCCCC[C@@H](C)C(=O)[O-]
REMARK SMILES IDX 9 1 10 2 11 3 12 4 13 5 14 6 15 7 16 8 17 9 18 10 19 11 8 12
REMARK SMILES IDX 7 13 6 14 5 15 4 16 3 17 2 18 1 19
REMARK H PARENT
REMARK Flexibility Score: inf
ROOT
ATOM      1  C   UNL     1       5.723  12.656  13.245  1.00  0.00     0.000 C 
ENDROOT
BRANCH   1   2
ATOM      2  C   UNL     1       4.562  13.656  13.392  1.00  0.00     0.000 C 
BRANCH   2   3
ATOM      3  C   UNL     1       4.449  14.607  12.190  1.00  0.00     0.000 C 
BRANCH   3   4
ATOM      4  C   UNL     1       2.990  14.862  11.773  1.00  0.00     0.000 C 
BRANCH   4   5
ATOM      5  C   UNL     1       2.589  14.114  10.491  1.00  0.00     0.001 C 
BRANCH   5   6
ATOM      6  C   UNL     1       3.740  13.474   9.681  1.00  0.00     0.009 C 
BRANCH   6   7
ATOM      7  C   UNL     1       3.402  12.229   8.819  1.00  0.00     0.032 C 
ATOM      8  C   UNL     1       4.641  11.414   8.418  1.00  0.00     0.014 C 
BRANCH   7   9
ATOM      9  C   UNL     1       2.329  11.365   9.430  1.00  0.00     0.044 C 
ATOM     10  O   UNL     1       2.610  10.611  10.398  1.00  0.00    -0.550 OA
ATOM     11  O   UNL     1       1.041  11.351   8.907  1.00  0.00    -0.550 OA
ENDBRANCH   7   9
ENDBRANCH   6   7
ENDBRANCH   5   6
ENDBRANCH   4   5
ENDBRANCH   3   4
ENDBRANCH   2   3
ENDBRANCH   1   2
BRANCH   1  12
ATOM     12  C   UNL     1       5.447  11.584  12.177  1.00  0.00     0.000 C 
BRANCH  12  13
ATOM     13  C   UNL     1       6.729  11.080  11.497  1.00  0.00    -0.000 C 
BRANCH  13  14
ATOM     14  C   UNL     1       7.499  12.241  10.850  1.00  0.00    -0.000 C 
BRANCH  14  15
ATOM     15  C   UNL     1       8.963  12.313  11.309  1.00  0.00    -0.000 C 
BRANCH  15  16
ATOM     16  C   UNL     1       9.415  11.043  12.052  1.00  0.00    -0.000 C 
BRANCH  16  17
ATOM     17  C   UNL     1      10.480  11.345  13.128  1.00  0.00    -0.000 C 
BRANCH  17  18
ATOM     18  C   UNL     1      10.050  12.426  14.132  1.00  0.00    -0.003 C 
ATOM     19  C   UNL     1       8.846  12.012  14.977  1.00  0.00     0.004 C 
ENDBRANCH  17  18
ENDBRANCH  16  17
ENDBRANCH  15  16
ENDBRANCH  14  15
ENDBRANCH  13  14
ENDBRANCH  12  13
ENDBRANCH   1  12
TORSDOF 14
ENDMDL
MODEL 2
REMARK VINA RESULT:    -4.037      2.417      4.512
REMARK INTER + INTRA:          -9.431
REMARK INTER:                  -6.888
REMARK INTRA:                  -2.543
REMARK UNBOUND:                -2.089
REMARK SMILES CCCCCCCCCCCCCC[C@@H](C)C(=O)[O-]
REMARK SMILES IDX 9 1 10 2 11 3 12 4 13 5 14 6 15 7 16 8 17 9 18 10 19 11 8 12
REMARK SMILES IDX 7 13 6 14 5 15 4 16 3 17 2 18 1 19
REMARK H PARENT
REMARK Flexibility Score: inf
ROOT
ATOM      1  C   UNL     1       0.535  12.249  10.386  1.00  0.00     0.000 C 
ENDROOT
BRANCH   1   2
ATOM      2  C   UNL     1       0.218  13.301   9.308  1.00  0.00     0.000 C 
BRANCH   2   3
ATOM      3  C   UNL     1       1.087  13.137   8.051  1.00  0.00     0.000 C 
BRANCH   3   4
ATOM      4  C   UNL     1       2.266  14.125   8.014  1.00  0.00     0.000 C 
BRANCH   4   5
ATOM      5  C   UNL     1       3.590  13.503   8.487  1.00  0.00     0.001 C 
BRANCH   5   6
ATOM      6  C   UNL     1       3.917  12.092   7.944  1.00  0.00     0.009 C 
BRANCH   6   7
ATOM      7  C   UNL     1       4.271  10.992   8.980  1.00  0.00     0.032 C 
ATOM      8  C   UNL     1       3.079  10.094   9.343  1.00  0.00     0.014 C 
BRANCH   7   9
ATOM      9  C   UNL     1       5.488  10.191   8.595  1.00  0.00     0.044 C 
ATOM     10  O   UNL     1       6.558  10.784   8.296  1.00  0.00    -0.550 OA
ATOM     11  O   UNL     1       5.433   8.804   8.516  1.00  0.00    -0.550 OA
ENDBRANCH   7   9
ENDBRANCH   6   7
ENDBRANCH   5   6
ENDBRANCH   4   5
ENDBRANCH   3   4
ENDBRANCH   2   3
ENDBRANCH   1   2
BRANCH   1  12
ATOM     12  C   UNL     1       0.858  12.881  11.750  1.00  0.00     0.000 C 
BRANCH  12  13
ATOM     13  C   UNL     1       2.364  13.103  11.961  1.00  0.00    -0.000 C 
BRANCH  13  14
ATOM     14  C   UNL     1       2.722  14.590  11.819  1.00  0.00    -0.000 C 
BRANCH  14  15
ATOM     15  C   UNL     1       4.102  14.927  12.405  1.00  0.00    -0.000 C 
BRANCH  15  16
ATOM     16  C   UNL     1       5.057  13.719  12.407  1.00  0.00    -0.000 C 
BRANCH  16  17
ATOM     17  C   UNL     1       5.934  13.668  11.138  1.00  0.00    -0.000 C 
BRANCH  17  18
ATOM     18  C   UNL     1       7.155  12.744  11.272  1.00  0.00    -0.003 C 
ATOM     19  C   UNL     1       6.810  11.379  11.866  1.00  0.00     0.004 C 
ENDBRANCH  17  18
ENDBRANCH  16  17
ENDBRANCH  15  16
ENDBRANCH  14  15
ENDBRANCH  13  14
ENDBRANCH  12  13
ENDBRANCH   1  12
TORSDOF 14
ENDMDL
MODEL 3
REMARK VINA RESULT:    -4.018      2.860      6.354
REMARK INTER + INTRA:          -9.396
REMARK INTER:                  -7.336
REMARK INTRA:                  -2.059
REMARK UNBOUND:                -2.089
REMARK SMILES CCCCCCCCCCCCCC[C@@H](C)C(=O)[O-]
REMARK SMILES IDX 9 1 10 2 11 3 12 4 13 5 14 6 15 7 16 8 17 9 18 10 19 11 8 12
REMARK SMILES IDX 7 13 6 14 5 15 4 16 3 17 2 18 1 19
REMARK H PARENT
REMARK Flexibility Score: inf
ROOT
ATOM      1  C   UNL     1       4.464  13.754  12.214  1.00  0.00     0.000 C 
ENDROOT
BRANCH   1   2
ATOM      2  C   UNL     1       5.553  14.331  11.292  1.00  0.00     0.000 C 
BRANCH   2   3
ATOM      3  C   UNL     1       6.620  13.290  10.918  1.00  0.00     0.000 C 
BRANCH   3   4
ATOM      4  C   UNL     1       7.131  12.504  12.138  1.00  0.00     0.000 C 
BRANCH   4   5
ATOM      5  C   UNL     1       7.379  11.016  11.837  1.00  0.00     0.001 C 
BRANCH   5   6
ATOM      6  C   UNL     1       6.722  10.458  10.553  1.00  0.00     0.009 C 
BRANCH   6   7
ATOM      7  C   UNL     1       7.646   9.748   9.528  1.00  0.00     0.032 C 
ATOM      8  C   UNL     1       8.750  10.660   8.973  1.00  0.00     0.014 C 
BRANCH   7   9
ATOM      9  C   UNL     1       8.195   8.440  10.038  1.00  0.00     0.044 C 
ATOM     10  O   UNL     1       7.496   7.396   9.960  1.00  0.00    -0.550 OA
ATOM     11  O   UNL     1       9.446   8.379  10.642  1.00  0.00    -0.550 OA
ENDBRANCH   7   9
ENDBRANCH   6   7
ENDBRANCH   5   6
ENDBRANCH   4   5
ENDBRANCH   3   4
ENDBRANCH   2   3
ENDBRANCH   1   2
BRANCH   1  12
ATOM     12  C   UNL     1       3.220  14.655  12.295  1.00  0.00     0.000 C 
BRANCH  12  13
ATOM     13  C   UNL     1       2.110  14.224  11.324  1.00  0.00    -0.000 C 
BRANCH  13  14
ATOM     14  C   UNL     1       1.979  15.222  10.164  1.00  0.00    -0.000 C 
BRANCH  14  15
ATOM     15  C   UNL     1       1.006  14.744   9.076  1.00  0.00    -0.000 C 
BRANCH  15  16
ATOM     16  C   UNL     1       1.504  13.484   8.346  1.00  0.00    -0.000 C 
BRANCH  16  17
ATOM     17  C   UNL     1       2.873  13.706   7.667  1.00  0.00    -0.000 C 
BRANCH  17  18
ATOM     18  C   UNL     1       3.987  12.803   8.221  1.00  0.00    -0.003 C 
ATOM     19  C   UNL     1       3.457  11.669   9.097  1.00  0.00     0.004 C 
ENDBRANCH  17  18
ENDBRANCH  16  17
ENDBRANCH  15  16
ENDBRANCH  14  15
ENDBRANCH  13  14
ENDBRANCH  12  13
ENDBRANCH   1  12
TORSDOF 14
ENDMDL
MODEL 4
REMARK VINA RESULT:    -4.014      2.374      5.935
REMARK INTER + INTRA:          -9.388
REMARK INTER:                  -7.169
REMARK INTRA:                  -2.218
REMARK UNBOUND:                -2.089
REMARK SMILES CCCCCCCCCCCCCC[C@@H](C)C(=O)[O-]
REMARK SMILES IDX 9 1 10 2 11 3 12 4 13 5 14 6 15 7 16 8 17 9 18 10 19 11 8 12
REMARK SMILES IDX 7 13 6 14 5 15 4 16 3 17 2 18 1 19
REMARK H PARENT
REMARK Flexibility Score: inf
ROOT
ATOM      1  C   UNL     1       4.853  13.083  12.149  1.00  0.00     0.000 C 
ENDROOT
BRANCH   1   2
ATOM      2  C   UNL     1       5.672  12.180  13.088  1.00  0.00     0.000 C 
BRANCH   2   3
ATOM      3  C   UNL     1       7.152  12.095  12.680  1.00  0.00     0.000 C 
BRANCH   3   4
ATOM      4  C   UNL     1       7.392  12.548  11.229  1.00  0.00     0.000 C 
BRANCH   4   5
ATOM      5  C   UNL     1       7.856  11.406  10.309  1.00  0.00     0.001 C 
BRANCH   5   6
ATOM      6  C   UNL     1       6.861  10.240  10.106  1.00  0.00     0.009 C 
BRANCH   6   7
ATOM      7  C   UNL     1       6.360   9.971   8.662  1.00  0.00     0.032 C 
ATOM      8  C   UNL     1       7.356  10.420   7.582  1.00  0.00     0.014 C 
BRANCH   7   9
ATOM      9  C   UNL     1       5.900   8.552   8.454  1.00  0.00     0.044 C 
ATOM     10  O   UNL     1       6.748   7.626   8.362  1.00  0.00    -0.550 OA
ATOM     11  O   UNL     1       4.549   8.255   8.311  1.00  0.00    -0.550 OA
ENDBRANCH   7   9
ENDBRANCH   6   7
ENDBRANCH   5   6
ENDBRANCH   4   5
ENDBRANCH   3   4
ENDBRANCH   2   3
ENDBRANCH   1   2
BRANCH   1  12
ATOM     12  C   UNL     1       3.547  12.419  11.681  1.00  0.00     0.000 C 
BRANCH  12  13
ATOM     13  C   UNL     1       3.635  11.880  10.245  1.00  0.00    -0.000 C 
BRANCH  13  14
ATOM     14  C   UNL     1       4.233  12.935   9.301  1.00  0.00    -0.000 C 
BRANCH  14  15
ATOM     15  C   UNL     1       3.637  12.872   7.887  1.00  0.00    -0.000 C 
BRANCH  15  16
ATOM     16  C   UNL     1       2.582  13.965   7.639  1.00  0.00    -0.000 C 
BRANCH  16  17
ATOM     17  C   UNL     1       1.185  13.553   8.150  1.00  0.00    -0.000 C 
BRANCH  17  18
ATOM     18  C   UNL     1       0.726  14.342   9.387  1.00  0.00    -0.003 C 
ATOM     19  C   UNL     1       1.429  15.691   9.530  1.00  0.00     0.004 C 
ENDBRANCH  17  18
ENDBRANCH  16  17
ENDBRANCH  15  16
ENDBRANCH  14  15
ENDBRANCH  13  14
ENDBRANCH  12  13
ENDBRANCH   1  12
TORSDOF 14
ENDMDL
MODEL 5
REMARK VINA RESULT:    -4.003      2.067      3.811
REMARK INTER + INTRA:          -9.369
REMARK INTER:                  -7.111
REMARK INTRA:                  -2.257
REMARK UNBOUND:                -2.089
REMARK SMILES CCCCCCCCCCCCCC[C@@H](C)C(=O)[O-]
REMARK SMILES IDX 9 1 10 2 11 3 12 4 13 5 14 6 15 7 16 8 17 9 18 10 19 11 8 12
REMARK SMILES IDX 7 13 6 14 5 15 4 16 3 17 2 18 1 19
REMARK H PARENT
REMARK Flexibility Score: inf
ROOT
ATOM      1  C   UNL     1       2.272  12.969  13.442  1.00  0.00     0.000 C 
ENDROOT
BRANCH   1   2
ATOM      2  C   UNL     1       1.477  11.972  12.581  1.00  0.00     0.000 C 
BRANCH   2   3
ATOM      3  C   UNL     1       2.252  10.670  12.320  1.00  0.00     0.000 C 
BRANCH   3   4
ATOM      4  C   UNL     1       2.267  10.281  10.831  1.00  0.00     0.000 C 
BRANCH   4   5
ATOM      5  C   UNL     1       2.903  11.354   9.933  1.00  0.00     0.001 C 
BRANCH   5   6
ATOM      6  C   UNL     1       1.954  12.075   8.947  1.00  0.00     0.009 C 
BRANCH   6   7
ATOM      7  C   UNL     1       2.167  13.597   8.732  1.00  0.00     0.032 C 
ATOM      8  C   UNL     1       2.542  13.958   7.287  1.00  0.00     0.014 C 
BRANCH   7   9
ATOM      9  C   UNL     1       1.022  14.430   9.246  1.00  0.00     0.044 C 
ATOM     10  O   UNL     1       0.048  13.870   9.815  1.00  0.00    -0.550 OA
ATOM     11  O   UNL     1       1.000  15.807   9.055  1.00  0.00    -0.550 OA
ENDBRANCH   7   9
ENDBRANCH   6   7
ENDBRANCH   5   6
ENDBRANCH   4   5
ENDBRANCH   3   4
ENDBRANCH   2   3
ENDBRANCH   1   2
BRANCH   1  12
ATOM     12  C   UNL     1       2.329  14.374  12.819  1.00  0.00     0.000 C 
BRANCH  12  13
ATOM     13  C   UNL     1       3.582  14.592  11.957  1.00  0.00    -0.000 C 
BRANCH  13  14
ATOM     14  C   UNL     1       4.807  13.918  12.592  1.00  0.00    -0.000 C 
BRANCH  14  15
ATOM     15  C   UNL     1       5.718  13.243  11.556  1.00  0.00    -0.000 C 
BRANCH  15  16
ATOM     16  C   UNL     1       6.189  11.846  11.999  1.00  0.00    -0.000 C 
BRANCH  16  17
ATOM     17  C   UNL     1       6.451  10.912  10.799  1.00  0.00    -0.000 C 
BRANCH  17  18
ATOM     18  C   UNL     1       7.819  10.212  10.852  1.00  0.00    -0.003 C 
ATOM     19  C   UNL     1       8.847  10.973  11.686  1.00  0.00     0.004 C 
ENDBRANCH  17  18
ENDBRANCH  16  17
ENDBRANCH  15  16
ENDBRANCH  14  15
ENDBRANCH  13  14
ENDBRANCH  12  13
ENDBRANCH   1  12
TORSDOF 14
ENDMDL
MODEL 6
REMARK VINA RESULT:    -3.993      1.559      2.895
REMARK INTER + INTRA:          -9.349
REMARK INTER:                  -7.155
REMARK INTRA:                  -2.194
REMARK UNBOUND:                -2.089
REMARK SMILES CCCCCCCCCCCCCC[C@@H](C)C(=O)[O-]
REMARK SMILES IDX 9 1 10 2 11 3 12 4 13 5 14 6 15 7 16 8 17 9 18 10 19 11 8 12
REMARK SMILES IDX 7 13 6 14 5 15 4 16 3 17 2 18 1 19
REMARK H PARENT
REMARK Flexibility Score: inf
ROOT
ATOM      1  C   UNL     1       5.904  12.481  11.200  1.00  0.00     0.000 C 
ENDROOT
BRANCH   1   2
ATOM      2  C   UNL     1       5.307  13.897  11.121  1.00  0.00     0.000 C 
BRANCH   2   3
ATOM      3  C   UNL     1       4.527  14.280  12.389  1.00  0.00     0.000 C 
BRANCH   3   4
ATOM      4  C   UNL     1       3.022  14.460  12.126  1.00  0.00     0.000 C 
BRANCH   4   5
ATOM      5  C   UNL     1       2.679  14.561  10.631  1.00  0.00     0.001 C 
BRANCH   5   6
ATOM      6  C   UNL     1       1.757  13.456  10.063  1.00  0.00     0.009 C 
BRANCH   6   7
ATOM      7  C   UNL     1       2.308  12.596   8.894  1.00  0.00     0.032 C 
ATOM      8  C   UNL     1       3.368  13.323   8.054  1.00  0.00     0.014 C 
BRANCH   7   9
ATOM      9  C   UNL     1       2.773  11.233   9.337  1.00  0.00     0.044 C 
ATOM     10  O   UNL     1       3.055  10.358   8.476  1.00  0.00    -0.550 OA
ATOM     11  O   UNL     1       2.848  10.909  10.687  1.00  0.00    -0.550 OA
ENDBRANCH   7   9
ENDBRANCH   6   7
ENDBRANCH   5   6
ENDBRANCH   4   5
ENDBRANCH   3   4
ENDBRANCH   2   3
ENDBRANCH   1   2
BRANCH   1  12
ATOM     12  C   UNL     1       6.369  12.115  12.619  1.00  0.00     0.000 C 
BRANCH  12  13
ATOM     13  C   UNL     1       7.833  11.650  12.664  1.00  0.00    -0.000 C 
BRANCH  13  14
ATOM     14  C   UNL     1       8.662  12.350  11.576  1.00  0.00    -0.000 C 
BRANCH  14  15
ATOM     15  C   UNL     1       9.388  11.359  10.654  1.00  0.00    -0.000 C 
BRANCH  15  16
ATOM     16  C   UNL     1       8.931   9.905  10.867  1.00  0.00    -0.000 C 
BRANCH  16  17
ATOM     17  C   UNL     1       8.301   9.300   9.594  1.00  0.00    -0.000 C 
BRANCH  17  18
ATOM     18  C   UNL     1       8.058  10.330   8.479  1.00  0.00    -0.003 C 
ATOM     19  C   UNL     1       6.582  10.472   8.109  1.00  0.00     0.004 C 
ENDBRANCH  17  18
ENDBRANCH  16  17
ENDBRANCH  15  16
ENDBRANCH  14  15
ENDBRANCH  13  14
ENDBRANCH  12  13
ENDBRANCH   1  12
TORSDOF 14
ENDMDL
MODEL 7
REMARK VINA RESULT:    -3.988      2.644      6.285
REMARK INTER + INTRA:          -9.340
REMARK INTER:                  -7.172
REMARK INTRA:                  -2.168
REMARK UNBOUND:                -2.089
REMARK SMILES CCCCCCCCCCCCCC[C@@H](C)C(=O)[O-]
REMARK SMILES IDX 9 1 10 2 11 3 12 4 13 5 14 6 15 7 16 8 17 9 18 10 19 11 8 12
REMARK SMILES IDX 7 13 6 14 5 15 4 16 3 17 2 18 1 19
REMARK H PARENT
REMARK Flexibility Score: inf
ROOT
ATOM      1  C   UNL     1       5.805  13.101  10.883  1.00  0.00     0.000 C 
ENDROOT
BRANCH   1   2
ATOM      2  C   UNL     1       7.264  12.774  11.249  1.00  0.00     0.000 C 
BRANCH   2   3
ATOM      3  C   UNL     1       7.415  11.379  11.877  1.00  0.00     0.000 C 
BRANCH   3   4
ATOM      4  C   UNL     1       8.237  10.420  10.998  1.00  0.00     0.000 C 
BRANCH   4   5
ATOM      5  C   UNL     1       8.467  10.954   9.575  1.00  0.00     0.001 C 
BRANCH   5   6
ATOM      6  C   UNL     1       7.560  10.369   8.467  1.00  0.00     0.009 C 
BRANCH   6   7
ATOM      7  C   UNL     1       6.404   9.433   8.911  1.00  0.00     0.032 C 
ATOM      8  C   UNL     1       5.017   9.944   8.496  1.00  0.00     0.014 C 
BRANCH   7   9
ATOM      9  C   UNL     1       6.623   7.997   8.508  1.00  0.00     0.044 C 
ATOM     10  O   UNL     1       5.650   7.198   8.489  1.00  0.00    -0.550 OA
ATOM     11  O   UNL     1       7.896   7.528   8.205  1.00  0.00    -0.550 OA
ENDBRANCH   7   9
ENDBRANCH   6   7
ENDBRANCH   5   6
ENDBRANCH   4   5
ENDBRANCH   3   4
ENDBRANCH   2   3
ENDBRANCH   1   2
BRANCH   1  12
ATOM     12  C   UNL     1       4.806  12.101  11.489  1.00  0.00     0.000 C 
BRANCH  12  13
ATOM     13  C   UNL     1       3.393  12.687  11.636  1.00  0.00    -0.000 C 
BRANCH  13  14
ATOM     14  C   UNL     1       3.455  14.170  12.032  1.00  0.00    -0.000 C 
BRANCH  14  15
ATOM     15  C   UNL     1       2.433  15.030  11.274  1.00  0.00    -0.000 C 
BRANCH  15  16
ATOM     16  C   UNL     1       1.645  14.227  10.223  1.00  0.00    -0.000 C 
BRANCH  16  17
ATOM     17  C   UNL     1       1.691  14.889   8.829  1.00  0.00    -0.000 C 
BRANCH  17  18
ATOM     18  C   UNL     1       2.059  13.914   7.698  1.00  0.00    -0.003 C 
ATOM     19  C   UNL     1       3.455  13.315   7.857  1.00  0.00     0.004 C 
ENDBRANCH  17  18
ENDBRANCH  16  17
ENDBRANCH  15  16
ENDBRANCH  14  15
ENDBRANCH  13  14
ENDBRANCH  12  13
ENDBRANCH   1  12
TORSDOF 14
ENDMDL
MODEL 8
REMARK VINA RESULT:    -3.959      1.163      1.951
REMARK INTER + INTRA:          -9.288
REMARK INTER:                  -7.164
REMARK INTRA:                  -2.124
REMARK UNBOUND:                -2.089
REMARK SMILES CCCCCCCCCCCCCC[C@@H](C)C(=O)[O-]
REMARK SMILES IDX 9 1 10 2 11 3 12 4 13 5 14 6 15 7 16 8 17 9 18 10 19 11 8 12
REMARK SMILES IDX 7 13 6 14 5 15 4 16 3 17 2 18 1 19
REMARK H PARENT
REMARK Flexibility Score: inf
ROOT
ATOM      1  C   UNL     1       5.447  11.624  12.823  1.00  0.00     0.000 C 
ENDROOT
BRANCH   1   2
ATOM      2  C   UNL     1       5.616  13.008  13.477  1.00  0.00     0.000 C 
BRANCH   2   3
ATOM      3  C   UNL     1       4.415  13.395  14.354  1.00  0.00     0.000 C 
BRANCH   3   4
ATOM      4  C   UNL     1       3.699  14.660  13.850  1.00  0.00     0.000 C 
BRANCH   4   5
ATOM      5  C   UNL     1       3.929  14.928  12.353  1.00  0.00     0.001 C 
BRANCH   5   6
ATOM      6  C   UNL     1       2.678  14.873  11.445  1.00  0.00     0.009 C 
BRANCH   6   7
ATOM      7  C   UNL     1       2.551  13.669  10.475  1.00  0.00     0.032 C 
ATOM      8  C   UNL     1       3.785  13.479   9.580  1.00  0.00     0.014 C 
BRANCH   7   9
ATOM      9  C   UNL     1       2.153  12.393  11.171  1.00  0.00     0.044 C 
ATOM     10  O   UNL     1       1.399  12.439  12.177  1.00  0.00    -0.550 OA
ATOM     11  O   UNL     1       2.648  11.165  10.746  1.00  0.00    -0.550 OA
ENDBRANCH   7   9
ENDBRANCH   6   7
ENDBRANCH   5   6
ENDBRANCH   4   5
ENDBRANCH   3   4
ENDBRANCH   2   3
ENDBRANCH   1   2
BRANCH   1  12
ATOM     12  C   UNL     1       6.188  11.512  11.480  1.00  0.00     0.000 C 
BRANCH  12  13
ATOM     13  C   UNL     1       7.079  12.729  11.189  1.00  0.00    -0.000 C 
BRANCH  13  14
ATOM     14  C   UNL     1       8.526  12.294  10.912  1.00  0.00    -0.000 C 
BRANCH  14  15
ATOM     15  C   UNL     1       8.924  11.028  11.688  1.00  0.00    -0.000 C 
BRANCH  15  16
ATOM     16  C   UNL     1       9.865  11.327  12.869  1.00  0.00    -0.000 C 
BRANCH  16  17
ATOM     17  C   UNL     1       9.128  12.002  14.045  1.00  0.00    -0.000 C 
BRANCH  17  18
ATOM     18  C   UNL     1      10.072  12.640  15.078  1.00  0.00    -0.003 C 
ATOM     19  C   UNL     1      10.616  11.634  16.090  1.00  0.00     0.004 C 
ENDBRANCH  17  18
ENDBRANCH  16  17
ENDBRANCH  15  16
ENDBRANCH  14  15
ENDBRANCH  13  14
ENDBRANCH  12  13
ENDBRANCH   1  12
TORSDOF 14
ENDMDL
MODEL 9
REMARK VINA RESULT:    -3.930      1.713      2.797
REMARK INTER + INTRA:          -9.235
REMARK INTER:                  -7.619
REMARK INTRA:                  -1.616
REMARK UNBOUND:                -2.089
REMARK SMILES CCCCCCCCCCCCCC[C@@H](C)C(=O)[O-]
REMARK SMILES IDX 9 1 10 2 11 3 12 4 13 5 14 6 15 7 16 8 17 9 18 10 19 11 8 12
REMARK SMILES IDX 7 13 6 14 5 15 4 16 3 17 2 18 1 19
REMARK H PARENT
REMARK Flexibility Score: inf
ROOT
ATOM      1  C   UNL     1       6.277  12.235  10.899  1.00  0.00     0.000 C 
ENDROOT
BRANCH   1   2
ATOM      2  C   UNL     1       5.917  13.692  11.243  1.00  0.00     0.000 C 
BRANCH   2   3
ATOM      3  C   UNL     1       5.012  13.799  12.481  1.00  0.00     0.000 C 
BRANCH   3   4
ATOM      4  C   UNL     1       4.100  15.037  12.441  1.00  0.00     0.000 C 
BRANCH   4   5
ATOM      5  C   UNL     1       2.650  14.707  12.050  1.00  0.00     0.001 C 
BRANCH   5   6
ATOM      6  C   UNL     1       2.286  14.880  10.557  1.00  0.00     0.009 C 
BRANCH   6   7
ATOM      7  C   UNL     1       2.143  13.592   9.702  1.00  0.00     0.032 C 
ATOM      8  C   UNL     1       3.318  13.371   8.738  1.00  0.00     0.014 C 
BRANCH   7   9
ATOM      9  C   UNL     1       1.850  12.367  10.529  1.00  0.00     0.044 C 
ATOM     10  O   UNL     1       0.694  12.191  10.997  1.00  0.00    -0.550 OA
ATOM     11  O   UNL     1       2.852  11.450  10.824  1.00  0.00    -0.550 OA
ENDBRANCH   7   9
ENDBRANCH   6   7
ENDBRANCH   5   6
ENDBRANCH   4   5
ENDBRANCH   3   4
ENDBRANCH   2   3
ENDBRANCH   1   2
BRANCH   1  12
ATOM     12  C   UNL     1       6.937  11.497  12.075  1.00  0.00     0.000 C 
BRANCH  12  13
ATOM     13  C   UNL     1       8.358  12.001  12.372  1.00  0.00    -0.000 C 
BRANCH  13  14
ATOM     14  C   UNL     1       8.612  12.063  13.885  1.00  0.00    -0.000 C 
BRANCH  14  15
ATOM     15  C   UNL     1       7.313  12.075  14.705  1.00  0.00    -0.000 C 
BRANCH  15  16
ATOM     16  C   UNL     1       7.439  11.300  16.029  1.00  0.00    -0.000 C 
BRANCH  16  17
ATOM     17  C   UNL     1       8.785  11.568  16.735  1.00  0.00    -0.000 C 
BRANCH  17  18
ATOM     18  C   UNL     1       8.635  11.971  18.212  1.00  0.00    -0.003 C 
ATOM     19  C   UNL     1       8.607  13.484  18.418  1.00  0.00     0.004 C 
ENDBRANCH  17  18
ENDBRANCH  16  17
ENDBRANCH  15  16
ENDBRANCH  14  15
ENDBRANCH  13  14
ENDBRANCH  12  13
ENDBRANCH   1  12
TORSDOF 14
ENDMDL
