MODEL 1
REMARK VINA RESULT:     9.195      0.000      0.000
REMARK INTER + INTRA:          13.465
REMARK INTER:                  14.034
REMARK INTRA:                  -0.569
REMARK UNBOUND:                -0.569
REMARK SMILES O=C([O-])CCCCCCCCC(=O)[O-]
REMARK SMILES IDX 7 1 6 2 5 3 4 4 2 5 1 6 3 7 8 8 9 9 10 10 11 11 12 12 13 13
REMARK SMILES IDX 14 14
REMARK H PARENT
REMARK Flexibility Score: inf
ROOT
ATOM      1  C   UNL     1     -16.064  60.007  -2.982  1.00  0.00     0.000 C 
ENDROOT
BRANCH   1   2
ATOM      2  C   UNL     1     -15.157  59.724  -4.191  1.00  0.00     0.000 C 
BRANCH   2   3
ATOM      3  C   UNL     1     -13.692  59.481  -3.789  1.00  0.00     0.006 C 
BRANCH   3   4
ATOM      4  C   UNL     1     -13.235  58.052  -4.106  1.00  0.00     0.053 C 
BRANCH   4   5
ATOM      5  C   UNL     1     -11.832  57.802  -3.645  1.00  0.00     0.041 C 
ATOM      6  O   UNL     1     -11.240  58.648  -2.925  1.00  0.00    -0.550 OA
ATOM      7  O   UNL     1     -11.188  56.620  -3.989  1.00  0.00    -0.550 OA
ENDBRANCH   4   5
ENDBRANCH   3   4
ENDBRANCH   2   3
ENDBRANCH   1   2
BRANCH   1   8
ATOM      8  C   UNL     1     -17.536  60.202  -3.377  1.00  0.00     0.000 C 
BRANCH   8   9
ATOM      9  C   UNL     1     -18.409  59.076  -2.810  1.00  0.00     0.000 C 
BRANCH   9  10
ATOM     10  C   UNL     1     -17.577  58.112  -1.951  1.00  0.00     0.006 C 
BRANCH  10  11
ATOM     11  C   UNL     1     -17.866  56.641  -2.281  1.00  0.00     0.053 C 
BRANCH  11  12
ATOM     12  C   UNL     1     -16.771  56.029  -3.099  1.00  0.00     0.041 C 
ATOM     13  O   UNL     1     -15.594  55.987  -2.653  1.00  0.00    -0.550 OA
ATOM     14  O   UNL     1     -17.042  55.535  -4.369  1.00  0.00    -0.550 OA
ENDBRANCH  11  12
ENDBRANCH  10  11
ENDBRANCH   9  10
ENDBRANCH   8   9
ENDBRANCH   1   8
TORSDOF 9
ENDMDL
MODEL 2
REMARK VINA RESULT:     9.245      3.680      5.736
REMARK INTER + INTRA:          13.540
REMARK INTER:                  13.950
REMARK INTRA:                  -0.411
REMARK UNBOUND:                -0.569
REMARK SMILES O=C([O-])CCCCCCCCC(=O)[O-]
REMARK SMILES IDX 7 1 6 2 5 3 4 4 2 5 1 6 3 7 8 8 9 9 10 10 11 11 12 12 13 13
REMARK SMILES IDX 14 14
REMARK H PARENT
REMARK Flexibility Score: inf
ROOT
ATOM      1  C   UNL     1     -18.095  58.426  -1.319  1.00  0.00     0.000 C 
ENDROOT
BRANCH   1   2
ATOM      2  C   UNL     1     -16.901  57.458  -1.360  1.00  0.00     0.000 C 
BRANCH   2   3
ATOM      3  C   UNL     1     -17.210  56.170  -2.144  1.00  0.00     0.006 C 
BRANCH   3   4
ATOM      4  C   UNL     1     -16.431  56.096  -3.463  1.00  0.00     0.053 C 
BRANCH   4   5
ATOM      5  C   UNL     1     -17.090  55.177  -4.447  1.00  0.00     0.041 C 
ATOM      6  O   UNL     1     -17.610  54.098  -4.058  1.00  0.00    -0.550 OA
ATOM      7  O   UNL     1     -17.153  55.527  -5.789  1.00  0.00    -0.550 OA
ENDBRANCH   4   5
ENDBRANCH   3   4
ENDBRANCH   2   3
ENDBRANCH   1   2
BRANCH   1   8
ATOM      8  C   UNL     1     -19.052  58.239  -2.506  1.00  0.00     0.000 C 
BRANCH   8   9
ATOM      9  C   UNL     1     -18.824  59.321  -3.568  1.00  0.00     0.000 C 
BRANCH   9  10
ATOM     10  C   UNL     1     -19.104  60.720  -2.999  1.00  0.00     0.006 C 
BRANCH  10  11
ATOM     11  C   UNL     1     -18.434  61.827  -3.824  1.00  0.00     0.053 C 
BRANCH  11  12
ATOM     12  C   UNL     1     -18.912  63.188  -3.421  1.00  0.00     0.041 C 
ATOM     13  O   UNL     1     -19.111  64.074  -4.294  1.00  0.00    -0.550 OA
ATOM     14  O   UNL     1     -19.106  63.490  -2.080  1.00  0.00    -0.550 OA
ENDBRANCH  11  12
ENDBRANCH  10  11
ENDBRANCH   9  10
ENDBRANCH   8   9
ENDBRANCH   1   8
TORSDOF 9
ENDMDL
MODEL 3
REMARK VINA RESULT:     9.271      0.170      4.708
REMARK INTER + INTRA:          13.580
REMARK INTER:                  14.194
REMARK INTRA:                  -0.615
REMARK UNBOUND:                -0.569
REMARK SMILES O=C([O-])CCCCCCCCC(=O)[O-]
REMARK SMILES IDX 7 1 6 2 5 3 4 4 2 5 1 6 3 7 8 8 9 9 10 10 11 11 12 12 13 13
REMARK SMILES IDX 14 14
REMARK H PARENT
REMARK Flexibility Score: inf
ROOT
ATOM      1  C   UNL     1     -17.506  60.270  -3.354  1.00  0.00     0.000 C 
ENDROOT
BRANCH   1   2
ATOM      2  C   UNL     1     -18.376  59.054  -2.993  1.00  0.00     0.000 C 
BRANCH   2   3
ATOM      3  C   UNL     1     -17.739  58.171  -1.906  1.00  0.00     0.006 C 
BRANCH   3   4
ATOM      4  C   UNL     1     -17.907  56.676  -2.204  1.00  0.00     0.053 C 
BRANCH   4   5
ATOM      5  C   UNL     1     -16.778  56.143  -3.031  1.00  0.00     0.041 C 
ATOM      6  O   UNL     1     -15.589  56.263  -2.634  1.00  0.00    -0.550 OA
ATOM      7  O   UNL     1     -17.041  55.489  -4.227  1.00  0.00    -0.550 OA
ENDBRANCH   4   5
ENDBRANCH   3   4
ENDBRANCH   2   3
ENDBRANCH   1   2
BRANCH   1   8
ATOM      8  C   UNL     1     -16.036  60.088  -2.947  1.00  0.00     0.000 C 
BRANCH   8   9
ATOM      9  C   UNL     1     -15.192  59.620  -4.138  1.00  0.00     0.000 C 
BRANCH   9  10
ATOM     10  C   UNL     1     -13.720  59.443  -3.735  1.00  0.00     0.006 C 
BRANCH  10  11
ATOM     11  C   UNL     1     -13.163  58.076  -4.155  1.00  0.00     0.053 C 
BRANCH  11  12
ATOM     12  C   UNL     1     -11.799  57.832  -3.585  1.00  0.00     0.041 C 
ATOM     13  O   UNL     1     -11.270  56.693  -3.675  1.00  0.00    -0.550 OA
ATOM     14  O   UNL     1     -11.126  58.853  -2.927  1.00  0.00    -0.550 OA
ENDBRANCH  11  12
ENDBRANCH  10  11
ENDBRANCH   9  10
ENDBRANCH   8   9
ENDBRANCH   1   8
TORSDOF 9
ENDMDL
MODEL 4
REMARK VINA RESULT:    10.095      3.542      5.288
REMARK INTER + INTRA:          14.837
REMARK INTER:                  14.980
REMARK INTRA:                  -0.143
REMARK UNBOUND:                -0.569
REMARK SMILES O=C([O-])CCCCCCCCC(=O)[O-]
REMARK SMILES IDX 7 1 6 2 5 3 4 4 2 5 1 6 3 7 8 8 9 9 10 10 11 11 12 12 13 13
REMARK SMILES IDX 14 14
REMARK H PARENT
REMARK Flexibility Score: inf
ROOT
ATOM      1  C   UNL     1     -17.230  58.881  -2.591  1.00  0.00     0.000 C 
ENDROOT
BRANCH   1   2
ATOM      2  C   UNL     1     -17.102  60.392  -2.846  1.00  0.00     0.000 C 
BRANCH   2   3
ATOM      3  C   UNL     1     -18.259  60.950  -3.692  1.00  0.00     0.006 C 
BRANCH   3   4
ATOM      4  C   UNL     1     -19.125  61.941  -2.905  1.00  0.00     0.053 C 
BRANCH   4   5
ATOM      5  C   UNL     1     -18.786  63.362  -3.236  1.00  0.00     0.041 C 
ATOM      6  O   UNL     1     -18.296  64.119  -2.357  1.00  0.00    -0.550 OA
ATOM      7  O   UNL     1     -18.986  63.842  -4.524  1.00  0.00    -0.550 OA
ENDBRANCH   4   5
ENDBRANCH   3   4
ENDBRANCH   2   3
ENDBRANCH   1   2
BRANCH   1   8
ATOM      8  C   UNL     1     -17.204  58.529  -1.096  1.00  0.00     0.000 C 
BRANCH   8   9
ATOM      9  C   UNL     1     -17.560  57.054  -0.874  1.00  0.00     0.000 C 
BRANCH   9  10
ATOM     10  C   UNL     1     -17.963  56.380  -2.194  1.00  0.00     0.006 C 
BRANCH  10  11
ATOM     11  C   UNL     1     -16.769  55.722  -2.900  1.00  0.00     0.053 C 
BRANCH  11  12
ATOM     12  C   UNL     1     -17.109  55.303  -4.296  1.00  0.00     0.041 C 
ATOM     13  O   UNL     1     -17.104  54.083  -4.610  1.00  0.00    -0.550 OA
ATOM     14  O   UNL     1     -17.400  56.259  -5.261  1.00  0.00    -0.550 OA
ENDBRANCH  11  12
ENDBRANCH  10  11
ENDBRANCH   9  10
ENDBRANCH   8   9
ENDBRANCH   1   8
TORSDOF 9
ENDMDL
MODEL 5
REMARK VINA RESULT:    10.128      1.579      4.538
REMARK INTER + INTRA:          14.888
REMARK INTER:                  15.092
REMARK INTRA:                  -0.204
REMARK UNBOUND:                -0.569
REMARK SMILES O=C([O-])CCCCCCCCC(=O)[O-]
REMARK SMILES IDX 7 1 6 2 5 3 4 4 2 5 1 6 3 7 8 8 9 9 10 10 11 11 12 12 13 13
REMARK SMILES IDX 14 14
REMARK H PARENT
REMARK Flexibility Score: inf
ROOT
ATOM      1  C   UNL     1     -18.437  58.593  -3.131  1.00  0.00     0.000 C 
ENDROOT
BRANCH   1   2
ATOM      2  C   UNL     1     -18.227  58.012  -1.723  1.00  0.00     0.000 C 
BRANCH   2   3
ATOM      3  C   UNL     1     -17.333  56.760  -1.726  1.00  0.00     0.006 C 
BRANCH   3   4
ATOM      4  C   UNL     1     -16.562  56.603  -3.043  1.00  0.00     0.053 C 
BRANCH   4   5
ATOM      5  C   UNL     1     -17.044  55.425  -3.833  1.00  0.00     0.041 C 
ATOM      6  O   UNL     1     -17.469  54.397  -3.243  1.00  0.00    -0.550 OA
ATOM      7  O   UNL     1     -17.048  55.474  -5.221  1.00  0.00    -0.550 OA
ENDBRANCH   4   5
ENDBRANCH   3   4
ENDBRANCH   2   3
ENDBRANCH   1   2
BRANCH   1   8
ATOM      8  C   UNL     1     -18.633  60.116  -3.120  1.00  0.00     0.000 C 
BRANCH   8   9
ATOM      9  C   UNL     1     -17.315  60.841  -3.417  1.00  0.00     0.000 C 
BRANCH   9  10
ATOM     10  C   UNL     1     -16.110  59.936  -3.119  1.00  0.00     0.006 C 
BRANCH  10  11
ATOM     11  C   UNL     1     -14.878  60.315  -3.953  1.00  0.00     0.053 C 
BRANCH  11  12
ATOM     12  C   UNL     1     -14.192  59.107  -4.513  1.00  0.00     0.041 C 
ATOM     13  O   UNL     1     -14.267  58.849  -5.743  1.00  0.00    -0.550 OA
ATOM     14  O   UNL     1     -13.497  58.248  -3.672  1.00  0.00    -0.550 OA
ENDBRANCH  11  12
ENDBRANCH  10  11
ENDBRANCH   9  10
ENDBRANCH   8   9
ENDBRANCH   1   8
TORSDOF 9
ENDMDL
MODEL 6
REMARK VINA RESULT:    11.107     10.657     12.995
REMARK INTER + INTRA:          16.382
REMARK INTER:                  16.847
REMARK INTRA:                  -0.465
REMARK UNBOUND:                -0.569
REMARK SMILES O=C([O-])CCCCCCCCC(=O)[O-]
REMARK SMILES IDX 7 1 6 2 5 3 4 4 2 5 1 6 3 7 8 8 9 9 10 10 11 11 12 12 13 13
REMARK SMILES IDX 14 14
REMARK H PARENT
REMARK Flexibility Score: inf
ROOT
ATOM      1  C   UNL     1      -5.058  50.096  -2.074  1.00  0.00     0.000 C 
ENDROOT
BRANCH   1   2
ATOM      2  C   UNL     1      -4.493  48.967  -1.197  1.00  0.00     0.000 C 
BRANCH   2   3
ATOM      3  C   UNL     1      -4.610  47.585  -1.862  1.00  0.00     0.006 C 
BRANCH   3   4
ATOM      4  C   UNL     1      -5.805  46.786  -1.327  1.00  0.00     0.053 C 
BRANCH   4   5
ATOM      5  C   UNL     1      -5.904  45.435  -1.968  1.00  0.00     0.041 C 
ATOM      6  O   UNL     1      -5.373  44.433  -1.420  1.00  0.00    -0.550 OA
ATOM      7  O   UNL     1      -6.605  45.280  -3.156  1.00  0.00    -0.550 OA
ENDBRANCH   4   5
ENDBRANCH   3   4
ENDBRANCH   2   3
ENDBRANCH   1   2
BRANCH   1   8
ATOM      8  C   UNL     1      -6.511  50.450  -1.722  1.00  0.00     0.000 C 
BRANCH   8   9
ATOM      9  C   UNL     1      -7.262  50.973  -2.952  1.00  0.00     0.000 C 
BRANCH   9  10
ATOM     10  C   UNL     1      -8.781  50.917  -2.735  1.00  0.00     0.006 C 
BRANCH  10  11
ATOM     11  C   UNL     1      -9.225  49.613  -2.059  1.00  0.00     0.053 C 
BRANCH  11  12
ATOM     12  C   UNL     1     -10.499  49.088  -2.645  1.00  0.00     0.041 C 
ATOM     13  O   UNL     1     -10.522  48.659  -3.830  1.00  0.00    -0.550 OA
ATOM     14  O   UNL     1     -11.669  49.102  -1.897  1.00  0.00    -0.550 OA
ENDBRANCH  11  12
ENDBRANCH  10  11
ENDBRANCH   9  10
ENDBRANCH   8   9
ENDBRANCH   1   8
TORSDOF 9
ENDMDL
MODEL 7
REMARK VINA RESULT:    11.111     10.732     13.517
REMARK INTER + INTRA:          16.388
REMARK INTER:                  16.849
REMARK INTRA:                  -0.461
REMARK UNBOUND:                -0.569
REMARK SMILES O=C([O-])CCCCCCCCC(=O)[O-]
REMARK SMILES IDX 7 1 6 2 5 3 4 4 2 5 1 6 3 7 8 8 9 9 10 10 11 11 12 12 13 13
REMARK SMILES IDX 14 14
REMARK H PARENT
REMARK Flexibility Score: inf
ROOT
ATOM      1  C   UNL     1      -6.330  50.570  -1.759  1.00  0.00     0.000 C 
ENDROOT
BRANCH   1   2
ATOM      2  C   UNL     1      -7.198  50.882  -2.990  1.00  0.00     0.000 C 
BRANCH   2   3
ATOM      3  C   UNL     1      -8.702  50.897  -2.665  1.00  0.00     0.006 C 
BRANCH   3   4
ATOM      4  C   UNL     1      -9.178  49.568  -2.066  1.00  0.00     0.053 C 
BRANCH   4   5
ATOM      5  C   UNL     1     -10.456  49.100  -2.694  1.00  0.00     0.041 C 
ATOM      6  O   UNL     1     -10.457  48.652  -3.871  1.00  0.00    -0.550 OA
ATOM      7  O   UNL     1     -11.638  49.133  -1.968  1.00  0.00    -0.550 OA
ENDBRANCH   4   5
ENDBRANCH   3   4
ENDBRANCH   2   3
ENDBRANCH   1   2
BRANCH   1   8
ATOM      8  C   UNL     1      -4.954  50.001  -2.133  1.00  0.00     0.000 C 
BRANCH   8   9
ATOM      9  C   UNL     1      -4.553  48.866  -1.183  1.00  0.00     0.000 C 
BRANCH   9  10
ATOM     10  C   UNL     1      -4.644  47.502  -1.883  1.00  0.00     0.006 C 
BRANCH  10  11
ATOM     11  C   UNL     1      -5.774  46.632  -1.315  1.00  0.00     0.053 C 
BRANCH  11  12
ATOM     12  C   UNL     1      -5.885  45.324  -2.037  1.00  0.00     0.041 C 
ATOM     13  O   UNL     1      -6.554  45.244  -3.102  1.00  0.00    -0.550 OA
ATOM     14  O   UNL     1      -5.280  44.187  -1.519  1.00  0.00    -0.550 OA
ENDBRANCH  11  12
ENDBRANCH  10  11
ENDBRANCH   9  10
ENDBRANCH   8   9
ENDBRANCH   1   8
TORSDOF 9
ENDMDL
MODEL 8
REMARK VINA RESULT:    11.801     10.584     12.375
REMARK INTER + INTRA:          17.441
REMARK INTER:                  17.328
REMARK INTRA:                   0.113
REMARK UNBOUND:                -0.569
REMARK SMILES O=C([O-])CCCCCCCCC(=O)[O-]
REMARK SMILES IDX 7 1 6 2 5 3 4 4 2 5 1 6 3 7 8 8 9 9 10 10 11 11 12 12 13 13
REMARK SMILES IDX 14 14
REMARK H PARENT
REMARK Flexibility Score: inf
ROOT
ATOM      1  C   UNL     1      -8.396  49.324  -1.621  1.00  0.00     0.000 C 
ENDROOT
BRANCH   1   2
ATOM      2  C   UNL     1      -8.235  47.804  -1.789  1.00  0.00     0.000 C 
BRANCH   2   3
ATOM      3  C   UNL     1      -6.944  47.270  -1.145  1.00  0.00     0.006 C 
BRANCH   3   4
ATOM      4  C   UNL     1      -6.973  45.747  -0.968  1.00  0.00     0.053 C 
BRANCH   4   5
ATOM      5  C   UNL     1      -6.144  45.050  -2.003  1.00  0.00     0.041 C 
ATOM      6  O   UNL     1      -5.198  44.295  -1.655  1.00  0.00    -0.550 OA
ATOM      7  O   UNL     1      -6.435  45.212  -3.351  1.00  0.00    -0.550 OA
ENDBRANCH   4   5
ENDBRANCH   3   4
ENDBRANCH   2   3
ENDBRANCH   1   2
BRANCH   1   8
ATOM      8  C   UNL     1      -9.152  49.973  -2.790  1.00  0.00     0.000 C 
BRANCH   8   9
ATOM      9  C   UNL     1     -10.124  48.977  -3.434  1.00  0.00     0.000 C 
BRANCH   9  10
ATOM     10  C   UNL     1     -11.509  49.054  -2.776  1.00  0.00     0.006 C 
BRANCH  10  11
ATOM     11  C   UNL     1     -11.422  49.140  -1.246  1.00  0.00     0.053 C 
BRANCH  11  12
ATOM     12  C   UNL     1     -12.765  48.987  -0.602  1.00  0.00     0.041 C 
ATOM     13  O   UNL     1     -13.598  49.932  -0.642  1.00  0.00    -0.550 OA
ATOM     14  O   UNL     1     -13.088  47.816   0.071  1.00  0.00    -0.550 OA
ENDBRANCH  11  12
ENDBRANCH  10  11
ENDBRANCH   9  10
ENDBRANCH   8   9
ENDBRANCH   1   8
TORSDOF 9
ENDMDL
