MODEL 1
REMARK VINA RESULT:    -3.120      0.000      0.000
REMARK INTER + INTRA:          -7.210
REMARK INTER:                  -4.762
REMARK INTRA:                  -2.448
REMARK UNBOUND:                -2.448
REMARK SMILES CC(=O)CCC=C(C)CCC=C(C)CCC=C(C)C
REMARK SMILES IDX 10 1 11 2 12 3 13 4 14 5 15 6 16 7 18 8 17 9 19 10 9 11 7 12
REMARK SMILES IDX 6 13 8 14 5 15 4 16 2 17 3 18 1 19
REMARK H PARENT
REMARK Flexibility Score: inf
ROOT
ATOM      1  C   UNL     1      77.918   1.891  66.988  1.00  0.00     0.032 C 
ENDROOT
BRANCH   1   2
ATOM      2  C   UNL     1      77.621   3.053  66.072  1.00  0.00    -0.028 C 
ATOM      3  C   UNL     1      78.494   3.533  65.157  1.00  0.00    -0.077 C 
ATOM      4  C   UNL     1      78.076   4.716  64.322  1.00  0.00     0.039 C 
BRANCH   3   5
ATOM      5  C   UNL     1      79.864   2.920  64.928  1.00  0.00     0.034 C 
BRANCH   5   6
ATOM      6  C   UNL     1      79.844   1.836  63.841  1.00  0.00     0.032 C 
BRANCH   6   7
ATOM      7  C   UNL     1      80.232   0.488  64.401  1.00  0.00    -0.028 C 
ATOM      8  C   UNL     1      79.944  -1.862  65.057  1.00  0.00     0.039 C 
ATOM      9  C   UNL     1      79.389  -0.558  64.544  1.00  0.00    -0.080 C 
ATOM     10  C   UNL     1      77.920  -0.460  64.205  1.00  0.00     0.039 C 
ENDBRANCH   6   7
ENDBRANCH   5   6
ENDBRANCH   3   5
ENDBRANCH   1   2
BRANCH   1  11
ATOM     11  C   UNL     1      78.516   2.369  68.316  1.00  0.00     0.034 C 
BRANCH  11  12
ATOM     12  C   UNL     1      79.997   2.067  68.379  1.00  0.00    -0.077 C 
ATOM     13  C   UNL     1      80.433   0.844  68.000  1.00  0.00    -0.028 C 
ATOM     14  C   UNL     1      80.945   3.132  68.878  1.00  0.00     0.039 C 
BRANCH  13  15
ATOM     15  C   UNL     1      81.883   0.429  67.962  1.00  0.00     0.035 C 
BRANCH  15  16
ATOM     16  C   UNL     1      82.096  -0.863  68.756  1.00  0.00     0.079 C 
BRANCH  16  17
ATOM     17  C   UNL     1      82.454  -1.999  67.836  1.00  0.00     0.130 C 
ATOM     18  O   UNL     1      83.118  -1.777  66.836  1.00  0.00    -0.300 OA
ATOM     19  C   UNL     1      82.021  -3.406  68.128  1.00  0.00     0.087 C 
ENDBRANCH  16  17
ENDBRANCH  15  16
ENDBRANCH  13  15
ENDBRANCH  11  12
ENDBRANCH   1  11
TORSDOF 9
ENDMDL
MODEL 2
REMARK VINA RESULT:    -3.022     17.602     19.632
REMARK INTER + INTRA:          -7.060
REMARK INTER:                  -4.257
REMARK INTRA:                  -2.803
REMARK UNBOUND:                -2.448
REMARK SMILES CC(=O)CCC=C(C)CCC=C(C)CCC=C(C)C
REMARK SMILES IDX 10 1 11 2 12 3 13 4 14 5 15 6 16 7 18 8 17 9 19 10 9 11 7 12
REMARK SMILES IDX 6 13 8 14 5 15 4 16 2 17 3 18 1 19
REMARK H PARENT
REMARK Flexibility Score: inf
ROOT
ATOM      1  C   UNL     1      70.349  -6.245  51.728  1.00  0.00     0.032 C 
ENDROOT
BRANCH   1   2
ATOM      2  C   UNL     1      71.728  -6.469  51.157  1.00  0.00    -0.028 C 
ATOM      3  C   UNL     1      72.168  -7.664  50.702  1.00  0.00    -0.077 C 
ATOM      4  C   UNL     1      73.579  -7.754  50.179  1.00  0.00     0.039 C 
BRANCH   3   5
ATOM      5  C   UNL     1      71.298  -8.909  50.684  1.00  0.00     0.034 C 
BRANCH   5   6
ATOM      6  C   UNL     1      71.943 -10.082  51.435  1.00  0.00     0.032 C 
BRANCH   6   7
ATOM      7  C   UNL     1      71.486 -10.135  52.873  1.00  0.00    -0.028 C 
ATOM      8  C   UNL     1      71.563  -9.719  55.293  1.00  0.00     0.039 C 
ATOM      9  C   UNL     1      72.186  -9.651  53.923  1.00  0.00    -0.080 C 
ATOM     10  C   UNL     1      73.560  -9.045  53.761  1.00  0.00     0.039 C 
ENDBRANCH   6   7
ENDBRANCH   5   6
ENDBRANCH   3   5
ENDBRANCH   1   2
BRANCH   1  11
ATOM     11  C   UNL     1      70.406  -6.008  53.241  1.00  0.00     0.034 C 
BRANCH  11  12
ATOM     12  C   UNL     1      69.498  -6.974  53.971  1.00  0.00    -0.077 C 
ATOM     13  C   UNL     1      68.867  -7.940  53.264  1.00  0.00    -0.028 C 
ATOM     14  C   UNL     1      69.306  -6.823  55.461  1.00  0.00     0.039 C 
BRANCH  13  15
ATOM     15  C   UNL     1      67.979  -8.998  53.871  1.00  0.00     0.035 C 
BRANCH  15  16
ATOM     16  C   UNL     1      66.532  -8.822  53.403  1.00  0.00     0.079 C 
BRANCH  16  17
ATOM     17  C   UNL     1      65.715  -8.118  54.453  1.00  0.00     0.130 C 
ATOM     18  O   UNL     1      65.137  -8.775  55.306  1.00  0.00    -0.300 OA
ATOM     19  C   UNL     1      65.602  -6.622  54.482  1.00  0.00     0.087 C 
ENDBRANCH  16  17
ENDBRANCH  15  16
ENDBRANCH  13  15
ENDBRANCH  11  12
ENDBRANCH   1  11
TORSDOF 9
ENDMDL
MODEL 3
REMARK VINA RESULT:    -2.986      2.781      5.686
REMARK INTER + INTRA:          -7.004
REMARK INTER:                  -4.696
REMARK INTRA:                  -2.308
REMARK UNBOUND:                -2.448
REMARK SMILES CC(=O)CCC=C(C)CCC=C(C)CCC=C(C)C
REMARK SMILES IDX 10 1 11 2 12 3 13 4 14 5 15 6 16 7 18 8 17 9 19 10 9 11 7 12
REMARK SMILES IDX 6 13 8 14 5 15 4 16 2 17 3 18 1 19
REMARK H PARENT
REMARK Flexibility Score: inf
ROOT
ATOM      1  C   UNL     1      80.677   0.967  68.298  1.00  0.00     0.032 C 
ENDROOT
BRANCH   1   2
ATOM      2  C   UNL     1      81.773  -0.012  67.954  1.00  0.00    -0.028 C 
ATOM      3  C   UNL     1      81.695  -0.902  66.939  1.00  0.00    -0.077 C 
ATOM      4  C   UNL     1      82.856  -1.839  66.720  1.00  0.00     0.039 C 
BRANCH   3   5
ATOM      5  C   UNL     1      80.499  -0.985  66.007  1.00  0.00     0.034 C 
BRANCH   5   6
ATOM      6  C   UNL     1      80.851  -0.577  64.569  1.00  0.00     0.032 C 
BRANCH   6   7
ATOM      7  C   UNL     1      79.636  -0.075  63.826  1.00  0.00    -0.028 C 
ATOM      8  C   UNL     1      78.341   0.810  61.936  1.00  0.00     0.039 C 
ATOM      9  C   UNL     1      79.651   0.409  62.564  1.00  0.00    -0.080 C 
ATOM     10  C   UNL     1      80.929   0.555  61.774  1.00  0.00     0.039 C 
ENDBRANCH   6   7
ENDBRANCH   5   6
ENDBRANCH   3   5
ENDBRANCH   1   2
BRANCH   1  11
ATOM     11  C   UNL     1      80.958   2.350  67.700  1.00  0.00     0.034 C 
BRANCH  11  12
ATOM     12  C   UNL     1      79.912   2.712  66.668  1.00  0.00    -0.077 C 
ATOM     13  C   UNL     1      80.315   3.177  65.463  1.00  0.00    -0.028 C 
ATOM     14  C   UNL     1      78.450   2.562  67.016  1.00  0.00     0.039 C 
BRANCH  13  15
ATOM     15  C   UNL     1      79.384   3.523  64.328  1.00  0.00     0.035 C 
BRANCH  15  16
ATOM     16  C   UNL     1      80.015   4.578  63.415  1.00  0.00     0.079 C 
BRANCH  16  17
ATOM     17  C   UNL     1      79.592   4.366  61.986  1.00  0.00     0.130 C 
ATOM     18  O   UNL     1      78.406   4.397  61.698  1.00  0.00    -0.300 OA
ATOM     19  C   UNL     1      80.601   4.128  60.900  1.00  0.00     0.087 C 
ENDBRANCH  16  17
ENDBRANCH  15  16
ENDBRANCH  13  15
ENDBRANCH  11  12
ENDBRANCH   1  11
TORSDOF 9
ENDMDL
MODEL 4
REMARK VINA RESULT:    -2.974      6.811      9.704
REMARK INTER + INTRA:          -6.986
REMARK INTER:                  -4.235
REMARK INTRA:                  -2.751
REMARK UNBOUND:                -2.448
REMARK SMILES CC(=O)CCC=C(C)CCC=C(C)CCC=C(C)C
REMARK SMILES IDX 10 1 11 2 12 3 13 4 14 5 15 6 16 7 18 8 17 9 19 10 9 11 7 12
REMARK SMILES IDX 6 13 8 14 5 15 4 16 2 17 3 18 1 19
REMARK H PARENT
REMARK Flexibility Score: inf
ROOT
ATOM      1  C   UNL     1      82.109   2.375  58.474  1.00  0.00     0.032 C 
ENDROOT
BRANCH   1   2
ATOM      2  C   UNL     1      82.509   2.076  57.049  1.00  0.00    -0.028 C 
ATOM      3  C   UNL     1      81.760   2.405  55.973  1.00  0.00    -0.077 C 
ATOM      4  C   UNL     1      82.268   2.025  54.605  1.00  0.00     0.039 C 
BRANCH   3   5
ATOM      5  C   UNL     1      80.442   3.152  56.085  1.00  0.00     0.034 C 
BRANCH   5   6
ATOM      6  C   UNL     1      80.449   4.468  55.294  1.00  0.00     0.032 C 
BRANCH   6   7
ATOM      7  C   UNL     1      81.472   5.435  55.841  1.00  0.00    -0.028 C 
ATOM      8  C   UNL     1      82.329   7.320  57.162  1.00  0.00     0.039 C 
ATOM      9  C   UNL     1      81.187   6.485  56.643  1.00  0.00    -0.080 C 
ATOM     10  C   UNL     1      79.771   6.839  57.033  1.00  0.00     0.039 C 
ENDBRANCH   6   7
ENDBRANCH   5   6
ENDBRANCH   3   5
ENDBRANCH   1   2
BRANCH   1  11
ATOM     11  C   UNL     1      82.811   3.633  58.995  1.00  0.00     0.034 C 
BRANCH  11  12
ATOM     12  C   UNL     1      81.832   4.537  59.713  1.00  0.00    -0.077 C 
ATOM     13  C   UNL     1      80.509   4.266  59.629  1.00  0.00    -0.028 C 
ATOM     14  C   UNL     1      82.355   5.724  60.486  1.00  0.00     0.039 C 
BRANCH  13  15
ATOM     15  C   UNL     1      79.431   5.049  60.336  1.00  0.00     0.035 C 
BRANCH  15  16
ATOM     16  C   UNL     1      78.618   4.137  61.259  1.00  0.00     0.079 C 
BRANCH  16  17
ATOM     17  C   UNL     1      79.427   3.742  62.465  1.00  0.00     0.130 C 
ATOM     18  O   UNL     1      79.746   2.574  62.620  1.00  0.00    -0.300 OA
ATOM     19  C   UNL     1      79.861   4.758  63.481  1.00  0.00     0.087 C 
ENDBRANCH  16  17
ENDBRANCH  15  16
ENDBRANCH  13  15
ENDBRANCH  11  12
ENDBRANCH   1  11
TORSDOF 9
ENDMDL
MODEL 5
REMARK VINA RESULT:    -2.961      1.735      4.434
REMARK INTER + INTRA:          -6.967
REMARK INTER:                  -4.436
REMARK INTRA:                  -2.531
REMARK UNBOUND:                -2.448
REMARK SMILES CC(=O)CCC=C(C)CCC=C(C)CCC=C(C)C
REMARK SMILES IDX 10 1 11 2 12 3 13 4 14 5 15 6 16 7 18 8 17 9 19 10 9 11 7 12
REMARK SMILES IDX 6 13 8 14 5 15 4 16 2 17 3 18 1 19
REMARK H PARENT
REMARK Flexibility Score: inf
ROOT
ATOM      1  C   UNL     1      79.220   2.072  66.074  1.00  0.00     0.032 C 
ENDROOT
BRANCH   1   2
ATOM      2  C   UNL     1      80.054   2.891  67.029  1.00  0.00    -0.028 C 
ATOM      3  C   UNL     1      80.496   2.437  68.223  1.00  0.00    -0.077 C 
ATOM      4  C   UNL     1      81.302   3.371  69.089  1.00  0.00     0.039 C 
BRANCH   3   5
ATOM      5  C   UNL     1      80.229   1.026  68.715  1.00  0.00     0.034 C 
BRANCH   5   6
ATOM      6  C   UNL     1      81.524   0.242  68.972  1.00  0.00     0.032 C 
BRANCH   6   7
ATOM      7  C   UNL     1      82.129  -0.259  67.682  1.00  0.00    -0.028 C 
ATOM      8  C   UNL     1      82.986  -1.901  66.068  1.00  0.00     0.039 C 
ATOM      9  C   UNL     1      82.452  -1.548  67.432  1.00  0.00    -0.080 C 
ATOM     10  C   UNL     1      82.288  -2.633  68.469  1.00  0.00     0.039 C 
ENDBRANCH   6   7
ENDBRANCH   5   6
ENDBRANCH   3   5
ENDBRANCH   1   2
BRANCH   1  11
ATOM     11  C   UNL     1      79.964   1.826  64.757  1.00  0.00     0.034 C 
BRANCH  11  12
ATOM     12  C   UNL     1      80.026   0.347  64.442  1.00  0.00    -0.077 C 
ATOM     13  C   UNL     1      79.417  -0.526  65.277  1.00  0.00    -0.028 C 
ATOM     14  C   UNL     1      80.779  -0.115  63.217  1.00  0.00     0.039 C 
BRANCH  13  15
ATOM     15  C   UNL     1      79.355  -2.017  65.055  1.00  0.00     0.035 C 
BRANCH  15  16
ATOM     16  C   UNL     1      79.129  -2.751  66.380  1.00  0.00     0.079 C 
BRANCH  16  17
ATOM     17  C   UNL     1      79.389  -4.225  66.221  1.00  0.00     0.130 C 
ATOM     18  O   UNL     1      80.538  -4.636  66.213  1.00  0.00    -0.300 OA
ATOM     19  C   UNL     1      78.261  -5.206  66.084  1.00  0.00     0.087 C 
ENDBRANCH  16  17
ENDBRANCH  15  16
ENDBRANCH  13  15
ENDBRANCH  11  12
ENDBRANCH   1  11
TORSDOF 9
ENDMDL
MODEL 6
REMARK VINA RESULT:    -2.908      6.133      8.918
REMARK INTER + INTRA:          -6.885
REMARK INTER:                  -4.329
REMARK INTRA:                  -2.556
REMARK UNBOUND:                -2.448
REMARK SMILES CC(=O)CCC=C(C)CCC=C(C)CCC=C(C)C
REMARK SMILES IDX 10 1 11 2 12 3 13 4 14 5 15 6 16 7 18 8 17 9 19 10 9 11 7 12
REMARK SMILES IDX 6 13 8 14 5 15 4 16 2 17 3 18 1 19
REMARK H PARENT
REMARK Flexibility Score: inf
ROOT
ATOM      1  C   UNL     1      78.874   3.741  57.791  1.00  0.00     0.032 C 
ENDROOT
BRANCH   1   2
ATOM      2  C   UNL     1      79.652   2.986  56.741  1.00  0.00    -0.028 C 
ATOM      3  C   UNL     1      80.585   3.554  55.943  1.00  0.00    -0.077 C 
ATOM      4  C   UNL     1      81.272   2.687  54.919  1.00  0.00     0.039 C 
BRANCH   3   5
ATOM      5  C   UNL     1      80.977   5.017  56.049  1.00  0.00     0.034 C 
BRANCH   5   6
ATOM      6  C   UNL     1      82.427   5.199  56.521  1.00  0.00     0.032 C 
BRANCH   6   7
ATOM      7  C   UNL     1      82.487   5.887  57.864  1.00  0.00    -0.028 C 
ATOM      8  C   UNL     1      82.819   6.100  60.289  1.00  0.00     0.039 C 
ATOM      9  C   UNL     1      82.724   5.263  59.039  1.00  0.00    -0.080 C 
ATOM     10  C   UNL     1      82.899   3.766  59.134  1.00  0.00     0.039 C 
ENDBRANCH   6   7
ENDBRANCH   5   6
ENDBRANCH   3   5
ENDBRANCH   1   2
BRANCH   1  11
ATOM     11  C   UNL     1      79.053   3.111  59.176  1.00  0.00     0.034 C 
BRANCH  11  12
ATOM     12  C   UNL     1      79.363   4.170  60.213  1.00  0.00    -0.077 C 
ATOM     13  C   UNL     1      79.845   3.786  61.417  1.00  0.00    -0.028 C 
ATOM     14  C   UNL     1      79.107   5.621  59.882  1.00  0.00     0.039 C 
BRANCH  13  15
ATOM     15  C   UNL     1      80.245   4.736  62.518  1.00  0.00     0.035 C 
BRANCH  15  16
ATOM     16  C   UNL     1      79.816   4.192  63.883  1.00  0.00     0.079 C 
BRANCH  16  17
ATOM     17  C   UNL     1      78.431   4.666  64.234  1.00  0.00     0.130 C 
ATOM     18  O   UNL     1      77.706   3.957  64.914  1.00  0.00    -0.300 OA
ATOM     19  C   UNL     1      77.923   6.001  63.772  1.00  0.00     0.087 C 
ENDBRANCH  16  17
ENDBRANCH  15  16
ENDBRANCH  13  15
ENDBRANCH  11  12
ENDBRANCH   1  11
TORSDOF 9
ENDMDL
MODEL 7
REMARK VINA RESULT:    -2.889      5.829      8.250
REMARK INTER + INTRA:          -6.856
REMARK INTER:                  -4.351
REMARK INTRA:                  -2.505
REMARK UNBOUND:                -2.448
REMARK SMILES CC(=O)CCC=C(C)CCC=C(C)CCC=C(C)C
REMARK SMILES IDX 10 1 11 2 12 3 13 4 14 5 15 6 16 7 18 8 17 9 19 10 9 11 7 12
REMARK SMILES IDX 6 13 8 14 5 15 4 16 2 17 3 18 1 19
REMARK H PARENT
REMARK Flexibility Score: inf
ROOT
ATOM      1  C   UNL     1      79.076   3.446  58.337  1.00  0.00     0.032 C 
ENDROOT
BRANCH   1   2
ATOM      2  C   UNL     1      79.225   4.067  56.969  1.00  0.00    -0.028 C 
ATOM      3  C   UNL     1      80.383   4.081  56.271  1.00  0.00    -0.077 C 
ATOM      4  C   UNL     1      80.396   4.757  54.924  1.00  0.00     0.039 C 
BRANCH   3   5
ATOM      5  C   UNL     1      81.658   3.432  56.780  1.00  0.00     0.034 C 
BRANCH   5   6
ATOM      6  C   UNL     1      82.810   4.437  56.915  1.00  0.00     0.032 C 
BRANCH   6   7
ATOM      7  C   UNL     1      83.031   4.833  58.356  1.00  0.00    -0.028 C 
ATOM      8  C   UNL     1      82.775   6.160  60.407  1.00  0.00     0.039 C 
ATOM      9  C   UNL     1      82.518   5.939  58.938  1.00  0.00    -0.080 C 
ATOM     10  C   UNL     1      81.700   6.948  58.168  1.00  0.00     0.039 C 
ENDBRANCH   6   7
ENDBRANCH   5   6
ENDBRANCH   3   5
ENDBRANCH   1   2
BRANCH   1  11
ATOM     11  C   UNL     1      78.973   4.519  59.426  1.00  0.00     0.034 C 
BRANCH  11  12
ATOM     12  C   UNL     1      79.741   4.104  60.663  1.00  0.00    -0.077 C 
ATOM     13  C   UNL     1      79.542   4.785  61.815  1.00  0.00    -0.028 C 
ATOM     14  C   UNL     1      80.719   2.957  60.574  1.00  0.00     0.039 C 
BRANCH  13  15
ATOM     15  C   UNL     1      80.198   4.445  63.131  1.00  0.00     0.035 C 
BRANCH  15  16
ATOM     16  C   UNL     1      79.234   3.663  64.028  1.00  0.00     0.079 C 
BRANCH  16  17
ATOM     17  C   UNL     1      79.964   2.580  64.776  1.00  0.00     0.130 C 
ATOM     18  O   UNL     1      80.217   1.526  64.214  1.00  0.00    -0.300 OA
ATOM     19  C   UNL     1      80.398   2.771  66.200  1.00  0.00     0.087 C 
ENDBRANCH  16  17
ENDBRANCH  15  16
ENDBRANCH  13  15
ENDBRANCH  11  12
ENDBRANCH   1  11
TORSDOF 9
ENDMDL
MODEL 8
REMARK VINA RESULT:    -2.865      2.468      4.794
REMARK INTER + INTRA:          -6.821
REMARK INTER:                  -3.914
REMARK INTRA:                  -2.907
REMARK UNBOUND:                -2.448
REMARK SMILES CC(=O)CCC=C(C)CCC=C(C)CCC=C(C)C
REMARK SMILES IDX 10 1 11 2 12 3 13 4 14 5 15 6 16 7 18 8 17 9 19 10 9 11 7 12
REMARK SMILES IDX 6 13 8 14 5 15 4 16 2 17 3 18 1 19
REMARK H PARENT
REMARK Flexibility Score: inf
ROOT
ATOM      1  C   UNL     1      79.844   1.513  62.198  1.00  0.00     0.032 C 
ENDROOT
BRANCH   1   2
ATOM      2  C   UNL     1      79.566   2.626  61.218  1.00  0.00    -0.028 C 
ATOM      3  C   UNL     1      79.567   3.937  61.549  1.00  0.00    -0.077 C 
ATOM      4  C   UNL     1      79.249   4.946  60.474  1.00  0.00     0.039 C 
BRANCH   3   5
ATOM      5  C   UNL     1      79.890   4.432  62.947  1.00  0.00     0.034 C 
BRANCH   5   6
ATOM      6  C   UNL     1      78.800   5.359  63.504  1.00  0.00     0.032 C 
BRANCH   6   7
ATOM      7  C   UNL     1      78.017   4.688  64.608  1.00  0.00    -0.028 C 
ATOM      8  C   UNL     1      76.237   3.334  65.624  1.00  0.00     0.039 C 
ATOM      9  C   UNL     1      76.864   4.006  64.430  1.00  0.00    -0.080 C 
ATOM     10  C   UNL     1      76.196   3.895  63.080  1.00  0.00     0.039 C 
ENDBRANCH   6   7
ENDBRANCH   5   6
ENDBRANCH   3   5
ENDBRANCH   1   2
BRANCH   1  11
ATOM     11  C   UNL     1      78.551   0.806  62.618  1.00  0.00     0.034 C 
BRANCH  11  12
ATOM     12  C   UNL     1      78.464   0.694  64.125  1.00  0.00    -0.077 C 
ATOM     13  C   UNL     1      79.429   1.268  64.880  1.00  0.00    -0.028 C 
ATOM     14  C   UNL     1      77.317  -0.069  64.743  1.00  0.00     0.039 C 
BRANCH  13  15
ATOM     15  C   UNL     1      79.437   1.279  66.389  1.00  0.00     0.035 C 
BRANCH  15  16
ATOM     16  C   UNL     1      80.054   2.578  66.915  1.00  0.00     0.079 C 
BRANCH  16  17
ATOM     17  C   UNL     1      80.985   2.297  68.064  1.00  0.00     0.130 C 
ATOM     18  O   UNL     1      81.546   1.215  68.133  1.00  0.00    -0.300 OA
ATOM     19  C   UNL     1      81.249   3.325  69.125  1.00  0.00     0.087 C 
ENDBRANCH  16  17
ENDBRANCH  15  16
ENDBRANCH  13  15
ENDBRANCH  11  12
ENDBRANCH   1  11
TORSDOF 9
ENDMDL
