MODEL 1
REMARK VINA RESULT:    -3.345      0.000      0.000
REMARK INTER + INTRA:         -12.225
REMARK INTER:                  -8.429
REMARK INTRA:                  -3.796
REMARK UNBOUND:                -3.796
REMARK SMILES CCCCCCCCCCCCCCCCCCCCCCCCCCCC(=O)[O-]
REMARK SMILES IDX 15 1 16 2 17 3 18 4 19 5 20 6 21 7 22 8 23 9 24 10 25 11
REMARK SMILES IDX 26 12 27 13 28 14 29 15 30 16 14 17 13 18 12 19 11 20 10 21
REMARK SMILES IDX 9 22 8 23 7 24 6 25 5 26 4 27 3 28 2 29 1 30
REMARK H PARENT
REMARK Flexibility Score: inf
ROOT
ATOM      1  C   UNL     1       0.498  -0.220  -5.669  1.00  0.00     0.000 C 
ENDROOT
BRANCH   1   2
ATOM      2  C   UNL     1       0.241   1.238  -5.258  1.00  0.00     0.000 C 
BRANCH   2   3
ATOM      3  C   UNL     1       1.487   2.126  -5.406  1.00  0.00     0.000 C 
BRANCH   3   4
ATOM      4  C   UNL     1       2.340   2.178  -4.126  1.00  0.00     0.000 C 
BRANCH   4   5
ATOM      5  C   UNL     1       3.422   3.280  -4.149  1.00  0.00     0.000 C 
BRANCH   5   6
ATOM      6  C   UNL     1       3.499   3.989  -5.511  1.00  0.00     0.000 C 
BRANCH   6   7
ATOM      7  C   UNL     1       3.249   5.502  -5.413  1.00  0.00     0.000 C 
BRANCH   7   8
ATOM      8  C   UNL     1       3.366   6.031  -3.976  1.00  0.00     0.000 C 
BRANCH   8   9
ATOM      9  C   UNL     1       2.486   7.276  -3.778  1.00  0.00     0.000 C 
BRANCH   9  10
ATOM     10  C   UNL     1       1.708   7.661  -5.046  1.00  0.00     0.000 C 
BRANCH  10  11
ATOM     11  C   UNL     1       0.234   7.991  -4.752  1.00  0.00     0.000 C 
BRANCH  11  12
ATOM     12  C   UNL     1      -0.735   7.348  -5.761  1.00  0.00     0.006 C 
BRANCH  12  13
ATOM     13  C   UNL     1      -2.202   7.778  -5.596  1.00  0.00     0.053 C 
BRANCH  13  14
ATOM     14  C   UNL     1      -3.020   6.744  -4.887  1.00  0.00     0.041 C 
ATOM     15  O   UNL     1      -2.743   6.419  -3.702  1.00  0.00    -0.550 OA
ATOM     16  O   UNL     1      -4.093   6.142  -5.534  1.00  0.00    -0.550 OA
ENDBRANCH  13  14
ENDBRANCH  12  13
ENDBRANCH  11  12
ENDBRANCH  10  11
ENDBRANCH   9  10
ENDBRANCH   8   9
ENDBRANCH   7   8
ENDBRANCH   6   7
ENDBRANCH   5   6
ENDBRANCH   4   5
ENDBRANCH   3   4
ENDBRANCH   2   3
ENDBRANCH   1   2
BRANCH   1  17
ATOM     17  C   UNL     1       0.255  -1.214  -4.521  1.00  0.00     0.000 C 
BRANCH  17  18
ATOM     18  C   UNL     1       1.551  -1.935  -4.094  1.00  0.00     0.000 C 
BRANCH  18  19
ATOM     19  C   UNL     1       2.820  -1.370  -4.755  1.00  0.00     0.000 C 
BRANCH  19  20
ATOM     20  C   UNL     1       3.990  -1.224  -3.774  1.00  0.00     0.000 C 
BRANCH  20  21
ATOM     21  C   UNL     1       5.109  -0.359  -4.374  1.00  0.00     0.000 C 
BRANCH  21  22
ATOM     22  C   UNL     1       4.780   0.156  -5.788  1.00  0.00    -0.000 C 
BRANCH  22  23
ATOM     23  C   UNL     1       5.797  -0.229  -6.878  1.00  0.00    -0.000 C 
BRANCH  23  24
ATOM     24  C   UNL     1       7.220  -0.420  -6.327  1.00  0.00    -0.000 C 
BRANCH  24  25
ATOM     25  C   UNL     1       8.213   0.615  -6.885  1.00  0.00    -0.000 C 
BRANCH  25  26
ATOM     26  C   UNL     1       8.513   1.750  -5.890  1.00  0.00    -0.000 C 
BRANCH  26  27
ATOM     27  C   UNL     1       7.417   2.827  -5.876  1.00  0.00    -0.000 C 
BRANCH  27  28
ATOM     28  C   UNL     1       7.492   3.734  -4.639  1.00  0.00    -0.000 C 
BRANCH  28  29
ATOM     29  C   UNL     1       6.878   5.109  -4.927  1.00  0.00    -0.003 C 
ATOM     30  C   UNL     1       7.379   5.670  -6.255  1.00  0.00     0.004 C 
ENDBRANCH  28  29
ENDBRANCH  27  28
ENDBRANCH  26  27
ENDBRANCH  25  26
ENDBRANCH  24  25
ENDBRANCH  23  24
ENDBRANCH  22  23
ENDBRANCH  21  22
ENDBRANCH  20  21
ENDBRANCH  19  20
ENDBRANCH  18  19
ENDBRANCH  17  18
ENDBRANCH   1  17
TORSDOF 26
ENDMDL
MODEL 2
REMARK VINA RESULT:    -3.278      3.051      7.633
REMARK INTER + INTRA:         -12.056
REMARK INTER:                  -7.178
REMARK INTRA:                  -4.878
REMARK UNBOUND:                -3.796
REMARK SMILES CCCCCCCCCCCCCCCCCCCCCCCCCCCC(=O)[O-]
REMARK SMILES IDX 15 1 16 2 17 3 18 4 19 5 20 6 21 7 22 8 23 9 24 10 25 11
REMARK SMILES IDX 26 12 27 13 28 14 29 15 30 16 14 17 13 18 12 19 11 20 10 21
REMARK SMILES IDX 9 22 8 23 7 24 6 25 5 26 4 27 3 28 2 29 1 30
REMARK H PARENT
REMARK Flexibility Score: inf
ROOT
ATOM      1  C   UNL     1       0.195   1.598  -6.747  1.00  0.00     0.000 C 
ENDROOT
BRANCH   1   2
ATOM      2  C   UNL     1      -0.302   1.662  -5.295  1.00  0.00     0.000 C 
BRANCH   2   3
ATOM      3  C   UNL     1       0.483   0.732  -4.355  1.00  0.00     0.000 C 
BRANCH   3   4
ATOM      4  C   UNL     1       0.834  -0.617  -5.005  1.00  0.00     0.000 C 
BRANCH   4   5
ATOM      5  C   UNL     1       2.351  -0.834  -5.196  1.00  0.00     0.000 C 
BRANCH   5   6
ATOM      6  C   UNL     1       3.187   0.085  -4.290  1.00  0.00     0.000 C 
BRANCH   6   7
ATOM      7  C   UNL     1       4.664   0.154  -4.707  1.00  0.00     0.000 C 
BRANCH   7   8
ATOM      8  C   UNL     1       4.875  -0.154  -6.197  1.00  0.00     0.000 C 
BRANCH   8   9
ATOM      9  C   UNL     1       5.954   0.762  -6.797  1.00  0.00     0.000 C 
BRANCH   9  10
ATOM     10  C   UNL     1       7.341   0.533  -6.176  1.00  0.00     0.000 C 
BRANCH  10  11
ATOM     11  C   UNL     1       8.112   1.847  -5.963  1.00  0.00     0.000 C 
BRANCH  11  12
ATOM     12  C   UNL     1       7.193   3.025  -5.595  1.00  0.00     0.006 C 
BRANCH  12  13
ATOM     13  C   UNL     1       7.303   4.235  -6.538  1.00  0.00     0.053 C 
BRANCH  13  14
ATOM     14  C   UNL     1       7.737   5.476  -5.821  1.00  0.00     0.041 C 
ATOM     15  O   UNL     1       8.548   5.403  -4.860  1.00  0.00    -0.550 OA
ATOM     16  O   UNL     1       7.248   6.716  -6.217  1.00  0.00    -0.550 OA
ENDBRANCH  13  14
ENDBRANCH  12  13
ENDBRANCH  11  12
ENDBRANCH  10  11
ENDBRANCH   9  10
ENDBRANCH   8   9
ENDBRANCH   7   8
ENDBRANCH   6   7
ENDBRANCH   5   6
ENDBRANCH   4   5
ENDBRANCH   3   4
ENDBRANCH   2   3
ENDBRANCH   1   2
BRANCH   1  17
ATOM     17  C   UNL     1       1.085   2.795  -7.125  1.00  0.00     0.000 C 
BRANCH  17  18
ATOM     18  C   UNL     1       2.587   2.450  -7.041  1.00  0.00     0.000 C 
BRANCH  18  19
ATOM     19  C   UNL     1       3.416   3.484  -6.259  1.00  0.00     0.000 C 
BRANCH  19  20
ATOM     20  C   UNL     1       3.067   3.523  -4.766  1.00  0.00     0.000 C 
BRANCH  20  21
ATOM     21  C   UNL     1       4.174   4.219  -3.959  1.00  0.00     0.000 C 
BRANCH  21  22
ATOM     22  C   UNL     1       4.199   5.745  -4.162  1.00  0.00    -0.000 C 
BRANCH  22  23
ATOM     23  C   UNL     1       3.096   6.523  -3.421  1.00  0.00    -0.000 C 
BRANCH  23  24
ATOM     24  C   UNL     1       2.213   7.355  -4.367  1.00  0.00    -0.000 C 
BRANCH  24  25
ATOM     25  C   UNL     1       2.445   7.009  -5.848  1.00  0.00    -0.000 C 
BRANCH  25  26
ATOM     26  C   UNL     1       1.237   7.353  -6.737  1.00  0.00    -0.000 C 
BRANCH  26  27
ATOM     27  C   UNL     1      -0.006   7.739  -5.919  1.00  0.00    -0.000 C 
BRANCH  27  28
ATOM     28  C   UNL     1      -1.300   7.137  -6.485  1.00  0.00    -0.000 C 
BRANCH  28  29
ATOM     29  C   UNL     1      -1.085   5.685  -6.926  1.00  0.00    -0.003 C 
ATOM     30  C   UNL     1      -2.119   4.757  -6.293  1.00  0.00     0.004 C 
ENDBRANCH  28  29
ENDBRANCH  27  28
ENDBRANCH  26  27
ENDBRANCH  25  26
ENDBRANCH  24  25
ENDBRANCH  23  24
ENDBRANCH  22  23
ENDBRANCH  21  22
ENDBRANCH  20  21
ENDBRANCH  19  20
ENDBRANCH  18  19
ENDBRANCH  17  18
ENDBRANCH   1  17
TORSDOF 26
ENDMDL
MODEL 3
REMARK VINA RESULT:    -3.253      3.264      8.286
REMARK INTER + INTRA:         -11.993
REMARK INTER:                  -7.736
REMARK INTRA:                  -4.257
REMARK UNBOUND:                -3.796
REMARK SMILES CCCCCCCCCCCCCCCCCCCCCCCCCCCC(=O)[O-]
REMARK SMILES IDX 15 1 16 2 17 3 18 4 19 5 20 6 21 7 22 8 23 9 24 10 25 11
REMARK SMILES IDX 26 12 27 13 28 14 29 15 30 16 14 17 13 18 12 19 11 20 10 21
REMARK SMILES IDX 9 22 8 23 7 24 6 25 5 26 4 27 3 28 2 29 1 30
REMARK H PARENT
REMARK Flexibility Score: inf
ROOT
ATOM      1  C   UNL     1       1.439   2.899  -5.586  1.00  0.00     0.000 C 
ENDROOT
BRANCH   1   2
ATOM      2  C   UNL     1       0.152   2.067  -5.690  1.00  0.00     0.000 C 
BRANCH   2   3
ATOM      3  C   UNL     1       0.111   0.905  -4.684  1.00  0.00     0.000 C 
BRANCH   3   4
ATOM      4  C   UNL     1      -0.093  -0.462  -5.358  1.00  0.00     0.000 C 
BRANCH   4   5
ATOM      5  C   UNL     1       1.223  -1.130  -5.812  1.00  0.00     0.000 C 
BRANCH   5   6
ATOM      6  C   UNL     1       1.786  -0.493  -7.093  1.00  0.00     0.000 C 
BRANCH   6   7
ATOM      7  C   UNL     1       3.208   0.059  -6.912  1.00  0.00     0.000 C 
BRANCH   7   8
ATOM      8  C   UNL     1       3.693  -0.014  -5.456  1.00  0.00     0.000 C 
BRANCH   8   9
ATOM      9  C   UNL     1       5.223  -0.152  -5.394  1.00  0.00     0.000 C 
BRANCH   9  10
ATOM     10  C   UNL     1       5.903   0.188  -6.730  1.00  0.00     0.000 C 
BRANCH  10  11
ATOM     11  C   UNL     1       7.367  -0.285  -6.779  1.00  0.00     0.000 C 
BRANCH  11  12
ATOM     12  C   UNL     1       8.372   0.857  -6.546  1.00  0.00     0.006 C 
BRANCH  12  13
ATOM     13  C   UNL     1       7.730   2.198  -6.151  1.00  0.00     0.053 C 
BRANCH  13  14
ATOM     14  C   UNL     1       8.028   2.573  -4.732  1.00  0.00     0.041 C 
ATOM     15  O   UNL     1       7.301   2.145  -3.797  1.00  0.00    -0.550 OA
ATOM     16  O   UNL     1       9.113   3.393  -4.442  1.00  0.00    -0.550 OA
ENDBRANCH  13  14
ENDBRANCH  12  13
ENDBRANCH  11  12
ENDBRANCH  10  11
ENDBRANCH   9  10
ENDBRANCH   8   9
ENDBRANCH   7   8
ENDBRANCH   6   7
ENDBRANCH   5   6
ENDBRANCH   4   5
ENDBRANCH   3   4
ENDBRANCH   2   3
ENDBRANCH   1   2
BRANCH   1  17
ATOM     17  C   UNL     1       1.781   3.633  -6.894  1.00  0.00     0.000 C 
BRANCH  17  18
ATOM     18  C   UNL     1       3.215   4.203  -6.882  1.00  0.00     0.000 C 
BRANCH  18  19
ATOM     19  C   UNL     1       4.169   3.458  -5.932  1.00  0.00     0.000 C 
BRANCH  19  20
ATOM     20  C   UNL     1       4.837   4.386  -4.908  1.00  0.00     0.000 C 
BRANCH  20  21
ATOM     21  C   UNL     1       3.859   4.763  -3.785  1.00  0.00     0.000 C 
BRANCH  21  22
ATOM     22  C   UNL     1       3.875   6.267  -3.453  1.00  0.00    -0.000 C 
BRANCH  22  23
ATOM     23  C   UNL     1       2.562   7.017  -3.747  1.00  0.00    -0.000 C 
BRANCH  23  24
ATOM     24  C   UNL     1       2.257   7.121  -5.250  1.00  0.00    -0.000 C 
BRANCH  24  25
ATOM     25  C   UNL     1       0.770   7.397  -5.533  1.00  0.00    -0.000 C 
BRANCH  25  26
ATOM     26  C   UNL     1       0.369   7.072  -6.983  1.00  0.00    -0.000 C 
BRANCH  26  27
ATOM     27  C   UNL     1      -1.128   6.756  -7.124  1.00  0.00    -0.000 C 
BRANCH  27  28
ATOM     28  C   UNL     1      -1.486   5.346  -6.632  1.00  0.00    -0.000 C 
BRANCH  28  29
ATOM     29  C   UNL     1      -2.760   5.367  -5.781  1.00  0.00    -0.003 C 
ATOM     30  C   UNL     1      -2.840   6.636  -4.937  1.00  0.00     0.004 C 
ENDBRANCH  28  29
ENDBRANCH  27  28
ENDBRANCH  26  27
ENDBRANCH  25  26
ENDBRANCH  24  25
ENDBRANCH  23  24
ENDBRANCH  22  23
ENDBRANCH  21  22
ENDBRANCH  20  21
ENDBRANCH  19  20
ENDBRANCH  18  19
ENDBRANCH  17  18
ENDBRANCH   1  17
TORSDOF 26
ENDMDL
MODEL 4
REMARK VINA RESULT:    -3.215      1.590      2.136
REMARK INTER + INTRA:         -11.897
REMARK INTER:                  -7.665
REMARK INTRA:                  -4.232
REMARK UNBOUND:                -3.796
REMARK SMILES CCCCCCCCCCCCCCCCCCCCCCCCCCCC(=O)[O-]
REMARK SMILES IDX 15 1 16 2 17 3 18 4 19 5 20 6 21 7 22 8 23 9 24 10 25 11
REMARK SMILES IDX 26 12 27 13 28 14 29 15 30 16 14 17 13 18 12 19 11 20 10 21
REMARK SMILES IDX 9 22 8 23 7 24 6 25 5 26 4 27 3 28 2 29 1 30
REMARK H PARENT
REMARK Flexibility Score: inf
ROOT
ATOM      1  C   UNL     1      -0.609  -0.868  -4.139  1.00  0.00     0.000 C 
ENDROOT
BRANCH   1   2
ATOM      2  C   UNL     1      -0.269   0.603  -3.856  1.00  0.00     0.000 C 
BRANCH   2   3
ATOM      3  C   UNL     1       0.553   1.252  -4.982  1.00  0.00     0.000 C 
BRANCH   3   4
ATOM      4  C   UNL     1       1.972   1.643  -4.537  1.00  0.00     0.000 C 
BRANCH   4   5
ATOM      5  C   UNL     1       2.962   1.814  -5.710  1.00  0.00     0.000 C 
BRANCH   5   6
ATOM      6  C   UNL     1       3.065   3.277  -6.173  1.00  0.00     0.000 C 
BRANCH   6   7
ATOM      7  C   UNL     1       4.314   3.989  -5.632  1.00  0.00     0.000 C 
BRANCH   7   8
ATOM      8  C   UNL     1       4.451   3.872  -4.107  1.00  0.00     0.000 C 
BRANCH   8   9
ATOM      9  C   UNL     1       3.589   4.928  -3.397  1.00  0.00     0.000 C 
BRANCH   9  10
ATOM     10  C   UNL     1       3.678   6.311  -4.060  1.00  0.00     0.000 C 
BRANCH  10  11
ATOM     11  C   UNL     1       2.337   7.065  -4.025  1.00  0.00     0.000 C 
BRANCH  11  12
ATOM     12  C   UNL     1       1.956   7.669  -5.389  1.00  0.00     0.006 C 
BRANCH  12  13
ATOM     13  C   UNL     1       1.606   6.631  -6.469  1.00  0.00     0.053 C 
BRANCH  13  14
ATOM     14  C   UNL     1       0.225   6.079  -6.298  1.00  0.00     0.041 C 
ATOM     15  O   UNL     1      -0.695   6.802  -5.833  1.00  0.00    -0.550 OA
ATOM     16  O   UNL     1      -0.047   4.763  -6.657  1.00  0.00    -0.550 OA
ENDBRANCH  13  14
ENDBRANCH  12  13
ENDBRANCH  11  12
ENDBRANCH  10  11
ENDBRANCH   9  10
ENDBRANCH   8   9
ENDBRANCH   7   8
ENDBRANCH   6   7
ENDBRANCH   5   6
ENDBRANCH   4   5
ENDBRANCH   3   4
ENDBRANCH   2   3
ENDBRANCH   1   2
BRANCH   1  17
ATOM     17  C   UNL     1       0.032  -1.832  -3.125  1.00  0.00     0.000 C 
BRANCH  17  18
ATOM     18  C   UNL     1       1.068  -2.765  -3.786  1.00  0.00     0.000 C 
BRANCH  18  19
ATOM     19  C   UNL     1       2.252  -2.019  -4.426  1.00  0.00     0.000 C 
BRANCH  19  20
ATOM     20  C   UNL     1       3.340  -1.642  -3.411  1.00  0.00     0.000 C 
BRANCH  20  21
ATOM     21  C   UNL     1       4.645  -1.250  -4.121  1.00  0.00     0.000 C 
BRANCH  21  22
ATOM     22  C   UNL     1       5.382  -0.090  -3.427  1.00  0.00    -0.000 C 
BRANCH  22  23
ATOM     23  C   UNL     1       6.134   0.867  -4.371  1.00  0.00    -0.000 C 
BRANCH  23  24
ATOM     24  C   UNL     1       6.639   0.173  -5.646  1.00  0.00    -0.000 C 
BRANCH  24  25
ATOM     25  C   UNL     1       7.749   0.970  -6.352  1.00  0.00    -0.000 C 
BRANCH  25  26
ATOM     26  C   UNL     1       7.286   2.367  -6.803  1.00  0.00    -0.000 C 
BRANCH  26  27
ATOM     27  C   UNL     1       8.267   3.475  -6.390  1.00  0.00    -0.000 C 
BRANCH  27  28
ATOM     28  C   UNL     1       8.077   3.925  -4.934  1.00  0.00    -0.000 C 
BRANCH  28  29
ATOM     29  C   UNL     1       8.061   5.453  -4.827  1.00  0.00    -0.003 C 
ATOM     30  C   UNL     1       7.243   6.077  -5.955  1.00  0.00     0.004 C 
ENDBRANCH  28  29
ENDBRANCH  27  28
ENDBRANCH  26  27
ENDBRANCH  25  26
ENDBRANCH  24  25
ENDBRANCH  23  24
ENDBRANCH  22  23
ENDBRANCH  21  22
ENDBRANCH  20  21
ENDBRANCH  19  20
ENDBRANCH  18  19
ENDBRANCH  17  18
ENDBRANCH   1  17
TORSDOF 26
ENDMDL
MODEL 5
REMARK VINA RESULT:    -3.024      1.331      5.363
REMARK INTER + INTRA:         -11.417
REMARK INTER:                  -7.949
REMARK INTRA:                  -3.468
REMARK UNBOUND:                -3.796
REMARK SMILES CCCCCCCCCCCCCCCCCCCCCCCCCCCC(=O)[O-]
REMARK SMILES IDX 15 1 16 2 17 3 18 4 19 5 20 6 21 7 22 8 23 9 24 10 25 11
REMARK SMILES IDX 26 12 27 13 28 14 29 15 30 16 14 17 13 18 12 19 11 20 10 21
REMARK SMILES IDX 9 22 8 23 7 24 6 25 5 26 4 27 3 28 2 29 1 30
REMARK H PARENT
REMARK Flexibility Score: inf
ROOT
ATOM      1  C   UNL     1       6.891   2.076  -5.302  1.00  0.00     0.000 C 
ENDROOT
BRANCH   1   2
ATOM      2  C   UNL     1       7.735   3.246  -5.830  1.00  0.00     0.000 C 
BRANCH   2   3
ATOM      3  C   UNL     1       7.772   4.439  -4.860  1.00  0.00     0.000 C 
BRANCH   3   4
ATOM      4  C   UNL     1       6.986   5.655  -5.378  1.00  0.00     0.000 C 
BRANCH   4   5
ATOM      5  C   UNL     1       6.376   5.444  -6.781  1.00  0.00     0.000 C 
BRANCH   5   6
ATOM      6  C   UNL     1       4.917   5.924  -6.857  1.00  0.00     0.000 C 
BRANCH   6   7
ATOM      7  C   UNL     1       3.984   5.155  -5.909  1.00  0.00     0.000 C 
BRANCH   7   8
ATOM      8  C   UNL     1       2.817   6.012  -5.399  1.00  0.00     0.000 C 
BRANCH   8   9
ATOM      9  C   UNL     1       2.142   6.764  -6.558  1.00  0.00     0.000 C 
BRANCH   9  10
ATOM     10  C   UNL     1       1.258   7.926  -6.077  1.00  0.00     0.000 C 
BRANCH  10  11
ATOM     11  C   UNL     1      -0.223   7.724  -6.438  1.00  0.00     0.000 C 
BRANCH  11  12
ATOM     12  C   UNL     1      -1.025   7.044  -5.312  1.00  0.00     0.006 C 
BRANCH  12  13
ATOM     13  C   UNL     1      -2.397   7.679  -5.036  1.00  0.00     0.053 C 
BRANCH  13  14
ATOM     14  C   UNL     1      -3.418   6.666  -4.618  1.00  0.00     0.041 C 
ATOM     15  O   UNL     1      -3.736   6.549  -3.405  1.00  0.00    -0.550 OA
ATOM     16  O   UNL     1      -4.022   5.853  -5.571  1.00  0.00    -0.550 OA
ENDBRANCH  13  14
ENDBRANCH  12  13
ENDBRANCH  11  12
ENDBRANCH  10  11
ENDBRANCH   9  10
ENDBRANCH   8   9
ENDBRANCH   7   8
ENDBRANCH   6   7
ENDBRANCH   5   6
ENDBRANCH   4   5
ENDBRANCH   3   4
ENDBRANCH   2   3
ENDBRANCH   1   2
BRANCH   1  17
ATOM     17  C   UNL     1       6.092   2.441  -4.039  1.00  0.00     0.000 C 
BRANCH  17  18
ATOM     18  C   UNL     1       5.685   1.192  -3.229  1.00  0.00     0.000 C 
BRANCH  18  19
ATOM     19  C   UNL     1       6.180  -0.130  -3.840  1.00  0.00     0.000 C 
BRANCH  19  20
ATOM     20  C   UNL     1       5.035  -1.041  -4.303  1.00  0.00     0.000 C 
BRANCH  20  21
ATOM     21  C   UNL     1       3.739  -0.240  -4.500  1.00  0.00     0.000 C 
BRANCH  21  22
ATOM     22  C   UNL     1       3.633   0.399  -5.898  1.00  0.00    -0.000 C 
BRANCH  22  23
ATOM     23  C   UNL     1       2.693   1.615  -5.993  1.00  0.00    -0.000 C 
BRANCH  23  24
ATOM     24  C   UNL     1       2.225   2.117  -4.617  1.00  0.00    -0.000 C 
BRANCH  24  25
ATOM     25  C   UNL     1       0.919   1.447  -4.156  1.00  0.00    -0.000 C 
BRANCH  25  26
ATOM     26  C   UNL     1       0.162   0.763  -5.309  1.00  0.00    -0.000 C 
BRANCH  26  27
ATOM     27  C   UNL     1      -0.178  -0.704  -5.003  1.00  0.00    -0.000 C 
BRANCH  27  28
ATOM     28  C   UNL     1       0.671  -1.692  -5.815  1.00  0.00    -0.000 C 
BRANCH  28  29
ATOM     29  C   UNL     1       1.355  -2.712  -4.898  1.00  0.00    -0.003 C 
ATOM     30  C   UNL     1       0.965  -2.492  -3.439  1.00  0.00     0.004 C 
ENDBRANCH  28  29
ENDBRANCH  27  28
ENDBRANCH  26  27
ENDBRANCH  25  26
ENDBRANCH  24  25
ENDBRANCH  23  24
ENDBRANCH  22  23
ENDBRANCH  21  22
ENDBRANCH  20  21
ENDBRANCH  19  20
ENDBRANCH  18  19
ENDBRANCH  17  18
ENDBRANCH   1  17
TORSDOF 26
ENDMDL
MODEL 6
REMARK VINA RESULT:    -2.844      2.711      7.727
REMARK INTER + INTRA:         -10.962
REMARK INTER:                  -7.933
REMARK INTRA:                  -3.029
REMARK UNBOUND:                -3.796
REMARK SMILES CCCCCCCCCCCCCCCCCCCCCCCCCCCC(=O)[O-]
REMARK SMILES IDX 15 1 16 2 17 3 18 4 19 5 20 6 21 7 22 8 23 9 24 10 25 11
REMARK SMILES IDX 26 12 27 13 28 14 29 15 30 16 14 17 13 18 12 19 11 20 10 21
REMARK SMILES IDX 9 22 8 23 7 24 6 25 5 26 4 27 3 28 2 29 1 30
REMARK H PARENT
REMARK Flexibility Score: inf
ROOT
ATOM      1  C   UNL     1       6.131   1.767  -2.971  1.00  0.00     0.000 C 
ENDROOT
BRANCH   1   2
ATOM      2  C   UNL     1       4.883   1.021  -3.468  1.00  0.00     0.000 C 
BRANCH   2   3
ATOM      3  C   UNL     1       4.985  -0.501  -3.281  1.00  0.00     0.000 C 
BRANCH   3   4
ATOM      4  C   UNL     1       5.152  -1.257  -4.610  1.00  0.00     0.000 C 
BRANCH   4   5
ATOM      5  C   UNL     1       6.249  -0.668  -5.522  1.00  0.00     0.000 C 
BRANCH   5   6
ATOM      6  C   UNL     1       5.742  -0.417  -6.952  1.00  0.00     0.000 C 
BRANCH   6   7
ATOM      7  C   UNL     1       4.603   0.612  -7.011  1.00  0.00     0.000 C 
BRANCH   7   8
ATOM      8  C   UNL     1       3.217  -0.041  -7.125  1.00  0.00     0.000 C 
BRANCH   8   9
ATOM      9  C   UNL     1       2.103   1.000  -6.925  1.00  0.00     0.000 C 
BRANCH   9  10
ATOM     10  C   UNL     1       2.319   1.868  -5.676  1.00  0.00     0.000 C 
BRANCH  10  11
ATOM     11  C   UNL     1       1.398   1.461  -4.513  1.00  0.00     0.000 C 
BRANCH  11  12
ATOM     12  C   UNL     1      -0.015   1.065  -4.981  1.00  0.00     0.006 C 
BRANCH  12  13
ATOM     13  C   UNL     1      -0.217  -0.446  -5.184  1.00  0.00     0.053 C 
BRANCH  13  14
ATOM     14  C   UNL     1       0.424  -1.255  -4.099  1.00  0.00     0.041 C 
ATOM     15  O   UNL     1      -0.192  -1.476  -3.023  1.00  0.00    -0.550 OA
ATOM     16  O   UNL     1       1.703  -1.770  -4.278  1.00  0.00    -0.550 OA
ENDBRANCH  13  14
ENDBRANCH  12  13
ENDBRANCH  11  12
ENDBRANCH  10  11
ENDBRANCH   9  10
ENDBRANCH   8   9
ENDBRANCH   7   8
ENDBRANCH   6   7
ENDBRANCH   5   6
ENDBRANCH   4   5
ENDBRANCH   3   4
ENDBRANCH   2   3
ENDBRANCH   1   2
BRANCH   1  17
ATOM     17  C   UNL     1       6.828   2.569  -4.084  1.00  0.00     0.000 C 
BRANCH  17  18
ATOM     18  C   UNL     1       5.828   3.083  -5.142  1.00  0.00     0.000 C 
BRANCH  18  19
ATOM     19  C   UNL     1       5.573   4.598  -5.067  1.00  0.00     0.000 C 
BRANCH  19  20
ATOM     20  C   UNL     1       5.925   5.328  -6.370  1.00  0.00     0.000 C 
BRANCH  20  21
ATOM     21  C   UNL     1       4.687   6.006  -6.975  1.00  0.00     0.000 C 
BRANCH  21  22
ATOM     22  C   UNL     1       3.425   5.125  -6.911  1.00  0.00    -0.000 C 
BRANCH  22  23
ATOM     23  C   UNL     1       2.155   5.835  -6.407  1.00  0.00    -0.000 C 
BRANCH  23  24
ATOM     24  C   UNL     1       2.320   7.361  -6.316  1.00  0.00    -0.000 C 
BRANCH  24  25
ATOM     25  C   UNL     1       1.027   8.117  -6.669  1.00  0.00    -0.000 C 
BRANCH  25  26
ATOM     26  C   UNL     1      -0.222   7.497  -6.018  1.00  0.00    -0.000 C 
BRANCH  26  27
ATOM     27  C   UNL     1      -1.525   7.938  -6.704  1.00  0.00    -0.000 C 
BRANCH  27  28
ATOM     28  C   UNL     1      -2.696   6.985  -6.425  1.00  0.00    -0.000 C 
BRANCH  28  29
ATOM     29  C   UNL     1      -2.571   6.351  -5.035  1.00  0.00    -0.003 C 
ATOM     30  C   UNL     1      -3.644   6.881  -4.088  1.00  0.00     0.004 C 
ENDBRANCH  28  29
ENDBRANCH  27  28
ENDBRANCH  26  27
ENDBRANCH  25  26
ENDBRANCH  24  25
ENDBRANCH  23  24
ENDBRANCH  22  23
ENDBRANCH  21  22
ENDBRANCH  20  21
ENDBRANCH  19  20
ENDBRANCH  18  19
ENDBRANCH  17  18
ENDBRANCH   1  17
TORSDOF 26
ENDMDL
MODEL 7
REMARK VINA RESULT:    -2.838      2.585      6.963
REMARK INTER + INTRA:         -10.948
REMARK INTER:                  -8.284
REMARK INTRA:                  -2.664
REMARK UNBOUND:                -3.796
REMARK SMILES CCCCCCCCCCCCCCCCCCCCCCCCCCCC(=O)[O-]
REMARK SMILES IDX 15 1 16 2 17 3 18 4 19 5 20 6 21 7 22 8 23 9 24 10 25 11
REMARK SMILES IDX 26 12 27 13 28 14 29 15 30 16 14 17 13 18 12 19 11 20 10 21
REMARK SMILES IDX 9 22 8 23 7 24 6 25 5 26 4 27 3 28 2 29 1 30
REMARK H PARENT
REMARK Flexibility Score: inf
ROOT
ATOM      1  C   UNL     1       4.708   0.468  -3.351  1.00  0.00     0.000 C 
ENDROOT
BRANCH   1   2
ATOM      2  C   UNL     1       4.823  -0.504  -4.536  1.00  0.00     0.000 C 
BRANCH   2   3
ATOM      3  C   UNL     1       5.134   0.209  -5.862  1.00  0.00     0.000 C 
BRANCH   3   4
ATOM      4  C   UNL     1       3.872   0.723  -6.575  1.00  0.00     0.000 C 
BRANCH   4   5
ATOM      5  C   UNL     1       3.705   2.257  -6.507  1.00  0.00     0.000 C 
BRANCH   5   6
ATOM      6  C   UNL     1       2.488   2.671  -5.663  1.00  0.00     0.000 C 
BRANCH   6   7
ATOM      7  C   UNL     1       1.581   3.683  -6.380  1.00  0.00     0.000 C 
BRANCH   7   8
ATOM      8  C   UNL     1       0.167   3.139  -6.631  1.00  0.00     0.000 C 
BRANCH   8   9
ATOM      9  C   UNL     1       0.015   1.720  -6.057  1.00  0.00     0.000 C 
BRANCH   9  10
ATOM     10  C   UNL     1       0.184   0.628  -7.125  1.00  0.00     0.000 C 
BRANCH  10  11
ATOM     11  C   UNL     1      -0.249  -0.759  -6.617  1.00  0.00     0.000 C 
BRANCH  11  12
ATOM     12  C   UNL     1       0.929  -1.595  -6.087  1.00  0.00     0.006 C 
BRANCH  12  13
ATOM     13  C   UNL     1       1.404  -1.202  -4.678  1.00  0.00     0.053 C 
BRANCH  13  14
ATOM     14  C   UNL     1       0.400  -1.549  -3.623  1.00  0.00     0.041 C 
ATOM     15  O   UNL     1      -0.540  -0.754  -3.356  1.00  0.00    -0.550 OA
ATOM     16  O   UNL     1       0.500  -2.753  -2.935  1.00  0.00    -0.550 OA
ENDBRANCH  13  14
ENDBRANCH  12  13
ENDBRANCH  11  12
ENDBRANCH  10  11
ENDBRANCH   9  10
ENDBRANCH   8   9
ENDBRANCH   7   8
ENDBRANCH   6   7
ENDBRANCH   5   6
ENDBRANCH   4   5
ENDBRANCH   3   4
ENDBRANCH   2   3
ENDBRANCH   1   2
BRANCH   1  17
ATOM     17  C   UNL     1       6.000   1.269  -3.111  1.00  0.00     0.000 C 
BRANCH  17  18
ATOM     18  C   UNL     1       6.852   1.394  -4.392  1.00  0.00     0.000 C 
BRANCH  18  19
ATOM     19  C   UNL     1       7.574   2.746  -4.524  1.00  0.00     0.000 C 
BRANCH  19  20
ATOM     20  C   UNL     1       7.067   3.580  -5.708  1.00  0.00     0.000 C 
BRANCH  20  21
ATOM     21  C   UNL     1       7.547   5.036  -5.603  1.00  0.00     0.000 C 
BRANCH  21  22
ATOM     22  C   UNL     1       6.389   6.046  -5.501  1.00  0.00    -0.000 C 
BRANCH  22  23
ATOM     23  C   UNL     1       4.983   5.424  -5.410  1.00  0.00    -0.000 C 
BRANCH  23  24
ATOM     24  C   UNL     1       4.423   5.421  -3.978  1.00  0.00    -0.000 C 
BRANCH  24  25
ATOM     25  C   UNL     1       3.163   6.293  -3.835  1.00  0.00    -0.000 C 
BRANCH  25  26
ATOM     26  C   UNL     1       2.665   6.846  -5.182  1.00  0.00    -0.000 C 
BRANCH  26  27
ATOM     27  C   UNL     1       1.503   7.838  -5.019  1.00  0.00    -0.000 C 
BRANCH  27  28
ATOM     28  C   UNL     1       0.205   7.347  -5.676  1.00  0.00    -0.000 C 
BRANCH  28  29
ATOM     29  C   UNL     1      -1.023   7.842  -4.906  1.00  0.00    -0.003 C 
ATOM     30  C   UNL     1      -2.315   7.338  -5.544  1.00  0.00     0.004 C 
ENDBRANCH  28  29
ENDBRANCH  27  28
ENDBRANCH  26  27
ENDBRANCH  25  26
ENDBRANCH  24  25
ENDBRANCH  23  24
ENDBRANCH  22  23
ENDBRANCH  21  22
ENDBRANCH  20  21
ENDBRANCH  19  20
ENDBRANCH  18  19
ENDBRANCH  17  18
ENDBRANCH   1  17
TORSDOF 26
ENDMDL
MODEL 8
REMARK VINA RESULT:    -2.835      1.882      3.056
REMARK INTER + INTRA:         -10.941
REMARK INTER:                  -7.375
REMARK INTRA:                  -3.566
REMARK UNBOUND:                -3.796
REMARK SMILES CCCCCCCCCCCCCCCCCCCCCCCCCCCC(=O)[O-]
REMARK SMILES IDX 15 1 16 2 17 3 18 4 19 5 20 6 21 7 22 8 23 9 24 10 25 11
REMARK SMILES IDX 26 12 27 13 28 14 29 15 30 16 14 17 13 18 12 19 11 20 10 21
REMARK SMILES IDX 9 22 8 23 7 24 6 25 5 26 4 27 3 28 2 29 1 30
REMARK H PARENT
REMARK Flexibility Score: inf
ROOT
ATOM      1  C   UNL     1      -0.498  -1.346  -3.703  1.00  0.00     0.000 C 
ENDROOT
BRANCH   1   2
ATOM      2  C   UNL     1      -0.253   0.152  -3.468  1.00  0.00     0.000 C 
BRANCH   2   3
ATOM      3  C   UNL     1      -0.537   1.005  -4.715  1.00  0.00     0.000 C 
BRANCH   3   4
ATOM      4  C   UNL     1       0.338   0.615  -5.918  1.00  0.00     0.000 C 
BRANCH   4   5
ATOM      5  C   UNL     1       0.201   1.576  -7.119  1.00  0.00     0.000 C 
BRANCH   5   6
ATOM      6  C   UNL     1      -0.157   3.006  -6.680  1.00  0.00     0.000 C 
BRANCH   6   7
ATOM      7  C   UNL     1       0.987   4.006  -6.909  1.00  0.00     0.000 C 
BRANCH   7   8
ATOM      8  C   UNL     1       2.373   3.346  -6.852  1.00  0.00     0.000 C 
BRANCH   8   9
ATOM      9  C   UNL     1       2.901   3.305  -5.408  1.00  0.00     0.000 C 
BRANCH   9  10
ATOM     10  C   UNL     1       3.817   4.494  -5.078  1.00  0.00     0.000 C 
BRANCH  10  11
ATOM     11  C   UNL     1       3.466   5.148  -3.730  1.00  0.00     0.000 C 
BRANCH  11  12
ATOM     12  C   UNL     1       3.199   6.659  -3.851  1.00  0.00     0.006 C 
BRANCH  12  13
ATOM     13  C   UNL     1       2.368   7.061  -5.081  1.00  0.00     0.053 C 
BRANCH  13  14
ATOM     14  C   UNL     1       1.007   7.564  -4.707  1.00  0.00     0.041 C 
ATOM     15  O   UNL     1       0.279   8.125  -5.568  1.00  0.00    -0.550 OA
ATOM     16  O   UNL     1       0.541   7.408  -3.406  1.00  0.00    -0.550 OA
ENDBRANCH  13  14
ENDBRANCH  12  13
ENDBRANCH  11  12
ENDBRANCH  10  11
ENDBRANCH   9  10
ENDBRANCH   8   9
ENDBRANCH   7   8
ENDBRANCH   6   7
ENDBRANCH   5   6
ENDBRANCH   4   5
ENDBRANCH   3   4
ENDBRANCH   2   3
ENDBRANCH   1   2
BRANCH   1  17
ATOM     17  C   UNL     1       0.700  -2.218  -3.291  1.00  0.00     0.000 C 
BRANCH  17  18
ATOM     18  C   UNL     1       1.612  -2.556  -4.490  1.00  0.00     0.000 C 
BRANCH  18  19
ATOM     19  C   UNL     1       2.602  -1.435  -4.849  1.00  0.00     0.000 C 
BRANCH  19  20
ATOM     20  C   UNL     1       3.692  -1.239  -3.787  1.00  0.00     0.000 C 
BRANCH  20  21
ATOM     21  C   UNL     1       4.136   0.230  -3.716  1.00  0.00     0.000 C 
BRANCH  21  22
ATOM     22  C   UNL     1       5.659   0.393  -3.562  1.00  0.00    -0.000 C 
BRANCH  22  23
ATOM     23  C   UNL     1       6.233   1.722  -4.088  1.00  0.00    -0.000 C 
BRANCH  23  24
ATOM     24  C   UNL     1       6.279   1.786  -5.624  1.00  0.00    -0.000 C 
BRANCH  24  25
ATOM     25  C   UNL     1       7.669   1.448  -6.188  1.00  0.00    -0.000 C 
BRANCH  25  26
ATOM     26  C   UNL     1       8.801   2.222  -5.488  1.00  0.00    -0.000 C 
BRANCH  26  27
ATOM     27  C   UNL     1       8.820   3.711  -5.868  1.00  0.00    -0.000 C 
BRANCH  27  28
ATOM     28  C   UNL     1       8.433   4.627  -4.698  1.00  0.00    -0.000 C 
BRANCH  28  29
ATOM     29  C   UNL     1       7.250   5.527  -5.071  1.00  0.00    -0.003 C 
ATOM     30  C   UNL     1       7.548   6.336  -6.331  1.00  0.00     0.004 C 
ENDBRANCH  28  29
ENDBRANCH  27  28
ENDBRANCH  26  27
ENDBRANCH  25  26
ENDBRANCH  24  25
ENDBRANCH  23  24
ENDBRANCH  22  23
ENDBRANCH  21  22
ENDBRANCH  20  21
ENDBRANCH  19  20
ENDBRANCH  18  19
ENDBRANCH  17  18
ENDBRANCH   1  17
TORSDOF 26
ENDMDL
