MODEL 1
REMARK VINA RESULT:    -5.597      0.000      0.000
REMARK INTER + INTRA:         -11.541
REMARK INTER:                 -10.178
REMARK INTRA:                  -1.363
REMARK UNBOUND:                -1.363
REMARK SMILES CCCCCCCCCCCCCC[C@H](C)C(=O)[O-]
REMARK SMILES IDX 9 1 10 2 11 3 12 4 13 5 14 6 15 7 16 8 17 9 18 10 19 11 8 12
REMARK SMILES IDX 7 13 6 14 5 15 4 16 3 17 2 18 1 19
REMARK H PARENT
REMARK Flexibility Score: inf
ROOT
ATOM      1  C   UNL     1      20.850   0.326 -19.828  1.00  0.00     0.000 C 
ENDROOT
BRANCH   1   2
ATOM      2  C   UNL     1      20.141  -0.916 -19.275  1.00  0.00     0.000 C 
BRANCH   2   3
ATOM      3  C   UNL     1      20.929  -1.526 -18.109  1.00  0.00     0.000 C 
BRANCH   3   4
ATOM      4  C   UNL     1      20.070  -1.587 -16.838  1.00  0.00     0.000 C 
BRANCH   4   5
ATOM      5  C   UNL     1      20.778  -0.983 -15.614  1.00  0.00     0.001 C 
BRANCH   5   6
ATOM      6  C   UNL     1      20.173   0.371 -15.190  1.00  0.00     0.009 C 
BRANCH   6   7
ATOM      7  C   UNL     1      19.359   1.076 -16.298  1.00  0.00     0.032 C 
ATOM      8  C   UNL     1      20.023   2.372 -16.785  1.00  0.00     0.014 C 
BRANCH   7   9
ATOM      9  C   UNL     1      17.927   1.294 -15.884  1.00  0.00     0.044 C 
ATOM     10  O   UNL     1      17.465   0.762 -14.839  1.00  0.00    -0.550 OA
ATOM     11  O   UNL     1      17.086   2.053 -16.689  1.00  0.00    -0.550 OA
ENDBRANCH   7   9
ENDBRANCH   6   7
ENDBRANCH   5   6
ENDBRANCH   4   5
ENDBRANCH   3   4
ENDBRANCH   2   3
ENDBRANCH   1   2
BRANCH   1  12
ATOM     12  C   UNL     1      19.951   1.079 -20.817  1.00  0.00     0.000 C 
BRANCH  12  13
ATOM     13  C   UNL     1      20.371   0.795 -22.267  1.00  0.00    -0.000 C 
BRANCH  13  14
ATOM     14  C   UNL     1      19.170   0.594 -23.205  1.00  0.00    -0.000 C 
BRANCH  14  15
ATOM     15  C   UNL     1      17.878   1.219 -22.652  1.00  0.00    -0.000 C 
BRANCH  15  16
ATOM     16  C   UNL     1      16.626   0.383 -22.971  1.00  0.00    -0.000 C 
BRANCH  16  17
ATOM     17  C   UNL     1      16.304   0.226 -24.471  1.00  0.00    -0.000 C 
BRANCH  17  18
ATOM     18  C   UNL     1      15.979   1.537 -25.207  1.00  0.00    -0.003 C 
ATOM     19  C   UNL     1      16.875   1.778 -26.421  1.00  0.00     0.004 C 
ENDBRANCH  17  18
ENDBRANCH  16  17
ENDBRANCH  15  16
ENDBRANCH  14  15
ENDBRANCH  13  14
ENDBRANCH  12  13
ENDBRANCH   1  12
TORSDOF 14
ENDMDL
MODEL 2
REMARK VINA RESULT:    -5.343      3.609      7.801
REMARK INTER + INTRA:         -11.079
REMARK INTER:                  -9.483
REMARK INTRA:                  -1.596
REMARK UNBOUND:                -1.363
REMARK SMILES CCCCCCCCCCCCCC[C@H](C)C(=O)[O-]
REMARK SMILES IDX 9 1 10 2 11 3 12 4 13 5 14 6 15 7 16 8 17 9 18 10 19 11 8 12
REMARK SMILES IDX 7 13 6 14 5 15 4 16 3 17 2 18 1 19
REMARK H PARENT
REMARK Flexibility Score: inf
ROOT
ATOM      1  C   UNL     1      21.171   0.170 -19.292  1.00  0.00     0.000 C 
ENDROOT
BRANCH   1   2
ATOM      2  C   UNL     1      20.855   0.865 -20.622  1.00  0.00     0.000 C 
BRANCH   2   3
ATOM      3  C   UNL     1      19.547   0.336 -21.222  1.00  0.00     0.000 C 
BRANCH   3   4
ATOM      4  C   UNL     1      18.860   1.411 -22.077  1.00  0.00     0.000 C 
BRANCH   4   5
ATOM      5  C   UNL     1      17.350   1.169 -22.233  1.00  0.00     0.001 C 
BRANCH   5   6
ATOM      6  C   UNL     1      16.866   1.372 -23.683  1.00  0.00     0.009 C 
BRANCH   6   7
ATOM      7  C   UNL     1      16.281   0.101 -24.339  1.00  0.00     0.032 C 
ATOM      8  C   UNL     1      17.162  -1.138 -24.120  1.00  0.00     0.014 C 
BRANCH   7   9
ATOM      9  C   UNL     1      15.965   0.320 -25.796  1.00  0.00     0.044 C 
ATOM     10  O   UNL     1      16.400  -0.466 -26.680  1.00  0.00    -0.550 OA
ATOM     11  O   UNL     1      15.225   1.432 -26.179  1.00  0.00    -0.550 OA
ENDBRANCH   7   9
ENDBRANCH   6   7
ENDBRANCH   5   6
ENDBRANCH   4   5
ENDBRANCH   3   4
ENDBRANCH   2   3
ENDBRANCH   1   2
BRANCH   1  12
ATOM     12  C   UNL     1      20.133  -0.914 -18.976  1.00  0.00     0.000 C 
BRANCH  12  13
ATOM     13  C   UNL     1      20.521  -1.694 -17.711  1.00  0.00    -0.000 C 
BRANCH  13  14
ATOM     14  C   UNL     1      21.612  -0.988 -16.889  1.00  0.00    -0.000 C 
BRANCH  14  15
ATOM     15  C   UNL     1      21.071  -0.394 -15.578  1.00  0.00    -0.000 C 
BRANCH  15  16
ATOM     16  C   UNL     1      19.546  -0.547 -15.437  1.00  0.00    -0.000 C 
BRANCH  16  17
ATOM     17  C   UNL     1      18.759   0.776 -15.334  1.00  0.00    -0.000 C 
BRANCH  17  18
ATOM     18  C   UNL     1      18.874   1.698 -16.559  1.00  0.00    -0.003 C 
ATOM     19  C   UNL     1      17.744   1.493 -17.567  1.00  0.00     0.004 C 
ENDBRANCH  17  18
ENDBRANCH  16  17
ENDBRANCH  15  16
ENDBRANCH  14  15
ENDBRANCH  13  14
ENDBRANCH  12  13
ENDBRANCH   1  12
TORSDOF 14
ENDMDL
MODEL 3
REMARK VINA RESULT:    -5.307      1.347      3.012
REMARK INTER + INTRA:         -11.013
REMARK INTER:                  -9.628
REMARK INTRA:                  -1.385
REMARK UNBOUND:                -1.363
REMARK SMILES CCCCCCCCCCCCCC[C@H](C)C(=O)[O-]
REMARK SMILES IDX 9 1 10 2 11 3 12 4 13 5 14 6 15 7 16 8 17 9 18 10 19 11 8 12
REMARK SMILES IDX 7 13 6 14 5 15 4 16 3 17 2 18 1 19
REMARK H PARENT
REMARK Flexibility Score: inf
ROOT
ATOM      1  C   UNL     1      19.041  -0.101 -21.970  1.00  0.00     0.000 C 
ENDROOT
BRANCH   1   2
ATOM      2  C   UNL     1      20.191   0.531 -21.177  1.00  0.00     0.000 C 
BRANCH   2   3
ATOM      3  C   UNL     1      19.925   0.457 -19.668  1.00  0.00     0.000 C 
BRANCH   3   4
ATOM      4  C   UNL     1      20.845  -0.574 -18.998  1.00  0.00     0.000 C 
BRANCH   4   5
ATOM      5  C   UNL     1      20.108  -1.870 -18.622  1.00  0.00     0.001 C 
BRANCH   5   6
ATOM      6  C   UNL     1      19.813  -1.966 -17.112  1.00  0.00     0.009 C 
BRANCH   6   7
ATOM      7  C   UNL     1      20.510  -0.880 -16.260  1.00  0.00     0.032 C 
ATOM      8  C   UNL     1      21.490  -1.471 -15.236  1.00  0.00     0.014 C 
BRANCH   7   9
ATOM      9  C   UNL     1      19.514   0.050 -15.619  1.00  0.00     0.044 C 
ATOM     10  O   UNL     1      19.595   0.345 -14.397  1.00  0.00    -0.550 OA
ATOM     11  O   UNL     1      18.460   0.553 -16.372  1.00  0.00    -0.550 OA
ENDBRANCH   7   9
ENDBRANCH   6   7
ENDBRANCH   5   6
ENDBRANCH   4   5
ENDBRANCH   3   4
ENDBRANCH   2   3
ENDBRANCH   1   2
BRANCH   1  12
ATOM     12  C   UNL     1      18.242   0.966 -22.728  1.00  0.00     0.000 C 
BRANCH  12  13
ATOM     13  C   UNL     1      16.766   0.560 -22.856  1.00  0.00    -0.000 C 
BRANCH  13  14
ATOM     14  C   UNL     1      16.327   0.368 -24.317  1.00  0.00    -0.000 C 
BRANCH  14  15
ATOM     15  C   UNL     1      16.203   1.699 -25.075  1.00  0.00    -0.000 C 
BRANCH  15  16
ATOM     16  C   UNL     1      16.955   1.695 -26.418  1.00  0.00    -0.000 C 
BRANCH  16  17
ATOM     17  C   UNL     1      17.715   0.392 -26.741  1.00  0.00    -0.000 C 
BRANCH  17  18
ATOM     18  C   UNL     1      19.221   0.424 -26.433  1.00  0.00    -0.003 C 
ATOM     19  C   UNL     1      19.695  -0.798 -25.647  1.00  0.00     0.004 C 
ENDBRANCH  17  18
ENDBRANCH  16  17
ENDBRANCH  15  16
ENDBRANCH  14  15
ENDBRANCH  13  14
ENDBRANCH  12  13
ENDBRANCH   1  12
TORSDOF 14
ENDMDL
MODEL 4
REMARK VINA RESULT:    -5.266      1.882      4.265
REMARK INTER + INTRA:         -10.939
REMARK INTER:                  -9.132
REMARK INTRA:                  -1.808
REMARK UNBOUND:                -1.363
REMARK SMILES CCCCCCCCCCCCCC[C@H](C)C(=O)[O-]
REMARK SMILES IDX 9 1 10 2 11 3 12 4 13 5 14 6 15 7 16 8 17 9 18 10 19 11 8 12
REMARK SMILES IDX 7 13 6 14 5 15 4 16 3 17 2 18 1 19
REMARK H PARENT
REMARK Flexibility Score: inf
ROOT
ATOM      1  C   UNL     1      17.240   1.512 -22.802  1.00  0.00     0.000 C 
ENDROOT
BRANCH   1   2
ATOM      2  C   UNL     1      18.769   1.569 -22.705  1.00  0.00     0.000 C 
BRANCH   2   3
ATOM      3  C   UNL     1      19.340   0.235 -22.210  1.00  0.00     0.000 C 
BRANCH   3   4
ATOM      4  C   UNL     1      20.361   0.458 -21.084  1.00  0.00     0.000 C 
BRANCH   4   5
ATOM      5  C   UNL     1      19.891  -0.112 -19.736  1.00  0.00     0.001 C 
BRANCH   5   6
ATOM      6  C   UNL     1      21.044  -0.257 -18.722  1.00  0.00     0.009 C 
BRANCH   6   7
ATOM      7  C   UNL     1      20.939  -1.506 -17.818  1.00  0.00     0.032 C 
ATOM      8  C   UNL     1      19.869  -2.496 -18.299  1.00  0.00     0.014 C 
BRANCH   7   9
ATOM      9  C   UNL     1      20.755  -1.131 -16.370  1.00  0.00     0.044 C 
ATOM     10  O   UNL     1      21.665  -1.342 -15.525  1.00  0.00    -0.550 OA
ATOM     11  O   UNL     1      19.546  -0.591 -15.949  1.00  0.00    -0.550 OA
ENDBRANCH   7   9
ENDBRANCH   6   7
ENDBRANCH   5   6
ENDBRANCH   4   5
ENDBRANCH   3   4
ENDBRANCH   2   3
ENDBRANCH   1   2
BRANCH   1  12
ATOM     12  C   UNL     1      16.762   0.101 -23.166  1.00  0.00     0.000 C 
BRANCH  12  13
ATOM     13  C   UNL     1      16.040   0.098 -24.521  1.00  0.00    -0.000 C 
BRANCH  13  14
ATOM     14  C   UNL     1      16.004   1.488 -25.178  1.00  0.00    -0.000 C 
BRANCH  14  15
ATOM     15  C   UNL     1      16.955   1.596 -26.382  1.00  0.00    -0.000 C 
BRANCH  15  16
ATOM     16  C   UNL     1      17.571   0.244 -26.781  1.00  0.00    -0.000 C 
BRANCH  16  17
ATOM     17  C   UNL     1      19.111   0.222 -26.860  1.00  0.00    -0.000 C 
BRANCH  17  18
ATOM     18  C   UNL     1      19.812  -0.495 -25.693  1.00  0.00    -0.003 C 
ATOM     19  C   UNL     1      19.147  -1.819 -25.321  1.00  0.00     0.004 C 
ENDBRANCH  17  18
ENDBRANCH  16  17
ENDBRANCH  15  16
ENDBRANCH  14  15
ENDBRANCH  13  14
ENDBRANCH  12  13
ENDBRANCH   1  12
TORSDOF 14
ENDMDL
MODEL 5
REMARK VINA RESULT:    -5.249      2.258      3.850
REMARK INTER + INTRA:         -10.908
REMARK INTER:                  -8.691
REMARK INTRA:                  -2.218
REMARK UNBOUND:                -1.363
REMARK SMILES CCCCCCCCCCCCCC[C@H](C)C(=O)[O-]
REMARK SMILES IDX 9 1 10 2 11 3 12 4 13 5 14 6 15 7 16 8 17 9 18 10 19 11 8 12
REMARK SMILES IDX 7 13 6 14 5 15 4 16 3 17 2 18 1 19
REMARK H PARENT
REMARK Flexibility Score: inf
ROOT
ATOM      1  C   UNL     1      20.485   0.050 -23.540  1.00  0.00     0.000 C 
ENDROOT
BRANCH   1   2
ATOM      2  C   UNL     1      20.591   1.533 -23.166  1.00  0.00     0.000 C 
BRANCH   2   3
ATOM      3  C   UNL     1      20.157   1.766 -21.713  1.00  0.00     0.000 C 
BRANCH   3   4
ATOM      4  C   UNL     1      19.532   0.497 -21.116  1.00  0.00     0.000 C 
BRANCH   4   5
ATOM      5  C   UNL     1      19.779   0.369 -19.604  1.00  0.00     0.001 C 
BRANCH   5   6
ATOM      6  C   UNL     1      21.187  -0.170 -19.279  1.00  0.00     0.009 C 
BRANCH   6   7
ATOM      7  C   UNL     1      21.201  -1.334 -18.263  1.00  0.00     0.032 C 
ATOM      8  C   UNL     1      19.890  -2.134 -18.263  1.00  0.00     0.014 C 
BRANCH   7   9
ATOM      9  C   UNL     1      21.578  -0.864 -16.883  1.00  0.00     0.044 C 
ATOM     10  O   UNL     1      22.779  -0.624 -16.584  1.00  0.00    -0.550 OA
ATOM     11  O   UNL     1      20.597  -0.739 -15.907  1.00  0.00    -0.550 OA
ENDBRANCH   7   9
ENDBRANCH   6   7
ENDBRANCH   5   6
ENDBRANCH   4   5
ENDBRANCH   3   4
ENDBRANCH   2   3
ENDBRANCH   1   2
BRANCH   1  12
ATOM     12  C   UNL     1      20.118  -0.120 -25.020  1.00  0.00     0.000 C 
BRANCH  12  13
ATOM     13  C   UNL     1      19.191  -1.328 -25.221  1.00  0.00    -0.000 C 
BRANCH  13  14
ATOM     14  C   UNL     1      18.223  -1.537 -24.045  1.00  0.00    -0.000 C 
BRANCH  14  15
ATOM     15  C   UNL     1      16.889  -0.799 -24.240  1.00  0.00    -0.000 C 
BRANCH  15  16
ATOM     16  C   UNL     1      16.621   0.253 -23.149  1.00  0.00    -0.000 C 
BRANCH  16  17
ATOM     17  C   UNL     1      16.898   1.713 -23.561  1.00  0.00    -0.000 C 
BRANCH  17  18
ATOM     18  C   UNL     1      16.544   2.055 -25.018  1.00  0.00    -0.003 C 
ATOM     19  C   UNL     1      17.661   2.805 -25.743  1.00  0.00     0.004 C 
ENDBRANCH  17  18
ENDBRANCH  16  17
ENDBRANCH  15  16
ENDBRANCH  14  15
ENDBRANCH  13  14
ENDBRANCH  12  13
ENDBRANCH   1  12
TORSDOF 14
ENDMDL
MODEL 6
REMARK VINA RESULT:    -5.238      5.191      6.961
REMARK INTER + INTRA:         -10.887
REMARK INTER:                  -8.942
REMARK INTRA:                  -1.945
REMARK UNBOUND:                -1.363
REMARK SMILES CCCCCCCCCCCCCC[C@H](C)C(=O)[O-]
REMARK SMILES IDX 9 1 10 2 11 3 12 4 13 5 14 6 15 7 16 8 17 9 18 10 19 11 8 12
REMARK SMILES IDX 7 13 6 14 5 15 4 16 3 17 2 18 1 19
REMARK H PARENT
REMARK Flexibility Score: inf
ROOT
ATOM      1  C   UNL     1      20.101   0.231 -14.922  1.00  0.00     0.000 C 
ENDROOT
BRANCH   1   2
ATOM      2  C   UNL     1      20.264  -1.289 -15.041  1.00  0.00     0.000 C 
BRANCH   2   3
ATOM      3  C   UNL     1      21.738  -1.696 -14.915  1.00  0.00     0.000 C 
BRANCH   3   4
ATOM      4  C   UNL     1      22.640  -0.746 -15.718  1.00  0.00     0.000 C 
BRANCH   4   5
ATOM      5  C   UNL     1      23.729  -0.091 -14.853  1.00  0.00     0.001 C 
BRANCH   5   6
ATOM      6  C   UNL     1      24.674  -1.125 -14.209  1.00  0.00     0.009 C 
BRANCH   6   7
ATOM      7  C   UNL     1      25.403  -0.617 -12.945  1.00  0.00     0.032 C 
ATOM      8  C   UNL     1      25.841   0.850 -13.064  1.00  0.00     0.014 C 
BRANCH   7   9
ATOM      9  C   UNL     1      26.546  -1.520 -12.559  1.00  0.00     0.044 C 
ATOM     10  O   UNL     1      26.559  -2.111 -11.446  1.00  0.00    -0.550 OA
ATOM     11  O   UNL     1      27.626  -1.667 -13.420  1.00  0.00    -0.550 OA
ENDBRANCH   7   9
ENDBRANCH   6   7
ENDBRANCH   5   6
ENDBRANCH   4   5
ENDBRANCH   3   4
ENDBRANCH   2   3
ENDBRANCH   1   2
BRANCH   1  12
ATOM     12  C   UNL     1      18.806   0.701 -15.595  1.00  0.00     0.000 C 
BRANCH  12  13
ATOM     13  C   UNL     1      19.102   1.719 -16.707  1.00  0.00    -0.000 C 
BRANCH  13  14
ATOM     14  C   UNL     1      20.512   2.322 -16.599  1.00  0.00    -0.000 C 
BRANCH  14  15
ATOM     15  C   UNL     1      21.404   1.956 -17.797  1.00  0.00    -0.000 C 
BRANCH  15  16
ATOM     16  C   UNL     1      20.675   1.094 -18.843  1.00  0.00    -0.000 C 
BRANCH  16  17
ATOM     17  C   UNL     1      21.058  -0.400 -18.844  1.00  0.00    -0.000 C 
BRANCH  17  18
ATOM     18  C   UNL     1      19.894  -1.370 -19.113  1.00  0.00    -0.003 C 
ATOM     19  C   UNL     1      19.833  -2.520 -18.109  1.00  0.00     0.004 C 
ENDBRANCH  17  18
ENDBRANCH  16  17
ENDBRANCH  15  16
ENDBRANCH  14  15
ENDBRANCH  13  14
ENDBRANCH  12  13
ENDBRANCH   1  12
TORSDOF 14
ENDMDL
MODEL 7
REMARK VINA RESULT:    -5.201      3.276      7.932
REMARK INTER + INTRA:         -10.820
REMARK INTER:                  -9.486
REMARK INTRA:                  -1.335
REMARK UNBOUND:                -1.363
REMARK SMILES CCCCCCCCCCCCCC[C@H](C)C(=O)[O-]
REMARK SMILES IDX 9 1 10 2 11 3 12 4 13 5 14 6 15 7 16 8 17 9 18 10 19 11 8 12
REMARK SMILES IDX 7 13 6 14 5 15 4 16 3 17 2 18 1 19
REMARK H PARENT
REMARK Flexibility Score: inf
ROOT
ATOM      1  C   UNL     1      19.878   0.152 -20.613  1.00  0.00     0.000 C 
ENDROOT
BRANCH   1   2
ATOM      2  C   UNL     1      20.081   0.529 -22.086  1.00  0.00     0.000 C 
BRANCH   2   3
ATOM      3  C   UNL     1      19.720   1.999 -22.333  1.00  0.00     0.000 C 
BRANCH   3   4
ATOM      4  C   UNL     1      18.492   2.116 -23.248  1.00  0.00     0.000 C 
BRANCH   4   5
ATOM      5  C   UNL     1      17.186   1.719 -22.542  1.00  0.00     0.001 C 
BRANCH   5   6
ATOM      6  C   UNL     1      16.639   0.362 -23.030  1.00  0.00     0.009 C 
BRANCH   6   7
ATOM      7  C   UNL     1      17.075  -0.018 -24.463  1.00  0.00     0.032 C 
ATOM      8  C   UNL     1      15.920   0.062 -25.472  1.00  0.00     0.014 C 
BRANCH   7   9
ATOM      9  C   UNL     1      17.766  -1.356 -24.498  1.00  0.00     0.044 C 
ATOM     10  O   UNL     1      18.970  -1.455 -24.858  1.00  0.00    -0.550 OA
ATOM     11  O   UNL     1      17.055  -2.506 -24.176  1.00  0.00    -0.550 OA
ENDBRANCH   7   9
ENDBRANCH   6   7
ENDBRANCH   5   6
ENDBRANCH   4   5
ENDBRANCH   3   4
ENDBRANCH   2   3
ENDBRANCH   1   2
BRANCH   1  12
ATOM     12  C   UNL     1      21.108   0.523 -19.774  1.00  0.00     0.000 C 
BRANCH  12  13
ATOM     13  C   UNL     1      21.258  -0.422 -18.573  1.00  0.00    -0.000 C 
BRANCH  13  14
ATOM     14  C   UNL     1      20.433  -1.710 -18.723  1.00  0.00    -0.000 C 
BRANCH  14  15
ATOM     15  C   UNL     1      19.807  -2.169 -17.396  1.00  0.00    -0.000 C 
BRANCH  15  16
ATOM     16  C   UNL     1      20.421  -1.467 -16.172  1.00  0.00    -0.000 C 
BRANCH  16  17
ATOM     17  C   UNL     1      19.484  -0.483 -15.440  1.00  0.00    -0.000 C 
BRANCH  17  18
ATOM     18  C   UNL     1      20.158   0.806 -14.940  1.00  0.00    -0.003 C 
ATOM     19  C   UNL     1      21.652   0.859 -15.256  1.00  0.00     0.004 C 
ENDBRANCH  17  18
ENDBRANCH  16  17
ENDBRANCH  15  16
ENDBRANCH  14  15
ENDBRANCH  13  14
ENDBRANCH  12  13
ENDBRANCH   1  12
TORSDOF 14
ENDMDL
MODEL 8
REMARK VINA RESULT:    -5.169      1.362      2.955
REMARK INTER + INTRA:         -10.763
REMARK INTER:                  -9.309
REMARK INTRA:                  -1.454
REMARK UNBOUND:                -1.363
REMARK SMILES CCCCCCCCCCCCCC[C@H](C)C(=O)[O-]
REMARK SMILES IDX 9 1 10 2 11 3 12 4 13 5 14 6 15 7 16 8 17 9 18 10 19 11 8 12
REMARK SMILES IDX 7 13 6 14 5 15 4 16 3 17 2 18 1 19
REMARK H PARENT
REMARK Flexibility Score: inf
ROOT
ATOM      1  C   UNL     1      19.989   1.649 -23.722  1.00  0.00     0.000 C 
ENDROOT
BRANCH   1   2
ATOM      2  C   UNL     1      20.996   0.996 -22.767  1.00  0.00     0.000 C 
BRANCH   2   3
ATOM      3  C   UNL     1      20.664   1.325 -21.307  1.00  0.00     0.000 C 
BRANCH   3   4
ATOM      4  C   UNL     1      20.163   0.078 -20.563  1.00  0.00     0.000 C 
BRANCH   4   5
ATOM      5  C   UNL     1      20.363   0.175 -19.042  1.00  0.00     0.001 C 
BRANCH   5   6
ATOM      6  C   UNL     1      19.202   0.906 -18.338  1.00  0.00     0.009 C 
BRANCH   6   7
ATOM      7  C   UNL     1      19.224   0.794 -16.797  1.00  0.00     0.032 C 
ATOM      8  C   UNL     1      19.620  -0.608 -16.312  1.00  0.00     0.014 C 
BRANCH   7   9
ATOM      9  C   UNL     1      17.929   1.260 -16.186  1.00  0.00     0.044 C 
ATOM     10  O   UNL     1      17.170   2.057 -16.802  1.00  0.00    -0.550 OA
ATOM     11  O   UNL     1      17.584   0.847 -14.905  1.00  0.00    -0.550 OA
ENDBRANCH   7   9
ENDBRANCH   6   7
ENDBRANCH   5   6
ENDBRANCH   4   5
ENDBRANCH   3   4
ENDBRANCH   2   3
ENDBRANCH   1   2
BRANCH   1  12
ATOM     12  C   UNL     1      19.040   2.587 -22.965  1.00  0.00     0.000 C 
BRANCH  12  13
ATOM     13  C   UNL     1      17.573   2.234 -23.250  1.00  0.00    -0.000 C 
BRANCH  13  14
ATOM     14  C   UNL     1      17.151   0.897 -22.619  1.00  0.00    -0.000 C 
BRANCH  14  15
ATOM     15  C   UNL     1      16.528  -0.068 -23.640  1.00  0.00    -0.000 C 
BRANCH  15  16
ATOM     16  C   UNL     1      15.960   0.654 -24.875  1.00  0.00    -0.000 C 
BRANCH  16  17
ATOM     17  C   UNL     1      16.396   0.071 -26.235  1.00  0.00    -0.000 C 
BRANCH  17  18
ATOM     18  C   UNL     1      17.909  -0.150 -26.394  1.00  0.00    -0.003 C 
ATOM     19  C   UNL     1      18.317  -0.472 -27.830  1.00  0.00     0.004 C 
ENDBRANCH  17  18
ENDBRANCH  16  17
ENDBRANCH  15  16
ENDBRANCH  14  15
ENDBRANCH  13  14
ENDBRANCH  12  13
ENDBRANCH   1  12
TORSDOF 14
ENDMDL
MODEL 9
REMARK VINA RESULT:    -5.135      3.689      8.250
REMARK INTER + INTRA:         -10.700
REMARK INTER:                  -8.743
REMARK INTRA:                  -1.957
REMARK UNBOUND:                -1.363
REMARK SMILES CCCCCCCCCCCCCC[C@H](C)C(=O)[O-]
REMARK SMILES IDX 9 1 10 2 11 3 12 4 13 5 14 6 15 7 16 8 17 9 18 10 19 11 8 12
REMARK SMILES IDX 7 13 6 14 5 15 4 16 3 17 2 18 1 19
REMARK H PARENT
REMARK Flexibility Score: inf
ROOT
ATOM      1  C   UNL     1      16.389   0.134 -23.339  1.00  0.00     0.000 C 
ENDROOT
BRANCH   1   2
ATOM      2  C   UNL     1      16.021   0.257 -24.822  1.00  0.00     0.000 C 
BRANCH   2   3
ATOM      3  C   UNL     1      16.200   1.698 -25.316  1.00  0.00     0.000 C 
BRANCH   3   4
ATOM      4  C   UNL     1      17.196   1.759 -26.483  1.00  0.00     0.000 C 
BRANCH   4   5
ATOM      5  C   UNL     1      17.959   0.439 -26.680  1.00  0.00     0.001 C 
BRANCH   5   6
ATOM      6  C   UNL     1      19.399   0.502 -26.133  1.00  0.00     0.009 C 
BRANCH   6   7
ATOM      7  C   UNL     1      19.740  -0.612 -25.117  1.00  0.00     0.032 C 
ATOM      8  C   UNL     1      21.252  -0.760 -24.886  1.00  0.00     0.014 C 
BRANCH   7   9
ATOM      9  C   UNL     1      19.093  -1.921 -25.487  1.00  0.00     0.044 C 
ATOM     10  O   UNL     1      18.268  -2.478 -24.714  1.00  0.00    -0.550 OA
ATOM     11  O   UNL     1      19.445  -2.550 -26.674  1.00  0.00    -0.550 OA
ENDBRANCH   7   9
ENDBRANCH   6   7
ENDBRANCH   5   6
ENDBRANCH   4   5
ENDBRANCH   3   4
ENDBRANCH   2   3
ENDBRANCH   1   2
BRANCH   1  12
ATOM     12  C   UNL     1      17.283   1.299 -22.894  1.00  0.00     0.000 C 
BRANCH  12  13
ATOM     13  C   UNL     1      18.346   0.824 -21.892  1.00  0.00    -0.000 C 
BRANCH  13  14
ATOM     14  C   UNL     1      19.710   1.500 -22.110  1.00  0.00    -0.000 C 
BRANCH  14  15
ATOM     15  C   UNL     1      20.810   0.911 -21.211  1.00  0.00    -0.000 C 
BRANCH  15  16
ATOM     16  C   UNL     1      20.774   1.471 -19.778  1.00  0.00    -0.000 C 
BRANCH  16  17
ATOM     17  C   UNL     1      20.318   0.473 -18.694  1.00  0.00    -0.000 C 
BRANCH  17  18
ATOM     18  C   UNL     1      20.745  -0.985 -18.931  1.00  0.00    -0.003 C 
ATOM     19  C   UNL     1      19.821  -1.995 -18.252  1.00  0.00     0.004 C 
ENDBRANCH  17  18
ENDBRANCH  16  17
ENDBRANCH  15  16
ENDBRANCH  14  15
ENDBRANCH  13  14
ENDBRANCH  12  13
ENDBRANCH   1  12
TORSDOF 14
ENDMDL
