MODEL 1
REMARK VINA RESULT:    -5.123      0.000      0.000
REMARK INTER + INTRA:          -6.454
REMARK INTER:                  -7.220
REMARK INTRA:                   0.765
REMARK UNBOUND:                 0.765
REMARK SMILES CC1=CCC(=C(C)C)C(=O)CC(C)=CCC1
REMARK SMILES IDX 12 1 14 2 13 3 15 4 16 5 2 6 1 7 3 8 11 10 9 11 10 12 5 13
REMARK SMILES IDX 6 14 7 15 8 16 4 17
REMARK H PARENT
REMARK Flexibility Score: 60.00
ROOT
ATOM      1  C   UNL     1       4.701  13.751  28.995  1.00  0.00    -0.070 C 
ATOM      2  C   UNL     1       4.838  14.440  30.152  1.00  0.00    -0.027 C 
ATOM      3  C   UNL     1       4.805  14.513  27.699  1.00  0.00     0.039 C 
ENDROOT
BRANCH   2   4
ATOM      4  C   UNL     1       4.910  13.819  31.524  1.00  0.00     0.032 C 
BRANCH   4   5
ATOM      5  C   UNL     1       3.565  13.171  31.871  1.00  0.00     0.034 C 
BRANCH   5   6
ATOM      6  C   UNL     1       3.698  11.695  32.190  1.00  0.00    -0.077 C 
ATOM      7  C   UNL     1       4.781  11.256  33.144  1.00  0.00     0.039 C 
ATOM      8  C   UNL     1       2.940  10.731  31.609  1.00  0.00    -0.023 CG0
ATOM      9  G   UNL     1       1.762  10.923  30.672  1.00  0.00     0.000 G0
ENDBRANCH   5   6
ENDBRANCH   4   5
ENDBRANCH   2   4
BRANCH   1  10
ATOM     10  C   UNL     1       4.431  12.260  28.938  1.00  0.00     0.111 C 
BRANCH  10  11
ATOM     11  C   UNL     1       2.985  11.962  28.628  1.00  0.00     0.163 C 
ATOM     12  O   UNL     1       2.709  11.636  27.441  1.00  0.00    -0.294 OA
BRANCH  11  13
ATOM     13  C   UNL     1       1.877  12.054  29.636  1.00  0.00    -0.002 C 
ATOM     14  C   UNL     1       1.116  13.187  29.732  1.00  0.00    -0.069 C 
ATOM     15  C   UNL     1       0.153  13.412  30.876  1.00  0.00     0.039 C 
ATOM     16  C   UNL     1       1.158  14.260  28.666  1.00  0.00     0.039 C 
BRANCH  13  17
ATOM     17  C   UNL     1       1.751  10.930  30.658  1.00  0.00     0.066 CG0
ATOM     18  G   UNL     1       2.920  10.744  31.608  1.00  0.00     0.000 G0
ENDBRANCH  13  17
ENDBRANCH  11  13
ENDBRANCH  10  11
ENDBRANCH   1  10
TORSDOF 0
ENDMDL
MODEL 2
REMARK VINA RESULT:    -5.096      1.805      3.689
REMARK INTER + INTRA:          -6.416
REMARK INTER:                  -7.087
REMARK INTRA:                   0.671
REMARK UNBOUND:                 0.765
REMARK SMILES CC1=CCC(=C(C)C)C(=O)CC(C)=CCC1
REMARK SMILES IDX 12 1 14 2 13 3 15 4 16 5 2 6 1 7 3 8 11 10 9 11 10 12 5 13
REMARK SMILES IDX 6 14 7 15 8 16 4 17
REMARK H PARENT
REMARK Flexibility Score: 60.00
ROOT
ATOM      1  C   UNL     1       4.173  10.569  29.482  1.00  0.00    -0.070 C 
ATOM      2  C   UNL     1       3.346  10.231  30.498  1.00  0.00    -0.027 C 
ATOM      3  C   UNL     1       5.582  10.033  29.504  1.00  0.00     0.039 C 
ENDROOT
BRANCH   2   4
ATOM      4  C   UNL     1       1.875  10.554  30.559  1.00  0.00     0.032 C 
BRANCH   4   5
ATOM      5  C   UNL     1       1.537  11.183  31.914  1.00  0.00     0.034 C 
BRANCH   5   6
ATOM      6  C   UNL     1       1.034  12.607  31.783  1.00  0.00    -0.077 C 
ATOM      7  C   UNL     1      -0.440  12.872  31.960  1.00  0.00     0.039 C 
ATOM      8  C   UNL     1       1.827  13.654  31.444  1.00  0.00    -0.023 CG0
ATOM      9  G   UNL     1       3.335  13.652  31.272  1.00  0.00     0.000 G0
ENDBRANCH   5   6
ENDBRANCH   4   5
ENDBRANCH   2   4
BRANCH   1  10
ATOM     10  C   UNL     1       3.760  11.472  28.336  1.00  0.00     0.111 C 
BRANCH  10  11
ATOM     11  C   UNL     1       3.171  12.772  28.827  1.00  0.00     0.163 C 
ATOM     12  O   UNL     1       2.054  13.112  28.349  1.00  0.00    -0.294 OA
BRANCH  11  13
ATOM     13  C   UNL     1       3.845  13.672  29.820  1.00  0.00    -0.002 C 
ATOM     14  C   UNL     1       4.975  14.364  29.478  1.00  0.00    -0.069 C 
ATOM     15  C   UNL     1       5.811  15.093  30.505  1.00  0.00     0.039 C 
ATOM     16  C   UNL     1       5.425  14.480  28.039  1.00  0.00     0.039 C 
BRANCH  13  17
ATOM     17  C   UNL     1       3.341  13.649  31.259  1.00  0.00     0.066 CG0
ATOM     18  G   UNL     1       1.834  13.653  31.448  1.00  0.00     0.000 G0
ENDBRANCH  13  17
ENDBRANCH  11  13
ENDBRANCH  10  11
ENDBRANCH   1  10
TORSDOF 0
ENDMDL
MODEL 3
REMARK VINA RESULT:    -4.936      1.340      3.182
REMARK INTER + INTRA:          -6.191
REMARK INTER:                  -6.867
REMARK INTRA:                   0.676
REMARK UNBOUND:                 0.765
REMARK SMILES CC1=CCC(=C(C)C)C(=O)CC(C)=CCC1
REMARK SMILES IDX 12 1 14 2 13 3 15 4 16 5 2 6 1 7 3 8 11 10 9 11 10 12 5 13
REMARK SMILES IDX 6 14 7 15 8 16 4 17
REMARK H PARENT
REMARK Flexibility Score: 60.00
ROOT
ATOM      1  C   UNL     1       2.580  13.437  27.878  1.00  0.00    -0.070 C 
ATOM      2  C   UNL     1       1.590  14.293  28.223  1.00  0.00    -0.027 C 
ATOM      3  C   UNL     1       3.604  13.903  26.875  1.00  0.00     0.039 C 
ENDROOT
BRANCH   2   4
ATOM      4  C   UNL     1       0.576  14.048  29.311  1.00  0.00     0.032 C 
BRANCH   4   5
ATOM      5  C   UNL     1       1.284  13.934  30.665  1.00  0.00     0.034 C 
BRANCH   5   6
ATOM      6  C   UNL     1       0.764  12.779  31.497  1.00  0.00    -0.077 C 
ATOM      7  C   UNL     1      -0.717  12.692  31.767  1.00  0.00     0.039 C 
ATOM      8  C   UNL     1       1.567  11.851  32.076  1.00  0.00    -0.023 CG0
ATOM      9  G   UNL     1       3.067  11.694  31.907  1.00  0.00     0.000 G0
ENDBRANCH   5   6
ENDBRANCH   4   5
ENDBRANCH   2   4
BRANCH   1  10
ATOM     10  C   UNL     1       2.699  12.032  28.434  1.00  0.00     0.111 C 
BRANCH  10  11
ATOM     11  C   UNL     1       3.813  11.919  29.446  1.00  0.00     0.163 C 
ATOM     12  O   UNL     1       4.841  11.277  29.099  1.00  0.00    -0.294 OA
BRANCH  11  13
ATOM     13  C   UNL     1       3.749  12.503  30.827  1.00  0.00    -0.002 C 
ATOM     14  C   UNL     1       4.416  13.660  31.125  1.00  0.00    -0.069 C 
ATOM     15  C   UNL     1       4.569  14.154  32.546  1.00  0.00     0.039 C 
ATOM     16  C   UNL     1       4.997  14.539  30.040  1.00  0.00     0.039 C 
BRANCH  13  17
ATOM     17  C   UNL     1       3.076  11.678  31.918  1.00  0.00     0.066 CG0
ATOM     18  G   UNL     1       1.576  11.856  32.073  1.00  0.00     0.000 G0
ENDBRANCH  13  17
ENDBRANCH  11  13
ENDBRANCH  10  11
ENDBRANCH   1  10
TORSDOF 0
ENDMDL
MODEL 4
REMARK VINA RESULT:    -4.852      2.120      4.786
REMARK INTER + INTRA:          -6.072
REMARK INTER:                  -6.518
REMARK INTRA:                   0.446
REMARK UNBOUND:                 0.765
REMARK SMILES CC1=CCC(=C(C)C)C(=O)CC(C)=CCC1
REMARK SMILES IDX 12 1 14 2 13 3 15 4 16 5 2 6 1 7 3 8 11 10 9 11 10 12 5 13
REMARK SMILES IDX 6 14 7 15 8 16 4 17
REMARK H PARENT
REMARK Flexibility Score: 60.00
ROOT
ATOM      1  C   UNL     1       0.331  13.346  30.906  1.00  0.00    -0.070 C 
ATOM      2  C   UNL     1       0.206  13.529  29.572  1.00  0.00    -0.027 C 
ATOM      3  C   UNL     1      -0.732  12.546  31.615  1.00  0.00     0.039 C 
ENDROOT
BRANCH   2   4
ATOM      4  C   UNL     1       1.244  14.172  28.687  1.00  0.00     0.032 C 
BRANCH   4   5
ATOM      5  C   UNL     1       2.160  13.096  28.094  1.00  0.00     0.034 C 
BRANCH   5   6
ATOM      6  C   UNL     1       3.565  13.604  27.843  1.00  0.00    -0.077 C 
ATOM      7  C   UNL     1       3.838  14.380  26.579  1.00  0.00     0.039 C 
ATOM      8  C   UNL     1       4.615  13.340  28.660  1.00  0.00    -0.023 CG0
ATOM      9  G   UNL     1       4.584  12.637  30.005  1.00  0.00     0.000 G0
ENDBRANCH   5   6
ENDBRANCH   4   5
ENDBRANCH   2   4
BRANCH   1  10
ATOM     10  C   UNL     1       1.472  13.918  31.725  1.00  0.00     0.111 C 
BRANCH  10  11
ATOM     11  C   UNL     1       2.675  13.008  31.727  1.00  0.00     0.163 C 
ATOM     12  O   UNL     1       2.524  11.858  32.223  1.00  0.00    -0.294 OA
BRANCH  11  13
ATOM     13  C   UNL     1       4.023  13.403  31.199  1.00  0.00    -0.002 C 
ATOM     14  C   UNL     1       4.650  14.527  31.662  1.00  0.00    -0.069 C 
ATOM     15  C   UNL     1       5.889  15.086  30.999  1.00  0.00     0.039 C 
ATOM     16  C   UNL     1       4.165  15.248  32.900  1.00  0.00     0.039 C 
BRANCH  13  17
ATOM     17  C   UNL     1       4.579  12.622  30.013  1.00  0.00     0.066 CG0
ATOM     18  G   UNL     1       4.603  13.344  28.678  1.00  0.00     0.000 G0
ENDBRANCH  13  17
ENDBRANCH  11  13
ENDBRANCH  10  11
ENDBRANCH   1  10
TORSDOF 0
ENDMDL
MODEL 5
REMARK VINA RESULT:    -4.737      1.917      3.266
REMARK INTER + INTRA:          -5.910
REMARK INTER:                  -6.592
REMARK INTRA:                   0.682
REMARK UNBOUND:                 0.765
REMARK SMILES CC1=CCC(=C(C)C)C(=O)CC(C)=CCC1
REMARK SMILES IDX 12 1 14 2 13 3 15 4 16 5 2 6 1 7 3 8 11 10 9 11 10 12 5 13
REMARK SMILES IDX 6 14 7 15 8 16 4 17
REMARK H PARENT
REMARK Flexibility Score: 60.00
ROOT
ATOM      1  C   UNL     1       3.568  13.586  31.479  1.00  0.00    -0.070 C 
ATOM      2  C   UNL     1       2.919  12.588  32.121  1.00  0.00    -0.027 C 
ATOM      3  C   UNL     1       4.639  14.335  32.229  1.00  0.00     0.039 C 
ENDROOT
BRANCH   2   4
ATOM      4  C   UNL     1       1.931  11.646  31.481  1.00  0.00     0.032 C 
BRANCH   4   5
ATOM      5  C   UNL     1       2.518  10.231  31.434  1.00  0.00     0.034 C 
BRANCH   5   6
ATOM      6  C   UNL     1       4.002  10.228  31.128  1.00  0.00    -0.077 C 
ATOM      7  C   UNL     1       4.968   9.892  32.236  1.00  0.00     0.039 C 
ATOM      8  C   UNL     1       4.520  10.582  29.925  1.00  0.00    -0.023 CG0
ATOM      9  G   UNL     1       3.759  10.902  28.651  1.00  0.00     0.000 G0
ENDBRANCH   5   6
ENDBRANCH   4   5
ENDBRANCH   2   4
BRANCH   1  10
ATOM     10  C   UNL     1       3.259  14.000  30.053  1.00  0.00     0.111 C 
BRANCH  10  11
ATOM     11  C   UNL     1       4.247  13.417  29.072  1.00  0.00     0.163 C 
ATOM     12  O   UNL     1       5.410  13.905  29.071  1.00  0.00    -0.294 OA
BRANCH  11  13
ATOM     13  C   UNL     1       3.913  12.323  28.100  1.00  0.00    -0.002 C 
ATOM     14  C   UNL     1       3.594  12.618  26.803  1.00  0.00    -0.069 C 
ATOM     15  C   UNL     1       3.030  11.579  25.860  1.00  0.00     0.039 C 
ATOM     16  C   UNL     1       3.835  13.993  26.223  1.00  0.00     0.039 C 
BRANCH  13  17
ATOM     17  C   UNL     1       3.766  10.907  28.647  1.00  0.00     0.066 CG0
ATOM     18  G   UNL     1       4.533  10.588  29.917  1.00  0.00     0.000 G0
ENDBRANCH  13  17
ENDBRANCH  11  13
ENDBRANCH  10  11
ENDBRANCH   1  10
TORSDOF 0
ENDMDL
MODEL 6
REMARK VINA RESULT:    -4.737      1.912      4.259
REMARK INTER + INTRA:          -5.910
REMARK INTER:                  -6.109
REMARK INTRA:                   0.200
REMARK UNBOUND:                 0.765
REMARK SMILES CC1=CCC(=C(C)C)C(=O)CC(C)=CCC1
REMARK SMILES IDX 12 1 14 2 13 3 15 4 16 5 2 6 1 7 3 8 11 10 9 11 10 12 5 13
REMARK SMILES IDX 6 14 7 15 8 16 4 17
REMARK H PARENT
REMARK Flexibility Score: 60.00
ROOT
ATOM      1  C   UNL     1       3.912  10.597  29.051  1.00  0.00    -0.070 C 
ATOM      2  C   UNL     1       3.971  11.450  28.002  1.00  0.00    -0.027 C 
ATOM      3  C   UNL     1       5.187   9.923  29.489  1.00  0.00     0.039 C 
ENDROOT
BRANCH   2   4
ATOM      4  C   UNL     1       2.831  12.316  27.528  1.00  0.00     0.032 C 
BRANCH   4   5
ATOM      5  C   UNL     1       2.852  13.655  28.272  1.00  0.00     0.034 C 
BRANCH   5   6
ATOM      6  C   UNL     1       4.219  13.985  28.836  1.00  0.00    -0.077 C 
ATOM      7  C   UNL     1       5.308  14.417  27.885  1.00  0.00     0.039 C 
ATOM      8  C   UNL     1       4.544  13.846  30.145  1.00  0.00    -0.023 CG0
ATOM      9  G   UNL     1       3.618  13.486  31.293  1.00  0.00     0.000 G0
ENDBRANCH   5   6
ENDBRANCH   4   5
ENDBRANCH   2   4
BRANCH   1  10
ATOM     10  C   UNL     1       2.630  10.272  29.792  1.00  0.00     0.111 C 
BRANCH  10  11
ATOM     11  C   UNL     1       2.375  11.236  30.924  1.00  0.00     0.163 C 
ATOM     12  O   UNL     1       1.175  11.407  31.273  1.00  0.00    -0.294 OA
BRANCH  11  13
ATOM     13  C   UNL     1       3.455  12.005  31.627  1.00  0.00    -0.002 C 
ATOM     14  C   UNL     1       4.167  11.433  32.646  1.00  0.00    -0.069 C 
ATOM     15  C   UNL     1       5.095  12.238  33.528  1.00  0.00     0.039 C 
ATOM     16  C   UNL     1       4.104   9.946  32.915  1.00  0.00     0.039 C 
BRANCH  13  17
ATOM     17  C   UNL     1       3.606  13.486  31.295  1.00  0.00     0.066 CG0
ATOM     18  G   UNL     1       4.547  13.832  30.156  1.00  0.00     0.000 G0
ENDBRANCH  13  17
ENDBRANCH  11  13
ENDBRANCH  10  11
ENDBRANCH   1  10
TORSDOF 0
ENDMDL
MODEL 7
REMARK VINA RESULT:    -4.627      1.600      3.656
REMARK INTER + INTRA:          -5.755
REMARK INTER:                  -6.394
REMARK INTRA:                   0.639
REMARK UNBOUND:                 0.765
REMARK SMILES CC1=CCC(=C(C)C)C(=O)CC(C)=CCC1
REMARK SMILES IDX 12 1 14 2 13 3 15 4 16 5 2 6 1 7 3 8 11 10 9 11 10 12 5 13
REMARK SMILES IDX 6 14 7 15 8 16 4 17
REMARK H PARENT
REMARK Flexibility Score: 60.00
ROOT
ATOM      1  C   UNL     1       2.496  12.739  28.049  1.00  0.00    -0.070 C 
ATOM      2  C   UNL     1       1.423  12.274  28.729  1.00  0.00    -0.027 C 
ATOM      3  C   UNL     1       3.020  11.915  26.900  1.00  0.00     0.039 C 
ENDROOT
BRANCH   2   4
ATOM      4  C   UNL     1       0.684  13.034  29.800  1.00  0.00     0.032 C 
BRANCH   4   5
ATOM      5  C   UNL     1       0.843  12.321  31.147  1.00  0.00     0.034 C 
BRANCH   5   6
ATOM      6  C   UNL     1       2.153  11.565  31.252  1.00  0.00    -0.077 C 
ATOM      7  C   UNL     1       2.139  10.067  31.074  1.00  0.00     0.039 C 
ATOM      8  C   UNL     1       3.334  12.152  31.570  1.00  0.00    -0.023 CG0
ATOM      9  G   UNL     1       3.612  13.635  31.738  1.00  0.00     0.000 G0
ENDBRANCH   5   6
ENDBRANCH   4   5
ENDBRANCH   2   4
BRANCH   1  10
ATOM     10  C   UNL     1       3.208  14.032  28.395  1.00  0.00     0.111 C 
BRANCH  10  11
ATOM     11  C   UNL     1       4.417  13.794  29.266  1.00  0.00     0.163 C 
ATOM     12  O   UNL     1       5.366  13.133  28.763  1.00  0.00    -0.294 OA
BRANCH  11  13
ATOM     13  C   UNL     1       4.534  14.276  30.682  1.00  0.00    -0.002 C 
ATOM     14  C   UNL     1       5.537  15.134  31.045  1.00  0.00    -0.069 C 
ATOM     15  C   UNL     1       5.830  15.458  32.493  1.00  0.00     0.039 C 
ATOM     16  C   UNL     1       6.379  15.847  30.011  1.00  0.00     0.039 C 
BRANCH  13  17
ATOM     17  C   UNL     1       3.621  13.644  31.727  1.00  0.00     0.066 CG0
ATOM     18  G   UNL     1       3.319  12.166  31.556  1.00  0.00     0.000 G0
ENDBRANCH  13  17
ENDBRANCH  11  13
ENDBRANCH  10  11
ENDBRANCH   1  10
TORSDOF 0
ENDMDL
MODEL 8
REMARK VINA RESULT:    -4.562      1.810      3.471
REMARK INTER + INTRA:          -5.664
REMARK INTER:                  -6.317
REMARK INTRA:                   0.653
REMARK UNBOUND:                 0.765
REMARK SMILES CC1=CCC(=C(C)C)C(=O)CC(C)=CCC1
REMARK SMILES IDX 12 1 14 2 13 3 15 4 16 5 2 6 1 7 3 8 11 10 9 11 10 12 5 13
REMARK SMILES IDX 6 14 7 15 8 16 4 17
REMARK H PARENT
REMARK Flexibility Score: 60.00
ROOT
ATOM      1  C   UNL     1       3.224  11.438  27.655  1.00  0.00    -0.070 C 
ATOM      2  C   UNL     1       4.050  10.489  28.152  1.00  0.00    -0.027 C 
ATOM      3  C   UNL     1       3.381  11.829  26.208  1.00  0.00     0.039 C 
ENDROOT
BRANCH   2   4
ATOM      4  C   UNL     1       3.936   9.877  29.525  1.00  0.00     0.032 C 
BRANCH   4   5
ATOM      5  C   UNL     1       4.645  10.767  30.551  1.00  0.00     0.034 C 
BRANCH   5   6
ATOM      6  C   UNL     1       3.674  11.472  31.477  1.00  0.00    -0.077 C 
ATOM      7  C   UNL     1       2.810  10.638  32.389  1.00  0.00     0.039 C 
ATOM      8  C   UNL     1       3.485  12.815  31.482  1.00  0.00    -0.023 CG0
ATOM      9  G   UNL     1       4.265  13.861  30.706  1.00  0.00     0.000 G0
ENDBRANCH   5   6
ENDBRANCH   4   5
ENDBRANCH   2   4
BRANCH   1  10
ATOM     10  C   UNL     1       2.164  12.138  28.483  1.00  0.00     0.111 C 
BRANCH  10  11
ATOM     11  C   UNL     1       2.534  13.572  28.775  1.00  0.00     0.163 C 
ATOM     12  O   UNL     1       1.635  14.441  28.612  1.00  0.00    -0.294 OA
BRANCH  11  13
ATOM     13  C   UNL     1       3.899  14.008  29.219  1.00  0.00    -0.002 C 
ATOM     14  C   UNL     1       4.846  14.374  28.302  1.00  0.00    -0.069 C 
ATOM     15  C   UNL     1       6.292  14.595  28.685  1.00  0.00     0.039 C 
ATOM     16  C   UNL     1       4.486  14.629  26.855  1.00  0.00     0.039 C 
BRANCH  13  17
ATOM     17  C   UNL     1       4.250  13.856  30.695  1.00  0.00     0.066 CG0
ATOM     18  G   UNL     1       3.476  12.804  31.470  1.00  0.00     0.000 G0
ENDBRANCH  13  17
ENDBRANCH  11  13
ENDBRANCH  10  11
ENDBRANCH   1  10
TORSDOF 0
ENDMDL
MODEL 9
REMARK VINA RESULT:    -4.525      1.823      3.610
REMARK INTER + INTRA:          -5.611
REMARK INTER:                  -5.783
REMARK INTRA:                   0.171
REMARK UNBOUND:                 0.765
REMARK SMILES CC1=CCC(=C(C)C)C(=O)CC(C)=CCC1
REMARK SMILES IDX 12 1 14 2 13 3 15 4 16 5 2 6 1 7 3 8 11 10 9 11 10 12 5 13
REMARK SMILES IDX 6 14 7 15 8 16 4 17
REMARK H PARENT
REMARK Flexibility Score: 60.00
ROOT
ATOM      1  C   UNL     1       4.475  13.485  30.731  1.00  0.00    -0.070 C 
ATOM      2  C   UNL     1       4.945  14.317  29.773  1.00  0.00    -0.027 C 
ATOM      3  C   UNL     1       4.032  14.088  32.039  1.00  0.00     0.039 C 
ENDROOT
BRANCH   2   4
ATOM      4  C   UNL     1       5.289  13.906  28.364  1.00  0.00     0.032 C 
BRANCH   4   5
ATOM      5  C   UNL     1       4.134  14.262  27.421  1.00  0.00     0.034 C 
BRANCH   5   6
ATOM      6  C   UNL     1       3.329  13.048  27.006  1.00  0.00    -0.077 C 
ATOM      7  C   UNL     1       3.770  12.268  25.793  1.00  0.00     0.039 C 
ATOM      8  C   UNL     1       2.185  12.660  27.624  1.00  0.00    -0.023 CG0
ATOM      9  G   UNL     1       1.575  13.241  28.886  1.00  0.00     0.000 G0
ENDBRANCH   5   6
ENDBRANCH   4   5
ENDBRANCH   2   4
BRANCH   1  10
ATOM     10  C   UNL     1       4.390  11.981  30.561  1.00  0.00     0.111 C 
BRANCH  10  11
ATOM     11  C   UNL     1       2.992  11.532  30.215  1.00  0.00     0.163 C 
ATOM     12  O   UNL     1       2.833  10.312  29.936  1.00  0.00    -0.294 OA
BRANCH  11  13
ATOM     13  C   UNL     1       1.807  12.452  30.164  1.00  0.00    -0.002 C 
ATOM     14  C   UNL     1       0.886  12.457  31.176  1.00  0.00    -0.069 C 
ATOM     15  C   UNL     1      -0.431  13.191  31.058  1.00  0.00     0.039 C 
ATOM     16  C   UNL     1       1.157  11.768  32.494  1.00  0.00     0.039 C 
BRANCH  13  17
ATOM     17  C   UNL     1       1.571  13.237  28.879  1.00  0.00     0.066 CG0
ATOM     18  G   UNL     1       2.187  12.667  27.614  1.00  0.00     0.000 G0
ENDBRANCH  13  17
ENDBRANCH  11  13
ENDBRANCH  10  11
ENDBRANCH   1  10
TORSDOF 0
ENDMDL
