MODEL 1
REMARK VINA RESULT:    -5.885      0.000      0.000
REMARK INTER + INTRA:          -8.007
REMARK INTER:                  -7.261
REMARK INTRA:                  -0.746
REMARK UNBOUND:                -0.746
REMARK SMILES CC(C)=CCC[C@H](C)c1ccc(C)cc1
REMARK SMILES IDX 6 1 7 2 8 3 9 4 13 5 12 6 11 7 14 8 10 9 15 10 5 11 4 12
REMARK SMILES IDX 2 13 1 14 3 15
REMARK H PARENT
REMARK Flexibility Score: inf
ROOT
ATOM      1  C   UNL     1      29.859  22.826   3.548  1.00  0.00     0.012 C 
ENDROOT
BRANCH   1   2
ATOM      2  C   UNL     1      29.423  21.406   3.975  1.00  0.00     0.016 C 
ATOM      3  C   UNL     1      29.681  20.362   2.877  1.00  0.00     0.013 C 
BRANCH   2   4
ATOM      4  C   UNL     1      27.959  21.402   4.377  1.00  0.00    -0.045 A 
ATOM      5  C   UNL     1      23.795  21.449   5.525  1.00  0.00     0.044 C 
ATOM      6  C   UNL     1      25.244  21.407   5.142  1.00  0.00    -0.051 A 
ATOM      7  C   UNL     1      26.205  22.045   5.938  1.00  0.00     0.004 A 
ATOM      8  C   UNL     1      25.641  20.788   3.948  1.00  0.00     0.004 A 
ATOM      9  C   UNL     1      27.552  22.039   5.563  1.00  0.00     0.004 A 
ATOM     10  C   UNL     1      26.987  20.780   3.571  1.00  0.00     0.004 A 
ENDBRANCH   2   4
ENDBRANCH   1   2
BRANCH   1  11
ATOM     11  C   UNL     1      30.837  23.469   4.543  1.00  0.00     0.028 C 
BRANCH  11  12
ATOM     12  C   UNL     1      30.906  24.961   4.333  1.00  0.00    -0.028 C 
ATOM     13  C   UNL     1      30.050  25.851   4.883  1.00  0.00    -0.080 C 
ATOM     14  C   UNL     1      30.217  27.311   4.548  1.00  0.00     0.039 C 
ATOM     15  C   UNL     1      28.950  25.425   5.828  1.00  0.00     0.039 C 
ENDBRANCH  11  12
ENDBRANCH   1  11
TORSDOF 4
ENDMDL
MODEL 2
REMARK VINA RESULT:    -5.773      1.010      5.390
REMARK INTER + INTRA:          -7.870
REMARK INTER:                  -7.078
REMARK INTRA:                  -0.792
REMARK UNBOUND:                -0.746
REMARK SMILES CC(C)=CCC[C@H](C)c1ccc(C)cc1
REMARK SMILES IDX 6 1 7 2 8 3 9 4 13 5 12 6 11 7 14 8 10 9 15 10 5 11 4 12
REMARK SMILES IDX 2 13 1 14 3 15
REMARK H PARENT
REMARK Flexibility Score: inf
ROOT
ATOM      1  C   UNL     1      28.731  21.994   3.355  1.00  0.00     0.012 C 
ENDROOT
BRANCH   1   2
ATOM      2  C   UNL     1      30.109  22.611   3.683  1.00  0.00     0.016 C 
ATOM      3  C   UNL     1      30.894  21.775   4.705  1.00  0.00     0.013 C 
BRANCH   2   4
ATOM      4  C   UNL     1      29.946  24.036   4.178  1.00  0.00    -0.045 A 
ATOM      5  C   UNL     1      29.457  28.109   5.534  1.00  0.00     0.044 C 
ATOM      6  C   UNL     1      29.653  26.693   5.080  1.00  0.00    -0.051 A 
ATOM      7  C   UNL     1      30.363  26.420   3.903  1.00  0.00     0.004 A 
ATOM      8  C   UNL     1      29.066  25.636   5.791  1.00  0.00     0.004 A 
ATOM      9  C   UNL     1      30.514  25.103   3.458  1.00  0.00     0.004 A 
ATOM     10  C   UNL     1      29.216  24.319   5.348  1.00  0.00     0.004 A 
ENDBRANCH   2   4
ENDBRANCH   1   2
BRANCH   1  11
ATOM     11  C   UNL     1      28.246  21.019   4.438  1.00  0.00     0.028 C 
BRANCH  11  12
ATOM     12  C   UNL     1      26.741  20.919   4.428  1.00  0.00    -0.028 C 
ATOM     13  C   UNL     1      25.928  21.525   5.323  1.00  0.00    -0.080 C 
ATOM     14  C   UNL     1      24.443  21.299   5.213  1.00  0.00     0.039 C 
ATOM     15  C   UNL     1      26.467  22.426   6.410  1.00  0.00     0.039 C 
ENDBRANCH  11  12
ENDBRANCH   1  11
TORSDOF 4
ENDMDL
MODEL 3
REMARK VINA RESULT:    -5.715      1.527      2.706
REMARK INTER + INTRA:          -7.798
REMARK INTER:                  -6.379
REMARK INTRA:                  -1.419
REMARK UNBOUND:                -0.746
REMARK SMILES CC(C)=CCC[C@H](C)c1ccc(C)cc1
REMARK SMILES IDX 6 1 7 2 8 3 9 4 13 5 12 6 11 7 14 8 10 9 15 10 5 11 4 12
REMARK SMILES IDX 2 13 1 14 3 15
REMARK H PARENT
REMARK Flexibility Score: inf
ROOT
ATOM      1  C   UNL     1      30.434  19.627   5.187  1.00  0.00     0.012 C 
ENDROOT
BRANCH   1   2
ATOM      2  C   UNL     1      29.264  18.869   4.520  1.00  0.00     0.016 C 
ATOM      3  C   UNL     1      29.459  18.714   3.003  1.00  0.00     0.013 C 
BRANCH   2   4
ATOM      4  C   UNL     1      27.947  19.562   4.816  1.00  0.00    -0.045 A 
ATOM      5  C   UNL     1      24.169  21.486   5.643  1.00  0.00     0.044 C 
ATOM      6  C   UNL     1      25.492  20.845   5.347  1.00  0.00    -0.051 A 
ATOM      7  C   UNL     1      25.751  20.311   4.078  1.00  0.00     0.004 A 
ATOM      8  C   UNL     1      26.454  20.712   6.359  1.00  0.00     0.004 A 
ATOM      9  C   UNL     1      26.970  19.680   3.811  1.00  0.00     0.004 A 
ATOM     10  C   UNL     1      27.673  20.082   6.095  1.00  0.00     0.004 A 
ENDBRANCH   2   4
ENDBRANCH   1   2
BRANCH   1  11
ATOM     11  C   UNL     1      31.131  20.603   4.229  1.00  0.00     0.028 C 
BRANCH  11  12
ATOM     12  C   UNL     1      30.893  22.030   4.657  1.00  0.00    -0.028 C 
ATOM     13  C   UNL     1      30.036  22.879   4.047  1.00  0.00    -0.080 C 
ATOM     14  C   UNL     1      29.935  24.291   4.561  1.00  0.00     0.039 C 
ATOM     15  C   UNL     1      29.174  22.447   2.883  1.00  0.00     0.039 C 
ENDBRANCH  11  12
ENDBRANCH   1  11
TORSDOF 4
ENDMDL
MODEL 4
REMARK VINA RESULT:    -5.648      1.394      5.344
REMARK INTER + INTRA:          -7.715
REMARK INTER:                  -6.524
REMARK INTRA:                  -1.191
REMARK UNBOUND:                -0.746
REMARK SMILES CC(C)=CCC[C@H](C)c1ccc(C)cc1
REMARK SMILES IDX 6 1 7 2 8 3 9 4 13 5 12 6 11 7 14 8 10 9 15 10 5 11 4 12
REMARK SMILES IDX 2 13 1 14 3 15
REMARK H PARENT
REMARK Flexibility Score: inf
ROOT
ATOM      1  C   UNL     1      28.387  19.532   3.457  1.00  0.00     0.012 C 
ENDROOT
BRANCH   1   2
ATOM      2  C   UNL     1      29.734  19.797   4.168  1.00  0.00     0.016 C 
ATOM      3  C   UNL     1      29.797  19.147   5.559  1.00  0.00     0.013 C 
BRANCH   2   4
ATOM      4  C   UNL     1      29.994  21.289   4.267  1.00  0.00    -0.045 A 
ATOM      5  C   UNL     1      30.777  25.531   4.509  1.00  0.00     0.044 C 
ATOM      6  C   UNL     1      30.500  24.058   4.455  1.00  0.00    -0.051 A 
ATOM      7  C   UNL     1      31.545  23.136   4.607  1.00  0.00     0.004 A 
ATOM      8  C   UNL     1      29.206  23.592   4.183  1.00  0.00     0.004 A 
ATOM      9  C   UNL     1      31.295  21.763   4.520  1.00  0.00     0.004 A 
ATOM     10  C   UNL     1      28.953  22.220   4.096  1.00  0.00     0.004 A 
ENDBRANCH   2   4
ENDBRANCH   1   2
BRANCH   1  11
ATOM     11  C   UNL     1      27.327  18.942   4.399  1.00  0.00     0.028 C 
BRANCH  11  12
ATOM     12  C   UNL     1      26.096  19.813   4.428  1.00  0.00    -0.028 C 
ATOM     13  C   UNL     1      25.758  20.624   5.456  1.00  0.00    -0.080 C 
ATOM     14  C   UNL     1      24.474  21.406   5.362  1.00  0.00     0.039 C 
ATOM     15  C   UNL     1      26.635  20.776   6.677  1.00  0.00     0.039 C 
ENDBRANCH  11  12
ENDBRANCH   1  11
TORSDOF 4
ENDMDL
MODEL 5
REMARK VINA RESULT:    -5.502      3.831      5.532
REMARK INTER + INTRA:          -7.536
REMARK INTER:                  -6.927
REMARK INTRA:                  -0.609
REMARK UNBOUND:                -0.746
REMARK SMILES CC(C)=CCC[C@H](C)c1ccc(C)cc1
REMARK SMILES IDX 6 1 7 2 8 3 9 4 13 5 12 6 11 7 14 8 10 9 15 10 5 11 4 12
REMARK SMILES IDX 2 13 1 14 3 15
REMARK H PARENT
REMARK Flexibility Score: inf
ROOT
ATOM      1  C   UNL     1      29.954  19.145   5.398  1.00  0.00     0.012 C 
ENDROOT
BRANCH   1   2
ATOM      2  C   UNL     1      28.894  18.957   4.288  1.00  0.00     0.016 C 
ATOM      3  C   UNL     1      29.396  19.431   2.916  1.00  0.00     0.013 C 
BRANCH   2   4
ATOM      4  C   UNL     1      27.608  19.672   4.659  1.00  0.00    -0.045 A 
ATOM      5  C   UNL     1      23.916  21.665   5.688  1.00  0.00     0.044 C 
ATOM      6  C   UNL     1      25.211  21.001   5.326  1.00  0.00    -0.051 A 
ATOM      7  C   UNL     1      25.468  20.627   3.999  1.00  0.00     0.004 A 
ATOM      8  C   UNL     1      26.145  20.684   6.323  1.00  0.00     0.004 A 
ATOM      9  C   UNL     1      26.658  19.974   3.666  1.00  0.00     0.004 A 
ATOM     10  C   UNL     1      27.336  20.031   5.992  1.00  0.00     0.004 A 
ENDBRANCH   2   4
ENDBRANCH   1   2
BRANCH   1  11
ATOM     11  C   UNL     1      31.383  18.875   4.904  1.00  0.00     0.028 C 
BRANCH  11  12
ATOM     12  C   UNL     1      31.621  17.393   4.748  1.00  0.00    -0.028 C 
ATOM     13  C   UNL     1      32.441  16.843   3.825  1.00  0.00    -0.080 C 
ATOM     14  C   UNL     1      32.547  15.342   3.760  1.00  0.00     0.039 C 
ATOM     15  C   UNL     1      33.258  17.689   2.875  1.00  0.00     0.039 C 
ENDBRANCH  11  12
ENDBRANCH   1  11
TORSDOF 4
ENDMDL
MODEL 6
REMARK VINA RESULT:    -5.472      1.124      5.549
REMARK INTER + INTRA:          -7.498
REMARK INTER:                  -6.814
REMARK INTRA:                  -0.684
REMARK UNBOUND:                -0.746
REMARK SMILES CC(C)=CCC[C@H](C)c1ccc(C)cc1
REMARK SMILES IDX 6 1 7 2 8 3 9 4 13 5 12 6 11 7 14 8 10 9 15 10 5 11 4 12
REMARK SMILES IDX 2 13 1 14 3 15
REMARK H PARENT
REMARK Flexibility Score: inf
ROOT
ATOM      1  C   UNL     1      29.560  21.570   4.517  1.00  0.00     0.012 C 
ENDROOT
BRANCH   1   2
ATOM      2  C   UNL     1      30.447  22.643   3.847  1.00  0.00     0.016 C 
ATOM      3  C   UNL     1      31.946  22.357   4.029  1.00  0.00     0.013 C 
BRANCH   2   4
ATOM      4  C   UNL     1      30.102  24.022   4.379  1.00  0.00    -0.045 A 
ATOM      5  C   UNL     1      29.108  27.965   5.838  1.00  0.00     0.044 C 
ATOM      6  C   UNL     1      29.475  26.594   5.353  1.00  0.00    -0.051 A 
ATOM      7  C   UNL     1      30.439  26.433   4.348  1.00  0.00     0.004 A 
ATOM      8  C   UNL     1      28.806  25.467   5.851  1.00  0.00     0.004 A 
ATOM      9  C   UNL     1      30.755  25.159   3.869  1.00  0.00     0.004 A 
ATOM     10  C   UNL     1      29.121  24.191   5.373  1.00  0.00     0.004 A 
ENDBRANCH   2   4
ENDBRANCH   1   2
BRANCH   1  11
ATOM     11  C   UNL     1      28.580  20.913   3.533  1.00  0.00     0.028 C 
BRANCH  11  12
ATOM     12  C   UNL     1      27.159  21.304   3.856  1.00  0.00    -0.028 C 
ATOM     13  C   UNL     1      26.225  20.457   4.344  1.00  0.00    -0.080 C 
ATOM     14  C   UNL     1      24.832  20.980   4.580  1.00  0.00     0.039 C 
ATOM     15  C   UNL     1      26.544  19.016   4.670  1.00  0.00     0.039 C 
ENDBRANCH  11  12
ENDBRANCH   1  11
TORSDOF 4
ENDMDL
MODEL 7
REMARK VINA RESULT:    -5.098      1.766      2.589
REMARK INTER + INTRA:          -7.036
REMARK INTER:                  -6.371
REMARK INTRA:                  -0.665
REMARK UNBOUND:                -0.746
REMARK SMILES CC(C)=CCC[C@H](C)c1ccc(C)cc1
REMARK SMILES IDX 6 1 7 2 8 3 9 4 13 5 12 6 11 7 14 8 10 9 15 10 5 11 4 12
REMARK SMILES IDX 2 13 1 14 3 15
REMARK H PARENT
REMARK Flexibility Score: inf
ROOT
ATOM      1  C   UNL     1      31.107  23.149   3.358  1.00  0.00     0.012 C 
ENDROOT
BRANCH   1   2
ATOM      2  C   UNL     1      31.380  21.978   4.330  1.00  0.00     0.016 C 
ATOM      3  C   UNL     1      32.539  21.086   3.857  1.00  0.00     0.013 C 
BRANCH   2   4
ATOM      4  C   UNL     1      30.122  21.152   4.528  1.00  0.00    -0.045 A 
ATOM      5  C   UNL     1      26.530  18.807   5.034  1.00  0.00     0.044 C 
ATOM      6  C   UNL     1      27.773  19.633   4.887  1.00  0.00    -0.051 A 
ATOM      7  C   UNL     1      27.708  20.914   4.322  1.00  0.00     0.004 A 
ATOM      8  C   UNL     1      29.020  19.103   5.247  1.00  0.00     0.004 A 
ATOM      9  C   UNL     1      28.871  21.670   4.149  1.00  0.00     0.004 A 
ATOM     10  C   UNL     1      30.184  19.857   5.076  1.00  0.00     0.004 A 
ENDBRANCH   2   4
ENDBRANCH   1   2
BRANCH   1  11
ATOM     11  C   UNL     1      31.466  24.515   3.962  1.00  0.00     0.028 C 
BRANCH  11  12
ATOM     12  C   UNL     1      30.323  25.048   4.790  1.00  0.00    -0.028 C 
ATOM     13  C   UNL     1      30.060  26.361   4.974  1.00  0.00    -0.080 C 
ATOM     14  C   UNL     1      28.906  26.745   5.863  1.00  0.00     0.039 C 
ATOM     15  C   UNL     1      30.876  27.443   4.305  1.00  0.00     0.039 C 
ENDBRANCH  11  12
ENDBRANCH   1  11
TORSDOF 4
ENDMDL
MODEL 8
REMARK VINA RESULT:    -5.036      2.922      6.514
REMARK INTER + INTRA:          -6.960
REMARK INTER:                  -6.191
REMARK INTRA:                  -0.769
REMARK UNBOUND:                -0.746
REMARK SMILES CC(C)=CCC[C@H](C)c1ccc(C)cc1
REMARK SMILES IDX 6 1 7 2 8 3 9 4 13 5 12 6 11 7 14 8 10 9 15 10 5 11 4 12
REMARK SMILES IDX 2 13 1 14 3 15
REMARK H PARENT
REMARK Flexibility Score: inf
ROOT
ATOM      1  C   UNL     1      28.303  18.881   4.899  1.00  0.00     0.012 C 
ENDROOT
BRANCH   1   2
ATOM      2  C   UNL     1      29.432  19.919   5.090  1.00  0.00     0.016 C 
ATOM      3  C   UNL     1      29.173  21.213   4.303  1.00  0.00     0.013 C 
BRANCH   2   4
ATOM      4  C   UNL     1      30.771  19.321   4.700  1.00  0.00    -0.045 A 
ATOM      5  C   UNL     1      34.611  17.653   3.631  1.00  0.00     0.044 C 
ATOM      6  C   UNL     1      33.269  18.230   3.972  1.00  0.00    -0.051 A 
ATOM      7  C   UNL     1      33.074  19.618   3.966  1.00  0.00     0.004 A 
ATOM      8  C   UNL     1      32.219  17.390   4.369  1.00  0.00     0.004 A 
ATOM      9  C   UNL     1      31.835  20.160   4.321  1.00  0.00     0.004 A 
ATOM     10  C   UNL     1      30.979  17.929   4.724  1.00  0.00     0.004 A 
ENDBRANCH   2   4
ENDBRANCH   1   2
BRANCH   1  11
ATOM     11  C   UNL     1      27.141  19.083   5.883  1.00  0.00     0.028 C 
BRANCH  11  12
ATOM     12  C   UNL     1      25.937  19.652   5.175  1.00  0.00    -0.028 C 
ATOM     13  C   UNL     1      25.466  20.907   5.355  1.00  0.00    -0.080 C 
ATOM     14  C   UNL     1      24.226  21.323   4.608  1.00  0.00     0.039 C 
ATOM     15  C   UNL     1      26.155  21.896   6.267  1.00  0.00     0.039 C 
ENDBRANCH  11  12
ENDBRANCH   1  11
TORSDOF 4
ENDMDL
MODEL 9
REMARK VINA RESULT:    -4.962      2.635      6.030
REMARK INTER + INTRA:          -6.869
REMARK INTER:                  -5.710
REMARK INTRA:                  -1.159
REMARK UNBOUND:                -0.746
REMARK SMILES CC(C)=CCC[C@H](C)c1ccc(C)cc1
REMARK SMILES IDX 6 1 7 2 8 3 9 4 13 5 12 6 11 7 14 8 10 9 15 10 5 11 4 12
REMARK SMILES IDX 2 13 1 14 3 15
REMARK H PARENT
REMARK Flexibility Score: inf
ROOT
ATOM      1  C   UNL     1      29.198  21.564   3.161  1.00  0.00     0.012 C 
ENDROOT
BRANCH   1   2
ATOM      2  C   UNL     1      30.200  21.328   4.314  1.00  0.00     0.016 C 
ATOM      3  C   UNL     1      31.246  22.449   4.415  1.00  0.00     0.013 C 
BRANCH   2   4
ATOM      4  C   UNL     1      30.881  19.981   4.155  1.00  0.00    -0.045 A 
ATOM      5  C   UNL     1      32.765  16.119   3.707  1.00  0.00     0.044 C 
ATOM      6  C   UNL     1      32.135  17.470   3.879  1.00  0.00    -0.051 A 
ATOM      7  C   UNL     1      31.277  17.717   4.960  1.00  0.00     0.004 A 
ATOM      8  C   UNL     1      32.343  18.473   2.922  1.00  0.00     0.004 A 
ATOM      9  C   UNL     1      30.659  18.963   5.101  1.00  0.00     0.004 A 
ATOM     10  C   UNL     1      31.727  19.720   3.062  1.00  0.00     0.004 A 
ENDBRANCH   2   4
ENDBRANCH   1   2
BRANCH   1  11
ATOM     11  C   UNL     1      27.817  20.952   3.442  1.00  0.00     0.028 C 
BRANCH  11  12
ATOM     12  C   UNL     1      27.475  21.061   4.907  1.00  0.00    -0.028 C 
ATOM     13  C   UNL     1      27.085  20.024   5.681  1.00  0.00    -0.080 C 
ATOM     14  C   UNL     1      26.734  20.293   7.122  1.00  0.00     0.039 C 
ATOM     15  C   UNL     1      27.006  18.612   5.147  1.00  0.00     0.039 C 
ENDBRANCH  11  12
ENDBRANCH   1  11
TORSDOF 4
ENDMDL
