MODEL 1
REMARK VINA RESULT:    -5.003      0.000      0.000
REMARK INTER + INTRA:          -5.721
REMARK INTER:                  -5.442
REMARK INTRA:                  -0.280
REMARK UNBOUND:                -0.280
REMARK SMILES C[C@H]1[C@@H](C)CC[C@@]2(C(=O)[O-])CC[C@@]3(C)C(=CC[C@H]4[C@@]5(C)CC[C@H](O)C(C)(C)[C@@H]5CC[C@@]43C)[C@@H]12
REMARK SMILES IDX 7 1 6 2 11 3 33 4 5 5 12 6 15 7 2 8 3 9 13 10 16 11 1 12
REMARK SMILES IDX 4 13 14 14 31 15 17 16 18 17 30 18 32 19 19 20 29 21 28 22
REMARK SMILES IDX 21 23 20 24 25 25 22 26 23 27 26 28 27 29 8 30 9 31 10 32
REMARK SMILES IDX 24 33
REMARK H PARENT 24 34
REMARK Flexibility Score: inf
ROOT
ATOM      1  C   UNL     1      -2.925  33.241  10.006  1.00  0.00     0.017 C 
ATOM      2  C   UNL     1      -3.628  32.154   9.130  1.00  0.00     0.014 C 
ATOM      3  C   UNL     1      -3.754  33.418  11.296  1.00  0.00     0.014 C 
ATOM      4  C   UNL     1      -1.436  32.823  10.335  1.00  0.00     0.030 C 
ATOM      5  C   UNL     1      -2.682  31.565   8.089  1.00  0.00     0.004 C 
ATOM      6  C   UNL     1      -3.128  34.430  12.261  1.00  0.00     0.013 C 
ATOM      7  C   UNL     1      -0.838  33.451  11.613  1.00  0.00    -0.063 C 
ATOM      8  C   UNL     1      -1.141  31.289  10.185  1.00  0.00    -0.003 C 
ATOM      9  C   UNL     1      -1.500  30.800   8.736  1.00  0.00    -0.011 C 
ATOM     10  C   UNL     1      -1.696  34.043  12.761  1.00  0.00    -0.006 C 
ATOM     11  C   UNL     1       0.518  33.489  11.696  1.00  0.00    -0.027 C 
ATOM     12  C   UNL     1      -1.727  30.431  11.327  1.00  0.00     0.008 C 
ATOM     13  C   UNL     1      -1.687  29.278   8.609  1.00  0.00     0.008 C 
ATOM     14  C   UNL     1      -1.858  32.901  13.824  1.00  0.00     0.017 C 
ATOM     15  C   UNL     1      -0.954  35.334  13.383  1.00  0.00    -0.020 C 
ATOM     16  C   UNL     1       1.308  34.319  12.681  1.00  0.00     0.032 C 
ATOM     17  C   UNL     1       0.482  34.878  13.865  1.00  0.00     0.006 C 
ATOM     18  C   UNL     1      -1.797  35.953  14.578  1.00  0.00     0.008 C 
ATOM     19  C   UNL     1      -0.785  36.435  12.274  1.00  0.00     0.012 C 
ATOM     20  C   UNL     1       1.307  35.843  14.854  1.00  0.00    -0.025 C 
ATOM     21  C   UNL     1      -0.997  36.293  15.847  1.00  0.00     0.005 C 
ATOM     22  C   UNL     1       0.348  36.932  15.454  1.00  0.00     0.003 C 
ATOM     23  C   UNL     1       2.476  36.609  14.163  1.00  0.00     0.010 C 
ATOM     24  C   UNL     1       1.933  34.906  15.941  1.00  0.00     0.012 C 
ATOM     25  C   UNL     1       0.987  37.971  16.458  1.00  0.00    -0.006 C 
ATOM     26  C   UNL     1       3.189  37.610  15.097  1.00  0.00     0.033 C 
ATOM     27  C   UNL     1       2.233  38.620  15.759  1.00  0.00     0.120 C 
ATOM     28  C   UNL     1       1.355  37.354  17.834  1.00  0.00     0.014 C 
ATOM     29  C   UNL     1      -0.030  39.119  16.728  1.00  0.00     0.014 C 
ENDROOT
BRANCH   1  30
ATOM     30  C   UNL     1      -2.964  34.568   9.238  1.00  0.00     0.048 C 
ATOM     31  O   UNL     1      -1.913  35.228   9.020  1.00  0.00    -0.550 OA
ATOM     32  O   UNL     1      -4.183  35.121   8.858  1.00  0.00    -0.550 OA
ENDBRANCH   1  30
BRANCH  27  33
ATOM     33  O   UNL     1       2.971  39.393  16.676  1.00  0.00    -0.393 OA
ATOM     34  H   UNL     1       3.791  39.707  16.211  1.00  0.00     0.210 HD
ENDBRANCH  27  33
TORSDOF 2
ENDMDL
MODEL 2
REMARK VINA RESULT:    -4.972      2.196      8.271
REMARK INTER + INTRA:          -5.688
REMARK INTER:                  -5.412
REMARK INTRA:                  -0.276
REMARK UNBOUND:                -0.280
REMARK SMILES C[C@H]1[C@@H](C)CC[C@@]2(C(=O)[O-])CC[C@@]3(C)C(=CC[C@H]4[C@@]5(C)CC[C@H](O)C(C)(C)[C@@H]5CC[C@@]43C)[C@@H]12
REMARK SMILES IDX 7 1 6 2 11 3 33 4 5 5 12 6 15 7 2 8 3 9 13 10 16 11 1 12
REMARK SMILES IDX 4 13 14 14 31 15 17 16 18 17 30 18 32 19 19 20 29 21 28 22
REMARK SMILES IDX 21 23 20 24 25 25 22 26 23 27 26 28 27 29 8 30 9 31 10 32
REMARK SMILES IDX 24 33
REMARK H PARENT 24 34
REMARK Flexibility Score: inf
ROOT
ATOM      1  C   UNL     1       1.390  35.629  16.435  1.00  0.00     0.017 C 
ATOM      2  C   UNL     1       1.917  36.768  17.366  1.00  0.00     0.014 C 
ATOM      3  C   UNL     1      -0.118  35.450  16.714  1.00  0.00     0.014 C 
ATOM      4  C   UNL     1       1.655  35.975  14.916  1.00  0.00     0.030 C 
ATOM      5  C   UNL     1       3.236  37.347  16.864  1.00  0.00     0.004 C 
ATOM      6  C   UNL     1      -0.757  34.386  15.816  1.00  0.00     0.013 C 
ATOM      7  C   UNL     1       0.711  35.287  13.905  1.00  0.00    -0.063 C 
ATOM      8  C   UNL     1       1.891  37.500  14.626  1.00  0.00    -0.003 C 
ATOM      9  C   UNL     1       3.085  38.044  15.488  1.00  0.00    -0.011 C 
ATOM     10  C   UNL     1      -0.672  34.699  14.285  1.00  0.00    -0.006 C 
ATOM     11  C   UNL     1       1.156  35.191  12.625  1.00  0.00    -0.027 C 
ATOM     12  C   UNL     1       0.604  38.348  14.686  1.00  0.00     0.008 C 
ATOM     13  C   UNL     1       3.116  39.575  15.635  1.00  0.00     0.008 C 
ATOM     14  C   UNL     1      -1.727  35.817  13.970  1.00  0.00     0.017 C 
ATOM     15  C   UNL     1      -0.948  33.362  13.425  1.00  0.00    -0.020 C 
ATOM     16  C   UNL     1       0.559  34.301  11.559  1.00  0.00     0.032 C 
ATOM     17  C   UNL     1      -0.845  33.744  11.893  1.00  0.00     0.006 C 
ATOM     18  C   UNL     1      -2.369  32.745  13.775  1.00  0.00     0.008 C 
ATOM     19  C   UNL     1       0.152  32.286  13.749  1.00  0.00     0.012 C 
ATOM     20  C   UNL     1      -1.431  32.718  10.801  1.00  0.00    -0.025 C 
ATOM     21  C   UNL     1      -3.229  32.336  12.567  1.00  0.00     0.005 C 
ATOM     22  C   UNL     1      -2.342  31.653  11.508  1.00  0.00     0.003 C 
ATOM     23  C   UNL     1      -0.336  31.924  10.026  1.00  0.00     0.010 C 
ATOM     24  C   UNL     1      -2.203  33.597   9.760  1.00  0.00     0.012 C 
ATOM     25  C   UNL     1      -3.013  30.561  10.585  1.00  0.00    -0.006 C 
ATOM     26  C   UNL     1      -0.914  30.868   9.059  1.00  0.00     0.033 C 
ATOM     27  C   UNL     1      -1.882  29.881   9.736  1.00  0.00     0.120 C 
ATOM     28  C   UNL     1      -4.148  31.123   9.687  1.00  0.00     0.014 C 
ATOM     29  C   UNL     1      -3.642  29.449  11.476  1.00  0.00     0.014 C 
ENDROOT
BRANCH   1  30
ATOM     30  C   UNL     1       2.097  34.327  16.831  1.00  0.00     0.048 C 
ATOM     31  O   UNL     1       2.203  33.981  18.038  1.00  0.00    -0.550 OA
ATOM     32  O   UNL     1       2.731  33.553  15.864  1.00  0.00    -0.550 OA
ENDBRANCH   1  30
BRANCH  27  33
ATOM     33  O   UNL     1      -2.437  29.053   8.742  1.00  0.00    -0.393 OA
ATOM     34  H   UNL     1      -2.099  29.371   7.863  1.00  0.00     0.210 HD
ENDBRANCH  27  33
TORSDOF 2
ENDMDL
MODEL 3
REMARK VINA RESULT:    -4.970      5.113      8.494
REMARK INTER + INTRA:          -5.685
REMARK INTER:                  -5.379
REMARK INTRA:                  -0.306
REMARK UNBOUND:                -0.280
REMARK SMILES C[C@H]1[C@@H](C)CC[C@@]2(C(=O)[O-])CC[C@@]3(C)C(=CC[C@H]4[C@@]5(C)CC[C@H](O)C(C)(C)[C@@H]5CC[C@@]43C)[C@@H]12
REMARK SMILES IDX 7 1 6 2 11 3 33 4 5 5 12 6 15 7 2 8 3 9 13 10 16 11 1 12
REMARK SMILES IDX 4 13 14 14 31 15 17 16 18 17 30 18 32 19 19 20 29 21 28 22
REMARK SMILES IDX 21 23 20 24 25 25 22 26 23 27 26 28 27 29 8 30 9 31 10 32
REMARK SMILES IDX 24 33
REMARK H PARENT 24 34
REMARK Flexibility Score: inf
ROOT
ATOM      1  C   UNL     1      -1.849  24.954  13.114  1.00  0.00     0.017 C 
ATOM      2  C   UNL     1      -1.213  23.697  13.792  1.00  0.00     0.014 C 
ATOM      3  C   UNL     1      -2.143  25.990  14.219  1.00  0.00     0.014 C 
ATOM      4  C   UNL     1      -0.882  25.549  12.013  1.00  0.00     0.030 C 
ATOM      5  C   UNL     1      -0.464  22.827  12.787  1.00  0.00     0.004 C 
ATOM      6  C   UNL     1      -2.725  27.292  13.661  1.00  0.00     0.013 C 
ATOM      7  C   UNL     1      -1.079  27.048  11.699  1.00  0.00    -0.063 C 
ATOM      8  C   UNL     1       0.621  25.125  12.168  1.00  0.00    -0.003 C 
ATOM      9  C   UNL     1       0.754  23.561  12.171  1.00  0.00    -0.011 C 
ATOM     10  C   UNL     1      -1.786  28.040  12.658  1.00  0.00    -0.006 C 
ATOM     11  C   UNL     1      -0.613  27.485  10.500  1.00  0.00    -0.027 C 
ATOM     12  C   UNL     1       1.351  25.844  13.323  1.00  0.00     0.008 C 
ATOM     13  C   UNL     1       2.075  23.037  12.761  1.00  0.00     0.008 C 
ATOM     14  C   UNL     1      -0.651  28.728  13.494  1.00  0.00     0.017 C 
ATOM     15  C   UNL     1      -2.628  29.117  11.801  1.00  0.00    -0.020 C 
ATOM     16  C   UNL     1      -0.966  28.807   9.857  1.00  0.00     0.032 C 
ATOM     17  C   UNL     1      -1.625  29.833  10.808  1.00  0.00     0.006 C 
ATOM     18  C   UNL     1      -3.348  30.164  12.753  1.00  0.00     0.008 C 
ATOM     19  C   UNL     1      -3.728  28.379  10.955  1.00  0.00     0.012 C 
ATOM     20  C   UNL     1      -2.089  31.199  10.094  1.00  0.00    -0.025 C 
ATOM     21  C   UNL     1      -3.208  31.640  12.342  1.00  0.00     0.005 C 
ATOM     22  C   UNL     1      -3.363  31.768  10.815  1.00  0.00     0.003 C 
ATOM     23  C   UNL     1      -2.465  31.032   8.590  1.00  0.00     0.010 C 
ATOM     24  C   UNL     1      -0.855  32.160  10.170  1.00  0.00     0.012 C 
ATOM     25  C   UNL     1      -3.959  33.117  10.250  1.00  0.00    -0.006 C 
ATOM     26  C   UNL     1      -3.009  32.326   7.947  1.00  0.00     0.033 C 
ATOM     27  C   UNL     1      -4.200  32.935   8.711  1.00  0.00     0.120 C 
ATOM     28  C   UNL     1      -3.078  34.358  10.553  1.00  0.00     0.014 C 
ATOM     29  C   UNL     1      -5.352  33.375  10.899  1.00  0.00     0.014 C 
ENDROOT
BRANCH   1  30
ATOM     30  C   UNL     1      -3.188  24.533  12.496  1.00  0.00     0.048 C 
ATOM     31  O   UNL     1      -4.092  24.002  13.194  1.00  0.00    -0.550 OA
ATOM     32  O   UNL     1      -3.389  24.637  11.123  1.00  0.00    -0.550 OA
ENDBRANCH   1  30
BRANCH  27  33
ATOM     33  O   UNL     1      -4.527  34.166   8.110  1.00  0.00    -0.393 OA
ATOM     34  H   UNL     1      -5.054  34.691   8.770  1.00  0.00     0.210 HD
ENDBRANCH  27  33
TORSDOF 2
ENDMDL
MODEL 4
REMARK VINA RESULT:    -4.884      6.163      9.694
REMARK INTER + INTRA:          -5.592
REMARK INTER:                  -5.289
REMARK INTRA:                  -0.303
REMARK UNBOUND:                -0.280
REMARK SMILES C[C@H]1[C@@H](C)CC[C@@]2(C(=O)[O-])CC[C@@]3(C)C(=CC[C@H]4[C@@]5(C)CC[C@H](O)C(C)(C)[C@@H]5CC[C@@]43C)[C@@H]12
REMARK SMILES IDX 7 1 6 2 11 3 33 4 5 5 12 6 15 7 2 8 3 9 13 10 16 11 1 12
REMARK SMILES IDX 4 13 14 14 31 15 17 16 18 17 30 18 32 19 19 20 29 21 28 22
REMARK SMILES IDX 21 23 20 24 25 25 22 26 23 27 26 28 27 29 8 30 9 31 10 32
REMARK SMILES IDX 24 33
REMARK H PARENT 24 34
REMARK Flexibility Score: inf
ROOT
ATOM      1  C   UNL     1      -0.686  24.281  13.997  1.00  0.00     0.017 C 
ATOM      2  C   UNL     1       0.190  23.334  14.880  1.00  0.00     0.014 C 
ATOM      3  C   UNL     1      -1.337  25.327  14.926  1.00  0.00     0.014 C 
ATOM      4  C   UNL     1       0.189  24.974  12.877  1.00  0.00     0.030 C 
ATOM      5  C   UNL     1       1.226  22.582  14.051  1.00  0.00     0.004 C 
ATOM      6  C   UNL     1      -2.184  26.346  14.158  1.00  0.00     0.013 C 
ATOM      7  C   UNL     1      -0.361  26.315  12.342  1.00  0.00    -0.063 C 
ATOM      8  C   UNL     1       1.730  24.994  13.172  1.00  0.00    -0.003 C 
ATOM      9  C   UNL     1       2.263  23.535  13.403  1.00  0.00    -0.011 C 
ATOM     10  C   UNL     1      -1.384  27.190  13.110  1.00  0.00    -0.006 C 
ATOM     11  C   UNL     1       0.081  26.711  11.120  1.00  0.00    -0.027 C 
ATOM     12  C   UNL     1       2.142  26.018  14.250  1.00  0.00     0.008 C 
ATOM     13  C   UNL     1       3.616  23.463  14.133  1.00  0.00     0.008 C 
ATOM     14  C   UNL     1      -0.547  28.255  13.901  1.00  0.00     0.017 C 
ATOM     15  C   UNL     1      -2.396  27.887  12.065  1.00  0.00    -0.020 C 
ATOM     16  C   UNL     1      -0.543  27.799  10.277  1.00  0.00     0.032 C 
ATOM     17  C   UNL     1      -1.528  28.719  11.036  1.00  0.00     0.006 C 
ATOM     18  C   UNL     1      -3.446  28.810  12.818  1.00  0.00     0.008 C 
ATOM     19  C   UNL     1      -3.187  26.782  11.274  1.00  0.00     0.012 C 
ATOM     20  C   UNL     1      -2.265  29.812  10.111  1.00  0.00    -0.025 C 
ATOM     21  C   UNL     1      -3.657  30.208  12.210  1.00  0.00     0.005 C 
ATOM     22  C   UNL     1      -3.702  30.101  10.674  1.00  0.00     0.003 C 
ATOM     23  C   UNL     1      -2.447  29.367   8.628  1.00  0.00     0.010 C 
ATOM     24  C   UNL     1      -1.334  31.071  10.116  1.00  0.00     0.012 C 
ATOM     25  C   UNL     1      -4.574  31.160   9.891  1.00  0.00    -0.006 C 
ATOM     26  C   UNL     1      -3.248  30.377   7.779  1.00  0.00     0.033 C 
ATOM     27  C   UNL     1      -4.620  30.733   8.382  1.00  0.00     0.120 C 
ATOM     28  C   UNL     1      -4.076  32.620  10.061  1.00  0.00     0.014 C 
ATOM     29  C   UNL     1      -6.039  31.111  10.420  1.00  0.00     0.014 C 
ENDROOT
BRANCH   1  30
ATOM     30  C   UNL     1      -1.809  23.443  13.373  1.00  0.00     0.048 C 
ATOM     31  O   UNL     1      -2.629  22.811  14.092  1.00  0.00    -0.550 OA
ATOM     32  O   UNL     1      -1.879  23.282  11.993  1.00  0.00    -0.550 OA
ENDBRANCH   1  30
BRANCH  27  33
ATOM     33  O   UNL     1      -5.200  31.746   7.596  1.00  0.00    -0.393 OA
ATOM     34  H   UNL     1      -6.139  31.863   7.901  1.00  0.00     0.210 HD
ENDBRANCH  27  33
TORSDOF 2
ENDMDL
MODEL 5
REMARK VINA RESULT:    -4.809      6.089     10.102
REMARK INTER + INTRA:          -5.510
REMARK INTER:                  -5.250
REMARK INTRA:                  -0.260
REMARK UNBOUND:                -0.280
REMARK SMILES C[C@H]1[C@@H](C)CC[C@@]2(C(=O)[O-])CC[C@@]3(C)C(=CC[C@H]4[C@@]5(C)CC[C@H](O)C(C)(C)[C@@H]5CC[C@@]43C)[C@@H]12
REMARK SMILES IDX 7 1 6 2 11 3 33 4 5 5 12 6 15 7 2 8 3 9 13 10 16 11 1 12
REMARK SMILES IDX 4 13 14 14 31 15 17 16 18 17 30 18 32 19 19 20 29 21 28 22
REMARK SMILES IDX 21 23 20 24 25 25 22 26 23 27 26 28 27 29 8 30 9 31 10 32
REMARK SMILES IDX 24 33
REMARK H PARENT 24 34
REMARK Flexibility Score: inf
ROOT
ATOM      1  C   UNL     1       0.746  24.204  13.992  1.00  0.00     0.017 C 
ATOM      2  C   UNL     1       1.196  23.224  15.123  1.00  0.00     0.014 C 
ATOM      3  C   UNL     1      -0.626  23.727  13.471  1.00  0.00     0.014 C 
ATOM      4  C   UNL     1       0.669  25.688  14.532  1.00  0.00     0.030 C 
ATOM      5  C   UNL     1       2.270  23.840  16.014  1.00  0.00     0.004 C 
ATOM      6  C   UNL     1      -1.194  24.648  12.386  1.00  0.00     0.013 C 
ATOM      7  C   UNL     1      -0.285  26.626  13.759  1.00  0.00    -0.063 C 
ATOM      8  C   UNL     1       0.551  25.810  16.092  1.00  0.00    -0.003 C 
ATOM      9  C   UNL     1       1.748  25.074  16.792  1.00  0.00    -0.011 C 
ATOM     10  C   UNL     1      -1.439  26.121  12.856  1.00  0.00    -0.006 C 
ATOM     11  C   UNL     1      -0.060  27.960  13.883  1.00  0.00    -0.027 C 
ATOM     12  C   UNL     1      -0.847  25.446  16.637  1.00  0.00     0.008 C 
ATOM     13  C   UNL     1       1.506  24.736  18.274  1.00  0.00     0.008 C 
ATOM     14  C   UNL     1      -2.730  26.124  13.748  1.00  0.00     0.017 C 
ATOM     15  C   UNL     1      -1.597  27.095  11.580  1.00  0.00    -0.020 C 
ATOM     16  C   UNL     1      -0.650  29.030  12.993  1.00  0.00     0.032 C 
ATOM     17  C   UNL     1      -1.839  28.562  12.121  1.00  0.00     0.006 C 
ATOM     18  C   UNL     1      -2.787  26.619  10.643  1.00  0.00     0.008 C 
ATOM     19  C   UNL     1      -0.270  27.084  10.737  1.00  0.00     0.012 C 
ATOM     20  C   UNL     1      -2.396  29.678  11.103  1.00  0.00    -0.025 C 
ATOM     21  C   UNL     1      -3.749  27.725  10.178  1.00  0.00     0.005 C 
ATOM     22  C   UNL     1      -2.945  28.985   9.805  1.00  0.00     0.003 C 
ATOM     23  C   UNL     1      -1.320  30.706  10.638  1.00  0.00     0.010 C 
ATOM     24  C   UNL     1      -3.493  30.467  11.894  1.00  0.00     0.012 C 
ATOM     25  C   UNL     1      -3.542  29.931   8.690  1.00  0.00    -0.006 C 
ATOM     26  C   UNL     1      -1.841  31.704   9.582  1.00  0.00     0.033 C 
ATOM     27  C   UNL     1      -2.466  31.022   8.351  1.00  0.00     0.120 C 
ATOM     28  C   UNL     1      -4.903  30.566   9.080  1.00  0.00     0.014 C 
ATOM     29  C   UNL     1      -3.777  29.107   7.388  1.00  0.00     0.014 C 
ENDROOT
BRANCH   1  30
ATOM     30  C   UNL     1       1.751  24.092  12.839  1.00  0.00     0.048 C 
ATOM     31  O   UNL     1       2.553  25.029  12.578  1.00  0.00    -0.550 OA
ATOM     32  O   UNL     1       1.722  22.991  11.990  1.00  0.00    -0.550 OA
ENDBRANCH   1  30
BRANCH  27  33
ATOM     33  O   UNL     1      -3.015  32.020   7.523  1.00  0.00    -0.393 OA
ATOM     34  H   UNL     1      -2.348  32.220   6.812  1.00  0.00     0.210 HD
ENDBRANCH  27  33
TORSDOF 2
ENDMDL
MODEL 6
REMARK VINA RESULT:    -4.808      2.676      8.749
REMARK INTER + INTRA:          -5.509
REMARK INTER:                  -5.203
REMARK INTRA:                  -0.306
REMARK UNBOUND:                -0.280
REMARK SMILES C[C@H]1[C@@H](C)CC[C@@]2(C(=O)[O-])CC[C@@]3(C)C(=CC[C@H]4[C@@]5(C)CC[C@H](O)C(C)(C)[C@@H]5CC[C@@]43C)[C@@H]12
REMARK SMILES IDX 7 1 6 2 11 3 33 4 5 5 12 6 15 7 2 8 3 9 13 10 16 11 1 12
REMARK SMILES IDX 4 13 14 14 31 15 17 16 18 17 30 18 32 19 19 20 29 21 28 22
REMARK SMILES IDX 21 23 20 24 25 25 22 26 23 27 26 28 27 29 8 30 9 31 10 32
REMARK SMILES IDX 24 33
REMARK H PARENT 24 34
REMARK Flexibility Score: inf
ROOT
ATOM      1  C   UNL     1      -1.802  35.076  13.272  1.00  0.00     0.017 C 
ATOM      2  C   UNL     1      -1.126  36.268  14.024  1.00  0.00     0.014 C 
ATOM      3  C   UNL     1      -1.614  35.303  11.758  1.00  0.00     0.014 C 
ATOM      4  C   UNL     1      -1.177  33.697  13.727  1.00  0.00     0.030 C 
ATOM      5  C   UNL     1      -0.835  35.928  15.482  1.00  0.00     0.004 C 
ATOM      6  C   UNL     1      -2.197  34.163  10.917  1.00  0.00     0.013 C 
ATOM      7  C   UNL     1      -1.298  32.545  12.705  1.00  0.00    -0.063 C 
ATOM      8  C   UNL     1       0.242  33.810  14.389  1.00  0.00    -0.003 C 
ATOM      9  C   UNL     1       0.196  34.780  15.623  1.00  0.00    -0.011 C 
ATOM     10  C   UNL     1      -1.550  32.765  11.191  1.00  0.00    -0.006 C 
ATOM     11  C   UNL     1      -1.194  31.282  13.195  1.00  0.00    -0.027 C 
ATOM     12  C   UNL     1       1.375  34.091  13.380  1.00  0.00     0.008 C 
ATOM     13  C   UNL     1       1.570  35.317  16.058  1.00  0.00     0.008 C 
ATOM     14  C   UNL     1      -0.139  32.753  10.504  1.00  0.00     0.017 C 
ATOM     15  C   UNL     1      -2.498  31.589  10.622  1.00  0.00    -0.020 C 
ATOM     16  C   UNL     1      -1.586  30.024  12.454  1.00  0.00     0.032 C 
ATOM     17  C   UNL     1      -1.791  30.208  10.932  1.00  0.00     0.006 C 
ATOM     18  C   UNL     1      -2.758  31.771   9.066  1.00  0.00     0.008 C 
ATOM     19  C   UNL     1      -3.884  31.621  11.362  1.00  0.00     0.012 C 
ATOM     20  C   UNL     1      -2.306  28.889  10.166  1.00  0.00    -0.025 C 
ATOM     21  C   UNL     1      -2.595  30.502   8.213  1.00  0.00     0.005 C 
ATOM     22  C   UNL     1      -3.213  29.300   8.953  1.00  0.00     0.003 C 
ATOM     23  C   UNL     1      -3.156  27.932  11.055  1.00  0.00     0.010 C 
ATOM     24  C   UNL     1      -1.015  28.113   9.738  1.00  0.00     0.012 C 
ATOM     25  C   UNL     1      -3.807  28.128   8.076  1.00  0.00    -0.006 C 
ATOM     26  C   UNL     1      -3.732  26.726  10.282  1.00  0.00     0.033 C 
ATOM     27  C   UNL     1      -4.544  27.129   9.036  1.00  0.00     0.120 C 
ATOM     28  C   UNL     1      -2.744  27.409   7.202  1.00  0.00     0.014 C 
ATOM     29  C   UNL     1      -4.883  28.703   7.108  1.00  0.00     0.014 C 
ENDROOT
BRANCH   1  30
ATOM     30  C   UNL     1      -3.306  35.120  13.570  1.00  0.00     0.048 C 
ATOM     31  O   UNL     1      -3.993  36.146  13.319  1.00  0.00    -0.550 OA
ATOM     32  O   UNL     1      -3.922  34.057  14.224  1.00  0.00    -0.550 OA
ENDBRANCH   1  30
BRANCH  27  33
ATOM     33  O   UNL     1      -4.908  25.956   8.347  1.00  0.00    -0.393 OA
ATOM     34  H   UNL     1      -4.083  25.576   7.944  1.00  0.00     0.210 HD
ENDBRANCH  27  33
TORSDOF 2
ENDMDL
MODEL 7
REMARK VINA RESULT:    -4.795      2.391      4.195
REMARK INTER + INTRA:          -5.495
REMARK INTER:                  -5.233
REMARK INTRA:                  -0.262
REMARK UNBOUND:                -0.280
REMARK SMILES C[C@H]1[C@@H](C)CC[C@@]2(C(=O)[O-])CC[C@@]3(C)C(=CC[C@H]4[C@@]5(C)CC[C@H](O)C(C)(C)[C@@H]5CC[C@@]43C)[C@@H]12
REMARK SMILES IDX 7 1 6 2 11 3 33 4 5 5 12 6 15 7 2 8 3 9 13 10 16 11 1 12
REMARK SMILES IDX 4 13 14 14 31 15 17 16 18 17 30 18 32 19 19 20 29 21 28 22
REMARK SMILES IDX 21 23 20 24 25 25 22 26 23 27 26 28 27 29 8 30 9 31 10 32
REMARK SMILES IDX 24 33
REMARK H PARENT 24 34
REMARK Flexibility Score: inf
ROOT
ATOM      1  C   UNL     1      -2.033  29.708   9.639  1.00  0.00     0.017 C 
ATOM      2  C   UNL     1      -2.668  28.837   8.508  1.00  0.00     0.014 C 
ATOM      3  C   UNL     1      -1.024  30.674   8.983  1.00  0.00     0.014 C 
ATOM      4  C   UNL     1      -3.148  30.499  10.434  1.00  0.00     0.030 C 
ATOM      5  C   UNL     1      -3.981  28.199   8.952  1.00  0.00     0.004 C 
ATOM      6  C   UNL     1      -0.371  31.619   9.997  1.00  0.00     0.013 C 
ATOM      7  C   UNL     1      -2.672  31.788  11.137  1.00  0.00    -0.063 C 
ATOM      8  C   UNL     1      -4.506  30.660   9.665  1.00  0.00    -0.003 C 
ATOM      9  C   UNL     1      -5.074  29.256   9.251  1.00  0.00    -0.011 C 
ATOM     10  C   UNL     1      -1.379  32.551  10.749  1.00  0.00    -0.006 C 
ATOM     11  C   UNL     1      -3.440  32.243  12.162  1.00  0.00    -0.027 C 
ATOM     12  C   UNL     1      -4.454  31.703   8.528  1.00  0.00     0.008 C 
ATOM     13  C   UNL     1      -6.125  29.302   8.129  1.00  0.00     0.008 C 
ATOM     14  C   UNL     1      -1.816  33.679   9.751  1.00  0.00     0.017 C 
ATOM     15  C   UNL     1      -0.691  33.164  12.074  1.00  0.00    -0.020 C 
ATOM     16  C   UNL     1      -3.016  33.279  13.177  1.00  0.00     0.032 C 
ATOM     17  C   UNL     1      -1.757  34.090  12.786  1.00  0.00     0.006 C 
ATOM     18  C   UNL     1       0.627  33.971  11.709  1.00  0.00     0.008 C 
ATOM     19  C   UNL     1      -0.301  32.000  13.056  1.00  0.00     0.012 C 
ATOM     20  C   UNL     1      -1.253  35.120  13.915  1.00  0.00    -0.025 C 
ATOM     21  C   UNL     1       0.765  35.351  12.375  1.00  0.00     0.005 C 
ATOM     22  C   UNL     1       0.309  35.263  13.844  1.00  0.00     0.003 C 
ATOM     23  C   UNL     1      -1.595  34.682  15.372  1.00  0.00     0.010 C 
ATOM     24  C   UNL     1      -2.009  36.463  13.635  1.00  0.00     0.012 C 
ATOM     25  C   UNL     1       0.984  36.245  14.880  1.00  0.00    -0.006 C 
ATOM     26  C   UNL     1      -1.013  35.624  16.448  1.00  0.00     0.033 C 
ATOM     27  C   UNL     1       0.507  35.838  16.318  1.00  0.00     0.120 C 
ATOM     28  C   UNL     1       0.706  37.743  14.584  1.00  0.00     0.014 C 
ATOM     29  C   UNL     1       2.529  36.050  14.844  1.00  0.00     0.014 C 
ENDROOT
BRANCH   1  30
ATOM     30  C   UNL     1      -1.251  28.777  10.574  1.00  0.00     0.048 C 
ATOM     31  O   UNL     1      -0.500  27.873  10.118  1.00  0.00    -0.550 OA
ATOM     32  O   UNL     1      -1.440  28.846  11.950  1.00  0.00    -0.550 OA
ENDBRANCH   1  30
BRANCH  27  33
ATOM     33  O   UNL     1       0.900  36.803  17.264  1.00  0.00    -0.393 OA
ATOM     34  H   UNL     1       0.204  36.828  17.974  1.00  0.00     0.210 HD
ENDBRANCH  27  33
TORSDOF 2
ENDMDL
MODEL 8
REMARK VINA RESULT:    -4.690      3.206      6.349
REMARK INTER + INTRA:          -5.381
REMARK INTER:                  -5.075
REMARK INTRA:                  -0.306
REMARK UNBOUND:                -0.280
REMARK SMILES C[C@H]1[C@@H](C)CC[C@@]2(C(=O)[O-])CC[C@@]3(C)C(=CC[C@H]4[C@@]5(C)CC[C@H](O)C(C)(C)[C@@H]5CC[C@@]43C)[C@@H]12
REMARK SMILES IDX 7 1 6 2 11 3 33 4 5 5 12 6 15 7 2 8 3 9 13 10 16 11 1 12
REMARK SMILES IDX 4 13 14 14 31 15 17 16 18 17 30 18 32 19 19 20 29 21 28 22
REMARK SMILES IDX 21 23 20 24 25 25 22 26 23 27 26 28 27 29 8 30 9 31 10 32
REMARK SMILES IDX 24 33
REMARK H PARENT 24 34
REMARK Flexibility Score: inf
ROOT
ATOM      1  C   UNL     1      -3.353  27.527  10.590  1.00  0.00     0.017 C 
ATOM      2  C   UNL     1      -3.477  26.026  10.171  1.00  0.00     0.014 C 
ATOM      3  C   UNL     1      -1.851  27.872  10.673  1.00  0.00     0.014 C 
ATOM      4  C   UNL     1      -4.099  28.464   9.559  1.00  0.00     0.030 C 
ATOM      5  C   UNL     1      -4.859  25.707   9.608  1.00  0.00     0.004 C 
ATOM      6  C   UNL     1      -1.606  29.341  11.030  1.00  0.00     0.013 C 
ATOM      7  C   UNL     1      -3.589  29.920   9.496  1.00  0.00    -0.063 C 
ATOM      8  C   UNL     1      -4.345  27.817   8.150  1.00  0.00    -0.003 C 
ATOM      9  C   UNL     1      -5.149  26.476   8.294  1.00  0.00    -0.011 C 
ATOM     10  C   UNL     1      -2.189  30.361   9.996  1.00  0.00    -0.006 C 
ATOM     11  C   UNL     1      -4.446  30.844   8.987  1.00  0.00    -0.027 C 
ATOM     12  C   UNL     1      -3.074  27.725   7.280  1.00  0.00     0.008 C 
ATOM     13  C   UNL     1      -5.053  25.544   7.073  1.00  0.00     0.008 C 
ATOM     14  C   UNL     1      -1.250  30.352   8.740  1.00  0.00     0.017 C 
ATOM     15  C   UNL     1      -2.286  31.831  10.655  1.00  0.00    -0.020 C 
ATOM     16  C   UNL     1      -4.289  32.342   9.117  1.00  0.00     0.032 C 
ATOM     17  C   UNL     1      -2.884  32.809   9.564  1.00  0.00     0.006 C 
ATOM     18  C   UNL     1      -0.864  32.323  11.159  1.00  0.00     0.008 C 
ATOM     19  C   UNL     1      -3.263  31.797  11.886  1.00  0.00     0.012 C 
ATOM     20  C   UNL     1      -2.753  34.396   9.797  1.00  0.00    -0.025 C 
ATOM     21  C   UNL     1      -0.484  33.763  10.770  1.00  0.00     0.005 C 
ATOM     22  C   UNL     1      -1.709  34.682  10.934  1.00  0.00     0.003 C 
ATOM     23  C   UNL     1      -4.083  35.085  10.229  1.00  0.00     0.010 C 
ATOM     24  C   UNL     1      -2.338  34.998   8.412  1.00  0.00     0.012 C 
ATOM     25  C   UNL     1      -1.445  36.196  11.297  1.00  0.00    -0.006 C 
ATOM     26  C   UNL     1      -3.920  36.586  10.551  1.00  0.00     0.033 C 
ATOM     27  C   UNL     1      -2.828  36.872  11.600  1.00  0.00     0.120 C 
ATOM     28  C   UNL     1      -0.655  36.966  10.204  1.00  0.00     0.014 C 
ATOM     29  C   UNL     1      -0.607  36.273  12.608  1.00  0.00     0.014 C 
ENDROOT
BRANCH   1  30
ATOM     30  C   UNL     1      -3.947  27.678  11.996  1.00  0.00     0.048 C 
ATOM     31  O   UNL     1      -3.521  26.992  12.963  1.00  0.00    -0.550 OA
ATOM     32  O   UNL     1      -5.046  28.504  12.206  1.00  0.00    -0.550 OA
ENDBRANCH   1  30
BRANCH  27  33
ATOM     33  O   UNL     1      -2.684  38.267  11.719  1.00  0.00    -0.393 OA
ATOM     34  H   UNL     1      -3.239  38.562  12.490  1.00  0.00     0.210 HD
ENDBRANCH  27  33
TORSDOF 2
ENDMDL
MODEL 9
REMARK VINA RESULT:    -4.660      5.972      9.449
REMARK INTER + INTRA:          -5.348
REMARK INTER:                  -5.048
REMARK INTRA:                  -0.300
REMARK UNBOUND:                -0.280
REMARK SMILES C[C@H]1[C@@H](C)CC[C@@]2(C(=O)[O-])CC[C@@]3(C)C(=CC[C@H]4[C@@]5(C)CC[C@H](O)C(C)(C)[C@@H]5CC[C@@]43C)[C@@H]12
REMARK SMILES IDX 7 1 6 2 11 3 33 4 5 5 12 6 15 7 2 8 3 9 13 10 16 11 1 12
REMARK SMILES IDX 4 13 14 14 31 15 17 16 18 17 30 18 32 19 19 20 29 21 28 22
REMARK SMILES IDX 21 23 20 24 25 25 22 26 23 27 26 28 27 29 8 30 9 31 10 32
REMARK SMILES IDX 24 33
REMARK H PARENT 24 34
REMARK Flexibility Score: inf
ROOT
ATOM      1  C   UNL     1      -3.341  29.836  11.476  1.00  0.00     0.017 C 
ATOM      2  C   UNL     1      -4.327  30.691  10.616  1.00  0.00     0.014 C 
ATOM      3  C   UNL     1      -4.179  28.833  12.298  1.00  0.00     0.014 C 
ATOM      4  C   UNL     1      -2.294  29.090  10.557  1.00  0.00     0.030 C 
ATOM      5  C   UNL     1      -3.619  31.367   9.446  1.00  0.00     0.004 C 
ATOM      6  C   UNL     1      -3.309  27.901  13.147  1.00  0.00     0.013 C 
ATOM      7  C   UNL     1      -1.677  27.809  11.160  1.00  0.00    -0.063 C 
ATOM      8  C   UNL     1      -2.734  28.937   9.058  1.00  0.00    -0.003 C 
ATOM      9  C   UNL     1      -3.051  30.342   8.433  1.00  0.00    -0.011 C 
ATOM     10  C   UNL     1      -2.323  27.010  12.321  1.00  0.00    -0.006 C 
ATOM     11  C   UNL     1      -0.493  27.398  10.634  1.00  0.00    -0.027 C 
ATOM     12  C   UNL     1      -3.822  27.865   8.839  1.00  0.00     0.008 C 
ATOM     13  C   UNL     1      -3.908  30.289   7.156  1.00  0.00     0.008 C 
ATOM     14  C   UNL     1      -3.164  25.866  11.654  1.00  0.00     0.017 C 
ATOM     15  C   UNL     1      -1.168  26.417  13.280  1.00  0.00    -0.020 C 
ATOM     16  C   UNL     1       0.431  26.379  11.261  1.00  0.00     0.032 C 
ATOM     17  C   UNL     1      -0.207  25.532  12.387  1.00  0.00     0.006 C 
ATOM     18  C   UNL     1      -1.795  25.574  14.470  1.00  0.00     0.008 C 
ATOM     19  C   UNL     1      -0.333  27.598  13.897  1.00  0.00     0.012 C 
ATOM     20  C   UNL     1       0.810  24.521  13.117  1.00  0.00    -0.025 C 
ATOM     21  C   UNL     1      -1.136  24.209  14.734  1.00  0.00     0.005 C 
ATOM     22  C   UNL     1       0.394  24.344  14.621  1.00  0.00     0.003 C 
ATOM     23  C   UNL     1       2.292  25.003  13.118  1.00  0.00     0.010 C 
ATOM     24  C   UNL     1       0.747  23.188  12.298  1.00  0.00     0.012 C 
ATOM     25  C   UNL     1       1.282  23.375  15.497  1.00  0.00    -0.006 C 
ATOM     26  C   UNL     1       3.238  24.077  13.912  1.00  0.00     0.033 C 
ATOM     27  C   UNL     1       2.777  23.828  15.361  1.00  0.00     0.120 C 
ATOM     28  C   UNL     1       1.100  21.875  15.138  1.00  0.00     0.014 C 
ATOM     29  C   UNL     1       0.894  23.537  16.997  1.00  0.00     0.014 C 
ENDROOT
BRANCH   1  30
ATOM     30  C   UNL     1      -2.634  30.775  12.461  1.00  0.00     0.048 C 
ATOM     31  O   UNL     1      -3.276  31.390  13.354  1.00  0.00    -0.550 OA
ATOM     32  O   UNL     1      -1.277  31.046  12.318  1.00  0.00    -0.550 OA
ENDBRANCH   1  30
BRANCH  27  33
ATOM     33  O   UNL     1       3.640  22.880  15.942  1.00  0.00    -0.393 OA
ATOM     34  H   UNL     1       3.768  22.147  15.283  1.00  0.00     0.210 HD
ENDBRANCH  27  33
TORSDOF 2
ENDMDL
