MODEL 1
REMARK VINA RESULT:    -4.197      0.000      0.000
REMARK INTER + INTRA:          -4.956
REMARK INTER:                  -4.810
REMARK INTRA:                  -0.146
REMARK UNBOUND:                -0.146
REMARK SMILES O=C([O-])C=Cc1ccc(O)cc1
REMARK SMILES IDX 6 1 7 2 12 3 8 4 11 5 9 6 5 7 4 8 2 9 1 10 3 11 10 12
REMARK H PARENT 10 13
REMARK Flexibility Score: inf
ROOT
ATOM      1  C   UNL     1      13.292   3.583  -2.084  1.00  0.00    -0.025 A 
ATOM      2  C   UNL     1      12.351   3.065  -2.992  1.00  0.00     0.012 A 
ATOM      3  C   UNL     1      12.877   4.570  -1.167  1.00  0.00     0.012 A 
ATOM      4  C   UNL     1      11.024   3.500  -2.967  1.00  0.00     0.047 A 
ATOM      5  C   UNL     1      11.547   5.003  -1.147  1.00  0.00     0.047 A 
ATOM      6  C   UNL     1      10.617   4.468  -2.045  1.00  0.00     0.115 A 
ENDROOT
BRANCH   1   7
ATOM      7  C   UNL     1      14.691   3.096  -2.156  1.00  0.00     0.010 C 
ATOM      8  C   UNL     1      15.025   1.807  -2.317  1.00  0.00     0.025 C 
BRANCH   8   9
ATOM      9  C   UNL     1      16.426   1.362  -2.395  1.00  0.00     0.064 C 
ATOM     10  O   UNL     1      17.361   2.066  -1.928  1.00  0.00    -0.545 OA
ATOM     11  O   UNL     1      16.723   0.144  -2.992  1.00  0.00    -0.545 OA
ENDBRANCH   8   9
ENDBRANCH   1   7
BRANCH   6  12
ATOM     12  O   UNL     1       9.290   4.892  -2.032  1.00  0.00    -0.508 OA
ATOM     13  H   UNL     1       9.041   5.859  -2.207  1.00  0.00     0.293 HD
ENDBRANCH   6  12
TORSDOF 3
ENDMDL
MODEL 2
REMARK VINA RESULT:    -4.176      0.124      1.402
REMARK INTER + INTRA:          -4.932
REMARK INTER:                  -4.792
REMARK INTRA:                  -0.140
REMARK UNBOUND:                -0.146
REMARK SMILES O=C([O-])C=Cc1ccc(O)cc1
REMARK SMILES IDX 6 1 7 2 12 3 8 4 11 5 9 6 5 7 4 8 2 9 1 10 3 11 10 12
REMARK H PARENT 10 13
REMARK Flexibility Score: inf
ROOT
ATOM      1  C   UNL     1      13.312   3.505  -2.248  1.00  0.00    -0.025 A 
ATOM      2  C   UNL     1      12.973   4.498  -1.311  1.00  0.00     0.012 A 
ATOM      3  C   UNL     1      12.299   2.979  -3.075  1.00  0.00     0.012 A 
ATOM      4  C   UNL     1      11.662   4.973  -1.220  1.00  0.00     0.047 A 
ATOM      5  C   UNL     1      10.987   3.457  -2.979  1.00  0.00     0.047 A 
ATOM      6  C   UNL     1      10.667   4.456  -2.053  1.00  0.00     0.115 A 
ENDROOT
BRANCH   1   7
ATOM      7  C   UNL     1      14.715   3.027  -2.300  1.00  0.00     0.010 C 
ATOM      8  C   UNL     1      15.060   1.732  -2.348  1.00  0.00     0.025 C 
BRANCH   8   9
ATOM      9  C   UNL     1      16.465   1.294  -2.410  1.00  0.00     0.064 C 
ATOM     10  O   UNL     1      17.395   2.027  -1.981  1.00  0.00    -0.545 OA
ATOM     11  O   UNL     1      16.769   0.052  -2.950  1.00  0.00    -0.545 OA
ENDBRANCH   8   9
ENDBRANCH   1   7
BRANCH   6  12
ATOM     12  O   UNL     1       9.365   4.940  -1.951  1.00  0.00    -0.508 OA
ATOM     13  H   UNL     1       8.850   5.252  -2.767  1.00  0.00     0.293 HD
ENDBRANCH   6  12
TORSDOF 3
ENDMDL
MODEL 3
REMARK VINA RESULT:    -3.986      1.680      2.219
REMARK INTER + INTRA:          -4.714
REMARK INTER:                  -4.570
REMARK INTRA:                  -0.145
REMARK UNBOUND:                -0.146
REMARK SMILES O=C([O-])C=Cc1ccc(O)cc1
REMARK SMILES IDX 6 1 7 2 12 3 8 4 11 5 9 6 5 7 4 8 2 9 1 10 3 11 10 12
REMARK H PARENT 10 13
REMARK Flexibility Score: inf
ROOT
ATOM      1  C   UNL     1      12.811   4.892  -1.330  1.00  0.00    -0.025 A 
ATOM      2  C   UNL     1      12.746   5.732  -2.456  1.00  0.00     0.012 A 
ATOM      3  C   UNL     1      11.846   5.043  -0.314  1.00  0.00     0.012 A 
ATOM      4  C   UNL     1      11.727   6.682  -2.577  1.00  0.00     0.047 A 
ATOM      5  C   UNL     1      10.829   5.996  -0.439  1.00  0.00     0.047 A 
ATOM      6  C   UNL     1      10.766   6.816  -1.572  1.00  0.00     0.115 A 
ENDROOT
BRANCH   1   7
ATOM      7  C   UNL     1      13.917   3.907  -1.243  1.00  0.00     0.010 C 
ATOM      8  C   UNL     1      14.322   3.149  -2.272  1.00  0.00     0.025 C 
BRANCH   8   9
ATOM      9  C   UNL     1      15.432   2.188  -2.151  1.00  0.00     0.064 C 
ATOM     10  O   UNL     1      15.404   1.080  -2.750  1.00  0.00    -0.545 OA
ATOM     11  O   UNL     1      16.529   2.509  -1.362  1.00  0.00    -0.545 OA
ENDBRANCH   8   9
ENDBRANCH   1   7
BRANCH   6  12
ATOM     12  O   UNL     1       9.757   7.766  -1.707  1.00  0.00    -0.508 OA
ATOM     13  H   UNL     1       9.374   8.250  -0.903  1.00  0.00     0.293 HD
ENDBRANCH   6  12
TORSDOF 3
ENDMDL
MODEL 4
REMARK VINA RESULT:    -3.943      1.267      5.888
REMARK INTER + INTRA:          -4.665
REMARK INTER:                  -4.512
REMARK INTRA:                  -0.153
REMARK UNBOUND:                -0.146
REMARK SMILES O=C([O-])C=Cc1ccc(O)cc1
REMARK SMILES IDX 6 1 7 2 12 3 8 4 11 5 9 6 5 7 4 8 2 9 1 10 3 11 10 12
REMARK H PARENT 10 13
REMARK Flexibility Score: inf
ROOT
ATOM      1  C   UNL     1      13.963   3.364  -1.999  1.00  0.00    -0.025 A 
ATOM      2  C   UNL     1      14.808   3.499  -0.883  1.00  0.00     0.012 A 
ATOM      3  C   UNL     1      14.434   2.658  -3.125  1.00  0.00     0.012 A 
ATOM      4  C   UNL     1      16.080   2.921  -0.880  1.00  0.00     0.047 A 
ATOM      5  C   UNL     1      15.709   2.083  -3.117  1.00  0.00     0.047 A 
ATOM      6  C   UNL     1      16.534   2.211  -1.994  1.00  0.00     0.115 A 
ENDROOT
BRANCH   1   7
ATOM      7  C   UNL     1      12.625   4.003  -1.958  1.00  0.00     0.010 C 
ATOM      8  C   UNL     1      12.234   4.852  -0.997  1.00  0.00     0.025 C 
BRANCH   8   9
ATOM      9  C   UNL     1      10.900   5.477  -0.996  1.00  0.00     0.064 C 
ATOM     10  O   UNL     1      10.648   6.476  -0.271  1.00  0.00    -0.545 OA
ATOM     11  O   UNL     1       9.902   4.956  -1.809  1.00  0.00    -0.545 OA
ENDBRANCH   8   9
ENDBRANCH   1   7
BRANCH   6  12
ATOM     12  O   UNL     1      17.804   1.640  -1.976  1.00  0.00    -0.508 OA
ATOM     13  H   UNL     1      18.640   2.204  -2.086  1.00  0.00     0.293 HD
ENDBRANCH   6  12
TORSDOF 3
ENDMDL
MODEL 5
REMARK VINA RESULT:    -3.874      1.210      2.052
REMARK INTER + INTRA:          -4.586
REMARK INTER:                  -4.446
REMARK INTRA:                  -0.140
REMARK UNBOUND:                -0.146
REMARK SMILES O=C([O-])C=Cc1ccc(O)cc1
REMARK SMILES IDX 6 1 7 2 12 3 8 4 11 5 9 6 5 7 4 8 2 9 1 10 3 11 10 12
REMARK H PARENT 10 13
REMARK Flexibility Score: inf
ROOT
ATOM      1  C   UNL     1      12.385   4.552  -1.510  1.00  0.00    -0.025 A 
ATOM      2  C   UNL     1      11.860   5.320  -0.456  1.00  0.00     0.012 A 
ATOM      3  C   UNL     1      11.663   4.475  -2.718  1.00  0.00     0.012 A 
ATOM      4  C   UNL     1      10.658   6.015  -0.613  1.00  0.00     0.047 A 
ATOM      5  C   UNL     1      10.460   5.171  -2.870  1.00  0.00     0.047 A 
ATOM      6  C   UNL     1       9.955   5.944  -1.818  1.00  0.00     0.115 A 
ENDROOT
BRANCH   1   7
ATOM      7  C   UNL     1      13.660   3.825  -1.292  1.00  0.00     0.010 C 
ATOM      8  C   UNL     1      14.228   3.025  -2.206  1.00  0.00     0.025 C 
BRANCH   8   9
ATOM      9  C   UNL     1      15.501   2.328  -1.958  1.00  0.00     0.064 C 
ATOM     10  O   UNL     1      16.402   2.848  -1.248  1.00  0.00    -0.545 OA
ATOM     11  O   UNL     1      15.711   1.073  -2.514  1.00  0.00    -0.545 OA
ENDBRANCH   8   9
ENDBRANCH   1   7
BRANCH   6  12
ATOM     12  O   UNL     1       8.759   6.643  -1.960  1.00  0.00    -0.508 OA
ATOM     13  H   UNL     1       7.875   6.245  -1.664  1.00  0.00     0.293 HD
ENDBRANCH   6  12
TORSDOF 3
ENDMDL
MODEL 6
REMARK VINA RESULT:    -3.739      1.260      5.656
REMARK INTER + INTRA:          -4.432
REMARK INTER:                  -4.280
REMARK INTRA:                  -0.152
REMARK UNBOUND:                -0.146
REMARK SMILES O=C([O-])C=Cc1ccc(O)cc1
REMARK SMILES IDX 6 1 7 2 12 3 8 4 11 5 9 6 5 7 4 8 2 9 1 10 3 11 10 12
REMARK H PARENT 10 13
REMARK Flexibility Score: inf
ROOT
ATOM      1  C   UNL     1      14.046   3.490  -1.652  1.00  0.00    -0.025 A 
ATOM      2  C   UNL     1      13.760   2.678  -2.764  1.00  0.00     0.012 A 
ATOM      3  C   UNL     1      15.202   3.218  -0.892  1.00  0.00     0.012 A 
ATOM      4  C   UNL     1      14.621   1.638  -3.125  1.00  0.00     0.047 A 
ATOM      5  C   UNL     1      16.059   2.175  -1.257  1.00  0.00     0.047 A 
ATOM      6  C   UNL     1      15.772   1.383  -2.375  1.00  0.00     0.115 A 
ENDROOT
BRANCH   1   7
ATOM      7  C   UNL     1      13.097   4.576  -1.303  1.00  0.00     0.010 C 
ATOM      8  C   UNL     1      11.817   4.604  -1.702  1.00  0.00     0.025 C 
BRANCH   8   9
ATOM      9  C   UNL     1      10.901   5.694  -1.327  1.00  0.00     0.064 C 
ATOM     10  O   UNL     1      11.041   6.319  -0.242  1.00  0.00    -0.545 OA
ATOM     11  O   UNL     1       9.867   6.042  -2.185  1.00  0.00    -0.545 OA
ENDBRANCH   8   9
ENDBRANCH   1   7
BRANCH   6  12
ATOM     12  O   UNL     1      16.620   0.343  -2.747  1.00  0.00    -0.508 OA
ATOM     13  H   UNL     1      17.429   0.094  -2.190  1.00  0.00     0.293 HD
ENDBRANCH   6  12
TORSDOF 3
ENDMDL
MODEL 7
REMARK VINA RESULT:    -3.709      1.870      2.758
REMARK INTER + INTRA:          -4.396
REMARK INTER:                  -4.259
REMARK INTRA:                  -0.138
REMARK UNBOUND:                -0.146
REMARK SMILES O=C([O-])C=Cc1ccc(O)cc1
REMARK SMILES IDX 6 1 7 2 12 3 8 4 11 5 9 6 5 7 4 8 2 9 1 10 3 11 10 12
REMARK H PARENT 10 13
REMARK Flexibility Score: inf
ROOT
ATOM      1  C   UNL     1      15.500   2.382  -1.992  1.00  0.00    -0.025 A 
ATOM      2  C   UNL     1      14.624   1.943  -3.001  1.00  0.00     0.012 A 
ATOM      3  C   UNL     1      15.075   3.409  -1.125  1.00  0.00     0.012 A 
ATOM      4  C   UNL     1      13.347   2.497  -3.125  1.00  0.00     0.047 A 
ATOM      5  C   UNL     1      13.797   3.961  -1.254  1.00  0.00     0.047 A 
ATOM      6  C   UNL     1      12.929   3.505  -2.253  1.00  0.00     0.115 A 
ENDROOT
BRANCH   1   7
ATOM      7  C   UNL     1      16.848   1.769  -1.907  1.00  0.00     0.010 C 
ATOM      8  C   UNL     1      17.819   1.976  -2.809  1.00  0.00     0.025 C 
BRANCH   8   9
ATOM      9  C   UNL     1      19.150   1.359  -2.686  1.00  0.00     0.064 C 
ATOM     10  O   UNL     1      19.290   0.107  -2.674  1.00  0.00    -0.545 OA
ATOM     11  O   UNL     1      20.272   2.171  -2.582  1.00  0.00    -0.545 OA
ENDBRANCH   8   9
ENDBRANCH   1   7
BRANCH   6  12
ATOM     12  O   UNL     1      11.653   4.047  -2.388  1.00  0.00    -0.508 OA
ATOM     13  H   UNL     1      11.024   4.125  -1.596  1.00  0.00     0.293 HD
ENDBRANCH   6  12
TORSDOF 3
ENDMDL
MODEL 8
REMARK VINA RESULT:    -3.508      2.379      6.547
REMARK INTER + INTRA:          -4.167
REMARK INTER:                  -4.028
REMARK INTRA:                  -0.138
REMARK UNBOUND:                -0.146
REMARK SMILES O=C([O-])C=Cc1ccc(O)cc1
REMARK SMILES IDX 6 1 7 2 12 3 8 4 11 5 9 6 5 7 4 8 2 9 1 10 3 11 10 12
REMARK H PARENT 10 13
REMARK Flexibility Score: inf
ROOT
ATOM      1  C   UNL     1      11.450   5.014  -1.777  1.00  0.00    -0.025 A 
ATOM      2  C   UNL     1      12.776   4.882  -1.327  1.00  0.00     0.012 A 
ATOM      3  C   UNL     1      10.946   4.067  -2.692  1.00  0.00     0.012 A 
ATOM      4  C   UNL     1      13.571   3.818  -1.761  1.00  0.00     0.047 A 
ATOM      5  C   UNL     1      11.747   3.005  -3.124  1.00  0.00     0.047 A 
ATOM      6  C   UNL     1      13.061   2.877  -2.658  1.00  0.00     0.115 A 
ENDROOT
BRANCH   1   7
ATOM      7  C   UNL     1      10.648   6.165  -1.295  1.00  0.00     0.010 C 
ATOM      8  C   UNL     1       9.795   6.854  -2.067  1.00  0.00     0.025 C 
BRANCH   8   9
ATOM      9  C   UNL     1       9.007   7.986  -1.551  1.00  0.00     0.064 C 
ATOM     10  O   UNL     1       7.865   7.811  -1.050  1.00  0.00    -0.545 OA
ATOM     11  O   UNL     1       9.533   9.270  -1.616  1.00  0.00    -0.545 OA
ENDBRANCH   8   9
ENDBRANCH   1   7
BRANCH   6  12
ATOM     12  O   UNL     1      13.865   1.821  -3.080  1.00  0.00    -0.508 OA
ATOM     13  H   UNL     1      13.865   0.929  -2.598  1.00  0.00     0.293 HD
ENDBRANCH   6  12
TORSDOF 3
ENDMDL
MODEL 9
REMARK VINA RESULT:    -3.356      2.321      6.800
REMARK INTER + INTRA:          -3.993
REMARK INTER:                  -3.858
REMARK INTRA:                  -0.134
REMARK UNBOUND:                -0.146
REMARK SMILES O=C([O-])C=Cc1ccc(O)cc1
REMARK SMILES IDX 6 1 7 2 12 3 8 4 11 5 9 6 5 7 4 8 2 9 1 10 3 11 10 12
REMARK H PARENT 10 13
REMARK Flexibility Score: inf
ROOT
ATOM      1  C   UNL     1      10.719   4.917  -1.925  1.00  0.00    -0.025 A 
ATOM      2  C   UNL     1      11.236   4.151  -2.985  1.00  0.00     0.012 A 
ATOM      3  C   UNL     1      11.537   5.163  -0.804  1.00  0.00     0.012 A 
ATOM      4  C   UNL     1      12.546   3.666  -2.940  1.00  0.00     0.047 A 
ATOM      5  C   UNL     1      12.846   4.674  -0.762  1.00  0.00     0.047 A 
ATOM      6  C   UNL     1      13.355   3.926  -1.830  1.00  0.00     0.115 A 
ENDROOT
BRANCH   1   7
ATOM      7  C   UNL     1       9.320   5.402  -2.016  1.00  0.00     0.010 C 
ATOM      8  C   UNL     1       8.979   6.699  -2.011  1.00  0.00     0.025 C 
BRANCH   8   9
ATOM      9  C   UNL     1       7.579   7.144  -2.114  1.00  0.00     0.064 C 
ATOM     10  O   UNL     1       6.876   6.858  -3.120  1.00  0.00    -0.545 OA
ATOM     11  O   UNL     1       7.022   7.890  -1.084  1.00  0.00    -0.545 OA
ENDBRANCH   8   9
ENDBRANCH   1   7
BRANCH   6  12
ATOM     12  O   UNL     1      14.658   3.436  -1.799  1.00  0.00    -0.508 OA
ATOM     13  H   UNL     1      14.884   2.561  -1.340  1.00  0.00     0.293 HD
ENDBRANCH   6  12
TORSDOF 3
ENDMDL
