MODEL 1
REMARK VINA RESULT:     5.974      0.000      0.000
REMARK INTER + INTRA:           6.149
REMARK INTER:                   6.149
REMARK INTRA:                   0.000
REMARK UNBOUND:                 0.000
REMARK SMILES C=C1[C@@H](O)C[C@@]23C[C@@H]1C(C)(C)[C@@H]2CC[C@H]3C
REMARK SMILES IDX 16 1 15 2 14 3 13 4 12 5 6 6 7 7 8 8 9 9 10 10 11 11 2 12
REMARK SMILES IDX 1 13 3 14 5 15 4 16
REMARK H PARENT 4 17
REMARK Flexibility Score: inf
ROOT
ATOM      1  C   UNL     1     -34.567  24.945   6.783  1.00  0.00     0.008 C 
ATOM      2  C   UNL     1     -35.946  24.530   7.319  1.00  0.00    -0.008 C 
ATOM      3  C   UNL     1     -35.874  23.226   8.109  1.00  0.00     0.004 C 
ATOM      4  C   UNL     1     -37.299  22.704   8.118  1.00  0.00     0.005 C 
ATOM      5  C   UNL     1     -37.838  23.045   6.721  1.00  0.00     0.002 C 
ATOM      6  C   UNL     1     -37.068  24.306   6.257  1.00  0.00    -0.020 C 
ATOM      7  C   UNL     1     -38.121  25.419   6.253  1.00  0.00     0.016 C 
ATOM      8  C   UNL     1     -39.341  24.686   5.718  1.00  0.00     0.023 C 
ATOM      9  C   UNL     1     -39.363  23.368   6.549  1.00  0.00    -0.025 C 
ATOM     10  C   UNL     1     -40.118  23.619   7.881  1.00  0.00     0.012 C 
ATOM     11  C   UNL     1     -40.099  22.209   5.830  1.00  0.00     0.012 C 
ATOM     12  C   UNL     1     -39.097  24.430   4.232  1.00  0.00    -0.045 C 
ATOM     13  C   UNL     1     -40.124  24.497   3.369  1.00  0.00     0.011 C 
ATOM     14  C   UNL     1     -37.729  23.924   3.758  1.00  0.00     0.140 C 
ATOM     15  C   UNL     1     -36.574  24.135   4.788  1.00  0.00     0.044 C 
ENDROOT
BRANCH  14  16
ATOM     16  O   UNL     1     -37.379  24.504   2.525  1.00  0.00    -0.389 OA
ATOM     17  H   UNL     1     -38.223  24.713   2.045  1.00  0.00     0.211 HD
ENDBRANCH  14  16
TORSDOF 1
ENDMDL
