MODEL 1
REMARK VINA RESULT:    -6.847      0.000      0.000
REMARK INTER + INTRA:          -8.665
REMARK INTER:                  -8.448
REMARK INTRA:                  -0.217
REMARK UNBOUND:                -0.217
REMARK SMILES CCOC(=O)c1ccc(O)c(O)c1
REMARK SMILES IDX 4 1 5 2 3 3 2 4 1 5 6 6 13 7 7 8 11 9 8 10 9 11 12 12 10 14
REMARK H PARENT 12 13 10 15
REMARK Flexibility Score: inf
ROOT
ATOM      1  C   UNL     1      33.435  24.480  17.618  1.00  0.00     0.338 C 
ATOM      2  O   UNL     1      33.692  23.246  17.565  1.00  0.00    -0.246 OA
ENDROOT
BRANCH   1   3
ATOM      3  O   UNL     1      32.816  25.116  16.533  1.00  0.00    -0.462 OA
BRANCH   3   4
ATOM      4  C   UNL     1      33.536  25.754  15.480  1.00  0.00     0.230 C 
ATOM      5  C   UNL     1      32.712  26.884  14.872  1.00  0.00     0.049 C 
ENDBRANCH   3   4
ENDBRANCH   1   3
BRANCH   1   6
ATOM      6  C   UNL     1      33.779  25.259  18.828  1.00  0.00     0.064 A 
ATOM      7  C   UNL     1      33.124  26.474  19.100  1.00  0.00     0.065 A 
ATOM      8  C   UNL     1      34.764  24.800  19.721  1.00  0.00     0.020 A 
ATOM      9  C   UNL     1      33.447  27.216  20.246  1.00  0.00     0.158 A 
ATOM     10  C   UNL     1      35.085  25.541  20.862  1.00  0.00     0.051 A 
ATOM     11  C   UNL     1      34.428  26.749  21.127  1.00  0.00     0.157 A 
BRANCH   9  12
ATOM     12  O   UNL     1      32.795  28.419  20.514  1.00  0.00    -0.504 OA
ATOM     13  H   UNL     1      33.188  29.310  20.231  1.00  0.00     0.293 HD
ENDBRANCH   9  12
BRANCH  11  14
ATOM     14  O   UNL     1      34.746  27.490  22.264  1.00  0.00    -0.504 OA
ATOM     15  H   UNL     1      35.068  28.450  22.199  1.00  0.00     0.293 HD
ENDBRANCH  11  14
ENDBRANCH   1   6
TORSDOF 5
ENDMDL
MODEL 2
REMARK VINA RESULT:    -6.698      0.801      1.834
REMARK INTER + INTRA:          -8.481
REMARK INTER:                  -8.243
REMARK INTRA:                  -0.237
REMARK UNBOUND:                -0.217
REMARK SMILES CCOC(=O)c1ccc(O)c(O)c1
REMARK SMILES IDX 4 1 5 2 3 3 2 4 1 5 6 6 13 7 7 8 11 9 8 10 9 11 12 12 10 14
REMARK H PARENT 12 13 10 15
REMARK Flexibility Score: inf
ROOT
ATOM      1  C   UNL     1      33.415  24.662  17.873  1.00  0.00     0.338 C 
ATOM      2  O   UNL     1      33.784  23.463  18.011  1.00  0.00    -0.246 OA
ENDROOT
BRANCH   1   3
ATOM      3  O   UNL     1      32.812  25.079  16.679  1.00  0.00    -0.462 OA
BRANCH   3   4
ATOM      4  C   UNL     1      33.536  25.650  15.590  1.00  0.00     0.230 C 
ATOM      5  C   UNL     1      32.737  26.776  14.944  1.00  0.00     0.049 C 
ENDBRANCH   3   4
ENDBRANCH   1   3
BRANCH   1   6
ATOM      6  C   UNL     1      33.611  25.630  18.976  1.00  0.00     0.064 A 
ATOM      7  C   UNL     1      34.581  25.390  19.966  1.00  0.00     0.065 A 
ATOM      8  C   UNL     1      32.832  26.798  19.053  1.00  0.00     0.020 A 
ATOM      9  C   UNL     1      34.770  26.303  21.015  1.00  0.00     0.158 A 
ATOM     10  C   UNL     1      33.022  27.707  20.098  1.00  0.00     0.051 A 
ATOM     11  C   UNL     1      33.989  27.463  21.080  1.00  0.00     0.157 A 
BRANCH   9  12
ATOM     12  O   UNL     1      35.733  26.063  21.994  1.00  0.00    -0.504 OA
ATOM     13  H   UNL     1      36.671  25.765  21.753  1.00  0.00     0.293 HD
ENDBRANCH   9  12
BRANCH  11  14
ATOM     14  O   UNL     1      34.181  28.367  22.123  1.00  0.00    -0.504 OA
ATOM     15  H   UNL     1      34.184  28.066  23.091  1.00  0.00     0.293 HD
ENDBRANCH  11  14
ENDBRANCH   1   6
TORSDOF 5
ENDMDL
MODEL 3
REMARK VINA RESULT:    -6.549      1.938      4.894
REMARK INTER + INTRA:          -8.297
REMARK INTER:                  -8.132
REMARK INTRA:                  -0.165
REMARK UNBOUND:                -0.217
REMARK SMILES CCOC(=O)c1ccc(O)c(O)c1
REMARK SMILES IDX 4 1 5 2 3 3 2 4 1 5 6 6 13 7 7 8 11 9 8 10 9 11 12 12 10 14
REMARK H PARENT 12 13 10 15
REMARK Flexibility Score: inf
ROOT
ATOM      1  C   UNL     1      34.250  25.613  19.734  1.00  0.00     0.338 C 
ATOM      2  O   UNL     1      34.800  24.502  19.972  1.00  0.00    -0.246 OA
ENDROOT
BRANCH   1   3
ATOM      3  O   UNL     1      34.011  26.517  20.778  1.00  0.00    -0.462 OA
BRANCH   3   4
ATOM      4  C   UNL     1      34.982  26.848  21.769  1.00  0.00     0.230 C 
ATOM      5  C   UNL     1      34.701  26.102  23.068  1.00  0.00     0.049 C 
ENDBRANCH   3   4
ENDBRANCH   1   3
BRANCH   1   6
ATOM      6  C   UNL     1      33.862  25.968  18.350  1.00  0.00     0.064 A 
ATOM      7  C   UNL     1      33.324  27.236  18.068  1.00  0.00     0.065 A 
ATOM      8  C   UNL     1      34.023  25.045  17.301  1.00  0.00     0.020 A 
ATOM      9  C   UNL     1      32.954  27.577  16.758  1.00  0.00     0.158 A 
ATOM     10  C   UNL     1      33.654  25.386  15.997  1.00  0.00     0.051 A 
ATOM     11  C   UNL     1      33.120  26.650  15.722  1.00  0.00     0.157 A 
BRANCH   9  12
ATOM     12  O   UNL     1      32.421  28.835  16.480  1.00  0.00    -0.504 OA
ATOM     13  H   UNL     1      31.887  29.010  15.637  1.00  0.00     0.293 HD
ENDBRANCH   9  12
BRANCH  11  14
ATOM     14  O   UNL     1      32.751  26.994  14.423  1.00  0.00    -0.504 OA
ATOM     15  H   UNL     1      32.515  27.948  14.173  1.00  0.00     0.293 HD
ENDBRANCH  11  14
ENDBRANCH   1   6
TORSDOF 5
ENDMDL
MODEL 4
REMARK VINA RESULT:    -6.461      1.714      5.179
REMARK INTER + INTRA:          -8.188
REMARK INTER:                  -8.024
REMARK INTRA:                  -0.165
REMARK UNBOUND:                -0.217
REMARK SMILES CCOC(=O)c1ccc(O)c(O)c1
REMARK SMILES IDX 4 1 5 2 3 3 2 4 1 5 6 6 13 7 7 8 11 9 8 10 9 11 12 12 10 14
REMARK H PARENT 12 13 10 15
REMARK Flexibility Score: inf
ROOT
ATOM      1  C   UNL     1      33.914  26.777  20.850  1.00  0.00     0.338 C 
ATOM      2  O   UNL     1      33.314  27.760  21.367  1.00  0.00    -0.246 OA
ENDROOT
BRANCH   1   3
ATOM      3  O   UNL     1      34.726  25.953  21.641  1.00  0.00    -0.462 OA
BRANCH   3   4
ATOM      4  C   UNL     1      35.197  26.323  22.936  1.00  0.00     0.230 C 
ATOM      5  C   UNL     1      34.421  25.587  24.022  1.00  0.00     0.049 C 
ENDBRANCH   3   4
ENDBRANCH   1   3
BRANCH   1   6
ATOM      6  C   UNL     1      33.756  26.487  19.407  1.00  0.00     0.064 A 
ATOM      7  C   UNL     1      33.311  27.490  18.527  1.00  0.00     0.065 A 
ATOM      8  C   UNL     1      34.045  25.209  18.896  1.00  0.00     0.020 A 
ATOM      9  C   UNL     1      33.158  27.220  17.158  1.00  0.00     0.158 A 
ATOM     10  C   UNL     1      33.893  24.942  17.532  1.00  0.00     0.051 A 
ATOM     11  C   UNL     1      33.450  25.945  16.661  1.00  0.00     0.157 A 
BRANCH   9  12
ATOM     12  O   UNL     1      32.718  28.216  16.288  1.00  0.00    -0.504 OA
ATOM     13  H   UNL     1      31.863  28.113  15.753  1.00  0.00     0.293 HD
ENDBRANCH   9  12
BRANCH  11  14
ATOM     14  O   UNL     1      33.297  25.681  15.301  1.00  0.00    -0.504 OA
ATOM     15  H   UNL     1      33.242  26.430  14.619  1.00  0.00     0.293 HD
ENDBRANCH  11  14
ENDBRANCH   1   6
TORSDOF 5
ENDMDL
MODEL 5
REMARK VINA RESULT:    -6.442      1.497      5.467
REMARK INTER + INTRA:          -8.165
REMARK INTER:                  -7.994
REMARK INTRA:                  -0.171
REMARK UNBOUND:                -0.217
REMARK SMILES CCOC(=O)c1ccc(O)c(O)c1
REMARK SMILES IDX 4 1 5 2 3 3 2 4 1 5 6 6 13 7 7 8 11 9 8 10 9 11 12 12 10 14
REMARK H PARENT 12 13 10 15
REMARK Flexibility Score: inf
ROOT
ATOM      1  C   UNL     1      33.989  26.850  20.911  1.00  0.00     0.338 C 
ATOM      2  O   UNL     1      33.493  27.882  21.443  1.00  0.00    -0.246 OA
ENDROOT
BRANCH   1   3
ATOM      3  O   UNL     1      34.764  25.969  21.675  1.00  0.00    -0.462 OA
BRANCH   3   4
ATOM      4  C   UNL     1      35.252  26.278  22.979  1.00  0.00     0.230 C 
ATOM      5  C   UNL     1      34.371  25.641  24.048  1.00  0.00     0.049 C 
ENDBRANCH   3   4
ENDBRANCH   1   3
BRANCH   1   6
ATOM      6  C   UNL     1      33.746  26.565  19.478  1.00  0.00     0.064 A 
ATOM      7  C   UNL     1      33.950  25.270  18.969  1.00  0.00     0.065 A 
ATOM      8  C   UNL     1      33.312  27.581  18.608  1.00  0.00     0.020 A 
ATOM      9  C   UNL     1      33.723  24.995  17.612  1.00  0.00     0.158 A 
ATOM     10  C   UNL     1      33.086  27.305  17.257  1.00  0.00     0.051 A 
ATOM     11  C   UNL     1      33.290  26.014  16.756  1.00  0.00     0.157 A 
BRANCH   9  12
ATOM     12  O   UNL     1      33.924  23.710  17.110  1.00  0.00    -0.504 OA
ATOM     13  H   UNL     1      33.775  23.494  16.131  1.00  0.00     0.293 HD
ENDBRANCH   9  12
BRANCH  11  14
ATOM     14  O   UNL     1      33.065  25.735  15.409  1.00  0.00    -0.504 OA
ATOM     15  H   UNL     1      32.566  24.903  15.115  1.00  0.00     0.293 HD
ENDBRANCH  11  14
ENDBRANCH   1   6
TORSDOF 5
ENDMDL
MODEL 6
REMARK VINA RESULT:    -6.303      2.256      4.369
REMARK INTER + INTRA:          -7.994
REMARK INTER:                  -7.865
REMARK INTRA:                  -0.129
REMARK UNBOUND:                -0.217
REMARK SMILES CCOC(=O)c1ccc(O)c(O)c1
REMARK SMILES IDX 4 1 5 2 3 3 2 4 1 5 6 6 13 7 7 8 11 9 8 10 9 11 12 12 10 14
REMARK H PARENT 12 13 10 15
REMARK Flexibility Score: inf
ROOT
ATOM      1  C   UNL     1      34.264  23.898  18.950  1.00  0.00     0.338 C 
ATOM      2  O   UNL     1      34.843  24.159  20.041  1.00  0.00    -0.246 OA
ENDROOT
BRANCH   1   3
ATOM      3  O   UNL     1      33.982  22.570  18.605  1.00  0.00    -0.462 OA
BRANCH   3   4
ATOM      4  C   UNL     1      34.316  21.454  19.428  1.00  0.00     0.230 C 
ATOM      5  C   UNL     1      33.414  20.266  19.118  1.00  0.00     0.049 C 
ENDBRANCH   3   4
ENDBRANCH   1   3
BRANCH   1   6
ATOM      6  C   UNL     1      33.875  24.995  18.036  1.00  0.00     0.064 A 
ATOM      7  C   UNL     1      33.566  26.268  18.547  1.00  0.00     0.065 A 
ATOM      8  C   UNL     1      33.805  24.781  16.648  1.00  0.00     0.020 A 
ATOM      9  C   UNL     1      33.196  27.311  17.685  1.00  0.00     0.158 A 
ATOM     10  C   UNL     1      33.436  25.822  15.790  1.00  0.00     0.051 A 
ATOM     11  C   UNL     1      33.131  27.087  16.305  1.00  0.00     0.157 A 
BRANCH   9  12
ATOM     12  O   UNL     1      32.891  28.572  18.195  1.00  0.00    -0.504 OA
ATOM     13  H   UNL     1      33.415  28.974  18.964  1.00  0.00     0.293 HD
ENDBRANCH   9  12
BRANCH  11  14
ATOM     14  O   UNL     1      32.762  28.126  15.453  1.00  0.00    -0.504 OA
ATOM     15  H   UNL     1      31.795  28.416  15.357  1.00  0.00     0.293 HD
ENDBRANCH  11  14
ENDBRANCH   1   6
TORSDOF 5
ENDMDL
MODEL 7
REMARK VINA RESULT:    -6.286      1.390      2.029
REMARK INTER + INTRA:          -7.973
REMARK INTER:                  -7.858
REMARK INTRA:                  -0.116
REMARK UNBOUND:                -0.217
REMARK SMILES CCOC(=O)c1ccc(O)c(O)c1
REMARK SMILES IDX 4 1 5 2 3 3 2 4 1 5 6 6 13 7 7 8 11 9 8 10 9 11 12 12 10 14
REMARK H PARENT 12 13 10 15
REMARK Flexibility Score: inf
ROOT
ATOM      1  C   UNL     1      33.089  26.874  18.169  1.00  0.00     0.338 C 
ATOM      2  O   UNL     1      32.818  28.067  17.857  1.00  0.00    -0.246 OA
ENDROOT
BRANCH   1   3
ATOM      3  O   UNL     1      32.840  25.836  17.261  1.00  0.00    -0.462 OA
BRANCH   3   4
ATOM      4  C   UNL     1      33.526  25.697  16.018  1.00  0.00     0.230 C 
ATOM      5  C   UNL     1      32.833  26.506  14.928  1.00  0.00     0.049 C 
ENDBRANCH   3   4
ENDBRANCH   1   3
BRANCH   1   6
ATOM      6  C   UNL     1      33.678  26.569  19.493  1.00  0.00     0.064 A 
ATOM      7  C   UNL     1      33.423  27.407  20.592  1.00  0.00     0.065 A 
ATOM      8  C   UNL     1      34.500  25.442  19.670  1.00  0.00     0.020 A 
ATOM      9  C   UNL     1      33.979  27.124  21.849  1.00  0.00     0.158 A 
ATOM     10  C   UNL     1      35.053  25.160  20.922  1.00  0.00     0.051 A 
ATOM     11  C   UNL     1      34.795  25.998  22.013  1.00  0.00     0.157 A 
BRANCH   9  12
ATOM     12  O   UNL     1      33.724  27.956  22.937  1.00  0.00    -0.504 OA
ATOM     13  H   UNL     1      33.024  27.722  23.632  1.00  0.00     0.293 HD
ENDBRANCH   9  12
BRANCH  11  14
ATOM     14  O   UNL     1      35.346  25.720  23.263  1.00  0.00    -0.504 OA
ATOM     15  H   UNL     1      36.346  25.608  23.389  1.00  0.00     0.293 HD
ENDBRANCH  11  14
ENDBRANCH   1   6
TORSDOF 5
ENDMDL
MODEL 8
REMARK VINA RESULT:    -6.217      1.281      2.525
REMARK INTER + INTRA:          -7.888
REMARK INTER:                  -7.621
REMARK INTRA:                  -0.267
REMARK UNBOUND:                -0.217
REMARK SMILES CCOC(=O)c1ccc(O)c(O)c1
REMARK SMILES IDX 4 1 5 2 3 3 2 4 1 5 6 6 13 7 7 8 11 9 8 10 9 11 12 12 10 14
REMARK H PARENT 12 13 10 15
REMARK Flexibility Score: inf
ROOT
ATOM      1  C   UNL     1      33.435  24.405  17.659  1.00  0.00     0.338 C 
ATOM      2  O   UNL     1      32.690  24.861  16.748  1.00  0.00    -0.246 OA
ENDROOT
BRANCH   1   3
ATOM      3  O   UNL     1      33.958  23.109  17.557  1.00  0.00    -0.462 OA
BRANCH   3   4
ATOM      4  C   UNL     1      33.229  21.936  17.914  1.00  0.00     0.230 C 
ATOM      5  C   UNL     1      34.005  21.108  18.932  1.00  0.00     0.049 C 
ENDBRANCH   3   4
ENDBRANCH   1   3
BRANCH   1   6
ATOM      6  C   UNL     1      33.765  25.241  18.835  1.00  0.00     0.064 A 
ATOM      7  C   UNL     1      33.106  26.466  19.042  1.00  0.00     0.065 A 
ATOM      8  C   UNL     1      34.742  24.828  19.759  1.00  0.00     0.020 A 
ATOM      9  C   UNL     1      33.416  27.264  20.153  1.00  0.00     0.158 A 
ATOM     10  C   UNL     1      35.049  25.623  20.866  1.00  0.00     0.051 A 
ATOM     11  C   UNL     1      34.389  26.841  21.067  1.00  0.00     0.157 A 
BRANCH   9  12
ATOM     12  O   UNL     1      32.760  28.477  20.356  1.00  0.00    -0.504 OA
ATOM     13  H   UNL     1      31.760  28.569  20.216  1.00  0.00     0.293 HD
ENDBRANCH   9  12
BRANCH  11  14
ATOM     14  O   UNL     1      34.693  27.636  22.170  1.00  0.00    -0.504 OA
ATOM     15  H   UNL     1      35.650  27.878  22.401  1.00  0.00     0.293 HD
ENDBRANCH  11  14
ENDBRANCH   1   6
TORSDOF 5
ENDMDL
MODEL 9
REMARK VINA RESULT:    -6.118      2.218      3.961
REMARK INTER + INTRA:          -7.765
REMARK INTER:                  -7.572
REMARK INTRA:                  -0.193
REMARK UNBOUND:                -0.217
REMARK SMILES CCOC(=O)c1ccc(O)c(O)c1
REMARK SMILES IDX 4 1 5 2 3 3 2 4 1 5 6 6 13 7 7 8 11 9 8 10 9 11 12 12 10 14
REMARK H PARENT 12 13 10 15
REMARK Flexibility Score: inf
ROOT
ATOM      1  C   UNL     1      32.816  27.512  15.782  1.00  0.00     0.338 C 
ATOM      2  O   UNL     1      32.284  27.072  14.725  1.00  0.00    -0.246 OA
ENDROOT
BRANCH   1   3
ATOM      3  O   UNL     1      32.986  28.890  15.962  1.00  0.00    -0.462 OA
BRANCH   3   4
ATOM      4  C   UNL     1      31.909  29.789  16.219  1.00  0.00     0.230 C 
ATOM      5  C   UNL     1      31.640  29.894  17.716  1.00  0.00     0.049 C 
ENDBRANCH   3   4
ENDBRANCH   1   3
BRANCH   1   6
ATOM      6  C   UNL     1      33.256  26.571  16.837  1.00  0.00     0.064 A 
ATOM      7  C   UNL     1      33.406  25.203  16.549  1.00  0.00     0.065 A 
ATOM      8  C   UNL     1      33.527  27.029  18.139  1.00  0.00     0.020 A 
ATOM      9  C   UNL     1      33.821  24.306  17.546  1.00  0.00     0.158 A 
ATOM     10  C   UNL     1      33.940  26.135  19.130  1.00  0.00     0.051 A 
ATOM     11  C   UNL     1      34.088  24.774  18.838  1.00  0.00     0.157 A 
BRANCH   9  12
ATOM     12  O   UNL     1      33.969  22.951  17.258  1.00  0.00    -0.504 OA
ATOM     13  H   UNL     1      34.353  22.635  16.375  1.00  0.00     0.293 HD
ENDBRANCH   9  12
BRANCH  11  14
ATOM     14  O   UNL     1      34.500  23.880  19.824  1.00  0.00    -0.504 OA
ATOM     15  H   UNL     1      35.146  23.125  19.620  1.00  0.00     0.293 HD
ENDBRANCH  11  14
ENDBRANCH   1   6
TORSDOF 5
ENDMDL
