MODEL 1
REMARK VINA RESULT:    -3.829      0.000      0.000
REMARK INTER + INTRA:          -5.654
REMARK INTER:                  -5.395
REMARK INTRA:                  -0.259
REMARK UNBOUND:                -0.259
REMARK SMILES C=CCCCCCCC(=O)[O-]
REMARK SMILES IDX 6 1 7 2 8 3 9 4 10 5 11 6 5 7 4 8 3 9 2 10 1 11
REMARK H PARENT
REMARK Flexibility Score: inf
ROOT
ATOM      1  C   UNL     1     412.087 -84.988 114.205  1.00  0.00     0.000 C 
ENDROOT
BRANCH   1   2
ATOM      2  C   UNL     1     412.515 -85.729 115.482  1.00  0.00     0.006 C 
BRANCH   2   3
ATOM      3  C   UNL     1     413.067 -84.773 116.548  1.00  0.00     0.053 C 
BRANCH   3   4
ATOM      4  C   UNL     1     413.920 -85.493 117.548  1.00  0.00     0.041 C 
ATOM      5  O   UNL     1     414.353 -84.888 118.564  1.00  0.00    -0.550 OA
ATOM      6  O   UNL     1     414.266 -86.821 117.339  1.00  0.00    -0.550 OA
ENDBRANCH   3   4
ENDBRANCH   2   3
ENDBRANCH   1   2
BRANCH   1   7
ATOM      7  C   UNL     1     410.560 -84.962 114.012  1.00  0.00     0.000 C 
BRANCH   7   8
ATOM      8  C   UNL     1     409.739 -85.318 115.268  1.00  0.00     0.004 C 
BRANCH   8   9
ATOM      9  C   UNL     1     408.635 -86.364 115.033  1.00  0.00     0.027 C 
BRANCH   9  10
ATOM     10  C   UNL     1     407.251 -85.777 115.122  1.00  0.00    -0.035 C 
ATOM     11  C   UNL     1     406.354 -85.937 114.147  1.00  0.00     0.004 C 
ENDBRANCH   9  10
ENDBRANCH   8   9
ENDBRANCH   7   8
ENDBRANCH   1   7
TORSDOF 7
ENDMDL
MODEL 2
REMARK VINA RESULT:    -3.629      4.108      6.457
REMARK INTER + INTRA:          -5.373
REMARK INTER:                  -5.157
REMARK INTRA:                  -0.216
REMARK UNBOUND:                -0.259
REMARK SMILES C=CCCCCCCC(=O)[O-]
REMARK SMILES IDX 6 1 7 2 8 3 9 4 10 5 11 6 5 7 4 8 3 9 2 10 1 11
REMARK H PARENT
REMARK Flexibility Score: inf
ROOT
ATOM      1  C   UNL     1     409.915 -85.803 115.029  1.00  0.00     0.000 C 
ENDROOT
BRANCH   1   2
ATOM      2  C   UNL     1     408.572 -85.175 114.623  1.00  0.00     0.006 C 
BRANCH   2   3
ATOM      3  C   UNL     1     407.379 -86.062 115.006  1.00  0.00     0.053 C 
BRANCH   3   4
ATOM      4  C   UNL     1     406.111 -85.590 114.364  1.00  0.00     0.041 C 
ATOM      5  O   UNL     1     405.664 -84.439 114.611  1.00  0.00    -0.550 OA
ATOM      6  O   UNL     1     405.402 -86.436 113.520  1.00  0.00    -0.550 OA
ENDBRANCH   3   4
ENDBRANCH   2   3
ENDBRANCH   1   2
BRANCH   1   7
ATOM      7  C   UNL     1     411.058 -85.451 114.060  1.00  0.00     0.000 C 
BRANCH   7   8
ATOM      8  C   UNL     1     412.466 -85.445 114.691  1.00  0.00     0.004 C 
BRANCH   8   9
ATOM      9  C   UNL     1     412.483 -85.217 116.212  1.00  0.00     0.027 C 
BRANCH   9  10
ATOM     10  C   UNL     1     413.460 -86.115 116.923  1.00  0.00    -0.035 C 
ATOM     11  C   UNL     1     414.209 -85.678 117.938  1.00  0.00     0.004 C 
ENDBRANCH   9  10
ENDBRANCH   8   9
ENDBRANCH   7   8
ENDBRANCH   1   7
TORSDOF 7
ENDMDL
MODEL 3
REMARK VINA RESULT:    -3.568      2.072      3.471
REMARK INTER + INTRA:          -5.288
REMARK INTER:                  -4.959
REMARK INTRA:                  -0.329
REMARK UNBOUND:                -0.259
REMARK SMILES C=CCCCCCCC(=O)[O-]
REMARK SMILES IDX 6 1 7 2 8 3 9 4 10 5 11 6 5 7 4 8 3 9 2 10 1 11
REMARK H PARENT
REMARK Flexibility Score: inf
ROOT
ATOM      1  C   UNL     1     409.133 -85.960 114.961  1.00  0.00     0.000 C 
ENDROOT
BRANCH   1   2
ATOM      2  C   UNL     1     409.626 -84.752 114.147  1.00  0.00     0.006 C 
BRANCH   2   3
ATOM      3  C   UNL     1     411.008 -84.998 113.528  1.00  0.00     0.053 C 
BRANCH   3   4
ATOM      4  C   UNL     1     412.086 -85.001 114.569  1.00  0.00     0.041 C 
ATOM      5  O   UNL     1     412.781 -86.033 114.759  1.00  0.00    -0.550 OA
ATOM      6  O   UNL     1     412.298 -83.875 115.354  1.00  0.00    -0.550 OA
ENDBRANCH   3   4
ENDBRANCH   2   3
ENDBRANCH   1   2
BRANCH   1   7
ATOM      7  C   UNL     1     407.599 -86.088 114.973  1.00  0.00     0.000 C 
BRANCH   7   8
ATOM      8  C   UNL     1     406.848 -84.991 114.191  1.00  0.00     0.004 C 
BRANCH   8   9
ATOM      9  C   UNL     1     405.323 -85.186 114.122  1.00  0.00     0.027 C 
BRANCH   9  10
ATOM     10  C   UNL     1     404.932 -86.442 113.389  1.00  0.00    -0.035 C 
ATOM     11  C   UNL     1     404.399 -86.407 112.166  1.00  0.00     0.004 C 
ENDBRANCH   9  10
ENDBRANCH   8   9
ENDBRANCH   7   8
ENDBRANCH   1   7
TORSDOF 7
ENDMDL
MODEL 4
REMARK VINA RESULT:    -3.497      4.600      6.889
REMARK INTER + INTRA:          -5.188
REMARK INTER:                  -4.942
REMARK INTRA:                  -0.245
REMARK UNBOUND:                -0.259
REMARK SMILES C=CCCCCCCC(=O)[O-]
REMARK SMILES IDX 6 1 7 2 8 3 9 4 10 5 11 6 5 7 4 8 3 9 2 10 1 11
REMARK H PARENT
REMARK Flexibility Score: inf
ROOT
ATOM      1  C   UNL     1     408.481 -85.146 114.551  1.00  0.00     0.000 C 
ENDROOT
BRANCH   1   2
ATOM      2  C   UNL     1     407.307 -86.065 114.927  1.00  0.00     0.006 C 
BRANCH   2   3
ATOM      3  C   UNL     1     405.955 -85.346 114.828  1.00  0.00     0.053 C 
BRANCH   3   4
ATOM      4  C   UNL     1     405.249 -85.670 113.547  1.00  0.00     0.041 C 
ATOM      5  O   UNL     1     404.774 -86.820 113.357  1.00  0.00    -0.550 OA
ATOM      6  O   UNL     1     405.148 -84.710 112.548  1.00  0.00    -0.550 OA
ENDBRANCH   3   4
ENDBRANCH   2   3
ENDBRANCH   1   2
BRANCH   1   7
ATOM      7  C   UNL     1     409.852 -85.751 114.905  1.00  0.00     0.000 C 
BRANCH   7   8
ATOM      8  C   UNL     1     410.981 -85.434 113.903  1.00  0.00     0.004 C 
BRANCH   8   9
ATOM      9  C   UNL     1     412.364 -85.226 114.546  1.00  0.00     0.027 C 
BRANCH   9  10
ATOM     10  C   UNL     1     412.350 -85.447 116.035  1.00  0.00    -0.035 C 
ATOM     11  C   UNL     1     413.203 -84.818 116.848  1.00  0.00     0.004 C 
ENDBRANCH   9  10
ENDBRANCH   8   9
ENDBRANCH   7   8
ENDBRANCH   1   7
TORSDOF 7
ENDMDL
MODEL 5
REMARK VINA RESULT:    -3.252      1.664      2.952
REMARK INTER + INTRA:          -4.842
REMARK INTER:                  -4.508
REMARK INTRA:                  -0.334
REMARK UNBOUND:                -0.259
REMARK SMILES C=CCCCCCCC(=O)[O-]
REMARK SMILES IDX 6 1 7 2 8 3 9 4 10 5 11 6 5 7 4 8 3 9 2 10 1 11
REMARK H PARENT
REMARK Flexibility Score: inf
ROOT
ATOM      1  C   UNL     1     408.952 -85.947 115.005  1.00  0.00     0.000 C 
ENDROOT
BRANCH   1   2
ATOM      2  C   UNL     1     410.115 -85.062 115.483  1.00  0.00     0.006 C 
BRANCH   2   3
ATOM      3  C   UNL     1     411.470 -85.551 114.955  1.00  0.00     0.053 C 
BRANCH   3   4
ATOM      4  C   UNL     1     412.578 -85.255 115.918  1.00  0.00     0.041 C 
ATOM      5  O   UNL     1     413.155 -86.193 116.530  1.00  0.00    -0.550 OA
ATOM      6  O   UNL     1     412.950 -83.940 116.167  1.00  0.00    -0.550 OA
ENDBRANCH   3   4
ENDBRANCH   2   3
ENDBRANCH   1   2
BRANCH   1   7
ATOM      7  C   UNL     1     407.795 -85.138 114.393  1.00  0.00     0.000 C 
BRANCH   7   8
ATOM      8  C   UNL     1     406.479 -85.921 114.209  1.00  0.00     0.004 C 
BRANCH   8   9
ATOM      9  C   UNL     1     405.329 -85.459 115.121  1.00  0.00     0.027 C 
BRANCH   9  10
ATOM     10  C   UNL     1     405.810 -84.654 116.298  1.00  0.00    -0.035 C 
ATOM     11  C   UNL     1     405.611 -85.057 117.556  1.00  0.00     0.004 C 
ENDBRANCH   9  10
ENDBRANCH   8   9
ENDBRANCH   7   8
ENDBRANCH   1   7
TORSDOF 7
ENDMDL
MODEL 6
REMARK VINA RESULT:    -3.133     13.919     15.161
REMARK INTER + INTRA:          -4.674
REMARK INTER:                  -4.218
REMARK INTRA:                  -0.456
REMARK UNBOUND:                -0.259
REMARK SMILES C=CCCCCCCC(=O)[O-]
REMARK SMILES IDX 6 1 7 2 8 3 9 4 10 5 11 6 5 7 4 8 3 9 2 10 1 11
REMARK H PARENT
REMARK Flexibility Score: inf
ROOT
ATOM      1  C   UNL     1     405.088 -94.414 108.257  1.00  0.00     0.000 C 
ENDROOT
BRANCH   1   2
ATOM      2  C   UNL     1     404.065 -95.484 107.841  1.00  0.00     0.006 C 
BRANCH   2   3
ATOM      3  C   UNL     1     404.740 -96.742 107.277  1.00  0.00     0.053 C 
BRANCH   3   4
ATOM      4  C   UNL     1     404.510 -96.879 105.804  1.00  0.00     0.041 C 
ATOM      5  O   UNL     1     404.859 -95.959 105.018  1.00  0.00    -0.550 OA
ATOM      6  O   UNL     1     403.875 -98.008 105.301  1.00  0.00    -0.550 OA
ENDBRANCH   3   4
ENDBRANCH   2   3
ENDBRANCH   1   2
BRANCH   1   7
ATOM      7  C   UNL     1     405.207 -93.269 107.235  1.00  0.00     0.000 C 
BRANCH   7   8
ATOM      8  C   UNL     1     403.920 -92.971 106.440  1.00  0.00     0.004 C 
BRANCH   8   9
ATOM      9  C   UNL     1     404.153 -92.291 105.079  1.00  0.00     0.027 C 
BRANCH   9  10
ATOM     10  C   UNL     1     404.349 -90.804 105.199  1.00  0.00    -0.035 C 
ATOM     11  C   UNL     1     405.556 -90.242 105.100  1.00  0.00     0.004 C 
ENDBRANCH   9  10
ENDBRANCH   8   9
ENDBRANCH   7   8
ENDBRANCH   1   7
TORSDOF 7
ENDMDL
MODEL 7
REMARK VINA RESULT:    -3.104     11.504     13.360
REMARK INTER + INTRA:          -4.633
REMARK INTER:                  -3.950
REMARK INTRA:                  -0.683
REMARK UNBOUND:                -0.259
REMARK SMILES C=CCCCCCCC(=O)[O-]
REMARK SMILES IDX 6 1 7 2 8 3 9 4 10 5 11 6 5 7 4 8 3 9 2 10 1 11
REMARK H PARENT
REMARK Flexibility Score: inf
ROOT
ATOM      1  C   UNL     1     420.271 -88.252 120.515  1.00  0.00     0.000 C 
ENDROOT
BRANCH   1   2
ATOM      2  C   UNL     1     420.668 -89.582 121.177  1.00  0.00     0.006 C 
BRANCH   2   3
ATOM      3  C   UNL     1     422.170 -89.865 121.051  1.00  0.00     0.053 C 
BRANCH   3   4
ATOM      4  C   UNL     1     422.454 -91.336 121.012  1.00  0.00     0.041 C 
ATOM      5  O   UNL     1     423.364 -91.826 121.732  1.00  0.00    -0.550 OA
ATOM      6  O   UNL     1     421.739 -92.160 120.153  1.00  0.00    -0.550 OA
ENDBRANCH   3   4
ENDBRANCH   2   3
ENDBRANCH   1   2
BRANCH   1   7
ATOM      7  C   UNL     1     420.392 -87.049 121.467  1.00  0.00     0.000 C 
BRANCH   7   8
ATOM      8  C   UNL     1     420.027 -87.343 122.937  1.00  0.00     0.004 C 
BRANCH   8   9
ATOM      9  C   UNL     1     421.142 -87.022 123.948  1.00  0.00     0.027 C 
BRANCH   9  10
ATOM     10  C   UNL     1     422.500 -86.937 123.305  1.00  0.00    -0.035 C 
ATOM     11  C   UNL     1     423.530 -87.673 123.732  1.00  0.00     0.004 C 
ENDBRANCH   9  10
ENDBRANCH   8   9
ENDBRANCH   7   8
ENDBRANCH   1   7
TORSDOF 7
ENDMDL
MODEL 8
REMARK VINA RESULT:    -3.096     13.296     14.672
REMARK INTER + INTRA:          -4.622
REMARK INTER:                  -4.151
REMARK INTRA:                  -0.471
REMARK UNBOUND:                -0.259
REMARK SMILES C=CCCCCCCC(=O)[O-]
REMARK SMILES IDX 6 1 7 2 8 3 9 4 10 5 11 6 5 7 4 8 3 9 2 10 1 11
REMARK H PARENT
REMARK Flexibility Score: inf
ROOT
ATOM      1  C   UNL     1     404.986 -93.837 107.635  1.00  0.00     0.000 C 
ENDROOT
BRANCH   1   2
ATOM      2  C   UNL     1     404.381 -92.572 107.006  1.00  0.00     0.006 C 
BRANCH   2   3
ATOM      3  C   UNL     1     404.910 -92.321 105.588  1.00  0.00     0.053 C 
BRANCH   3   4
ATOM      4  C   UNL     1     405.005 -90.857 105.284  1.00  0.00     0.041 C 
ATOM      5  O   UNL     1     406.099 -90.250 105.423  1.00  0.00    -0.550 OA
ATOM      6  O   UNL     1     403.875 -90.156 104.882  1.00  0.00    -0.550 OA
ENDBRANCH   3   4
ENDBRANCH   2   3
ENDBRANCH   1   2
BRANCH   1   7
ATOM      7  C   UNL     1     403.933 -94.731 108.315  1.00  0.00     0.000 C 
BRANCH   7   8
ATOM      8  C   UNL     1     404.228 -96.244 108.256  1.00  0.00     0.004 C 
BRANCH   8   9
ATOM      9  C   UNL     1     405.104 -96.677 107.067  1.00  0.00     0.027 C 
BRANCH   9  10
ATOM     10  C   UNL     1     404.298 -96.988 105.835  1.00  0.00    -0.035 C 
ATOM     11  C   UNL     1     403.877 -96.027 105.008  1.00  0.00     0.004 C 
ENDBRANCH   9  10
ENDBRANCH   8   9
ENDBRANCH   7   8
ENDBRANCH   1   7
TORSDOF 7
ENDMDL
MODEL 9
REMARK VINA RESULT:    -3.049     11.489     12.569
REMARK INTER + INTRA:          -4.556
REMARK INTER:                  -3.935
REMARK INTRA:                  -0.621
REMARK UNBOUND:                -0.259
REMARK SMILES C=CCCCCCCC(=O)[O-]
REMARK SMILES IDX 6 1 7 2 8 3 9 4 10 5 11 6 5 7 4 8 3 9 2 10 1 11
REMARK H PARENT
REMARK Flexibility Score: inf
ROOT
ATOM      1  C   UNL     1     420.286 -88.320 120.462  1.00  0.00     0.000 C 
ENDROOT
BRANCH   1   2
ATOM      2  C   UNL     1     420.669 -89.709 120.999  1.00  0.00     0.006 C 
BRANCH   2   3
ATOM      3  C   UNL     1     422.188 -89.930 120.999  1.00  0.00     0.053 C 
BRANCH   3   4
ATOM      4  C   UNL     1     422.555 -91.251 120.396  1.00  0.00     0.041 C 
ATOM      5  O   UNL     1     423.753 -91.504 120.102  1.00  0.00    -0.550 OA
ATOM      6  O   UNL     1     421.568 -92.190 120.126  1.00  0.00    -0.550 OA
ENDBRANCH   3   4
ENDBRANCH   2   3
ENDBRANCH   1   2
BRANCH   1   7
ATOM      7  C   UNL     1     421.490 -87.368 120.351  1.00  0.00     0.000 C 
BRANCH   7   8
ATOM      8  C   UNL     1     421.447 -86.151 121.299  1.00  0.00     0.004 C 
BRANCH   8   9
ATOM      9  C   UNL     1     420.077 -85.902 121.955  1.00  0.00     0.027 C 
BRANCH   9  10
ATOM     10  C   UNL     1     420.113 -86.061 123.451  1.00  0.00    -0.035 C 
ATOM     11  C   UNL     1     419.943 -87.249 124.037  1.00  0.00     0.004 C 
ENDBRANCH   9  10
ENDBRANCH   8   9
ENDBRANCH   7   8
ENDBRANCH   1   7
TORSDOF 7
ENDMDL
