MODEL 1
REMARK VINA RESULT:    -4.228      0.000      0.000
REMARK INTER + INTRA:          -5.669
REMARK INTER:                  -5.712
REMARK INTRA:                   0.042
REMARK UNBOUND:                 0.042
REMARK SMILES C=C1CCC=C(C)CC[C@@H]2[C@H]1CC2(C)C
REMARK SMILES IDX 11 1 12 2 13 3 10 4 14 5 15 6 9 7 8 8 6 9 7 10 5 11 2 13
REMARK SMILES IDX 1 14 3 15 4 16
REMARK H PARENT
REMARK Flexibility Score: 70.00
ROOT
ATOM      1  C   UNL     1      13.981   7.829  24.843  1.00  0.00     0.018 C 
ATOM      2  C   UNL     1      15.133   8.455  25.643  1.00  0.00     0.015 C 
ATOM      3  C   UNL     1      15.966   8.583  24.354  1.00  0.00    -0.031 C 
ATOM      4  C   UNL     1      14.802   7.952  23.542  1.00  0.00     0.002 C 
ATOM      5  C   UNL     1      17.220   7.689  24.376  1.00  0.00     0.011 C 
ATOM      6  C   UNL     1      16.338  10.044  24.027  1.00  0.00     0.011 C 
ENDROOT
BRANCH   4   7
ATOM      7  C   UNL     1      14.226   8.786  22.369  1.00  0.00     0.009 C 
BRANCH   7   8
ATOM      8  C   UNL     1      13.415   7.933  21.369  1.00  0.00     0.030 C 
BRANCH   8   9
ATOM      9  C   UNL     1      11.933   8.268  21.382  1.00  0.00    -0.077 C 
ATOM     10  C   UNL     1      11.409   9.224  20.341  1.00  0.00     0.039 C 
ATOM     11  C   UNL     1      11.055   7.766  22.281  1.00  0.00    -0.028 CG0
ATOM     12  G   UNL     1      11.406   6.899  23.466  1.00  0.00     0.000 G0
ENDBRANCH   8   9
ENDBRANCH   7   8
ENDBRANCH   4   7
BRANCH   1  13
ATOM     13  C   UNL     1      12.632   8.539  24.930  1.00  0.00    -0.074 C 
ATOM     14  C   UNL     1      12.504   9.866  25.115  1.00  0.00     0.008 C 
BRANCH  13  15
ATOM     15  C   UNL     1      11.385   7.696  24.779  1.00  0.00     0.035 C 
BRANCH  15  16
ATOM     16  C   UNL     1      11.402   6.899  23.471  1.00  0.00     0.032 CG0
ATOM     17  G   UNL     1      11.044   7.778  22.296  1.00  0.00     0.000 G0
ENDBRANCH  15  16
ENDBRANCH  13  15
ENDBRANCH   1  13
TORSDOF 0
ENDMDL
MODEL 2
REMARK VINA RESULT:    -4.219      3.310      5.833
REMARK INTER + INTRA:          -5.656
REMARK INTER:                  -5.751
REMARK INTRA:                   0.095
REMARK UNBOUND:                 0.042
REMARK SMILES C=C1CCC=C(C)CC[C@@H]2[C@H]1CC2(C)C
REMARK SMILES IDX 11 1 12 2 13 3 10 4 14 5 15 6 9 7 8 8 6 9 7 10 5 11 2 13
REMARK SMILES IDX 1 14 3 15 4 16
REMARK H PARENT
REMARK Flexibility Score: 70.00
ROOT
ATOM      1  C   UNL     1      10.058   6.586  26.913  1.00  0.00     0.018 C 
ATOM      2  C   UNL     1       9.085   5.961  27.924  1.00  0.00     0.015 C 
ATOM      3  C   UNL     1      10.088   4.825  28.196  1.00  0.00    -0.031 C 
ATOM      4  C   UNL     1      11.076   5.456  27.176  1.00  0.00     0.002 C 
ATOM      5  C   UNL     1       9.561   3.455  27.734  1.00  0.00     0.011 C 
ATOM      6  C   UNL     1      10.543   4.772  29.669  1.00  0.00     0.011 C 
ENDROOT
BRANCH   4   7
ATOM      7  C   UNL     1      12.488   5.826  27.696  1.00  0.00     0.009 C 
BRANCH   7   8
ATOM      8  C   UNL     1      13.568   5.760  26.594  1.00  0.00     0.030 C 
BRANCH   8   9
ATOM      9  C   UNL     1      14.106   7.130  26.218  1.00  0.00    -0.077 C 
ATOM     10  C   UNL     1      15.508   7.486  26.642  1.00  0.00     0.039 C 
ATOM     11  C   UNL     1      13.397   8.056  25.533  1.00  0.00    -0.028 CG0
ATOM     12  G   UNL     1      11.945   7.935  25.133  1.00  0.00     0.000 G0
ENDBRANCH   8   9
ENDBRANCH   7   8
ENDBRANCH   4   7
BRANCH   1  13
ATOM     13  C   UNL     1      10.479   8.030  27.180  1.00  0.00    -0.074 C 
ATOM     14  C   UNL     1      10.370   8.621  28.384  1.00  0.00     0.008 C 
BRANCH  13  15
ATOM     15  C   UNL     1      11.062   8.815  26.026  1.00  0.00     0.035 C 
BRANCH  15  16
ATOM     16  C   UNL     1      11.946   7.934  25.139  1.00  0.00     0.032 CG0
ATOM     17  G   UNL     1      13.399   8.051  25.534  1.00  0.00     0.000 G0
ENDBRANCH  15  16
ENDBRANCH  13  15
ENDBRANCH   1  13
TORSDOF 0
ENDMDL
MODEL 3
REMARK VINA RESULT:    -4.119      9.547     11.575
REMARK INTER + INTRA:          -5.521
REMARK INTER:                  -5.841
REMARK INTRA:                   0.320
REMARK UNBOUND:                 0.042
REMARK SMILES C=C1CCC=C(C)CC[C@@H]2[C@H]1CC2(C)C
REMARK SMILES IDX 11 1 12 2 13 3 10 4 14 5 15 6 9 7 8 8 6 9 7 10 5 11 2 13
REMARK SMILES IDX 1 14 3 15 4 16
REMARK H PARENT
REMARK Flexibility Score: 70.00
ROOT
ATOM      1  C   UNL     1       7.123   7.241  15.372  1.00  0.00     0.018 C 
ATOM      2  C   UNL     1       8.136   7.362  14.224  1.00  0.00     0.015 C 
ATOM      3  C   UNL     1       7.178   6.599  13.291  1.00  0.00    -0.031 C 
ATOM      4  C   UNL     1       6.150   6.477  14.449  1.00  0.00     0.002 C 
ATOM      5  C   UNL     1       7.743   5.233  12.861  1.00  0.00     0.011 C 
ATOM      6  C   UNL     1       6.754   7.430  12.063  1.00  0.00     0.011 C 
ENDROOT
BRANCH   4   7
ATOM      7  C   UNL     1       4.735   7.062  14.203  1.00  0.00     0.009 C 
BRANCH   7   8
ATOM      8  C   UNL     1       3.722   6.660  15.297  1.00  0.00     0.030 C 
BRANCH   8   9
ATOM      9  C   UNL     1       3.271   7.840  16.140  1.00  0.00    -0.077 C 
ATOM     10  C   UNL     1       2.074   8.630  15.675  1.00  0.00     0.039 C 
ATOM     11  C   UNL     1       3.886   8.233  17.279  1.00  0.00    -0.028 CG0
ATOM     12  G   UNL     1       5.164   7.651  17.835  1.00  0.00     0.000 G0
ENDBRANCH   8   9
ENDBRANCH   7   8
ENDBRANCH   4   7
BRANCH   1  13
ATOM     13  C   UNL     1       6.658   8.550  16.006  1.00  0.00    -0.074 C 
ATOM     14  C   UNL     1       6.477   9.687  15.308  1.00  0.00     0.008 C 
BRANCH  13  15
ATOM     15  C   UNL     1       6.371   8.548  17.492  1.00  0.00     0.035 C 
BRANCH  15  16
ATOM     16  C   UNL     1       5.172   7.657  17.830  1.00  0.00     0.032 CG0
ATOM     17  G   UNL     1       3.892   8.240  17.281  1.00  0.00     0.000 G0
ENDBRANCH  15  16
ENDBRANCH  13  15
ENDBRANCH   1  13
TORSDOF 0
ENDMDL
MODEL 4
REMARK VINA RESULT:    -3.965      1.899      3.678
REMARK INTER + INTRA:          -5.313
REMARK INTER:                  -5.384
REMARK INTRA:                   0.071
REMARK UNBOUND:                 0.042
REMARK SMILES C=C1CCC=C(C)CC[C@@H]2[C@H]1CC2(C)C
REMARK SMILES IDX 11 1 12 2 13 3 10 4 14 5 15 6 9 7 8 8 6 9 7 10 5 11 2 13
REMARK SMILES IDX 1 14 3 15 4 16
REMARK H PARENT
REMARK Flexibility Score: 70.00
ROOT
ATOM      1  C   UNL     1      13.925   9.217  24.432  1.00  0.00     0.018 C 
ATOM      2  C   UNL     1      15.221   9.336  23.616  1.00  0.00     0.015 C 
ATOM      3  C   UNL     1      15.945   8.423  24.622  1.00  0.00    -0.031 C 
ATOM      4  C   UNL     1      14.636   8.299  25.449  1.00  0.00     0.002 C 
ATOM      5  C   UNL     1      17.057   9.163  25.388  1.00  0.00     0.011 C 
ATOM      6  C   UNL     1      16.488   7.133  23.974  1.00  0.00     0.011 C 
ENDROOT
BRANCH   4   7
ATOM      7  C   UNL     1      14.082   6.871  25.685  1.00  0.00     0.009 C 
BRANCH   7   8
ATOM      8  C   UNL     1      13.296   6.744  27.008  1.00  0.00     0.030 C 
BRANCH   8   9
ATOM      9  C   UNL     1      11.806   6.546  26.789  1.00  0.00    -0.077 C 
ATOM     10  C   UNL     1      11.213   5.197  27.106  1.00  0.00     0.039 C 
ATOM     11  C   UNL     1      10.980   7.507  26.315  1.00  0.00    -0.028 CG0
ATOM     12  G   UNL     1      11.404   8.871  25.826  1.00  0.00     0.000 G0
ENDBRANCH   8   9
ENDBRANCH   7   8
ENDBRANCH   4   7
BRANCH   1  13
ATOM     13  C   UNL     1      12.702   8.682  23.690  1.00  0.00    -0.074 C 
ATOM     14  C   UNL     1      12.781   7.982  22.543  1.00  0.00     0.008 C 
BRANCH  13  15
ATOM     15  C   UNL     1      11.342   8.945  24.298  1.00  0.00     0.035 C 
BRANCH  15  16
ATOM     16  C   UNL     1      11.390   8.881  25.827  1.00  0.00     0.032 CG0
ATOM     17  G   UNL     1      10.985   7.513  26.324  1.00  0.00     0.000 G0
ENDBRANCH  15  16
ENDBRANCH  13  15
ENDBRANCH   1  13
TORSDOF 0
ENDMDL
MODEL 5
REMARK VINA RESULT:    -3.957      9.078     11.561
REMARK INTER + INTRA:          -5.303
REMARK INTER:                  -5.477
REMARK INTRA:                   0.175
REMARK UNBOUND:                 0.042
REMARK SMILES C=C1CCC=C(C)CC[C@@H]2[C@H]1CC2(C)C
REMARK SMILES IDX 11 1 12 2 13 3 10 4 14 5 15 6 9 7 8 8 6 9 7 10 5 11 2 13
REMARK SMILES IDX 1 14 3 15 4 16
REMARK H PARENT
REMARK Flexibility Score: 70.00
ROOT
ATOM      1  C   UNL     1       4.987   6.819  16.158  1.00  0.00     0.018 C 
ATOM      2  C   UNL     1       4.435   7.339  17.493  1.00  0.00     0.015 C 
ATOM      3  C   UNL     1       5.764   8.069  17.764  1.00  0.00    -0.031 C 
ATOM      4  C   UNL     1       6.324   7.546  16.412  1.00  0.00     0.002 C 
ATOM      5  C   UNL     1       6.515   7.488  18.976  1.00  0.00     0.011 C 
ATOM      6  C   UNL     1       5.589   9.595  17.906  1.00  0.00     0.011 C 
ENDROOT
BRANCH   4   7
ATOM      7  C   UNL     1       6.808   8.606  15.391  1.00  0.00     0.009 C 
BRANCH   7   8
ATOM      8  C   UNL     1       8.003   8.119  14.543  1.00  0.00     0.030 C 
BRANCH   8   9
ATOM      9  C   UNL     1       7.630   7.872  13.091  1.00  0.00    -0.077 C 
ATOM     10  C   UNL     1       8.233   8.766  12.038  1.00  0.00     0.039 C 
ATOM     11  C   UNL     1       6.778   6.902  12.686  1.00  0.00    -0.028 CG0
ATOM     12  G   UNL     1       5.982   5.993  13.594  1.00  0.00     0.000 G0
ENDBRANCH   8   9
ENDBRANCH   7   8
ENDBRANCH   4   7
BRANCH   1  13
ATOM     13  C   UNL     1       4.184   7.175  14.908  1.00  0.00    -0.074 C 
ATOM     14  C   UNL     1       3.233   8.127  14.886  1.00  0.00     0.008 C 
BRANCH  13  15
ATOM     15  C   UNL     1       4.500   6.423  13.634  1.00  0.00     0.035 C 
BRANCH  15  16
ATOM     16  C   UNL     1       5.970   5.996  13.585  1.00  0.00     0.032 CG0
ATOM     17  G   UNL     1       6.771   6.912  12.691  1.00  0.00     0.000 G0
ENDBRANCH  15  16
ENDBRANCH  13  15
ENDBRANCH   1  13
TORSDOF 0
ENDMDL
MODEL 6
REMARK VINA RESULT:    -3.877      8.667     11.489
REMARK INTER + INTRA:          -5.195
REMARK INTER:                  -5.294
REMARK INTRA:                   0.099
REMARK UNBOUND:                 0.042
REMARK SMILES C=C1CCC=C(C)CC[C@@H]2[C@H]1CC2(C)C
REMARK SMILES IDX 11 1 12 2 13 3 10 4 14 5 15 6 9 7 8 8 6 9 7 10 5 11 2 13
REMARK SMILES IDX 1 14 3 15 4 16
REMARK H PARENT
REMARK Flexibility Score: 70.00
ROOT
ATOM      1  C   UNL     1       4.793   7.683  14.708  1.00  0.00     0.018 C 
ATOM      2  C   UNL     1       5.153   6.742  13.549  1.00  0.00     0.015 C 
ATOM      3  C   UNL     1       6.649   6.896  13.882  1.00  0.00    -0.031 C 
ATOM      4  C   UNL     1       6.287   7.846  15.057  1.00  0.00     0.002 C 
ATOM      5  C   UNL     1       7.428   7.612  12.764  1.00  0.00     0.011 C 
ATOM      6  C   UNL     1       7.319   5.555  14.248  1.00  0.00     0.011 C 
ENDROOT
BRANCH   4   7
ATOM      7  C   UNL     1       6.776   7.439  16.471  1.00  0.00     0.009 C 
BRANCH   7   8
ATOM      8  C   UNL     1       6.716   8.604  17.483  1.00  0.00     0.030 C 
BRANCH   8   9
ATOM      9  C   UNL     1       5.674   8.385  18.567  1.00  0.00    -0.077 C 
ATOM     10  C   UNL     1       6.120   7.771  19.870  1.00  0.00     0.039 C 
ATOM     11  C   UNL     1       4.365   8.698  18.429  1.00  0.00    -0.028 CG0
ATOM     12  G   UNL     1       3.708   9.200  17.165  1.00  0.00     0.000 G0
ENDBRANCH   8   9
ENDBRANCH   7   8
ENDBRANCH   4   7
BRANCH   1  13
ATOM     13  C   UNL     1       3.848   7.122  15.769  1.00  0.00    -0.074 C 
ATOM     14  C   UNL     1       3.818   5.822  16.120  1.00  0.00     0.008 C 
BRANCH  13  15
ATOM     15  C   UNL     1       2.919   8.092  16.465  1.00  0.00     0.035 C 
BRANCH  15  16
ATOM     16  C   UNL     1       3.698   9.208  17.167  1.00  0.00     0.032 CG0
ATOM     17  G   UNL     1       4.378   8.693  18.414  1.00  0.00     0.000 G0
ENDBRANCH  15  16
ENDBRANCH  13  15
ENDBRANCH   1  13
TORSDOF 0
ENDMDL
MODEL 7
REMARK VINA RESULT:    -3.792      9.567     11.993
REMARK INTER + INTRA:          -5.079
REMARK INTER:                  -5.117
REMARK INTRA:                   0.038
REMARK UNBOUND:                 0.042
REMARK SMILES C=C1CCC=C(C)CC[C@@H]2[C@H]1CC2(C)C
REMARK SMILES IDX 11 1 12 2 13 3 10 4 14 5 15 6 9 7 8 8 6 9 7 10 5 11 2 13
REMARK SMILES IDX 1 14 3 15 4 16
REMARK H PARENT
REMARK Flexibility Score: 70.00
ROOT
ATOM      1  C   UNL     1       3.393   9.879  18.519  1.00  0.00     0.018 C 
ATOM      2  C   UNL     1       2.245   9.745  19.531  1.00  0.00     0.015 C 
ATOM      3  C   UNL     1       1.336   9.167  18.431  1.00  0.00    -0.031 C 
ATOM      4  C   UNL     1       2.495   9.299  17.406  1.00  0.00     0.002 C 
ATOM      5  C   UNL     1       0.151  10.094  18.103  1.00  0.00     0.011 C 
ATOM      6  C   UNL     1       0.845   7.740  18.752  1.00  0.00     0.011 C 
ENDROOT
BRANCH   4   7
ATOM      7  C   UNL     1       2.945   8.007  16.677  1.00  0.00     0.009 C 
BRANCH   7   8
ATOM      8  C   UNL     1       3.569   8.287  15.293  1.00  0.00     0.030 C 
BRANCH   8   9
ATOM      9  C   UNL     1       5.060   7.998  15.253  1.00  0.00    -0.077 C 
ATOM     10  C   UNL     1       5.528   6.764  14.523  1.00  0.00     0.039 C 
ATOM     11  C   UNL     1       5.995   8.777  15.844  1.00  0.00    -0.028 CG0
ATOM     12  G   UNL     1       5.717   9.975  16.720  1.00  0.00     0.000 G0
ENDBRANCH   8   9
ENDBRANCH   7   8
ENDBRANCH   4   7
BRANCH   1  13
ATOM     13  C   UNL     1       4.692   9.154  18.867  1.00  0.00    -0.074 C 
ATOM     14  C   UNL     1       4.753   8.114  19.719  1.00  0.00     0.008 C 
BRANCH  13  15
ATOM     15  C   UNL     1       5.962   9.631  18.196  1.00  0.00     0.035 C 
BRANCH  15  16
ATOM     16  C   UNL     1       5.721   9.984  16.726  1.00  0.00     0.032 CG0
ATOM     17  G   UNL     1       6.001   8.800  15.831  1.00  0.00     0.000 G0
ENDBRANCH  15  16
ENDBRANCH  13  15
ENDBRANCH   1  13
TORSDOF 0
ENDMDL
MODEL 8
REMARK VINA RESULT:    -3.770      2.694      4.498
REMARK INTER + INTRA:          -5.050
REMARK INTER:                  -5.076
REMARK INTRA:                   0.026
REMARK UNBOUND:                 0.042
REMARK SMILES C=C1CCC=C(C)CC[C@@H]2[C@H]1CC2(C)C
REMARK SMILES IDX 11 1 12 2 13 3 10 4 14 5 15 6 9 7 8 8 6 9 7 10 5 11 2 13
REMARK SMILES IDX 1 14 3 15 4 16
REMARK H PARENT
REMARK Flexibility Score: 70.00
ROOT
ATOM      1  C   UNL     1      13.630   6.593  25.214  1.00  0.00     0.018 C 
ATOM      2  C   UNL     1      14.752   7.224  24.376  1.00  0.00     0.015 C 
ATOM      3  C   UNL     1      13.802   8.358  23.948  1.00  0.00    -0.031 C 
ATOM      4  C   UNL     1      12.666   7.724  24.796  1.00  0.00     0.002 C 
ATOM      5  C   UNL     1      13.497   8.328  22.439  1.00  0.00     0.011 C 
ATOM      6  C   UNL     1      14.305   9.751  24.380  1.00  0.00     0.011 C 
ENDROOT
BRANCH   4   7
ATOM      7  C   UNL     1      12.027   8.609  25.897  1.00  0.00     0.009 C 
BRANCH   7   8
ATOM      8  C   UNL     1      10.579   8.194  26.234  1.00  0.00     0.030 C 
BRANCH   8   9
ATOM      9  C   UNL     1      10.450   7.595  27.625  1.00  0.00    -0.077 C 
ATOM     10  C   UNL     1       9.828   8.438  28.708  1.00  0.00     0.039 C 
ATOM     11  C   UNL     1      10.872   6.352  27.952  1.00  0.00    -0.028 CG0
ATOM     12  G   UNL     1      11.628   5.410  27.044  1.00  0.00     0.000 G0
ENDBRANCH   8   9
ENDBRANCH   7   8
ENDBRANCH   4   7
BRANCH   1  13
ATOM     13  C   UNL     1      13.924   6.390  26.698  1.00  0.00    -0.074 C 
ATOM     14  C   UNL     1      14.846   7.102  27.374  1.00  0.00     0.008 C 
BRANCH  13  15
ATOM     15  C   UNL     1      13.116   5.346  27.438  1.00  0.00     0.035 C 
BRANCH  15  16
ATOM     16  C   UNL     1      11.636   5.405  27.049  1.00  0.00     0.032 CG0
ATOM     17  G   UNL     1      10.877   6.352  27.948  1.00  0.00     0.000 G0
ENDBRANCH  15  16
ENDBRANCH  13  15
ENDBRANCH   1  13
TORSDOF 0
ENDMDL
MODEL 9
REMARK VINA RESULT:    -3.640      3.565      5.936
REMARK INTER + INTRA:          -4.875
REMARK INTER:                  -5.058
REMARK INTRA:                   0.183
REMARK UNBOUND:                 0.042
REMARK SMILES C=C1CCC=C(C)CC[C@@H]2[C@H]1CC2(C)C
REMARK SMILES IDX 11 1 12 2 13 3 10 4 14 5 15 6 9 7 8 8 6 9 7 10 5 11 2 13
REMARK SMILES IDX 1 14 3 15 4 16
REMARK H PARENT
REMARK Flexibility Score: 70.00
ROOT
ATOM      1  C   UNL     1      11.846   6.612  25.520  1.00  0.00     0.018 C 
ATOM      2  C   UNL     1      12.387   7.627  24.501  1.00  0.00     0.015 C 
ATOM      3  C   UNL     1      11.227   8.584  24.831  1.00  0.00    -0.031 C 
ATOM      4  C   UNL     1      10.679   7.561  25.864  1.00  0.00     0.002 C 
ATOM      5  C   UNL     1      10.274   8.784  23.638  1.00  0.00     0.011 C 
ATOM      6  C   UNL     1      11.712   9.942  25.381  1.00  0.00     0.011 C 
ENDROOT
BRANCH   4   7
ATOM      7  C   UNL     1      10.516   8.050  27.326  1.00  0.00     0.009 C 
BRANCH   7   8
ATOM      8  C   UNL     1       9.306   7.410  28.040  1.00  0.00     0.030 C 
BRANCH   8   9
ATOM      9  C   UNL     1       9.717   6.429  29.125  1.00  0.00    -0.077 C 
ATOM     10  C   UNL     1       9.383   6.768  30.556  1.00  0.00     0.039 C 
ATOM     11  C   UNL     1      10.377   5.273  28.885  1.00  0.00    -0.028 CG0
ATOM     12  G   UNL     1      10.906   4.822  27.544  1.00  0.00     0.000 G0
ENDBRANCH   8   9
ENDBRANCH   7   8
ENDBRANCH   4   7
BRANCH   1  13
ATOM     13  C   UNL     1      12.804   6.193  26.633  1.00  0.00    -0.074 C 
ATOM     14  C   UNL     1      13.943   6.852  26.916  1.00  0.00     0.008 C 
BRANCH  13  15
ATOM     15  C   UNL     1      12.430   4.984  27.463  1.00  0.00     0.035 C 
BRANCH  15  16
ATOM     16  C   UNL     1      10.910   4.811  27.546  1.00  0.00     0.032 CG0
ATOM     17  G   UNL     1      10.385   5.269  28.886  1.00  0.00     0.000 G0
ENDBRANCH  15  16
ENDBRANCH  13  15
ENDBRANCH   1  13
TORSDOF 0
ENDMDL
