MODEL 1
REMARK VINA RESULT:    -1.505      0.000      0.000
REMARK INTER + INTRA:          -2.417
REMARK INTER:                  -2.296
REMARK INTRA:                  -0.120
REMARK UNBOUND:                -0.120
REMARK SMILES CCCCCCCCCC=CC(=O)[O-]
REMARK SMILES IDX 7 1 8 2 9 3 10 4 11 5 12 6 13 7 14 8 6 9 5 10 4 11 3 12 2 13
REMARK SMILES IDX 1 14
REMARK H PARENT
REMARK Flexibility Score: inf
ROOT
ATOM      1  C   UNL     1      11.745  19.099  31.479  1.00  0.00     0.000 C 
ENDROOT
BRANCH   1   2
ATOM      2  C   UNL     1      12.821  18.524  32.414  1.00  0.00     0.004 C 
BRANCH   2   3
ATOM      3  C   UNL     1      13.208  19.500  33.537  1.00  0.00     0.027 C 
BRANCH   3   4
ATOM      4  C   UNL     1      12.321  19.321  34.738  1.00  0.00    -0.025 C 
ATOM      5  C   UNL     1      11.762  20.309  35.458  1.00  0.00     0.020 C 
BRANCH   5   6
ATOM      6  C   UNL     1      11.871  21.759  35.199  1.00  0.00     0.064 C 
ATOM      7  O   UNL     1      12.308  22.215  34.110  1.00  0.00    -0.545 OA
ATOM      8  O   UNL     1      11.456  22.649  36.182  1.00  0.00    -0.545 OA
ENDBRANCH   5   6
ENDBRANCH   3   4
ENDBRANCH   2   3
ENDBRANCH   1   2
BRANCH   1   9
ATOM      9  C   UNL     1      11.843  20.626  31.339  1.00  0.00     0.000 C 
BRANCH   9  10
ATOM     10  C   UNL     1      10.857  21.144  30.280  1.00  0.00     0.000 C 
BRANCH  10  11
ATOM     11  C   UNL     1       9.946  20.037  29.725  1.00  0.00    -0.000 C 
BRANCH  11  12
ATOM     12  C   UNL     1       8.973  20.553  28.654  1.00  0.00    -0.000 C 
BRANCH  12  13
ATOM     13  C   UNL     1       7.578  20.778  29.246  1.00  0.00    -0.003 C 
ATOM     14  C   UNL     1       6.516  20.840  28.150  1.00  0.00     0.004 C 
ENDBRANCH  12  13
ENDBRANCH  11  12
ENDBRANCH  10  11
ENDBRANCH   9  10
ENDBRANCH   1   9
TORSDOF 9
ENDMDL
MODEL 2
REMARK VINA RESULT:    -1.243      0.663      1.120
REMARK INTER + INTRA:          -2.017
REMARK INTER:                  -2.077
REMARK INTRA:                   0.059
REMARK UNBOUND:                -0.120
REMARK SMILES CCCCCCCCCC=CC(=O)[O-]
REMARK SMILES IDX 7 1 8 2 9 3 10 4 11 5 12 6 13 7 14 8 6 9 5 10 4 11 3 12 2 13
REMARK SMILES IDX 1 14
REMARK H PARENT
REMARK Flexibility Score: inf
ROOT
ATOM      1  C   UNL     1      11.815  20.994  31.419  1.00  0.00     0.000 C 
ENDROOT
BRANCH   1   2
ATOM      2  C   UNL     1      12.173  19.545  31.783  1.00  0.00     0.004 C 
BRANCH   2   3
ATOM      3  C   UNL     1      13.104  19.457  33.003  1.00  0.00     0.027 C 
BRANCH   3   4
ATOM      4  C   UNL     1      12.336  19.102  34.247  1.00  0.00    -0.025 C 
ATOM      5  C   UNL     1      11.879  19.971  35.163  1.00  0.00     0.020 C 
BRANCH   5   6
ATOM      6  C   UNL     1      12.001  21.443  35.122  1.00  0.00     0.064 C 
ATOM      7  O   UNL     1      12.533  22.045  34.154  1.00  0.00    -0.545 OA
ATOM      8  O   UNL     1      11.492  22.187  36.179  1.00  0.00    -0.545 OA
ENDBRANCH   5   6
ENDBRANCH   3   4
ENDBRANCH   2   3
ENDBRANCH   1   2
BRANCH   1   9
ATOM      9  C   UNL     1      10.749  21.077  30.316  1.00  0.00     0.000 C 
BRANCH   9  10
ATOM     10  C   UNL     1      10.259  19.675  29.919  1.00  0.00     0.000 C 
BRANCH  10  11
ATOM     11  C   UNL     1       9.218  19.708  28.789  1.00  0.00    -0.000 C 
BRANCH  11  12
ATOM     12  C   UNL     1       8.421  21.022  28.757  1.00  0.00    -0.000 C 
BRANCH  12  13
ATOM     13  C   UNL     1       6.938  20.755  28.481  1.00  0.00    -0.003 C 
ATOM     14  C   UNL     1       6.115  20.831  29.764  1.00  0.00     0.004 C 
ENDBRANCH  12  13
ENDBRANCH  11  12
ENDBRANCH  10  11
ENDBRANCH   9  10
ENDBRANCH   1   9
TORSDOF 9
ENDMDL
MODEL 3
REMARK VINA RESULT:    -0.821      2.990      6.251
REMARK INTER + INTRA:          -1.373
REMARK INTER:                  -0.549
REMARK INTRA:                  -0.824
REMARK UNBOUND:                -0.120
REMARK SMILES CCCCCCCCCC=CC(=O)[O-]
REMARK SMILES IDX 7 1 8 2 9 3 10 4 11 5 12 6 13 7 14 8 6 9 5 10 4 11 3 12 2 13
REMARK SMILES IDX 1 14
REMARK H PARENT
REMARK Flexibility Score: inf
ROOT
ATOM      1  C   UNL     1      11.930  19.494  31.514  1.00  0.00     0.000 C 
ENDROOT
BRANCH   1   2
ATOM      2  C   UNL     1      11.732  20.982  31.183  1.00  0.00     0.004 C 
BRANCH   2   3
ATOM      3  C   UNL     1      10.540  21.221  30.241  1.00  0.00     0.027 C 
BRANCH   3   4
ATOM      4  C   UNL     1      10.116  19.944  29.570  1.00  0.00    -0.025 C 
ATOM      5  C   UNL     1       8.967  19.752  28.901  1.00  0.00     0.020 C 
BRANCH   5   6
ATOM      6  C   UNL     1       7.910  20.754  28.655  1.00  0.00     0.064 C 
ATOM      7  O   UNL     1       7.885  21.462  27.615  1.00  0.00    -0.545 OA
ATOM      8  O   UNL     1       6.898  20.906  29.596  1.00  0.00    -0.545 OA
ENDBRANCH   5   6
ENDBRANCH   3   4
ENDBRANCH   2   3
ENDBRANCH   1   2
BRANCH   1   9
ATOM      9  C   UNL     1      13.190  19.242  32.356  1.00  0.00     0.000 C 
BRANCH   9  10
ATOM     10  C   UNL     1      12.838  18.532  33.672  1.00  0.00     0.000 C 
BRANCH  10  11
ATOM     11  C   UNL     1      11.753  19.269  34.472  1.00  0.00    -0.000 C 
BRANCH  11  12
ATOM     12  C   UNL     1      12.332  20.109  35.621  1.00  0.00    -0.000 C 
BRANCH  12  13
ATOM     13  C   UNL     1      11.783  21.539  35.584  1.00  0.00    -0.003 C 
ATOM     14  C   UNL     1      12.255  22.280  34.336  1.00  0.00     0.004 C 
ENDBRANCH  12  13
ENDBRANCH  11  12
ENDBRANCH  10  11
ENDBRANCH   9  10
ENDBRANCH   1   9
TORSDOF 9
ENDMDL
MODEL 4
REMARK VINA RESULT:    -0.253     10.501     12.819
REMARK INTER + INTRA:          -0.506
REMARK INTER:                  -2.208
REMARK INTRA:                   1.702
REMARK UNBOUND:                -0.120
REMARK SMILES CCCCCCCCCC=CC(=O)[O-]
REMARK SMILES IDX 7 1 8 2 9 3 10 4 11 5 12 6 13 7 14 8 6 9 5 10 4 11 3 12 2 13
REMARK SMILES IDX 1 14
REMARK H PARENT
REMARK Flexibility Score: inf
ROOT
ATOM      1  C   UNL     1      20.331  24.434  39.894  1.00  0.00     0.000 C 
ENDROOT
BRANCH   1   2
ATOM      2  C   UNL     1      21.112  25.584  39.239  1.00  0.00     0.004 C 
BRANCH   2   3
ATOM      3  C   UNL     1      20.911  26.922  39.967  1.00  0.00     0.027 C 
BRANCH   3   4
ATOM      4  C   UNL     1      19.941  26.778  41.108  1.00  0.00    -0.025 C 
ATOM      5  C   UNL     1      18.602  26.835  41.014  1.00  0.00     0.020 C 
BRANCH   5   6
ATOM      6  C   UNL     1      17.811  27.011  39.778  1.00  0.00     0.064 C 
ATOM      7  O   UNL     1      18.347  27.066  38.641  1.00  0.00    -0.545 OA
ATOM      8  O   UNL     1      16.428  27.097  39.875  1.00  0.00    -0.545 OA
ENDBRANCH   5   6
ENDBRANCH   3   4
ENDBRANCH   2   3
ENDBRANCH   1   2
BRANCH   1   9
ATOM      9  C   UNL     1      21.123  23.752  41.020  1.00  0.00     0.000 C 
BRANCH   9  10
ATOM     10  C   UNL     1      20.954  22.225  40.963  1.00  0.00     0.000 C 
BRANCH  10  11
ATOM     11  C   UNL     1      19.489  21.797  40.781  1.00  0.00    -0.000 C 
BRANCH  11  12
ATOM     12  C   UNL     1      18.834  22.439  39.548  1.00  0.00    -0.000 C 
BRANCH  12  13
ATOM     13  C   UNL     1      17.362  22.028  39.435  1.00  0.00    -0.003 C 
ATOM     14  C   UNL     1      16.740  21.817  40.812  1.00  0.00     0.004 C 
ENDBRANCH  12  13
ENDBRANCH  11  12
ENDBRANCH  10  11
ENDBRANCH   9  10
ENDBRANCH   1   9
TORSDOF 9
ENDMDL
MODEL 5
REMARK VINA RESULT:     0.201      2.998      6.165
REMARK INTER + INTRA:           0.186
REMARK INTER:                   1.006
REMARK INTRA:                  -0.820
REMARK UNBOUND:                -0.120
REMARK SMILES CCCCCCCCCC=CC(=O)[O-]
REMARK SMILES IDX 7 1 8 2 9 3 10 4 11 5 12 6 13 7 14 8 6 9 5 10 4 11 3 12 2 13
REMARK SMILES IDX 1 14
REMARK H PARENT
REMARK Flexibility Score: inf
ROOT
ATOM      1  C   UNL     1      11.465  22.315  32.832  1.00  0.00     0.000 C 
ENDROOT
BRANCH   1   2
ATOM      2  C   UNL     1      11.758  21.514  31.553  1.00  0.00     0.004 C 
BRANCH   2   3
ATOM      3  C   UNL     1      10.585  21.543  30.559  1.00  0.00     0.027 C 
BRANCH   3   4
ATOM      4  C   UNL     1      10.380  20.194  29.926  1.00  0.00    -0.025 C 
ATOM      5  C   UNL     1       9.330  19.830  29.171  1.00  0.00     0.020 C 
BRANCH   5   6
ATOM      6  C   UNL     1       8.188  20.683  28.780  1.00  0.00     0.064 C 
ATOM      7  O   UNL     1       7.166  20.808  29.503  1.00  0.00    -0.545 OA
ATOM      8  O   UNL     1       8.255  21.384  27.583  1.00  0.00    -0.545 OA
ENDBRANCH   5   6
ENDBRANCH   3   4
ENDBRANCH   2   3
ENDBRANCH   1   2
BRANCH   1   9
ATOM      9  C   UNL     1      12.483  22.034  33.947  1.00  0.00     0.000 C 
BRANCH   9  10
ATOM     10  C   UNL     1      11.783  21.504  35.208  1.00  0.00     0.000 C 
BRANCH  10  11
ATOM     11  C   UNL     1      12.015  20.001  35.428  1.00  0.00    -0.000 C 
BRANCH  11  12
ATOM     12  C   UNL     1      12.901  19.374  34.340  1.00  0.00    -0.000 C 
BRANCH  12  13
ATOM     13  C   UNL     1      12.063  18.544  33.362  1.00  0.00    -0.003 C 
ATOM     14  C   UNL     1      12.834  18.264  32.075  1.00  0.00     0.004 C 
ENDBRANCH  12  13
ENDBRANCH  11  12
ENDBRANCH  10  11
ENDBRANCH   9  10
ENDBRANCH   1   9
TORSDOF 9
ENDMDL
MODEL 6
REMARK VINA RESULT:     0.587      2.956      6.034
REMARK INTER + INTRA:           0.775
REMARK INTER:                   1.309
REMARK INTRA:                  -0.534
REMARK UNBOUND:                -0.120
REMARK SMILES CCCCCCCCCC=CC(=O)[O-]
REMARK SMILES IDX 7 1 8 2 9 3 10 4 11 5 12 6 13 7 14 8 6 9 5 10 4 11 3 12 2 13
REMARK SMILES IDX 1 14
REMARK H PARENT
REMARK Flexibility Score: inf
ROOT
ATOM      1  C   UNL     1      13.277  18.876  33.237  1.00  0.00     0.000 C 
ENDROOT
BRANCH   1   2
ATOM      2  C   UNL     1      12.849  18.829  31.762  1.00  0.00     0.004 C 
BRANCH   2   3
ATOM      3  C   UNL     1      11.420  19.351  31.547  1.00  0.00     0.027 C 
BRANCH   3   4
ATOM      4  C   UNL     1      11.431  20.703  30.887  1.00  0.00    -0.025 C 
ATOM      5  C   UNL     1      10.587  21.118  29.928  1.00  0.00     0.020 C 
BRANCH   5   6
ATOM      6  C   UNL     1       9.460  20.354  29.354  1.00  0.00     0.064 C 
ATOM      7  O   UNL     1       8.315  20.855  29.209  1.00  0.00    -0.545 OA
ATOM      8  O   UNL     1       9.679  19.045  28.941  1.00  0.00    -0.545 OA
ENDBRANCH   5   6
ENDBRANCH   3   4
ENDBRANCH   2   3
ENDBRANCH   1   2
BRANCH   1   9
ATOM      9  C   UNL     1      12.090  18.723  34.199  1.00  0.00     0.000 C 
BRANCH   9  10
ATOM     10  C   UNL     1      11.876  20.006  35.017  1.00  0.00     0.000 C 
BRANCH  10  11
ATOM     11  C   UNL     1      12.543  21.234  34.377  1.00  0.00    -0.000 C 
BRANCH  11  12
ATOM     12  C   UNL     1      12.043  22.558  34.977  1.00  0.00    -0.000 C 
BRANCH  12  13
ATOM     13  C   UNL     1      11.324  22.319  36.309  1.00  0.00    -0.003 C 
ATOM     14  C   UNL     1      11.087  23.630  37.052  1.00  0.00     0.004 C 
ENDBRANCH  12  13
ENDBRANCH  11  12
ENDBRANCH  10  11
ENDBRANCH   9  10
ENDBRANCH   1   9
TORSDOF 9
ENDMDL
MODEL 7
REMARK VINA RESULT:     1.356     10.523     12.497
REMARK INTER + INTRA:           1.949
REMARK INTER:                   0.891
REMARK INTRA:                   1.058
REMARK UNBOUND:                -0.120
REMARK SMILES CCCCCCCCCC=CC(=O)[O-]
REMARK SMILES IDX 7 1 8 2 9 3 10 4 11 5 12 6 13 7 14 8 6 9 5 10 4 11 3 12 2 13
REMARK SMILES IDX 1 14
REMARK H PARENT
REMARK Flexibility Score: inf
ROOT
ATOM      1  C   UNL     1      20.833  24.732  39.498  1.00  0.00     0.000 C 
ENDROOT
BRANCH   1   2
ATOM      2  C   UNL     1      21.090  26.233  39.294  1.00  0.00     0.004 C 
BRANCH   2   3
ATOM      3  C   UNL     1      19.790  27.050  39.232  1.00  0.00     0.027 C 
BRANCH   3   4
ATOM      4  C   UNL     1      18.620  26.244  39.723  1.00  0.00    -0.025 C 
ATOM      5  C   UNL     1      18.039  25.222  39.072  1.00  0.00     0.020 C 
BRANCH   5   6
ATOM      6  C   UNL     1      18.450  24.659  37.769  1.00  0.00     0.064 C 
ATOM      7  O   UNL     1      18.868  23.479  37.650  1.00  0.00    -0.545 OA
ATOM      8  O   UNL     1      18.349  25.455  36.634  1.00  0.00    -0.545 OA
ENDBRANCH   5   6
ENDBRANCH   3   4
ENDBRANCH   2   3
ENDBRANCH   1   2
BRANCH   1   9
ATOM      9  C   UNL     1      21.081  24.285  40.946  1.00  0.00     0.000 C 
BRANCH   9  10
ATOM     10  C   UNL     1      20.826  22.778  41.107  1.00  0.00     0.000 C 
BRANCH  10  11
ATOM     11  C   UNL     1      19.330  22.428  41.125  1.00  0.00    -0.000 C 
BRANCH  11  12
ATOM     12  C   UNL     1      18.913  21.548  39.935  1.00  0.00    -0.000 C 
BRANCH  12  13
ATOM     13  C   UNL     1      17.390  21.533  39.774  1.00  0.00    -0.003 C 
ATOM     14  C   UNL     1      16.696  22.051  41.030  1.00  0.00     0.004 C 
ENDBRANCH  12  13
ENDBRANCH  11  12
ENDBRANCH  10  11
ENDBRANCH   9  10
ENDBRANCH   1   9
TORSDOF 9
ENDMDL
