MODEL 1
REMARK VINA RESULT:    -2.595      0.000      0.000
REMARK INTER + INTRA:          -4.057
REMARK INTER:                  -3.960
REMARK INTRA:                  -0.097
REMARK UNBOUND:                -0.097
REMARK SMILES CC1=CCC[C@H](C)C(=O)C[C@@H](C(C)C)C(=O)C1
REMARK SMILES IDX 8 1 9 2 6 3 7 4 5 5 4 6 3 7 2 8 1 9 10 11 11 12 15 13 16 14
REMARK SMILES IDX 17 15 12 17 13 18 14 19
REMARK H PARENT
REMARK Flexibility Score: 70.00
ROOT
ATOM      1  C   UNL     1     200.205 154.604 164.827  1.00  0.00     0.136 C 
ATOM      2  O   UNL     1     199.260 154.499 165.599  1.00  0.00    -0.299 OA
ENDROOT
BRANCH   1   3
ATOM      3  C   UNL     1     200.864 155.954 164.628  1.00  0.00     0.053 C 
ATOM      4  C   UNL     1     199.988 157.072 165.211  1.00  0.00     0.016 C 
BRANCH   3   5
ATOM      5  C   UNL     1     202.270 155.962 165.268  1.00  0.00     0.015 C 
BRANCH   5   6
ATOM      6  C   UNL     1     203.392 155.937 164.210  1.00  0.00     0.028 C 
BRANCH   6   7
ATOM      7  C   UNL     1     204.541 155.065 164.647  1.00  0.00    -0.028 C 
ATOM      8  C   UNL     1     204.633 153.732 164.431  1.00  0.00    -0.070 CG0
ATOM      9  C   UNL     1     205.830 153.008 164.994  1.00  0.00     0.039 C 
ATOM     10  G   UNL     1     203.590 152.936 163.663  1.00  0.00     0.000 G0
ENDBRANCH   6   7
ENDBRANCH   5   6
ENDBRANCH   3   5
ENDBRANCH   1   3
BRANCH   1  11
ATOM     11  C   UNL     1     200.692 153.377 164.089  1.00  0.00     0.087 C 
BRANCH  11  12
ATOM     12  C   UNL     1     201.350 152.338 165.035  1.00  0.00     0.066 C 
BRANCH  12  13
ATOM     13  C   UNL     1     202.769 152.015 164.584  1.00  0.00     0.140 C 
ATOM     14  O   UNL     1     203.264 150.948 164.919  1.00  0.00    -0.299 OA
BRANCH  13  15
ATOM     15  C   UNL     1     203.554 152.939 163.679  1.00  0.00     0.106 CG0
ATOM     16  G   UNL     1     204.619 153.716 164.435  1.00  0.00     0.000 G0
ENDBRANCH  13  15
ENDBRANCH  12  13
BRANCH  12  17
ATOM     17  C   UNL     1     200.494 151.042 165.208  1.00  0.00    -0.006 C 
ATOM     18  C   UNL     1     199.444 151.217 166.321  1.00  0.00     0.008 C 
ATOM     19  C   UNL     1     199.774 150.636 163.909  1.00  0.00     0.008 C 
ENDBRANCH  12  17
ENDBRANCH  11  12
ENDBRANCH   1  11
TORSDOF 1
ENDMDL
MODEL 2
REMARK VINA RESULT:    -2.569      9.180     12.364
REMARK INTER + INTRA:          -4.017
REMARK INTER:                  -3.773
REMARK INTRA:                  -0.244
REMARK UNBOUND:                -0.097
REMARK SMILES CC1=CCC[C@H](C)C(=O)C[C@@H](C(C)C)C(=O)C1
REMARK SMILES IDX 8 1 9 2 6 3 7 4 5 5 4 6 3 7 2 8 1 9 10 11 11 12 15 13 16 14
REMARK SMILES IDX 17 15 12 17 13 18 14 19
REMARK H PARENT
REMARK Flexibility Score: 70.00
ROOT
ATOM      1  C   UNL     1     214.123 153.862 170.040  1.00  0.00     0.136 C 
ATOM      2  O   UNL     1     214.704 154.606 170.819  1.00  0.00    -0.299 OA
ENDROOT
BRANCH   1   3
ATOM      3  C   UNL     1     213.255 152.743 170.578  1.00  0.00     0.053 C 
ATOM      4  C   UNL     1     214.113 151.701 171.311  1.00  0.00     0.016 C 
BRANCH   3   5
ATOM      5  C   UNL     1     212.162 153.314 171.510  1.00  0.00     0.015 C 
BRANCH   5   6
ATOM      6  C   UNL     1     211.010 153.970 170.723  1.00  0.00     0.028 C 
BRANCH   6   7
ATOM      7  C   UNL     1     210.588 153.119 169.553  1.00  0.00    -0.028 C 
ATOM      8  C   UNL     1     210.542 153.533 168.266  1.00  0.00    -0.070 CG0
ATOM      9  C   UNL     1     210.036 152.560 167.230  1.00  0.00     0.039 C 
ATOM     10  G   UNL     1     210.963 154.924 167.819  1.00  0.00     0.000 G0
ENDBRANCH   6   7
ENDBRANCH   5   6
ENDBRANCH   3   5
ENDBRANCH   1   3
BRANCH   1  11
ATOM     11  C   UNL     1     214.287 154.081 168.553  1.00  0.00     0.087 C 
BRANCH  11  12
ATOM     12  C   UNL     1     213.558 155.356 168.056  1.00  0.00     0.066 C 
BRANCH  12  13
ATOM     13  C   UNL     1     212.339 154.994 167.216  1.00  0.00     0.140 C 
ATOM     14  O   UNL     1     212.503 154.688 166.044  1.00  0.00    -0.299 OA
BRANCH  13  15
ATOM     15  C   UNL     1     210.947 154.933 167.806  1.00  0.00     0.106 CG0
ATOM     16  G   UNL     1     210.577 153.531 168.263  1.00  0.00     0.000 G0
ENDBRANCH  13  15
ENDBRANCH  12  13
BRANCH  12  17
ATOM     17  C   UNL     1     214.502 156.345 167.299  1.00  0.00    -0.006 C 
ATOM     18  C   UNL     1     213.764 157.646 166.936  1.00  0.00     0.008 C 
ATOM     19  C   UNL     1     215.756 156.701 168.118  1.00  0.00     0.008 C 
ENDBRANCH  12  17
ENDBRANCH  11  12
ENDBRANCH   1  11
TORSDOF 1
ENDMDL
MODEL 3
REMARK VINA RESULT:    -2.539      9.861     12.996
REMARK INTER + INTRA:          -3.971
REMARK INTER:                  -3.749
REMARK INTRA:                  -0.222
REMARK UNBOUND:                -0.097
REMARK SMILES CC1=CCC[C@H](C)C(=O)C[C@@H](C(C)C)C(=O)C1
REMARK SMILES IDX 8 1 9 2 6 3 7 4 5 5 4 6 3 7 2 8 1 9 10 11 11 12 15 13 16 14
REMARK SMILES IDX 17 15 12 17 13 18 14 19
REMARK H PARENT
REMARK Flexibility Score: 70.00
ROOT
ATOM      1  C   UNL     1     211.828 150.510 169.855  1.00  0.00     0.136 C 
ATOM      2  O   UNL     1     211.233 150.007 168.911  1.00  0.00    -0.299 OA
ENDROOT
BRANCH   1   3
ATOM      3  C   UNL     1     213.057 149.825 170.418  1.00  0.00     0.053 C 
ATOM      4  C   UNL     1     212.730 148.380 170.823  1.00  0.00     0.016 C 
BRANCH   3   5
ATOM      5  C   UNL     1     214.209 149.865 169.390  1.00  0.00     0.015 C 
BRANCH   5   6
ATOM      6  C   UNL     1     215.204 151.008 169.673  1.00  0.00     0.028 C 
BRANCH   6   7
ATOM      7  C   UNL     1     215.225 151.369 171.136  1.00  0.00    -0.028 C 
ATOM      8  C   UNL     1     214.858 152.567 171.648  1.00  0.00    -0.070 CG0
ATOM      9  C   UNL     1     215.001 152.772 173.135  1.00  0.00     0.039 C 
ATOM     10  G   UNL     1     214.322 153.709 170.800  1.00  0.00     0.000 G0
ENDBRANCH   6   7
ENDBRANCH   5   6
ENDBRANCH   3   5
ENDBRANCH   1   3
BRANCH   1  11
ATOM     11  C   UNL     1     211.317 151.807 170.439  1.00  0.00     0.087 C 
BRANCH  11  12
ATOM     12  C   UNL     1     211.974 153.051 169.786  1.00  0.00     0.066 C 
BRANCH  12  13
ATOM     13  C   UNL     1     212.817 153.817 170.799  1.00  0.00     0.140 C 
ATOM     14  O   UNL     1     212.249 154.474 171.659  1.00  0.00    -0.299 OA
BRANCH  13  15
ATOM     15  C   UNL     1     214.327 153.729 170.814  1.00  0.00     0.106 CG0
ATOM     16  G   UNL     1     214.828 152.562 171.649  1.00  0.00     0.000 G0
ENDBRANCH  13  15
ENDBRANCH  12  13
BRANCH  12  17
ATOM     17  C   UNL     1     210.942 153.986 169.076  1.00  0.00    -0.006 C 
ATOM     18  C   UNL     1     211.624 155.258 168.541  1.00  0.00     0.008 C 
ATOM     19  C   UNL     1     210.220 153.285 167.910  1.00  0.00     0.008 C 
ENDBRANCH  12  17
ENDBRANCH  11  12
ENDBRANCH   1  11
TORSDOF 1
ENDMDL
MODEL 4
REMARK VINA RESULT:    -2.508      3.435      5.438
REMARK INTER + INTRA:          -3.925
REMARK INTER:                  -3.635
REMARK INTRA:                  -0.290
REMARK UNBOUND:                -0.097
REMARK SMILES CC1=CCC[C@H](C)C(=O)C[C@@H](C(C)C)C(=O)C1
REMARK SMILES IDX 8 1 9 2 6 3 7 4 5 5 4 6 3 7 2 8 1 9 10 11 11 12 15 13 16 14
REMARK SMILES IDX 17 15 12 17 13 18 14 19
REMARK H PARENT
REMARK Flexibility Score: 70.00
ROOT
ATOM      1  C   UNL     1     201.049 158.210 163.129  1.00  0.00     0.136 C 
ATOM      2  O   UNL     1     200.178 157.973 162.302  1.00  0.00    -0.299 OA
ENDROOT
BRANCH   1   3
ATOM      3  C   UNL     1     200.733 158.092 164.607  1.00  0.00     0.053 C 
ATOM      4  C   UNL     1     199.325 158.631 164.900  1.00  0.00     0.016 C 
BRANCH   3   5
ATOM      5  C   UNL     1     200.870 156.623 165.068  1.00  0.00     0.015 C 
BRANCH   5   6
ATOM      6  C   UNL     1     202.321 156.266 165.449  1.00  0.00     0.028 C 
BRANCH   6   7
ATOM      7  C   UNL     1     202.855 155.147 164.593  1.00  0.00    -0.028 C 
ATOM      8  C   UNL     1     203.830 155.275 163.663  1.00  0.00    -0.070 CG0
ATOM      9  C   UNL     1     204.198 154.056 162.854  1.00  0.00     0.039 C 
ATOM     10  G   UNL     1     204.559 156.581 163.391  1.00  0.00     0.000 G0
ENDBRANCH   6   7
ENDBRANCH   5   6
ENDBRANCH   3   5
ENDBRANCH   1   3
BRANCH   1  11
ATOM     11  C   UNL     1     202.425 158.616 162.653  1.00  0.00     0.087 C 
BRANCH  11  12
ATOM     12  C   UNL     1     202.977 157.667 161.557  1.00  0.00     0.066 C 
BRANCH  12  13
ATOM     13  C   UNL     1     204.324 157.084 161.970  1.00  0.00     0.140 C 
ATOM     14  O   UNL     1     205.236 157.079 161.157  1.00  0.00    -0.299 OA
BRANCH  13  15
ATOM     15  C   UNL     1     204.582 156.578 163.372  1.00  0.00     0.106 CG0
ATOM     16  G   UNL     1     203.843 155.282 163.662  1.00  0.00     0.000 G0
ENDBRANCH  13  15
ENDBRANCH  12  13
BRANCH  12  17
ATOM     17  C   UNL     1     203.052 158.340 160.147  1.00  0.00    -0.006 C 
ATOM     18  C   UNL     1     201.892 157.873 159.250  1.00  0.00     0.008 C 
ATOM     19  C   UNL     1     203.026 159.877 160.229  1.00  0.00     0.008 C 
ENDBRANCH  12  17
ENDBRANCH  11  12
ENDBRANCH   1  11
TORSDOF 1
ENDMDL
MODEL 5
REMARK VINA RESULT:    -2.448      9.259     11.454
REMARK INTER + INTRA:          -3.834
REMARK INTER:                  -3.654
REMARK INTRA:                  -0.180
REMARK UNBOUND:                -0.097
REMARK SMILES CC1=CCC[C@H](C)C(=O)C[C@@H](C(C)C)C(=O)C1
REMARK SMILES IDX 8 1 9 2 6 3 7 4 5 5 4 6 3 7 2 8 1 9 10 11 11 12 15 13 16 14
REMARK SMILES IDX 17 15 12 17 13 18 14 19
REMARK H PARENT
REMARK Flexibility Score: 70.00
ROOT
ATOM      1  C   UNL     1     211.112 154.757 168.100  1.00  0.00     0.136 C 
ATOM      2  O   UNL     1     210.680 154.048 167.201  1.00  0.00    -0.299 OA
ENDROOT
BRANCH   1   3
ATOM      3  C   UNL     1     211.567 154.126 169.401  1.00  0.00     0.053 C 
ATOM      4  C   UNL     1     210.503 153.151 169.927  1.00  0.00     0.016 C 
BRANCH   3   5
ATOM      5  C   UNL     1     212.923 153.412 169.203  1.00  0.00     0.015 C 
BRANCH   5   6
ATOM      6  C   UNL     1     214.097 154.406 169.109  1.00  0.00     0.028 C 
BRANCH   6   7
ATOM      7  C   UNL     1     214.688 154.430 167.724  1.00  0.00    -0.028 C 
ATOM      8  C   UNL     1     214.625 155.477 166.868  1.00  0.00    -0.070 CG0
ATOM      9  C   UNL     1     215.222 155.301 165.494  1.00  0.00     0.039 C 
ATOM     10  G   UNL     1     213.976 156.806 167.219  1.00  0.00     0.000 G0
ENDBRANCH   6   7
ENDBRANCH   5   6
ENDBRANCH   3   5
ENDBRANCH   1   3
BRANCH   1  11
ATOM     11  C   UNL     1     211.180 156.253 167.889  1.00  0.00     0.087 C 
BRANCH  11  12
ATOM     12  C   UNL     1     211.445 156.631 166.408  1.00  0.00     0.066 C 
BRANCH  12  13
ATOM     13  C   UNL     1     212.862 157.161 166.227  1.00  0.00     0.140 C 
ATOM     14  O   UNL     1     213.088 157.930 165.303  1.00  0.00    -0.299 OA
BRANCH  13  15
ATOM     15  C   UNL     1     213.975 156.823 167.194  1.00  0.00     0.106 CG0
ATOM     16  G   UNL     1     214.625 155.486 166.877  1.00  0.00     0.000 G0
ENDBRANCH  13  15
ENDBRANCH  12  13
BRANCH  12  17
ATOM     17  C   UNL     1     210.383 157.623 165.832  1.00  0.00    -0.006 C 
ATOM     18  C   UNL     1     209.750 157.068 164.543  1.00  0.00     0.008 C 
ATOM     19  C   UNL     1     209.261 157.933 166.840  1.00  0.00     0.008 C 
ENDBRANCH  12  17
ENDBRANCH  11  12
ENDBRANCH   1  11
TORSDOF 1
ENDMDL
MODEL 6
REMARK VINA RESULT:    -2.441      3.744      6.594
REMARK INTER + INTRA:          -3.822
REMARK INTER:                  -3.868
REMARK INTRA:                   0.046
REMARK UNBOUND:                -0.097
REMARK SMILES CC1=CCC[C@H](C)C(=O)C[C@@H](C(C)C)C(=O)C1
REMARK SMILES IDX 8 1 9 2 6 3 7 4 5 5 4 6 3 7 2 8 1 9 10 11 11 12 15 13 16 14
REMARK SMILES IDX 17 15 12 17 13 18 14 19
REMARK H PARENT
REMARK Flexibility Score: 70.00
ROOT
ATOM      1  C   UNL     1     198.055 148.553 163.741  1.00  0.00     0.136 C 
ATOM      2  O   UNL     1     197.203 148.834 162.908  1.00  0.00    -0.299 OA
ENDROOT
BRANCH   1   3
ATOM      3  C   UNL     1     198.662 147.165 163.755  1.00  0.00     0.053 C 
ATOM      4  C   UNL     1     197.582 146.102 163.509  1.00  0.00     0.016 C 
BRANCH   3   5
ATOM      5  C   UNL     1     199.788 147.063 162.701  1.00  0.00     0.015 C 
BRANCH   5   6
ATOM      6  C   UNL     1     201.189 147.194 163.331  1.00  0.00     0.028 C 
BRANCH   6   7
ATOM      7  C   UNL     1     201.202 146.697 164.754  1.00  0.00    -0.028 C 
ATOM      8  C   UNL     1     201.572 147.427 165.831  1.00  0.00    -0.070 CG0
ATOM      9  C   UNL     1     201.580 146.746 167.176  1.00  0.00     0.039 C 
ATOM     10  G   UNL     1     201.987 148.888 165.748  1.00  0.00     0.000 G0
ENDBRANCH   6   7
ENDBRANCH   5   6
ENDBRANCH   3   5
ENDBRANCH   1   3
BRANCH   1  11
ATOM     11  C   UNL     1     198.481 149.605 164.741  1.00  0.00     0.087 C 
BRANCH  11  12
ATOM     12  C   UNL     1     199.941 150.077 164.519  1.00  0.00     0.066 C 
BRANCH  12  13
ATOM     13  C   UNL     1     200.786 149.836 165.764  1.00  0.00     0.140 C 
ATOM     14  O   UNL     1     200.451 150.365 166.814  1.00  0.00    -0.299 OA
BRANCH  13  15
ATOM     15  C   UNL     1     201.981 148.908 165.755  1.00  0.00     0.106 CG0
ATOM     16  G   UNL     1     201.575 147.446 165.842  1.00  0.00     0.000 G0
ENDBRANCH  13  15
ENDBRANCH  12  13
BRANCH  12  17
ATOM     17  C   UNL     1     200.038 151.562 164.040  1.00  0.00    -0.006 C 
ATOM     18  C   UNL     1     201.467 152.107 164.212  1.00  0.00     0.008 C 
ATOM     19  C   UNL     1     199.619 151.731 162.568  1.00  0.00     0.008 C 
ENDBRANCH  12  17
ENDBRANCH  11  12
ENDBRANCH   1  11
TORSDOF 1
ENDMDL
MODEL 7
REMARK VINA RESULT:    -2.398      7.000      9.155
REMARK INTER + INTRA:          -3.757
REMARK INTER:                  -3.436
REMARK INTRA:                  -0.321
REMARK UNBOUND:                -0.097
REMARK SMILES CC1=CCC[C@H](C)C(=O)C[C@@H](C(C)C)C(=O)C1
REMARK SMILES IDX 8 1 9 2 6 3 7 4 5 5 4 6 3 7 2 8 1 9 10 11 11 12 15 13 16 14
REMARK SMILES IDX 17 15 12 17 13 18 14 19
REMARK H PARENT
REMARK Flexibility Score: 70.00
ROOT
ATOM      1  C   UNL     1     201.905 146.350 169.384  1.00  0.00     0.136 C 
ATOM      2  O   UNL     1     200.736 146.703 169.465  1.00  0.00    -0.299 OA
ENDROOT
BRANCH   1   3
ATOM      3  C   UNL     1     202.298 144.950 169.811  1.00  0.00     0.053 C 
ATOM      4  C   UNL     1     201.878 144.693 171.265  1.00  0.00     0.016 C 
BRANCH   3   5
ATOM      5  C   UNL     1     201.669 143.906 168.861  1.00  0.00     0.015 C 
BRANCH   5   6
ATOM      6  C   UNL     1     202.549 143.641 167.623  1.00  0.00     0.028 C 
BRANCH   6   7
ATOM      7  C   UNL     1     204.010 143.590 167.987  1.00  0.00    -0.028 C 
ATOM      8  C   UNL     1     204.980 144.348 167.424  1.00  0.00    -0.070 CG0
ATOM      9  C   UNL     1     206.402 144.119 167.871  1.00  0.00     0.039 C 
ATOM     10  G   UNL     1     204.707 145.403 166.364  1.00  0.00     0.000 G0
ENDBRANCH   6   7
ENDBRANCH   5   6
ENDBRANCH   3   5
ENDBRANCH   1   3
BRANCH   1  11
ATOM     11  C   UNL     1     202.933 147.326 168.859  1.00  0.00     0.087 C 
BRANCH  11  12
ATOM     12  C   UNL     1     203.080 147.260 167.316  1.00  0.00     0.066 C 
BRANCH  12  13
ATOM     13  C   UNL     1     204.474 146.786 166.923  1.00  0.00     0.140 C 
ATOM     14  O   UNL     1     205.427 147.523 167.131  1.00  0.00    -0.299 OA
BRANCH  13  15
ATOM     15  C   UNL     1     204.721 145.407 166.351  1.00  0.00     0.106 CG0
ATOM     16  G   UNL     1     204.972 144.371 167.434  1.00  0.00     0.000 G0
ENDBRANCH  13  15
ENDBRANCH  12  13
BRANCH  12  17
ATOM     17  C   UNL     1     202.711 148.603 166.608  1.00  0.00    -0.006 C 
ATOM     18  C   UNL     1     201.658 148.378 165.509  1.00  0.00     0.008 C 
ATOM     19  C   UNL     1     202.176 149.658 167.594  1.00  0.00     0.008 C 
ENDBRANCH  12  17
ENDBRANCH  11  12
ENDBRANCH   1  11
TORSDOF 1
ENDMDL
MODEL 8
REMARK VINA RESULT:    -2.319      2.026      4.169
REMARK INTER + INTRA:          -3.637
REMARK INTER:                  -3.378
REMARK INTRA:                  -0.259
REMARK UNBOUND:                -0.097
REMARK SMILES CC1=CCC[C@H](C)C(=O)C[C@@H](C(C)C)C(=O)C1
REMARK SMILES IDX 8 1 9 2 6 3 7 4 5 5 4 6 3 7 2 8 1 9 10 11 11 12 15 13 16 14
REMARK SMILES IDX 17 15 12 17 13 18 14 19
REMARK H PARENT
REMARK Flexibility Score: 70.00
ROOT
ATOM      1  C   UNL     1     201.437 149.851 166.136  1.00  0.00     0.136 C 
ATOM      2  O   UNL     1     201.045 148.702 165.980  1.00  0.00    -0.299 OA
ENDROOT
BRANCH   1   3
ATOM      3  C   UNL     1     202.788 150.102 166.776  1.00  0.00     0.053 C 
ATOM      4  C   UNL     1     202.879 149.393 168.135  1.00  0.00     0.016 C 
BRANCH   3   5
ATOM      5  C   UNL     1     203.921 149.638 165.834  1.00  0.00     0.015 C 
BRANCH   5   6
ATOM      6  C   UNL     1     204.390 150.763 164.889  1.00  0.00     0.028 C 
BRANCH   6   7
ATOM      7  C   UNL     1     204.296 152.113 165.552  1.00  0.00    -0.028 C 
ATOM      8  C   UNL     1     203.599 153.169 165.073  1.00  0.00    -0.070 CG0
ATOM      9  C   UNL     1     203.667 154.465 165.840  1.00  0.00     0.039 C 
ATOM     10  G   UNL     1     202.765 153.113 163.803  1.00  0.00     0.000 G0
ENDBRANCH   6   7
ENDBRANCH   5   6
ENDBRANCH   3   5
ENDBRANCH   1   3
BRANCH   1  11
ATOM     11  C   UNL     1     200.560 150.996 165.684  1.00  0.00     0.087 C 
BRANCH  11  12
ATOM     12  C   UNL     1     200.795 151.373 164.198  1.00  0.00     0.066 C 
BRANCH  12  13
ATOM     13  C   UNL     1     201.303 152.805 164.073  1.00  0.00     0.140 C 
ATOM     14  O   UNL     1     200.517 153.725 164.249  1.00  0.00    -0.299 OA
BRANCH  13  15
ATOM     15  C   UNL     1     202.759 153.119 163.810  1.00  0.00     0.106 CG0
ATOM     16  G   UNL     1     203.578 153.165 165.090  1.00  0.00     0.000 G0
ENDBRANCH  13  15
ENDBRANCH  12  13
BRANCH  12  17
ATOM     17  C   UNL     1     199.539 151.130 163.300  1.00  0.00    -0.006 C 
ATOM     18  C   UNL     1     199.945 150.888 161.835  1.00  0.00     0.008 C 
ATOM     19  C   UNL     1     198.695 149.936 163.783  1.00  0.00     0.008 C 
ENDBRANCH  12  17
ENDBRANCH  11  12
ENDBRANCH   1  11
TORSDOF 1
ENDMDL
MODEL 9
REMARK VINA RESULT:    -2.223      3.483      6.196
REMARK INTER + INTRA:          -3.490
REMARK INTER:                  -3.227
REMARK INTRA:                  -0.263
REMARK UNBOUND:                -0.097
REMARK SMILES CC1=CCC[C@H](C)C(=O)C[C@@H](C(C)C)C(=O)C1
REMARK SMILES IDX 8 1 9 2 6 3 7 4 5 5 4 6 3 7 2 8 1 9 10 11 11 12 15 13 16 14
REMARK SMILES IDX 17 15 12 17 13 18 14 19
REMARK H PARENT
REMARK Flexibility Score: 70.00
ROOT
ATOM      1  C   UNL     1     199.902 151.882 161.788  1.00  0.00     0.136 C 
ATOM      2  O   UNL     1     200.702 152.635 161.248  1.00  0.00    -0.299 OA
ENDROOT
BRANCH   1   3
ATOM      3  C   UNL     1     199.155 150.859 160.957  1.00  0.00     0.053 C 
ATOM      4  C   UNL     1     198.255 151.557 159.927  1.00  0.00     0.016 C 
BRANCH   3   5
ATOM      5  C   UNL     1     200.152 149.903 160.263  1.00  0.00     0.015 C 
BRANCH   5   6
ATOM      6  C   UNL     1     200.502 148.687 161.144  1.00  0.00     0.028 C 
BRANCH   6   7
ATOM      7  C   UNL     1     199.268 148.085 161.766  1.00  0.00    -0.028 C 
ATOM      8  C   UNL     1     199.058 147.940 163.095  1.00  0.00    -0.070 CG0
ATOM      9  C   UNL     1     197.787 147.258 163.537  1.00  0.00     0.039 C 
ATOM     10  G   UNL     1     200.038 148.418 164.154  1.00  0.00     0.000 G0
ENDBRANCH   6   7
ENDBRANCH   5   6
ENDBRANCH   3   5
ENDBRANCH   1   3
BRANCH   1  11
ATOM     11  C   UNL     1     199.679 151.993 163.280  1.00  0.00     0.087 C 
BRANCH  11  12
ATOM     12  C   UNL     1     200.571 151.015 164.088  1.00  0.00     0.066 C 
BRANCH  12  13
ATOM     13  C   UNL     1     199.755 149.836 164.605  1.00  0.00     0.140 C 
ATOM     14  O   UNL     1     198.813 150.055 165.352  1.00  0.00    -0.299 OA
BRANCH  13  15
ATOM     15  C   UNL     1     200.032 148.415 164.166  1.00  0.00     0.106 CG0
ATOM     16  G   UNL     1     199.060 147.943 163.096  1.00  0.00     0.000 G0
ENDBRANCH  13  15
ENDBRANCH  12  13
BRANCH  12  17
ATOM     17  C   UNL     1     201.359 151.716 165.241  1.00  0.00    -0.006 C 
ATOM     18  C   UNL     1     202.586 150.885 165.657  1.00  0.00     0.008 C 
ATOM     19  C   UNL     1     201.828 153.131 164.854  1.00  0.00     0.008 C 
ENDBRANCH  12  17
ENDBRANCH  11  12
ENDBRANCH   1  11
TORSDOF 1
ENDMDL
