MODEL 1
REMARK VINA RESULT:    -6.202      0.000      0.000
REMARK INTER + INTRA:          -8.946
REMARK INTER:                  -8.377
REMARK INTRA:                  -0.568
REMARK UNBOUND:                -0.568
REMARK SMILES CC(=O)CCC=C(C)CCC=C(C)C
REMARK SMILES IDX 7 1 6 2 8 3 9 4 10 5 11 6 13 7 12 8 14 9 5 10 4 11 2 12 3 13
REMARK SMILES IDX 1 14
REMARK H PARENT
REMARK Flexibility Score: inf
ROOT
ATOM      1  C   UNL     1      29.057   9.156  25.893  1.00  0.00    -0.077 C 
ATOM      2  C   UNL     1      28.859  10.471  25.644  1.00  0.00    -0.028 C 
ATOM      3  C   UNL     1      27.904   8.205  26.114  1.00  0.00     0.039 C 
ENDROOT
BRANCH   1   4
ATOM      4  C   UNL     1      30.472   8.623  25.939  1.00  0.00     0.034 C 
BRANCH   4   5
ATOM      5  C   UNL     1      31.488   9.754  25.741  1.00  0.00     0.032 C 
BRANCH   5   6
ATOM      6  C   UNL     1      32.011  10.242  27.069  1.00  0.00    -0.028 C 
ATOM      7  C   UNL     1      33.680  10.700  28.812  1.00  0.00     0.039 C 
ATOM      8  C   UNL     1      33.297  10.132  27.470  1.00  0.00    -0.080 C 
ATOM      9  C   UNL     1      34.342   9.440  26.629  1.00  0.00     0.039 C 
ENDBRANCH   5   6
ENDBRANCH   4   5
ENDBRANCH   1   4
BRANCH   2  10
ATOM     10  C   UNL     1      27.509  11.142  25.616  1.00  0.00     0.035 C 
BRANCH  10  11
ATOM     11  C   UNL     1      27.218  11.833  26.952  1.00  0.00     0.079 C 
BRANCH  11  12
ATOM     12  C   UNL     1      25.846  11.468  27.454  1.00  0.00     0.130 C 
ATOM     13  O   UNL     1      25.616  10.314  27.784  1.00  0.00    -0.300 OA
ATOM     14  C   UNL     1      24.762  12.496  27.584  1.00  0.00     0.087 C 
ENDBRANCH  11  12
ENDBRANCH  10  11
ENDBRANCH   2  10
TORSDOF 6
ENDMDL
MODEL 2
REMARK VINA RESULT:    -6.160      2.979      5.275
REMARK INTER + INTRA:          -8.889
REMARK INTER:                  -8.426
REMARK INTRA:                  -0.463
REMARK UNBOUND:                -0.568
REMARK SMILES CC(=O)CCC=C(C)CCC=C(C)C
REMARK SMILES IDX 7 1 6 2 8 3 9 4 10 5 11 6 13 7 12 8 14 9 5 10 4 11 2 12 3 13
REMARK SMILES IDX 1 14
REMARK H PARENT
REMARK Flexibility Score: inf
ROOT
ATOM      1  C   UNL     1      33.836  10.548  27.825  1.00  0.00    -0.077 C 
ATOM      2  C   UNL     1      32.558  10.364  27.423  1.00  0.00    -0.028 C 
ATOM      3  C   UNL     1      35.003   9.965  27.063  1.00  0.00     0.039 C 
ENDROOT
BRANCH   1   4
ATOM      4  C   UNL     1      34.103  11.370  29.067  1.00  0.00     0.034 C 
BRANCH   4   5
ATOM      5  C   UNL     1      35.251  12.360  28.830  1.00  0.00     0.032 C 
BRANCH   5   6
ATOM      6  C   UNL     1      34.749  13.781  28.874  1.00  0.00    -0.028 C 
ATOM      7  C   UNL     1      34.898  16.233  28.876  1.00  0.00     0.039 C 
ATOM      8  C   UNL     1      35.546  14.873  28.866  1.00  0.00    -0.080 C 
ATOM      9  C   UNL     1      37.052  14.764  28.874  1.00  0.00     0.039 C 
ENDBRANCH   5   6
ENDBRANCH   4   5
ENDBRANCH   1   4
BRANCH   2  10
ATOM     10  C   UNL     1      32.147   9.531  26.234  1.00  0.00     0.035 C 
BRANCH  10  11
ATOM     11  C   UNL     1      30.835  10.050  25.636  1.00  0.00     0.079 C 
BRANCH  11  12
ATOM     12  C   UNL     1      29.652   9.464  26.360  1.00  0.00     0.130 C 
ATOM     13  O   UNL     1      29.698   8.306  26.746  1.00  0.00    -0.300 OA
ATOM     14  C   UNL     1      28.426  10.281  26.644  1.00  0.00     0.087 C 
ENDBRANCH  11  12
ENDBRANCH  10  11
ENDBRANCH   2  10
TORSDOF 6
ENDMDL
MODEL 3
REMARK VINA RESULT:    -5.853      2.734      6.595
REMARK INTER + INTRA:          -8.474
REMARK INTER:                  -8.052
REMARK INTRA:                  -0.422
REMARK UNBOUND:                -0.568
REMARK SMILES CC(=O)CCC=C(C)CCC=C(C)C
REMARK SMILES IDX 7 1 6 2 8 3 9 4 10 5 11 6 13 7 12 8 14 9 5 10 4 11 2 12 3 13
REMARK SMILES IDX 1 14
REMARK H PARENT
REMARK Flexibility Score: inf
ROOT
ATOM      1  C   UNL     1      29.841   8.917  26.152  1.00  0.00    -0.077 C 
ATOM      2  C   UNL     1      30.783   9.863  26.363  1.00  0.00    -0.028 C 
ATOM      3  C   UNL     1      30.204   7.472  25.902  1.00  0.00     0.039 C 
ENDROOT
BRANCH   1   4
ATOM      4  C   UNL     1      28.382   9.317  26.179  1.00  0.00     0.034 C 
BRANCH   4   5
ATOM      5  C   UNL     1      28.233  10.823  26.429  1.00  0.00     0.032 C 
BRANCH   5   6
ATOM      6  C   UNL     1      26.910  11.128  27.085  1.00  0.00    -0.028 C 
ATOM      7  C   UNL     1      24.866  12.403  27.570  1.00  0.00     0.039 C 
ATOM      8  C   UNL     1      26.192  12.253  26.870  1.00  0.00    -0.080 C 
ATOM      9  C   UNL     1      26.692  13.362  25.976  1.00  0.00     0.039 C 
ENDBRANCH   5   6
ENDBRANCH   4   5
ENDBRANCH   1   4
BRANCH   2  10
ATOM     10  C   UNL     1      32.270   9.613  26.319  1.00  0.00     0.035 C 
BRANCH  10  11
ATOM     11  C   UNL     1      32.967  10.270  27.515  1.00  0.00     0.079 C 
BRANCH  11  12
ATOM     12  C   UNL     1      34.463  10.172  27.379  1.00  0.00     0.130 C 
ATOM     13  O   UNL     1      34.942   9.437  26.529  1.00  0.00    -0.300 OA
ATOM     14  C   UNL     1      35.382  10.981  28.247  1.00  0.00     0.087 C 
ENDBRANCH  11  12
ENDBRANCH  10  11
ENDBRANCH   2  10
TORSDOF 6
ENDMDL
MODEL 4
REMARK VINA RESULT:    -5.832      2.908      6.445
REMARK INTER + INTRA:          -8.446
REMARK INTER:                  -8.111
REMARK INTRA:                  -0.335
REMARK UNBOUND:                -0.568
REMARK SMILES CC(=O)CCC=C(C)CCC=C(C)C
REMARK SMILES IDX 7 1 6 2 8 3 9 4 10 5 11 6 13 7 12 8 14 9 5 10 4 11 2 12 3 13
REMARK SMILES IDX 1 14
REMARK H PARENT
REMARK Flexibility Score: inf
ROOT
ATOM      1  C   UNL     1      29.281   9.243  26.426  1.00  0.00    -0.077 C 
ATOM      2  C   UNL     1      30.322  10.085  26.239  1.00  0.00    -0.028 C 
ATOM      3  C   UNL     1      29.481   7.757  26.608  1.00  0.00     0.039 C 
ENDROOT
BRANCH   1   4
ATOM      4  C   UNL     1      27.878   9.808  26.464  1.00  0.00     0.034 C 
BRANCH   4   5
ATOM      5  C   UNL     1      27.902  11.337  26.341  1.00  0.00     0.032 C 
BRANCH   5   6
ATOM      6  C   UNL     1      27.819  11.759  24.896  1.00  0.00    -0.028 C 
ATOM      7  C   UNL     1      27.424  13.271  23.000  1.00  0.00     0.039 C 
ATOM      8  C   UNL     1      27.420  12.981  24.479  1.00  0.00    -0.080 C 
ATOM      9  C   UNL     1      26.951  14.043  25.444  1.00  0.00     0.039 C 
ENDBRANCH   5   6
ENDBRANCH   4   5
ENDBRANCH   1   4
BRANCH   2  10
ATOM     10  C   UNL     1      31.763   9.653  26.134  1.00  0.00     0.035 C 
BRANCH  10  11
ATOM     11  C   UNL     1      32.575  10.179  27.322  1.00  0.00     0.079 C 
BRANCH  11  12
ATOM     12  C   UNL     1      34.051  10.003  27.079  1.00  0.00     0.130 C 
ATOM     13  O   UNL     1      34.836  10.816  27.543  1.00  0.00    -0.300 OA
ATOM     14  C   UNL     1      34.581   8.835  26.301  1.00  0.00     0.087 C 
ENDBRANCH  11  12
ENDBRANCH  10  11
ENDBRANCH   2  10
TORSDOF 6
ENDMDL
MODEL 5
REMARK VINA RESULT:    -5.796      3.202      6.964
REMARK INTER + INTRA:          -8.397
REMARK INTER:                  -7.773
REMARK INTRA:                  -0.624
REMARK UNBOUND:                -0.568
REMARK SMILES CC(=O)CCC=C(C)CCC=C(C)C
REMARK SMILES IDX 7 1 6 2 8 3 9 4 10 5 11 6 13 7 12 8 14 9 5 10 4 11 2 12 3 13
REMARK SMILES IDX 1 14
REMARK H PARENT
REMARK Flexibility Score: inf
ROOT
ATOM      1  C   UNL     1      32.734   9.787  26.551  1.00  0.00    -0.077 C 
ATOM      2  C   UNL     1      32.620  10.315  27.791  1.00  0.00    -0.028 C 
ATOM      3  C   UNL     1      34.006   9.117  26.085  1.00  0.00     0.039 C 
ENDROOT
BRANCH   1   4
ATOM      4  C   UNL     1      31.552   9.861  25.610  1.00  0.00     0.034 C 
BRANCH   4   5
ATOM      5  C   UNL     1      30.315   9.204  26.236  1.00  0.00     0.032 C 
BRANCH   5   6
ATOM      6  C   UNL     1      29.229  10.224  26.472  1.00  0.00    -0.028 C 
ATOM      7  C   UNL     1      26.939  11.060  26.776  1.00  0.00     0.039 C 
ATOM      8  C   UNL     1      27.908   9.942  26.490  1.00  0.00    -0.080 C 
ATOM      9  C   UNL     1      27.381   8.555  26.210  1.00  0.00     0.039 C 
ENDBRANCH   5   6
ENDBRANCH   4   5
ENDBRANCH   1   4
BRANCH   2  10
ATOM     10  C   UNL     1      33.731  10.351  28.810  1.00  0.00     0.035 C 
BRANCH  10  11
ATOM     11  C   UNL     1      34.226  11.786  29.022  1.00  0.00     0.079 C 
BRANCH  11  12
ATOM     12  C   UNL     1      35.706  11.882  28.765  1.00  0.00     0.130 C 
ATOM     13  O   UNL     1      36.268  12.960  28.890  1.00  0.00    -0.300 OA
ATOM     14  C   UNL     1      36.514  10.677  28.384  1.00  0.00     0.087 C 
ENDBRANCH  11  12
ENDBRANCH  10  11
ENDBRANCH   2  10
TORSDOF 6
ENDMDL
MODEL 6
REMARK VINA RESULT:    -5.743      4.195      7.329
REMARK INTER + INTRA:          -8.326
REMARK INTER:                  -7.891
REMARK INTRA:                  -0.435
REMARK UNBOUND:                -0.568
REMARK SMILES CC(=O)CCC=C(C)CCC=C(C)C
REMARK SMILES IDX 7 1 6 2 8 3 9 4 10 5 11 6 13 7 12 8 14 9 5 10 4 11 2 12 3 13
REMARK SMILES IDX 1 14
REMARK H PARENT
REMARK Flexibility Score: inf
ROOT
ATOM      1  C   UNL     1      34.178  10.921  28.092  1.00  0.00    -0.077 C 
ATOM      2  C   UNL     1      34.148  11.954  28.964  1.00  0.00    -0.028 C 
ATOM      3  C   UNL     1      35.364  10.673  27.190  1.00  0.00     0.039 C 
ENDROOT
BRANCH   1   4
ATOM      4  C   UNL     1      32.993   9.982  28.027  1.00  0.00     0.034 C 
BRANCH   4   5
ATOM      5  C   UNL     1      32.663   9.619  26.574  1.00  0.00     0.032 C 
BRANCH   5   6
ATOM      6  C   UNL     1      31.330  10.197  26.168  1.00  0.00    -0.028 C 
ATOM      7  C   UNL     1      28.949  10.184  25.561  1.00  0.00     0.039 C 
ATOM      8  C   UNL     1      30.222   9.463  25.923  1.00  0.00    -0.080 C 
ATOM      9  C   UNL     1      30.234   7.954  25.976  1.00  0.00     0.039 C 
ENDBRANCH   5   6
ENDBRANCH   4   5
ENDBRANCH   1   4
BRANCH   2  10
ATOM     10  C   UNL     1      35.237  12.989  29.099  1.00  0.00     0.035 C 
BRANCH  10  11
ATOM     11  C   UNL     1      34.636  14.382  29.318  1.00  0.00     0.079 C 
BRANCH  11  12
ATOM     12  C   UNL     1      35.605  15.453  28.889  1.00  0.00     0.130 C 
ATOM     13  O   UNL     1      36.764  15.151  28.648  1.00  0.00    -0.300 OA
ATOM     14  C   UNL     1      35.171  16.879  28.723  1.00  0.00     0.087 C 
ENDBRANCH  11  12
ENDBRANCH  10  11
ENDBRANCH   2  10
TORSDOF 6
ENDMDL
MODEL 7
REMARK VINA RESULT:    -5.736      2.723      4.311
REMARK INTER + INTRA:          -8.317
REMARK INTER:                  -7.840
REMARK INTRA:                  -0.477
REMARK UNBOUND:                -0.568
REMARK SMILES CC(=O)CCC=C(C)CCC=C(C)C
REMARK SMILES IDX 7 1 6 2 8 3 9 4 10 5 11 6 13 7 12 8 14 9 5 10 4 11 2 12 3 13
REMARK SMILES IDX 1 14
REMARK H PARENT
REMARK Flexibility Score: inf
ROOT
ATOM      1  C   UNL     1      29.164   9.226  26.074  1.00  0.00    -0.077 C 
ATOM      2  C   UNL     1      29.335   7.894  25.913  1.00  0.00    -0.028 C 
ATOM      3  C   UNL     1      27.902   9.800  26.674  1.00  0.00     0.039 C 
ENDROOT
BRANCH   1   4
ATOM      4  C   UNL     1      30.273  10.164  25.652  1.00  0.00     0.034 C 
BRANCH   4   5
ATOM      5  C   UNL     1      31.646   9.584  26.011  1.00  0.00     0.032 C 
BRANCH   5   6
ATOM      6  C   UNL     1      32.203  10.250  27.245  1.00  0.00    -0.028 C 
ATOM      7  C   UNL     1      33.923  10.988  28.836  1.00  0.00     0.039 C 
ATOM      8  C   UNL     1      33.509  10.247  27.591  1.00  0.00    -0.080 C 
ATOM      9  C   UNL     1      34.549   9.507  26.785  1.00  0.00     0.039 C 
ENDBRANCH   5   6
ENDBRANCH   4   5
ENDBRANCH   1   4
BRANCH   2  10
ATOM     10  C   UNL     1      28.297   6.852  26.247  1.00  0.00     0.035 C 
BRANCH  10  11
ATOM     11  C   UNL     1      28.729   5.473  25.737  1.00  0.00     0.079 C 
BRANCH  11  12
ATOM     12  C   UNL     1      27.907   4.387  26.379  1.00  0.00     0.130 C 
ATOM     13  O   UNL     1      27.536   3.438  25.706  1.00  0.00    -0.300 OA
ATOM     14  C   UNL     1      27.558   4.430  27.838  1.00  0.00     0.087 C 
ENDBRANCH  11  12
ENDBRANCH  10  11
ENDBRANCH   2  10
TORSDOF 6
ENDMDL
MODEL 8
REMARK VINA RESULT:    -5.705      7.050      9.455
REMARK INTER + INTRA:          -8.274
REMARK INTER:                  -7.312
REMARK INTRA:                  -0.962
REMARK UNBOUND:                -0.568
REMARK SMILES CC(=O)CCC=C(C)CCC=C(C)C
REMARK SMILES IDX 7 1 6 2 8 3 9 4 10 5 11 6 13 7 12 8 14 9 5 10 4 11 2 12 3 13
REMARK SMILES IDX 1 14
REMARK H PARENT
REMARK Flexibility Score: inf
ROOT
ATOM      1  C   UNL     1      35.530  10.741  27.977  1.00  0.00    -0.077 C 
ATOM      2  C   UNL     1      36.725  10.814  28.604  1.00  0.00    -0.028 C 
ATOM      3  C   UNL     1      35.286   9.785  26.832  1.00  0.00     0.039 C 
ENDROOT
BRANCH   1   4
ATOM      4  C   UNL     1      34.402  11.635  28.443  1.00  0.00     0.034 C 
BRANCH   4   5
ATOM      5  C   UNL     1      34.879  12.584  29.550  1.00  0.00     0.032 C 
BRANCH   5   6
ATOM      6  C   UNL     1      34.584  14.018  29.189  1.00  0.00    -0.028 C 
ATOM      7  C   UNL     1      35.077  16.327  28.509  1.00  0.00     0.039 C 
ATOM      8  C   UNL     1      35.526  14.938  28.887  1.00  0.00    -0.080 C 
ATOM      9  C   UNL     1      37.001  14.622  28.942  1.00  0.00     0.039 C 
ENDBRANCH   5   6
ENDBRANCH   4   5
ENDBRANCH   1   4
BRANCH   2  10
ATOM     10  C   UNL     1      37.945  10.016  28.213  1.00  0.00     0.035 C 
BRANCH  10  11
ATOM     11  C   UNL     1      39.128  10.944  27.918  1.00  0.00     0.079 C 
BRANCH  11  12
ATOM     12  C   UNL     1      39.511  10.872  26.463  1.00  0.00     0.130 C 
ATOM     13  O   UNL     1      40.377  11.618  26.033  1.00  0.00    -0.300 OA
ATOM     14  C   UNL     1      38.871   9.882  25.535  1.00  0.00     0.087 C 
ENDBRANCH  11  12
ENDBRANCH  10  11
ENDBRANCH   2  10
TORSDOF 6
ENDMDL
MODEL 9
REMARK VINA RESULT:    -5.690      5.411      8.288
REMARK INTER + INTRA:          -8.254
REMARK INTER:                  -7.710
REMARK INTRA:                  -0.545
REMARK UNBOUND:                -0.568
REMARK SMILES CC(=O)CCC=C(C)CCC=C(C)C
REMARK SMILES IDX 7 1 6 2 8 3 9 4 10 5 11 6 13 7 12 8 14 9 5 10 4 11 2 12 3 13
REMARK SMILES IDX 1 14
REMARK H PARENT
REMARK Flexibility Score: inf
ROOT
ATOM      1  C   UNL     1      34.094  10.616  27.989  1.00  0.00    -0.077 C 
ATOM      2  C   UNL     1      35.196  10.085  27.412  1.00  0.00    -0.028 C 
ATOM      3  C   UNL     1      32.701  10.251  27.533  1.00  0.00     0.039 C 
ENDROOT
BRANCH   1   4
ATOM      4  C   UNL     1      34.264  11.595  29.130  1.00  0.00     0.034 C 
BRANCH   4   5
ATOM      5  C   UNL     1      35.383  12.600  28.826  1.00  0.00     0.032 C 
BRANCH   5   6
ATOM      6  C   UNL     1      34.853  14.012  28.841  1.00  0.00    -0.028 C 
ATOM      7  C   UNL     1      34.954  16.466  28.782  1.00  0.00     0.039 C 
ATOM      8  C   UNL     1      35.628  15.118  28.798  1.00  0.00    -0.080 C 
ATOM      9  C   UNL     1      37.136  15.040  28.792  1.00  0.00     0.039 C 
ENDBRANCH   5   6
ENDBRANCH   4   5
ENDBRANCH   1   4
BRANCH   2  10
ATOM     10  C   UNL     1      35.174   9.136  26.240  1.00  0.00     0.035 C 
BRANCH  10  11
ATOM     11  C   UNL     1      36.562   8.532  26.004  1.00  0.00     0.079 C 
BRANCH  11  12
ATOM     12  C   UNL     1      37.461   9.521  25.309  1.00  0.00     0.130 C 
ATOM     13  O   UNL     1      37.163   9.922  24.194  1.00  0.00    -0.300 OA
ATOM     14  C   UNL     1      38.701  10.047  25.968  1.00  0.00     0.087 C 
ENDBRANCH  11  12
ENDBRANCH  10  11
ENDBRANCH   2  10
TORSDOF 6
ENDMDL
