MODEL 1
REMARK VINA RESULT:    -4.140      0.000      0.000
REMARK INTER + INTRA:          -4.815
REMARK INTER:                  -4.624
REMARK INTRA:                  -0.191
REMARK UNBOUND:                -0.191
REMARK SMILES O=C([O-])c1ccccc1C(=O)[O-]
REMARK SMILES IDX 4 1 9 2 5 3 8 4 6 5 7 6 2 7 1 8 3 9 10 10 11 11 12 12
REMARK H PARENT
REMARK Flexibility Score: inf
ROOT
ATOM      1  C   UNL     1      62.265  33.646  60.659  1.00  0.00     0.006 A 
ATOM      2  C   UNL     1      63.629  33.381  60.966  1.00  0.00     0.006 A 
ATOM      3  C   UNL     1      61.756  34.943  60.867  1.00  0.00     0.010 A 
ATOM      4  C   UNL     1      64.448  34.436  61.409  1.00  0.00     0.010 A 
ATOM      5  C   UNL     1      62.581  35.968  61.328  1.00  0.00     0.001 A 
ATOM      6  C   UNL     1      63.928  35.718  61.587  1.00  0.00     0.001 A 
ENDROOT
BRANCH   1   7
ATOM      7  C   UNL     1      61.368  32.633  60.058  1.00  0.00     0.072 C 
ATOM      8  O   UNL     1      61.303  32.506  58.806  1.00  0.00    -0.545 OA
ATOM      9  O   UNL     1      60.637  31.767  60.863  1.00  0.00    -0.545 OA
ENDBRANCH   1   7
BRANCH   2  10
ATOM     10  C   UNL     1      64.218  32.024  60.910  1.00  0.00     0.072 C 
ATOM     11  O   UNL     1      63.945  31.166  61.791  1.00  0.00    -0.545 OA
ATOM     12  O   UNL     1      65.135  31.702  59.917  1.00  0.00    -0.545 OA
ENDBRANCH   2  10
TORSDOF 2
ENDMDL
MODEL 2
REMARK VINA RESULT:    -4.131      0.076      3.157
REMARK INTER + INTRA:          -4.806
REMARK INTER:                  -4.632
REMARK INTRA:                  -0.174
REMARK UNBOUND:                -0.191
REMARK SMILES O=C([O-])c1ccccc1C(=O)[O-]
REMARK SMILES IDX 4 1 9 2 5 3 8 4 6 5 7 6 2 7 1 8 3 9 10 10 11 11 12 12
REMARK H PARENT
REMARK Flexibility Score: inf
ROOT
ATOM      1  C   UNL     1      63.683  33.430  60.976  1.00  0.00     0.006 A 
ATOM      2  C   UNL     1      62.311  33.678  60.697  1.00  0.00     0.006 A 
ATOM      3  C   UNL     1      64.499  34.496  61.401  1.00  0.00     0.010 A 
ATOM      4  C   UNL     1      61.791  34.967  60.914  1.00  0.00     0.010 A 
ATOM      5  C   UNL     1      63.966  35.771  61.589  1.00  0.00     0.001 A 
ATOM      6  C   UNL     1      62.612  36.004  61.358  1.00  0.00     0.001 A 
ENDROOT
BRANCH   1   7
ATOM      7  C   UNL     1      64.283  32.077  60.909  1.00  0.00     0.072 C 
ATOM      8  O   UNL     1      63.981  31.207  61.768  1.00  0.00    -0.545 OA
ATOM      9  O   UNL     1      65.133  31.729  59.865  1.00  0.00    -0.545 OA
ENDBRANCH   1   7
BRANCH   2  10
ATOM     10  C   UNL     1      61.409  32.656  60.116  1.00  0.00     0.072 C 
ATOM     11  O   UNL     1      61.253  32.568  58.870  1.00  0.00    -0.545 OA
ATOM     12  O   UNL     1      60.672  31.823  60.949  1.00  0.00    -0.545 OA
ENDBRANCH   2  10
TORSDOF 2
ENDMDL
MODEL 3
REMARK VINA RESULT:    -4.017     11.836     13.853
REMARK INTER + INTRA:          -4.678
REMARK INTER:                  -4.508
REMARK INTRA:                  -0.170
REMARK UNBOUND:                -0.191
REMARK SMILES O=C([O-])c1ccccc1C(=O)[O-]
REMARK SMILES IDX 4 1 9 2 5 3 8 4 6 5 7 6 2 7 1 8 3 9 10 10 11 11 12 12
REMARK H PARENT
REMARK Flexibility Score: inf
ROOT
ATOM      1  C   UNL     1      56.457  28.021  50.537  1.00  0.00     0.006 A 
ATOM      2  C   UNL     1      56.536  26.627  50.260  1.00  0.00     0.006 A 
ATOM      3  C   UNL     1      55.224  28.682  50.376  1.00  0.00     0.010 A 
ATOM      4  C   UNL     1      55.368  25.935  49.895  1.00  0.00     0.010 A 
ATOM      5  C   UNL     1      54.083  27.979  49.992  1.00  0.00     0.001 A 
ATOM      6  C   UNL     1      54.151  26.606  49.763  1.00  0.00     0.001 A 
ENDROOT
BRANCH   1   7
ATOM      7  C   UNL     1      57.603  28.800  51.061  1.00  0.00     0.072 C 
ATOM      8  O   UNL     1      57.837  28.829  52.298  1.00  0.00    -0.545 OA
ATOM      9  O   UNL     1      58.471  29.454  50.193  1.00  0.00    -0.545 OA
ENDBRANCH   1   7
BRANCH   2  10
ATOM     10  C   UNL     1      57.812  25.876  50.269  1.00  0.00     0.072 C 
ATOM     11  O   UNL     1      58.040  25.002  51.146  1.00  0.00    -0.545 OA
ATOM     12  O   UNL     1      58.805  26.176  49.343  1.00  0.00    -0.545 OA
ENDBRANCH   2  10
TORSDOF 2
ENDMDL
MODEL 4
REMARK VINA RESULT:    -4.005     11.818     13.890
REMARK INTER + INTRA:          -4.664
REMARK INTER:                  -4.489
REMARK INTRA:                  -0.176
REMARK UNBOUND:                -0.191
REMARK SMILES O=C([O-])c1ccccc1C(=O)[O-]
REMARK SMILES IDX 4 1 9 2 5 3 8 4 6 5 7 6 2 7 1 8 3 9 10 10 11 11 12 12
REMARK H PARENT
REMARK Flexibility Score: inf
ROOT
ATOM      1  C   UNL     1      56.558  26.648  50.283  1.00  0.00     0.006 A 
ATOM      2  C   UNL     1      56.463  28.043  50.548  1.00  0.00     0.006 A 
ATOM      3  C   UNL     1      55.397  25.940  49.918  1.00  0.00     0.010 A 
ATOM      4  C   UNL     1      55.226  28.689  50.376  1.00  0.00     0.010 A 
ATOM      5  C   UNL     1      54.176  26.597  49.774  1.00  0.00     0.001 A 
ATOM      6  C   UNL     1      54.092  27.971  49.991  1.00  0.00     0.001 A 
ENDROOT
BRANCH   1   7
ATOM      7  C   UNL     1      57.845  25.914  50.303  1.00  0.00     0.072 C 
ATOM      8  O   UNL     1      58.041  25.001  51.148  1.00  0.00    -0.545 OA
ATOM      9  O   UNL     1      58.826  26.178  49.354  1.00  0.00    -0.545 OA
ENDBRANCH   1   7
BRANCH   2  10
ATOM     10  C   UNL     1      57.596  28.843  51.068  1.00  0.00     0.072 C 
ATOM     11  O   UNL     1      57.733  29.037  52.305  1.00  0.00    -0.545 OA
ATOM     12  O   UNL     1      58.486  29.446  50.187  1.00  0.00    -0.545 OA
ENDBRANCH   2  10
TORSDOF 2
ENDMDL
MODEL 5
REMARK VINA RESULT:    -3.715     13.047     14.995
REMARK INTER + INTRA:          -4.341
REMARK INTER:                  -4.134
REMARK INTRA:                  -0.207
REMARK UNBOUND:                -0.191
REMARK SMILES O=C([O-])c1ccccc1C(=O)[O-]
REMARK SMILES IDX 4 1 9 2 5 3 8 4 6 5 7 6 2 7 1 8 3 9 10 10 11 11 12 12
REMARK H PARENT
REMARK Flexibility Score: inf
ROOT
ATOM      1  C   UNL     1      55.268  27.190  50.286  1.00  0.00     0.006 A 
ATOM      2  C   UNL     1      54.036  27.896  50.370  1.00  0.00     0.006 A 
ATOM      3  C   UNL     1      55.280  25.899  49.724  1.00  0.00     0.010 A 
ATOM      4  C   UNL     1      52.875  27.313  49.830  1.00  0.00     0.010 A 
ATOM      5  C   UNL     1      54.112  25.331  49.215  1.00  0.00     0.001 A 
ATOM      6  C   UNL     1      52.914  26.042  49.257  1.00  0.00     0.001 A 
ENDROOT
BRANCH   1   7
ATOM      7  C   UNL     1      56.561  27.782  50.701  1.00  0.00     0.072 C 
ATOM      8  O   UNL     1      57.150  27.361  51.731  1.00  0.00    -0.545 OA
ATOM      9  O   UNL     1      57.171  28.763  49.927  1.00  0.00    -0.545 OA
ENDBRANCH   1   7
BRANCH   2  10
ATOM     10  C   UNL     1      53.899  29.197  51.065  1.00  0.00     0.072 C 
ATOM     11  O   UNL     1      53.861  30.275  50.415  1.00  0.00    -0.545 OA
ATOM     12  O   UNL     1      53.877  29.246  52.454  1.00  0.00    -0.545 OA
ENDBRANCH   2  10
TORSDOF 2
ENDMDL
MODEL 6
REMARK VINA RESULT:    -3.682      1.976      3.239
REMARK INTER + INTRA:          -4.304
REMARK INTER:                  -4.128
REMARK INTRA:                  -0.177
REMARK UNBOUND:                -0.191
REMARK SMILES O=C([O-])c1ccccc1C(=O)[O-]
REMARK SMILES IDX 4 1 9 2 5 3 8 4 6 5 7 6 2 7 1 8 3 9 10 10 11 11 12 12
REMARK H PARENT
REMARK Flexibility Score: inf
ROOT
ATOM      1  C   UNL     1      61.828  32.687  60.756  1.00  0.00     0.006 A 
ATOM      2  C   UNL     1      63.190  32.313  60.925  1.00  0.00     0.006 A 
ATOM      3  C   UNL     1      60.818  31.786  61.144  1.00  0.00     0.010 A 
ATOM      4  C   UNL     1      63.491  31.081  61.533  1.00  0.00     0.010 A 
ATOM      5  C   UNL     1      61.140  30.559  61.725  1.00  0.00     0.001 A 
ATOM      6  C   UNL     1      62.474  30.213  61.930  1.00  0.00     0.001 A 
ENDROOT
BRANCH   1   7
ATOM      7  C   UNL     1      61.419  34.019  60.255  1.00  0.00     0.072 C 
ATOM      8  O   UNL     1      60.892  34.134  59.117  1.00  0.00    -0.545 OA
ATOM      9  O   UNL     1      61.549  35.148  61.056  1.00  0.00    -0.545 OA
ENDBRANCH   1   7
BRANCH   2  10
ATOM     10  C   UNL     1      64.318  33.132  60.424  1.00  0.00     0.072 C 
ATOM     11  O   UNL     1      64.932  32.810  59.373  1.00  0.00    -0.545 OA
ATOM     12  O   UNL     1      64.755  34.235  61.150  1.00  0.00    -0.545 OA
ENDBRANCH   2  10
TORSDOF 2
ENDMDL
MODEL 7
REMARK VINA RESULT:    -3.656      1.959      4.251
REMARK INTER + INTRA:          -4.274
REMARK INTER:                  -4.122
REMARK INTRA:                  -0.152
REMARK UNBOUND:                -0.191
REMARK SMILES O=C([O-])c1ccccc1C(=O)[O-]
REMARK SMILES IDX 4 1 9 2 5 3 8 4 6 5 7 6 2 7 1 8 3 9 10 10 11 11 12 12
REMARK H PARENT
REMARK Flexibility Score: inf
ROOT
ATOM      1  C   UNL     1      63.203  32.246  60.931  1.00  0.00     0.006 A 
ATOM      2  C   UNL     1      61.845  32.648  60.792  1.00  0.00     0.006 A 
ATOM      3  C   UNL     1      63.492  31.014  61.548  1.00  0.00     0.010 A 
ATOM      4  C   UNL     1      60.826  31.775  61.216  1.00  0.00     0.010 A 
ATOM      5  C   UNL     1      62.466  30.174  61.980  1.00  0.00     0.001 A 
ATOM      6  C   UNL     1      61.135  30.549  61.804  1.00  0.00     0.001 A 
ENDROOT
BRANCH   1   7
ATOM      7  C   UNL     1      64.332  33.036  60.389  1.00  0.00     0.072 C 
ATOM      8  O   UNL     1      64.888  32.691  59.313  1.00  0.00    -0.545 OA
ATOM      9  O   UNL     1      64.750  34.202  61.021  1.00  0.00    -0.545 OA
ENDBRANCH   1   7
BRANCH   2  10
ATOM     10  C   UNL     1      61.448  33.981  60.283  1.00  0.00     0.072 C 
ATOM     11  O   UNL     1      61.519  35.000  61.020  1.00  0.00    -0.545 OA
ATOM     12  O   UNL     1      60.927  34.111  59.001  1.00  0.00    -0.545 OA
ENDBRANCH   2  10
TORSDOF 2
ENDMDL
MODEL 8
REMARK VINA RESULT:    -3.593     12.595     13.598
REMARK INTER + INTRA:          -4.204
REMARK INTER:                  -4.021
REMARK INTRA:                  -0.183
REMARK UNBOUND:                -0.191
REMARK SMILES O=C([O-])c1ccccc1C(=O)[O-]
REMARK SMILES IDX 4 1 9 2 5 3 8 4 6 5 7 6 2 7 1 8 3 9 10 10 11 11 12 12
REMARK H PARENT
REMARK Flexibility Score: inf
ROOT
ATOM      1  C   UNL     1      57.460  26.887  50.302  1.00  0.00     0.006 A 
ATOM      2  C   UNL     1      57.202  28.284  50.365  1.00  0.00     0.006 A 
ATOM      3  C   UNL     1      58.651  26.436  49.702  1.00  0.00     0.010 A 
ATOM      4  C   UNL     1      58.173  29.181  49.884  1.00  0.00     0.010 A 
ATOM      5  C   UNL     1      59.590  27.344  49.212  1.00  0.00     0.001 A 
ATOM      6  C   UNL     1      59.357  28.714  49.313  1.00  0.00     0.001 A 
ENDROOT
BRANCH   1   7
ATOM      7  C   UNL     1      56.560  25.878  50.908  1.00  0.00     0.072 C 
ATOM      8  O   UNL     1      56.808  25.413  52.052  1.00  0.00    -0.545 OA
ATOM      9  O   UNL     1      55.399  25.480  50.254  1.00  0.00    -0.545 OA
ENDBRANCH   1   7
BRANCH   2  10
ATOM     10  C   UNL     1      55.921  28.846  50.852  1.00  0.00     0.072 C 
ATOM     11  O   UNL     1      55.839  29.368  51.996  1.00  0.00    -0.545 OA
ATOM     12  O   UNL     1      54.774  28.742  50.075  1.00  0.00    -0.545 OA
ENDBRANCH   2  10
TORSDOF 2
ENDMDL
MODEL 9
REMARK VINA RESULT:    -3.461     13.496     15.022
REMARK INTER + INTRA:          -4.057
REMARK INTER:                  -3.846
REMARK INTRA:                  -0.210
REMARK UNBOUND:                -0.191
REMARK SMILES O=C([O-])c1ccccc1C(=O)[O-]
REMARK SMILES IDX 4 1 9 2 5 3 8 4 6 5 7 6 2 7 1 8 3 9 10 10 11 11 12 12
REMARK H PARENT
REMARK Flexibility Score: inf
ROOT
ATOM      1  C   UNL     1      55.276  27.126  50.610  1.00  0.00     0.006 A 
ATOM      2  C   UNL     1      53.936  26.663  50.491  1.00  0.00     0.006 A 
ATOM      3  C   UNL     1      55.536  28.506  50.502  1.00  0.00     0.010 A 
ATOM      4  C   UNL     1      52.900  27.601  50.332  1.00  0.00     0.010 A 
ATOM      5  C   UNL     1      54.495  29.416  50.323  1.00  0.00     0.001 A 
ATOM      6  C   UNL     1      53.178  28.966  50.250  1.00  0.00     0.001 A 
ENDROOT
BRANCH   1   7
ATOM      7  C   UNL     1      56.411  26.225  50.917  1.00  0.00     0.072 C 
ATOM      8  O   UNL     1      56.592  25.812  52.093  1.00  0.00    -0.545 OA
ATOM      9  O   UNL     1      57.251  25.773  49.906  1.00  0.00    -0.545 OA
ENDBRANCH   1   7
BRANCH   2  10
ATOM     10  C   UNL     1      53.581  25.226  50.454  1.00  0.00     0.072 C 
ATOM     11  O   UNL     1      53.303  24.604  51.513  1.00  0.00    -0.545 OA
ATOM     12  O   UNL     1      53.617  24.529  49.252  1.00  0.00    -0.545 OA
ENDBRANCH   2  10
TORSDOF 2
ENDMDL
