MODEL 1
REMARK VINA RESULT:    -4.595      0.000      0.000
REMARK INTER + INTRA:         -10.284
REMARK INTER:                  -8.625
REMARK INTRA:                  -1.659
REMARK UNBOUND:                -1.659
REMARK SMILES CCCCCCCCC=CCCCCCCCC(=O)[O-]
REMARK SMILES IDX 10 1 9 2 11 3 12 4 13 5 14 6 15 7 16 8 17 9 18 10 19 11
REMARK SMILES IDX 20 12 8 13 7 14 6 15 5 16 4 17 3 18 2 19 1 20
REMARK H PARENT
REMARK Flexibility Score: inf
ROOT
ATOM      1  C   UNL     1       9.952  -8.475  30.746  1.00  0.00    -0.031 C 
ATOM      2  C   UNL     1       9.837  -7.756  31.871  1.00  0.00    -0.031 C 
ENDROOT
BRANCH   1   3
ATOM      3  C   UNL     1       8.841  -8.543  29.733  1.00  0.00     0.027 C 
BRANCH   3   4
ATOM      4  C   UNL     1       9.354  -8.811  28.307  1.00  0.00     0.004 C 
BRANCH   4   5
ATOM      5  C   UNL     1      10.610  -9.698  28.246  1.00  0.00     0.000 C 
BRANCH   5   6
ATOM      6  C   UNL     1      11.248  -9.727  26.847  1.00  0.00     0.000 C 
BRANCH   6   7
ATOM      7  C   UNL     1      12.406 -10.734  26.748  1.00  0.00     0.000 C 
BRANCH   7   8
ATOM      8  C   UNL     1      12.090 -11.905  25.804  1.00  0.00     0.006 C 
BRANCH   8   9
ATOM      9  C   UNL     1      12.222 -11.480  24.340  1.00  0.00     0.053 C 
BRANCH   9  10
ATOM     10  C   UNL     1      11.608 -12.504  23.438  1.00  0.00     0.041 C 
ATOM     11  O   UNL     1      11.763 -13.730  23.675  1.00  0.00    -0.550 OA
ATOM     12  O   UNL     1      10.822 -12.104  22.365  1.00  0.00    -0.550 OA
ENDBRANCH   9  10
ENDBRANCH   8   9
ENDBRANCH   7   8
ENDBRANCH   6   7
ENDBRANCH   5   6
ENDBRANCH   4   5
ENDBRANCH   3   4
ENDBRANCH   1   3
BRANCH   2  13
ATOM     13  C   UNL     1      10.962  -7.710  32.870  1.00  0.00     0.027 C 
BRANCH  13  14
ATOM     14  C   UNL     1      11.083  -9.013  33.672  1.00  0.00     0.004 C 
BRANCH  14  15
ATOM     15  C   UNL     1       9.850  -9.268  34.552  1.00  0.00     0.000 C 
BRANCH  15  16
ATOM     16  C   UNL     1       9.359 -10.713  34.403  1.00  0.00     0.000 C 
BRANCH  16  17
ATOM     17  C   UNL     1       9.974 -11.381  33.163  1.00  0.00    -0.000 C 
BRANCH  17  18
ATOM     18  C   UNL     1       8.931 -11.625  32.053  1.00  0.00    -0.000 C 
BRANCH  18  19
ATOM     19  C   UNL     1       7.577 -10.947  32.319  1.00  0.00    -0.003 C 
ATOM     20  C   UNL     1       6.386 -11.868  32.064  1.00  0.00     0.004 C 
ENDBRANCH  18  19
ENDBRANCH  17  18
ENDBRANCH  16  17
ENDBRANCH  15  16
ENDBRANCH  14  15
ENDBRANCH  13  14
ENDBRANCH   2  13
TORSDOF 15
ENDMDL
MODEL 2
REMARK VINA RESULT:    -4.462      5.076      7.775
REMARK INTER + INTRA:         -10.035
REMARK INTER:                  -9.100
REMARK INTRA:                  -0.935
REMARK UNBOUND:                -1.659
REMARK SMILES CCCCCCCCC=CCCCCCCCC(=O)[O-]
REMARK SMILES IDX 10 1 9 2 11 3 12 4 13 5 14 6 15 7 16 8 17 9 18 10 19 11
REMARK SMILES IDX 20 12 8 13 7 14 6 15 5 16 4 17 3 18 2 19 1 20
REMARK H PARENT
REMARK Flexibility Score: inf
ROOT
ATOM      1  C   UNL     1      11.501  -9.982  26.708  1.00  0.00    -0.031 C 
ATOM      2  C   UNL     1      11.352  -8.700  26.347  1.00  0.00    -0.031 C 
ENDROOT
BRANCH   1   3
ATOM      3  C   UNL     1      12.754 -10.753  26.391  1.00  0.00     0.027 C 
BRANCH   3   4
ATOM      4  C   UNL     1      12.464 -12.191  25.924  1.00  0.00     0.004 C 
BRANCH   4   5
ATOM      5  C   UNL     1      13.099 -12.552  24.569  1.00  0.00     0.000 C 
BRANCH   5   6
ATOM      6  C   UNL     1      12.051 -12.797  23.469  1.00  0.00     0.000 C 
BRANCH   6   7
ATOM      7  C   UNL     1      11.257 -11.528  23.118  1.00  0.00     0.000 C 
BRANCH   7   8
ATOM      8  C   UNL     1      10.399 -11.701  21.856  1.00  0.00     0.006 C 
BRANCH   8   9
ATOM      9  C   UNL     1      10.373 -10.411  21.031  1.00  0.00     0.053 C 
BRANCH   9  10
ATOM     10  C   UNL     1       8.966 -10.038  20.685  1.00  0.00     0.041 C 
ATOM     11  O   UNL     1       8.659  -8.832  20.495  1.00  0.00    -0.550 OA
ATOM     12  O   UNL     1       8.004 -11.027  20.523  1.00  0.00    -0.550 OA
ENDBRANCH   9  10
ENDBRANCH   8   9
ENDBRANCH   7   8
ENDBRANCH   6   7
ENDBRANCH   5   6
ENDBRANCH   4   5
ENDBRANCH   3   4
ENDBRANCH   1   3
BRANCH   2  13
ATOM     13  C   UNL     1      10.086  -7.953  26.672  1.00  0.00     0.027 C 
BRANCH  13  14
ATOM     14  C   UNL     1      10.098  -6.520  26.123  1.00  0.00     0.004 C 
BRANCH  14  15
ATOM     15  C   UNL     1       8.691  -6.032  25.745  1.00  0.00     0.000 C 
BRANCH  15  16
ATOM     16  C   UNL     1       8.616  -5.673  24.256  1.00  0.00     0.000 C 
BRANCH  16  17
ATOM     17  C   UNL     1       7.158  -5.620  23.773  1.00  0.00    -0.000 C 
BRANCH  17  18
ATOM     18  C   UNL     1       7.050  -5.639  22.234  1.00  0.00    -0.000 C 
BRANCH  18  19
ATOM     19  C   UNL     1       6.090  -4.579  21.670  1.00  0.00    -0.003 C 
ATOM     20  C   UNL     1       6.536  -3.149  21.970  1.00  0.00     0.004 C 
ENDBRANCH  18  19
ENDBRANCH  17  18
ENDBRANCH  16  17
ENDBRANCH  15  16
ENDBRANCH  14  15
ENDBRANCH  13  14
ENDBRANCH   2  13
TORSDOF 15
ENDMDL
MODEL 3
REMARK VINA RESULT:    -4.378      6.564      9.438
REMARK INTER + INTRA:          -9.877
REMARK INTER:                  -8.164
REMARK INTRA:                  -1.713
REMARK UNBOUND:                -1.659
REMARK SMILES CCCCCCCCC=CCCCCCCCC(=O)[O-]
REMARK SMILES IDX 10 1 9 2 11 3 12 4 13 5 14 6 15 7 16 8 17 9 18 10 19 11
REMARK SMILES IDX 20 12 8 13 7 14 6 15 5 16 4 17 3 18 2 19 1 20
REMARK H PARENT
REMARK Flexibility Score: inf
ROOT
ATOM      1  C   UNL     1       7.670  -5.066  23.916  1.00  0.00    -0.031 C 
ATOM      2  C   UNL     1       7.442  -5.861  22.862  1.00  0.00    -0.031 C 
ENDROOT
BRANCH   1   3
ATOM      3  C   UNL     1       8.323  -5.582  25.169  1.00  0.00     0.027 C 
BRANCH   3   4
ATOM      4  C   UNL     1       9.835  -5.292  25.213  1.00  0.00     0.004 C 
BRANCH   4   5
ATOM      5  C   UNL     1      10.666  -6.388  25.902  1.00  0.00     0.000 C 
BRANCH   5   6
ATOM      6  C   UNL     1      10.368  -7.793  25.352  1.00  0.00     0.000 C 
BRANCH   6   7
ATOM      7  C   UNL     1      10.805  -8.909  26.315  1.00  0.00     0.000 C 
BRANCH   7   8
ATOM      8  C   UNL     1      10.562  -8.545  27.787  1.00  0.00     0.006 C 
BRANCH   8   9
ATOM      9  C   UNL     1       9.066  -8.557  28.115  1.00  0.00     0.053 C 
BRANCH   9  10
ATOM     10  C   UNL     1       8.853  -8.665  29.592  1.00  0.00     0.041 C 
ATOM     11  O   UNL     1       9.820  -8.511  30.384  1.00  0.00    -0.550 OA
ATOM     12  O   UNL     1       7.578  -8.886  30.097  1.00  0.00    -0.550 OA
ENDBRANCH   9  10
ENDBRANCH   8   9
ENDBRANCH   7   8
ENDBRANCH   6   7
ENDBRANCH   5   6
ENDBRANCH   4   5
ENDBRANCH   3   4
ENDBRANCH   1   3
BRANCH   2  13
ATOM     13  C   UNL     1       6.782  -5.321  21.621  1.00  0.00     0.027 C 
BRANCH  13  14
ATOM     14  C   UNL     1       5.716  -4.264  21.942  1.00  0.00     0.004 C 
BRANCH  14  15
ATOM     15  C   UNL     1       4.307  -4.720  21.537  1.00  0.00     0.000 C 
BRANCH  15  16
ATOM     16  C   UNL     1       3.236  -3.986  22.353  1.00  0.00     0.000 C 
BRANCH  16  17
ATOM     17  C   UNL     1       3.699  -3.771  23.803  1.00  0.00    -0.000 C 
BRANCH  17  18
ATOM     18  C   UNL     1       3.196  -4.882  24.748  1.00  0.00    -0.000 C 
BRANCH  18  19
ATOM     19  C   UNL     1       4.181  -6.054  24.901  1.00  0.00    -0.003 C 
ATOM     20  C   UNL     1       3.562  -7.405  24.553  1.00  0.00     0.004 C 
ENDBRANCH  18  19
ENDBRANCH  17  18
ENDBRANCH  16  17
ENDBRANCH  15  16
ENDBRANCH  14  15
ENDBRANCH  13  14
ENDBRANCH   2  13
TORSDOF 15
ENDMDL
MODEL 4
REMARK VINA RESULT:    -4.374      5.009      8.774
REMARK INTER + INTRA:          -9.869
REMARK INTER:                  -8.566
REMARK INTRA:                  -1.303
REMARK UNBOUND:                -1.659
REMARK SMILES CCCCCCCCC=CCCCCCCCC(=O)[O-]
REMARK SMILES IDX 10 1 9 2 11 3 12 4 13 5 14 6 15 7 16 8 17 9 18 10 19 11
REMARK SMILES IDX 20 12 8 13 7 14 6 15 5 16 4 17 3 18 2 19 1 20
REMARK H PARENT
REMARK Flexibility Score: inf
ROOT
ATOM      1  C   UNL     1      12.232 -11.768  25.525  1.00  0.00    -0.031 C 
ATOM      2  C   UNL     1      11.880 -11.600  24.242  1.00  0.00    -0.031 C 
ENDROOT
BRANCH   1   3
ATOM      3  C   UNL     1      12.375 -10.601  26.464  1.00  0.00     0.027 C 
BRANCH   3   4
ATOM      4  C   UNL     1      11.456 -10.714  27.694  1.00  0.00     0.004 C 
BRANCH   4   5
ATOM      5  C   UNL     1      10.550  -9.489  27.916  1.00  0.00     0.000 C 
BRANCH   5   6
ATOM      6  C   UNL     1      10.543  -8.530  26.713  1.00  0.00     0.000 C 
BRANCH   6   7
ATOM      7  C   UNL     1      10.558  -7.052  27.137  1.00  0.00     0.000 C 
BRANCH   7   8
ATOM      8  C   UNL     1      10.993  -6.117  25.999  1.00  0.00     0.006 C 
BRANCH   8   9
ATOM      9  C   UNL     1       9.829  -5.236  25.539  1.00  0.00     0.053 C 
BRANCH   9  10
ATOM     10  C   UNL     1      10.333  -3.917  25.043  1.00  0.00     0.041 C 
ATOM     11  O   UNL     1       9.525  -3.051  24.616  1.00  0.00    -0.550 OA
ATOM     12  O   UNL     1      11.689  -3.625  25.101  1.00  0.00    -0.550 OA
ENDBRANCH   9  10
ENDBRANCH   8   9
ENDBRANCH   7   8
ENDBRANCH   6   7
ENDBRANCH   5   6
ENDBRANCH   4   5
ENDBRANCH   3   4
ENDBRANCH   1   3
BRANCH   2  13
ATOM     13  C   UNL     1      11.749 -12.785  23.322  1.00  0.00     0.027 C 
BRANCH  13  14
ATOM     14  C   UNL     1      12.203 -14.091  23.986  1.00  0.00     0.004 C 
BRANCH  14  15
ATOM     15  C   UNL     1      13.472 -14.662  23.334  1.00  0.00     0.000 C 
BRANCH  15  16
ATOM     16  C   UNL     1      14.310 -15.441  24.354  1.00  0.00     0.000 C 
BRANCH  16  17
ATOM     17  C   UNL     1      14.114 -14.883  25.772  1.00  0.00    -0.000 C 
BRANCH  17  18
ATOM     18  C   UNL     1      15.456 -14.608  26.483  1.00  0.00    -0.000 C 
BRANCH  18  19
ATOM     19  C   UNL     1      16.157 -13.326  26.002  1.00  0.00    -0.003 C 
ATOM     20  C   UNL     1      17.678 -13.396  26.119  1.00  0.00     0.004 C 
ENDBRANCH  18  19
ENDBRANCH  17  18
ENDBRANCH  16  17
ENDBRANCH  15  16
ENDBRANCH  14  15
ENDBRANCH  13  14
ENDBRANCH   2  13
TORSDOF 15
ENDMDL
MODEL 5
REMARK VINA RESULT:    -4.366      4.260      7.048
REMARK INTER + INTRA:          -9.854
REMARK INTER:                  -8.668
REMARK INTRA:                  -1.187
REMARK UNBOUND:                -1.659
REMARK SMILES CCCCCCCCC=CCCCCCCCC(=O)[O-]
REMARK SMILES IDX 10 1 9 2 11 3 12 4 13 5 14 6 15 7 16 8 17 9 18 10 19 11
REMARK SMILES IDX 20 12 8 13 7 14 6 15 5 16 4 17 3 18 2 19 1 20
REMARK H PARENT
REMARK Flexibility Score: inf
ROOT
ATOM      1  C   UNL     1      10.882  -9.708  27.805  1.00  0.00    -0.031 C 
ATOM      2  C   UNL     1      10.096  -8.855  27.133  1.00  0.00    -0.031 C 
ENDROOT
BRANCH   1   3
ATOM      3  C   UNL     1      11.943 -10.519  27.113  1.00  0.00     0.027 C 
BRANCH   3   4
ATOM      4  C   UNL     1      11.999 -10.254  25.597  1.00  0.00     0.004 C 
BRANCH   4   5
ATOM      5  C   UNL     1      12.717 -11.352  24.792  1.00  0.00     0.000 C 
BRANCH   5   6
ATOM      6  C   UNL     1      11.740 -12.277  24.047  1.00  0.00     0.000 C 
BRANCH   6   7
ATOM      7  C   UNL     1      11.895 -13.751  24.456  1.00  0.00     0.000 C 
BRANCH   7   8
ATOM      8  C   UNL     1      12.528 -13.913  25.846  1.00  0.00     0.006 C 
BRANCH   8   9
ATOM      9  C   UNL     1      13.582 -15.024  25.842  1.00  0.00     0.053 C 
BRANCH   9  10
ATOM     10  C   UNL     1      14.957 -14.441  25.759  1.00  0.00     0.041 C 
ATOM     11  O   UNL     1      15.760 -14.575  26.720  1.00  0.00    -0.550 OA
ATOM     12  O   UNL     1      15.370 -13.795  24.601  1.00  0.00    -0.550 OA
ENDBRANCH   9  10
ENDBRANCH   8   9
ENDBRANCH   7   8
ENDBRANCH   6   7
ENDBRANCH   5   6
ENDBRANCH   4   5
ENDBRANCH   3   4
ENDBRANCH   1   3
BRANCH   2  13
ATOM     13  C   UNL     1       9.038  -8.059  27.849  1.00  0.00     0.027 C 
BRANCH  13  14
ATOM     14  C   UNL     1       8.670  -6.771  27.099  1.00  0.00     0.004 C 
BRANCH  14  15
ATOM     15  C   UNL     1       9.882  -6.149  26.387  1.00  0.00     0.000 C 
BRANCH  15  16
ATOM     16  C   UNL     1       9.550  -5.816  24.928  1.00  0.00     0.000 C 
BRANCH  16  17
ATOM     17  C   UNL     1       8.031  -5.697  24.720  1.00  0.00    -0.000 C 
BRANCH  17  18
ATOM     18  C   UNL     1       7.619  -5.965  23.258  1.00  0.00    -0.000 C 
BRANCH  18  19
ATOM     19  C   UNL     1       6.297  -5.287  22.856  1.00  0.00    -0.003 C 
ATOM     20  C   UNL     1       6.255  -4.884  21.384  1.00  0.00     0.004 C 
ENDBRANCH  18  19
ENDBRANCH  17  18
ENDBRANCH  16  17
ENDBRANCH  15  16
ENDBRANCH  14  15
ENDBRANCH  13  14
ENDBRANCH   2  13
TORSDOF 15
ENDMDL
MODEL 6
REMARK VINA RESULT:    -4.355      2.279      4.186
REMARK INTER + INTRA:          -9.833
REMARK INTER:                  -7.950
REMARK INTRA:                  -1.883
REMARK UNBOUND:                -1.659
REMARK SMILES CCCCCCCCC=CCCCCCCCC(=O)[O-]
REMARK SMILES IDX 10 1 9 2 11 3 12 4 13 5 14 6 15 7 16 8 17 9 18 10 19 11
REMARK SMILES IDX 20 12 8 13 7 14 6 15 5 16 4 17 3 18 2 19 1 20
REMARK H PARENT
REMARK Flexibility Score: inf
ROOT
ATOM      1  C   UNL     1       5.355 -10.020  31.376  1.00  0.00    -0.031 C 
ATOM      2  C   UNL     1       6.420 -10.802  31.602  1.00  0.00    -0.031 C 
ENDROOT
BRANCH   1   3
ATOM      3  C   UNL     1       5.322  -9.039  30.236  1.00  0.00     0.027 C 
BRANCH   3   4
ATOM      4  C   UNL     1       6.695  -8.867  29.561  1.00  0.00     0.004 C 
BRANCH   4   5
ATOM      5  C   UNL     1       6.828  -7.582  28.724  1.00  0.00     0.000 C 
BRANCH   5   6
ATOM      6  C   UNL     1       8.110  -7.557  27.875  1.00  0.00     0.000 C 
BRANCH   6   7
ATOM      7  C   UNL     1       9.088  -8.682  28.251  1.00  0.00     0.000 C 
BRANCH   7   8
ATOM      8  C   UNL     1      10.535  -8.367  27.841  1.00  0.00     0.006 C 
BRANCH   8   9
ATOM      9  C   UNL     1      11.022  -9.337  26.761  1.00  0.00     0.053 C 
BRANCH   9  10
ATOM     10  C   UNL     1      11.157  -8.634  25.447  1.00  0.00     0.041 C 
ATOM     11  O   UNL     1      10.294  -7.791  25.088  1.00  0.00    -0.550 OA
ATOM     12  O   UNL     1      12.263  -8.874  24.641  1.00  0.00    -0.550 OA
ENDBRANCH   9  10
ENDBRANCH   8   9
ENDBRANCH   7   8
ENDBRANCH   6   7
ENDBRANCH   5   6
ENDBRANCH   4   5
ENDBRANCH   3   4
ENDBRANCH   1   3
BRANCH   2  13
ATOM     13  C   UNL     1       6.429 -11.772  32.754  1.00  0.00     0.027 C 
BRANCH  13  14
ATOM     14  C   UNL     1       6.850 -11.107  34.071  1.00  0.00     0.004 C 
BRANCH  14  15
ATOM     15  C   UNL     1       7.970 -10.077  33.868  1.00  0.00     0.000 C 
BRANCH  15  16
ATOM     16  C   UNL     1       9.343 -10.694  34.160  1.00  0.00     0.000 C 
BRANCH  16  17
ATOM     17  C   UNL     1      10.357 -10.329  33.064  1.00  0.00    -0.000 C 
BRANCH  17  18
ATOM     18  C   UNL     1       9.698  -9.592  31.879  1.00  0.00    -0.000 C 
BRANCH  18  19
ATOM     19  C   UNL     1      10.138  -8.125  31.743  1.00  0.00    -0.003 C 
ATOM     20  C   UNL     1      10.937  -7.626  32.945  1.00  0.00     0.004 C 
ENDBRANCH  18  19
ENDBRANCH  17  18
ENDBRANCH  16  17
ENDBRANCH  15  16
ENDBRANCH  14  15
ENDBRANCH  13  14
ENDBRANCH   2  13
TORSDOF 15
ENDMDL
MODEL 7
REMARK VINA RESULT:    -4.340      7.045      8.819
REMARK INTER + INTRA:          -9.804
REMARK INTER:                  -8.331
REMARK INTRA:                  -1.474
REMARK UNBOUND:                -1.659
REMARK SMILES CCCCCCCCC=CCCCCCCCC(=O)[O-]
REMARK SMILES IDX 10 1 9 2 11 3 12 4 13 5 14 6 15 7 16 8 17 9 18 10 19 11
REMARK SMILES IDX 20 12 8 13 7 14 6 15 5 16 4 17 3 18 2 19 1 20
REMARK H PARENT
REMARK Flexibility Score: inf
ROOT
ATOM      1  C   UNL     1      10.196  -5.933  25.593  1.00  0.00    -0.031 C 
ATOM      2  C   UNL     1       9.921  -7.201  25.258  1.00  0.00    -0.031 C 
ENDROOT
BRANCH   1   3
ATOM      3  C   UNL     1       9.481  -4.773  24.955  1.00  0.00     0.027 C 
BRANCH   3   4
ATOM      4  C   UNL     1      10.282  -3.461  25.042  1.00  0.00     0.004 C 
BRANCH   4   5
ATOM      5  C   UNL     1      11.784  -3.658  25.312  1.00  0.00     0.000 C 
BRANCH   5   6
ATOM      6  C   UNL     1      12.451  -2.403  25.899  1.00  0.00     0.000 C 
BRANCH   6   7
ATOM      7  C   UNL     1      11.524  -1.176  25.874  1.00  0.00     0.000 C 
BRANCH   7   8
ATOM      8  C   UNL     1      12.258   0.125  26.232  1.00  0.00     0.006 C 
BRANCH   8   9
ATOM      9  C   UNL     1      12.802   0.071  27.662  1.00  0.00     0.053 C 
BRANCH   9  10
ATOM     10  C   UNL     1      14.233   0.507  27.697  1.00  0.00     0.041 C 
ATOM     11  O   UNL     1      14.607   1.386  28.517  1.00  0.00    -0.550 OA
ATOM     12  O   UNL     1      15.163  -0.093  26.857  1.00  0.00    -0.550 OA
ENDBRANCH   9  10
ENDBRANCH   8   9
ENDBRANCH   7   8
ENDBRANCH   6   7
ENDBRANCH   5   6
ENDBRANCH   4   5
ENDBRANCH   3   4
ENDBRANCH   1   3
BRANCH   2  13
ATOM     13  C   UNL     1      10.655  -8.343  25.909  1.00  0.00     0.027 C 
BRANCH  13  14
ATOM     14  C   UNL     1      10.738  -8.189  27.433  1.00  0.00     0.004 C 
BRANCH  14  15
ATOM     15  C   UNL     1      10.069  -9.359  28.171  1.00  0.00     0.000 C 
BRANCH  15  16
ATOM     16  C   UNL     1       9.814  -9.007  29.641  1.00  0.00     0.000 C 
BRANCH  16  17
ATOM     17  C   UNL     1       8.412  -8.407  29.830  1.00  0.00    -0.000 C 
BRANCH  17  18
ATOM     18  C   UNL     1       7.471  -8.735  28.652  1.00  0.00    -0.000 C 
BRANCH  18  19
ATOM     19  C   UNL     1       6.461  -7.618  28.339  1.00  0.00    -0.003 C 
ATOM     20  C   UNL     1       7.067  -6.474  27.530  1.00  0.00     0.004 C 
ENDBRANCH  18  19
ENDBRANCH  17  18
ENDBRANCH  16  17
ENDBRANCH  15  16
ENDBRANCH  14  15
ENDBRANCH  13  14
ENDBRANCH   2  13
TORSDOF 15
ENDMDL
MODEL 8
REMARK VINA RESULT:    -4.285      1.296      2.443
REMARK INTER + INTRA:          -9.702
REMARK INTER:                  -8.376
REMARK INTRA:                  -1.326
REMARK UNBOUND:                -1.659
REMARK SMILES CCCCCCCCC=CCCCCCCCC(=O)[O-]
REMARK SMILES IDX 10 1 9 2 11 3 12 4 13 5 14 6 15 7 16 8 17 9 18 10 19 11
REMARK SMILES IDX 20 12 8 13 7 14 6 15 5 16 4 17 3 18 2 19 1 20
REMARK H PARENT
REMARK Flexibility Score: inf
ROOT
ATOM      1  C   UNL     1      10.038  -8.766  28.268  1.00  0.00    -0.031 C 
ATOM      2  C   UNL     1       9.905  -9.389  29.447  1.00  0.00    -0.031 C 
ENDROOT
BRANCH   1   3
ATOM      3  C   UNL     1      10.736  -9.416  27.104  1.00  0.00     0.027 C 
BRANCH   3   4
ATOM      4  C   UNL     1      11.475 -10.707  27.502  1.00  0.00     0.004 C 
BRANCH   4   5
ATOM      5  C   UNL     1      12.408 -11.260  26.409  1.00  0.00     0.000 C 
BRANCH   5   6
ATOM      6  C   UNL     1      12.185 -12.758  26.141  1.00  0.00     0.000 C 
BRANCH   6   7
ATOM      7  C   UNL     1      13.163 -13.322  25.097  1.00  0.00     0.000 C 
BRANCH   7   8
ATOM      8  C   UNL     1      12.916 -12.754  23.691  1.00  0.00     0.006 C 
BRANCH   8   9
ATOM      9  C   UNL     1      11.425 -12.780  23.344  1.00  0.00     0.053 C 
BRANCH   9  10
ATOM     10  C   UNL     1      11.014 -11.492  22.702  1.00  0.00     0.041 C 
ATOM     11  O   UNL     1      10.994 -10.428  23.375  1.00  0.00    -0.550 OA
ATOM     12  O   UNL     1      10.700 -11.458  21.350  1.00  0.00    -0.550 OA
ENDBRANCH   9  10
ENDBRANCH   8   9
ENDBRANCH   7   8
ENDBRANCH   6   7
ENDBRANCH   5   6
ENDBRANCH   4   5
ENDBRANCH   3   4
ENDBRANCH   1   3
BRANCH   2  13
ATOM     13  C   UNL     1       9.207  -8.714  30.598  1.00  0.00     0.027 C 
BRANCH  13  14
ATOM     14  C   UNL     1      10.193  -8.177  31.644  1.00  0.00     0.004 C 
BRANCH  14  15
ATOM     15  C   UNL     1       9.970  -8.806  33.027  1.00  0.00     0.000 C 
BRANCH  15  16
ATOM     16  C   UNL     1      10.634 -10.185  33.117  1.00  0.00     0.000 C 
BRANCH  16  17
ATOM     17  C   UNL     1       9.588 -11.289  33.340  1.00  0.00    -0.000 C 
BRANCH  17  18
ATOM     18  C   UNL     1       8.403 -10.806  34.201  1.00  0.00    -0.000 C 
BRANCH  18  19
ATOM     19  C   UNL     1       7.032 -11.264  33.676  1.00  0.00    -0.003 C 
ATOM     20  C   UNL     1       6.630 -10.577  32.373  1.00  0.00     0.004 C 
ENDBRANCH  18  19
ENDBRANCH  17  18
ENDBRANCH  16  17
ENDBRANCH  15  16
ENDBRANCH  14  15
ENDBRANCH  13  14
ENDBRANCH   2  13
TORSDOF 15
ENDMDL
MODEL 9
REMARK VINA RESULT:    -4.263      5.546      8.598
REMARK INTER + INTRA:          -9.660
REMARK INTER:                  -8.549
REMARK INTRA:                  -1.111
REMARK UNBOUND:                -1.659
REMARK SMILES CCCCCCCCC=CCCCCCCCC(=O)[O-]
REMARK SMILES IDX 10 1 9 2 11 3 12 4 13 5 14 6 15 7 16 8 17 9 18 10 19 11
REMARK SMILES IDX 20 12 8 13 7 14 6 15 5 16 4 17 3 18 2 19 1 20
REMARK H PARENT
REMARK Flexibility Score: inf
ROOT
ATOM      1  C   UNL     1      11.739 -10.271  26.051  1.00  0.00    -0.031 C 
ATOM      2  C   UNL     1      12.980 -10.635  26.403  1.00  0.00    -0.031 C 
ENDROOT
BRANCH   1   3
ATOM      3  C   UNL     1      10.922  -9.330  26.893  1.00  0.00     0.027 C 
BRANCH   3   4
ATOM      4  C   UNL     1      11.129  -7.854  26.506  1.00  0.00     0.004 C 
BRANCH   4   5
ATOM      5  C   UNL     1       9.836  -7.120  26.109  1.00  0.00     0.000 C 
BRANCH   5   6
ATOM      6  C   UNL     1      10.038  -5.603  25.957  1.00  0.00     0.000 C 
BRANCH   6   7
ATOM      7  C   UNL     1       9.131  -4.993  24.874  1.00  0.00     0.000 C 
BRANCH   7   8
ATOM      8  C   UNL     1       8.405  -6.062  24.043  1.00  0.00     0.006 C 
BRANCH   8   9
ATOM      9  C   UNL     1       6.941  -5.676  23.815  1.00  0.00     0.053 C 
BRANCH   9  10
ATOM     10  C   UNL     1       6.805  -4.840  22.581  1.00  0.00     0.041 C 
ATOM     11  O   UNL     1       6.797  -5.384  21.446  1.00  0.00    -0.550 OA
ATOM     12  O   UNL     1       6.636  -3.466  22.688  1.00  0.00    -0.550 OA
ENDBRANCH   9  10
ENDBRANCH   8   9
ENDBRANCH   7   8
ENDBRANCH   6   7
ENDBRANCH   5   6
ENDBRANCH   4   5
ENDBRANCH   3   4
ENDBRANCH   1   3
BRANCH   2  13
ATOM     13  C   UNL     1      13.775 -11.583  25.544  1.00  0.00     0.027 C 
BRANCH  13  14
ATOM     14  C   UNL     1      13.210 -13.010  25.575  1.00  0.00     0.004 C 
BRANCH  14  15
ATOM     15  C   UNL     1      12.804 -13.503  24.178  1.00  0.00     0.000 C 
BRANCH  15  16
ATOM     16  C   UNL     1      11.442 -12.930  23.768  1.00  0.00     0.000 C 
BRANCH  16  17
ATOM     17  C   UNL     1      11.493 -12.348  22.346  1.00  0.00    -0.000 C 
BRANCH  17  18
ATOM     18  C   UNL     1      10.719 -11.018  22.231  1.00  0.00    -0.000 C 
BRANCH  18  19
ATOM     19  C   UNL     1      10.253 -10.698  20.801  1.00  0.00    -0.003 C 
ATOM     20  C   UNL     1       8.738 -10.786  20.632  1.00  0.00     0.004 C 
ENDBRANCH  18  19
ENDBRANCH  17  18
ENDBRANCH  16  17
ENDBRANCH  15  16
ENDBRANCH  14  15
ENDBRANCH  13  14
ENDBRANCH   2  13
TORSDOF 15
ENDMDL
