MODEL 1
REMARK VINA RESULT:    -4.346      0.000      0.000
REMARK INTER + INTRA:         -12.524
REMARK INTER:                 -10.952
REMARK INTRA:                  -1.572
REMARK UNBOUND:                -1.572
REMARK SMILES CCCCCCCCCCCCCCCCCCCCCCCCCCCC(=O)[O-]
REMARK SMILES IDX 15 1 16 2 17 3 18 4 19 5 20 6 21 7 22 8 23 9 24 10 25 11
REMARK SMILES IDX 26 12 27 13 28 14 29 15 30 16 14 17 13 18 12 19 11 20 10 21
REMARK SMILES IDX 9 22 8 23 7 24 6 25 5 26 4 27 3 28 2 29 1 30
REMARK H PARENT
REMARK Flexibility Score: inf
ROOT
ATOM      1  C   UNL     1      65.767  44.687  57.008  1.00  0.00     0.000 C 
ENDROOT
BRANCH   1   2
ATOM      2  C   UNL     1      65.803  43.162  56.813  1.00  0.00     0.000 C 
BRANCH   2   3
ATOM      3  C   UNL     1      64.989  42.378  57.865  1.00  0.00     0.000 C 
BRANCH   3   4
ATOM      4  C   UNL     1      65.877  41.480  58.743  1.00  0.00     0.000 C 
BRANCH   4   5
ATOM      5  C   UNL     1      65.515  39.990  58.612  1.00  0.00     0.000 C 
BRANCH   5   6
ATOM      6  C   UNL     1      64.176  39.776  57.890  1.00  0.00     0.000 C 
BRANCH   6   7
ATOM      7  C   UNL     1      63.200  38.968  58.760  1.00  0.00     0.000 C 
BRANCH   7   8
ATOM      8  C   UNL     1      62.215  38.135  57.923  1.00  0.00     0.000 C 
BRANCH   8   9
ATOM      9  C   UNL     1      62.663  37.979  56.460  1.00  0.00     0.000 C 
BRANCH   9  10
ATOM     10  C   UNL     1      61.500  37.636  55.512  1.00  0.00     0.000 C 
BRANCH  10  11
ATOM     11  C   UNL     1      60.142  37.471  56.230  1.00  0.00     0.000 C 
BRANCH  11  12
ATOM     12  C   UNL     1      58.955  37.594  55.259  1.00  0.00     0.006 C 
BRANCH  12  13
ATOM     13  C   UNL     1      58.786  36.342  54.386  1.00  0.00     0.053 C 
BRANCH  13  14
ATOM     14  C   UNL     1      57.918  36.610  53.196  1.00  0.00     0.041 C 
ATOM     15  O   UNL     1      56.979  37.445  53.273  1.00  0.00    -0.550 OA
ATOM     16  O   UNL     1      58.171  35.968  51.989  1.00  0.00    -0.550 OA
ENDBRANCH  13  14
ENDBRANCH  12  13
ENDBRANCH  11  12
ENDBRANCH  10  11
ENDBRANCH   9  10
ENDBRANCH   8   9
ENDBRANCH   7   8
ENDBRANCH   6   7
ENDBRANCH   5   6
ENDBRANCH   4   5
ENDBRANCH   3   4
ENDBRANCH   2   3
ENDBRANCH   1   2
BRANCH   1  17
ATOM     17  C   UNL     1      64.845  45.122  58.154  1.00  0.00     0.000 C 
BRANCH  17  18
ATOM     18  C   UNL     1      65.208  46.531  58.644  1.00  0.00     0.000 C 
BRANCH  18  19
ATOM     19  C   UNL     1      66.334  47.181  57.820  1.00  0.00     0.000 C 
BRANCH  19  20
ATOM     20  C   UNL     1      66.504  48.701  58.023  1.00  0.00     0.000 C 
BRANCH  20  21
ATOM     21  C   UNL     1      67.949  49.221  57.913  1.00  0.00     0.000 C 
BRANCH  21  22
ATOM     22  C   UNL     1      68.493  49.185  56.479  1.00  0.00    -0.000 C 
BRANCH  22  23
ATOM     23  C   UNL     1      68.290  50.539  55.783  1.00  0.00    -0.000 C 
BRANCH  23  24
ATOM     24  C   UNL     1      69.136  50.703  54.503  1.00  0.00    -0.000 C 
BRANCH  24  25
ATOM     25  C   UNL     1      70.311  51.698  54.598  1.00  0.00    -0.000 C 
BRANCH  25  26
ATOM     26  C   UNL     1      69.986  53.142  54.153  1.00  0.00    -0.000 C 
BRANCH  26  27
ATOM     27  C   UNL     1      70.488  53.491  52.740  1.00  0.00    -0.000 C 
BRANCH  27  28
ATOM     28  C   UNL     1      71.297  52.381  52.041  1.00  0.00    -0.000 C 
BRANCH  28  29
ATOM     29  C   UNL     1      70.534  51.605  50.952  1.00  0.00    -0.003 C 
ATOM     30  C   UNL     1      69.135  52.163  50.688  1.00  0.00     0.004 C 
ENDBRANCH  28  29
ENDBRANCH  27  28
ENDBRANCH  26  27
ENDBRANCH  25  26
ENDBRANCH  24  25
ENDBRANCH  23  24
ENDBRANCH  22  23
ENDBRANCH  21  22
ENDBRANCH  20  21
ENDBRANCH  19  20
ENDBRANCH  18  19
ENDBRANCH  17  18
ENDBRANCH   1  17
TORSDOF 26
ENDMDL
MODEL 2
REMARK VINA RESULT:    -4.293      4.897     14.356
REMARK INTER + INTRA:         -12.389
REMARK INTER:                 -10.984
REMARK INTRA:                  -1.405
REMARK UNBOUND:                -1.572
REMARK SMILES CCCCCCCCCCCCCCCCCCCCCCCCCCCC(=O)[O-]
REMARK SMILES IDX 15 1 16 2 17 3 18 4 19 5 20 6 21 7 22 8 23 9 24 10 25 11
REMARK SMILES IDX 26 12 27 13 28 14 29 15 30 16 14 17 13 18 12 19 11 20 10 21
REMARK SMILES IDX 9 22 8 23 7 24 6 25 5 26 4 27 3 28 2 29 1 30
REMARK H PARENT
REMARK Flexibility Score: inf
ROOT
ATOM      1  C   UNL     1      65.178  46.583  58.869  1.00  0.00     0.000 C 
ENDROOT
BRANCH   1   2
ATOM      2  C   UNL     1      65.832  47.470  57.796  1.00  0.00     0.000 C 
BRANCH   2   3
ATOM      3  C   UNL     1      67.213  48.028  58.204  1.00  0.00     0.000 C 
BRANCH   3   4
ATOM      4  C   UNL     1      67.823  48.931  57.117  1.00  0.00     0.000 C 
BRANCH   4   5
ATOM      5  C   UNL     1      67.486  50.417  57.333  1.00  0.00     0.000 C 
BRANCH   5   6
ATOM      6  C   UNL     1      67.938  51.295  56.156  1.00  0.00     0.000 C 
BRANCH   6   7
ATOM      7  C   UNL     1      68.984  50.571  55.294  1.00  0.00     0.000 C 
BRANCH   7   8
ATOM      8  C   UNL     1      70.423  51.001  55.629  1.00  0.00     0.000 C 
BRANCH   8   9
ATOM      9  C   UNL     1      71.297  51.176  54.376  1.00  0.00     0.000 C 
BRANCH   9  10
ATOM     10  C   UNL     1      70.472  51.284  53.082  1.00  0.00     0.000 C 
BRANCH  10  11
ATOM     11  C   UNL     1      71.201  52.030  51.942  1.00  0.00     0.000 C 
BRANCH  11  12
ATOM     12  C   UNL     1      70.352  53.176  51.363  1.00  0.00     0.006 C 
BRANCH  12  13
ATOM     13  C   UNL     1      69.980  52.936  49.892  1.00  0.00     0.053 C 
BRANCH  13  14
ATOM     14  C   UNL     1      68.615  52.334  49.758  1.00  0.00     0.041 C 
ATOM     15  O   UNL     1      67.631  53.058  49.454  1.00  0.00    -0.550 OA
ATOM     16  O   UNL     1      68.436  50.966  49.929  1.00  0.00    -0.550 OA
ENDBRANCH  13  14
ENDBRANCH  12  13
ENDBRANCH  11  12
ENDBRANCH  10  11
ENDBRANCH   9  10
ENDBRANCH   8   9
ENDBRANCH   7   8
ENDBRANCH   6   7
ENDBRANCH   5   6
ENDBRANCH   4   5
ENDBRANCH   3   4
ENDBRANCH   2   3
ENDBRANCH   1   2
BRANCH   1  17
ATOM     17  C   UNL     1      64.994  45.131  58.414  1.00  0.00     0.000 C 
BRANCH  17  18
ATOM     18  C   UNL     1      65.713  44.879  57.081  1.00  0.00     0.000 C 
BRANCH  18  19
ATOM     19  C   UNL     1      65.863  43.383  56.754  1.00  0.00     0.000 C 
BRANCH  19  20
ATOM     20  C   UNL     1      65.189  42.420  57.755  1.00  0.00     0.000 C 
BRANCH  20  21
ATOM     21  C   UNL     1      66.119  41.363  58.379  1.00  0.00     0.000 C 
BRANCH  21  22
ATOM     22  C   UNL     1      65.463  39.981  58.500  1.00  0.00    -0.000 C 
BRANCH  22  23
ATOM     23  C   UNL     1      63.945  40.076  58.283  1.00  0.00    -0.000 C 
BRANCH  23  24
ATOM     24  C   UNL     1      63.192  38.781  58.652  1.00  0.00    -0.000 C 
BRANCH  24  25
ATOM     25  C   UNL     1      62.203  38.255  57.592  1.00  0.00    -0.000 C 
BRANCH  25  26
ATOM     26  C   UNL     1      60.839  37.783  58.145  1.00  0.00    -0.000 C 
BRANCH  26  27
ATOM     27  C   UNL     1      59.745  37.632  57.071  1.00  0.00    -0.000 C 
BRANCH  27  28
ATOM     28  C   UNL     1      60.260  37.563  55.620  1.00  0.00    -0.000 C 
BRANCH  28  29
ATOM     29  C   UNL     1      59.424  36.682  54.674  1.00  0.00    -0.003 C 
ATOM     30  C   UNL     1      58.002  37.204  54.469  1.00  0.00     0.004 C 
ENDBRANCH  28  29
ENDBRANCH  27  28
ENDBRANCH  26  27
ENDBRANCH  25  26
ENDBRANCH  24  25
ENDBRANCH  23  24
ENDBRANCH  22  23
ENDBRANCH  21  22
ENDBRANCH  20  21
ENDBRANCH  19  20
ENDBRANCH  18  19
ENDBRANCH  17  18
ENDBRANCH   1  17
TORSDOF 26
ENDMDL
MODEL 3
REMARK VINA RESULT:    -4.247      5.133     14.429
REMARK INTER + INTRA:         -12.273
REMARK INTER:                 -10.840
REMARK INTRA:                  -1.432
REMARK UNBOUND:                -1.572
REMARK SMILES CCCCCCCCCCCCCCCCCCCCCCCCCCCC(=O)[O-]
REMARK SMILES IDX 15 1 16 2 17 3 18 4 19 5 20 6 21 7 22 8 23 9 24 10 25 11
REMARK SMILES IDX 26 12 27 13 28 14 29 15 30 16 14 17 13 18 12 19 11 20 10 21
REMARK SMILES IDX 9 22 8 23 7 24 6 25 5 26 4 27 3 28 2 29 1 30
REMARK H PARENT
REMARK Flexibility Score: inf
ROOT
ATOM      1  C   UNL     1      65.759  44.611  56.902  1.00  0.00     0.000 C 
ENDROOT
BRANCH   1   2
ATOM      2  C   UNL     1      64.966  45.341  57.998  1.00  0.00     0.000 C 
BRANCH   2   3
ATOM      3  C   UNL     1      65.784  46.410  58.755  1.00  0.00     0.000 C 
BRANCH   3   4
ATOM      4  C   UNL     1      65.737  47.783  58.062  1.00  0.00     0.000 C 
BRANCH   4   5
ATOM      5  C   UNL     1      67.090  48.174  57.442  1.00  0.00     0.000 C 
BRANCH   5   6
ATOM      6  C   UNL     1      67.590  49.538  57.944  1.00  0.00     0.000 C 
BRANCH   6   7
ATOM      7  C   UNL     1      66.426  50.398  58.461  1.00  0.00     0.000 C 
BRANCH   7   8
ATOM      8  C   UNL     1      66.434  51.818  57.868  1.00  0.00     0.000 C 
BRANCH   8   9
ATOM      9  C   UNL     1      67.347  51.942  56.636  1.00  0.00     0.000 C 
BRANCH   9  10
ATOM     10  C   UNL     1      68.563  52.853  56.882  1.00  0.00     0.000 C 
BRANCH  10  11
ATOM     11  C   UNL     1      69.316  53.244  55.592  1.00  0.00     0.000 C 
BRANCH  11  12
ATOM     12  C   UNL     1      70.211  52.105  55.074  1.00  0.00     0.006 C 
BRANCH  12  13
ATOM     13  C   UNL     1      69.505  51.249  54.012  1.00  0.00     0.053 C 
BRANCH  13  14
ATOM     14  C   UNL     1      70.295  51.180  52.742  1.00  0.00     0.041 C 
ATOM     15  O   UNL     1      71.552  51.110  52.782  1.00  0.00    -0.550 OA
ATOM     16  O   UNL     1      69.643  51.151  51.514  1.00  0.00    -0.550 OA
ENDBRANCH  13  14
ENDBRANCH  12  13
ENDBRANCH  11  12
ENDBRANCH  10  11
ENDBRANCH   9  10
ENDBRANCH   8   9
ENDBRANCH   7   8
ENDBRANCH   6   7
ENDBRANCH   5   6
ENDBRANCH   4   5
ENDBRANCH   3   4
ENDBRANCH   2   3
ENDBRANCH   1   2
BRANCH   1  17
ATOM     17  C   UNL     1      65.518  43.097  56.897  1.00  0.00     0.000 C 
BRANCH  17  18
ATOM     18  C   UNL     1      65.398  42.557  58.330  1.00  0.00     0.000 C 
BRANCH  18  19
ATOM     19  C   UNL     1      66.384  41.413  58.624  1.00  0.00     0.000 C 
BRANCH  19  20
ATOM     20  C   UNL     1      65.734  40.073  59.030  1.00  0.00     0.000 C 
BRANCH  20  21
ATOM     21  C   UNL     1      64.202  40.015  58.889  1.00  0.00     0.000 C 
BRANCH  21  22
ATOM     22  C   UNL     1      63.740  39.148  57.711  1.00  0.00    -0.000 C 
BRANCH  22  23
ATOM     23  C   UNL     1      62.513  38.309  58.097  1.00  0.00    -0.000 C 
BRANCH  23  24
ATOM     24  C   UNL     1      61.923  37.507  56.918  1.00  0.00    -0.000 C 
BRANCH  24  25
ATOM     25  C   UNL     1      60.491  36.971  57.121  1.00  0.00    -0.000 C 
BRANCH  25  26
ATOM     26  C   UNL     1      59.363  37.994  56.856  1.00  0.00    -0.000 C 
BRANCH  26  27
ATOM     27  C   UNL     1      58.729  37.879  55.458  1.00  0.00    -0.000 C 
BRANCH  27  28
ATOM     28  C   UNL     1      58.940  36.525  54.754  1.00  0.00    -0.000 C 
BRANCH  28  29
ATOM     29  C   UNL     1      57.881  36.170  53.693  1.00  0.00    -0.003 C 
ATOM     30  C   UNL     1      57.136  37.393  53.159  1.00  0.00     0.004 C 
ENDBRANCH  28  29
ENDBRANCH  27  28
ENDBRANCH  26  27
ENDBRANCH  25  26
ENDBRANCH  24  25
ENDBRANCH  23  24
ENDBRANCH  22  23
ENDBRANCH  21  22
ENDBRANCH  20  21
ENDBRANCH  19  20
ENDBRANCH  18  19
ENDBRANCH  17  18
ENDBRANCH   1  17
TORSDOF 26
ENDMDL
MODEL 4
REMARK VINA RESULT:    -4.223      4.878     14.008
REMARK INTER + INTRA:         -12.213
REMARK INTER:                 -10.417
REMARK INTRA:                  -1.797
REMARK UNBOUND:                -1.572
REMARK SMILES CCCCCCCCCCCCCCCCCCCCCCCCCCCC(=O)[O-]
REMARK SMILES IDX 15 1 16 2 17 3 18 4 19 5 20 6 21 7 22 8 23 9 24 10 25 11
REMARK SMILES IDX 26 12 27 13 28 14 29 15 30 16 14 17 13 18 12 19 11 20 10 21
REMARK SMILES IDX 9 22 8 23 7 24 6 25 5 26 4 27 3 28 2 29 1 30
REMARK H PARENT
REMARK Flexibility Score: inf
ROOT
ATOM      1  C   UNL     1      65.788  44.219  56.758  1.00  0.00     0.000 C 
ENDROOT
BRANCH   1   2
ATOM      2  C   UNL     1      65.904  45.735  56.525  1.00  0.00     0.000 C 
BRANCH   2   3
ATOM      3  C   UNL     1      65.854  46.571  57.822  1.00  0.00     0.000 C 
BRANCH   3   4
ATOM      4  C   UNL     1      66.503  47.956  57.651  1.00  0.00     0.000 C 
BRANCH   4   5
ATOM      5  C   UNL     1      67.699  48.164  58.596  1.00  0.00     0.000 C 
BRANCH   5   6
ATOM      6  C   UNL     1      68.918  48.759  57.873  1.00  0.00     0.000 C 
BRANCH   6   7
ATOM      7  C   UNL     1      68.879  50.294  57.892  1.00  0.00     0.000 C 
BRANCH   7   8
ATOM      8  C   UNL     1      69.118  50.908  56.501  1.00  0.00     0.000 C 
BRANCH   8   9
ATOM      9  C   UNL     1      70.348  50.313  55.794  1.00  0.00     0.000 C 
BRANCH   9  10
ATOM     10  C   UNL     1      71.132  51.357  54.979  1.00  0.00     0.000 C 
BRANCH  10  11
ATOM     11  C   UNL     1      70.278  52.084  53.917  1.00  0.00     0.000 C 
BRANCH  11  12
ATOM     12  C   UNL     1      69.718  51.116  52.861  1.00  0.00     0.006 C 
BRANCH  12  13
ATOM     13  C   UNL     1      70.137  51.505  51.435  1.00  0.00     0.053 C 
BRANCH  13  14
ATOM     14  C   UNL     1      69.053  51.221  50.443  1.00  0.00     0.041 C 
ATOM     15  O   UNL     1      68.338  50.191  50.564  1.00  0.00    -0.550 OA
ATOM     16  O   UNL     1      68.804  52.113  49.406  1.00  0.00    -0.550 OA
ENDBRANCH  13  14
ENDBRANCH  12  13
ENDBRANCH  11  12
ENDBRANCH  10  11
ENDBRANCH   9  10
ENDBRANCH   8   9
ENDBRANCH   7   8
ENDBRANCH   6   7
ENDBRANCH   5   6
ENDBRANCH   4   5
ENDBRANCH   3   4
ENDBRANCH   2   3
ENDBRANCH   1   2
BRANCH   1  17
ATOM     17  C   UNL     1      65.220  43.867  58.137  1.00  0.00     0.000 C 
BRANCH  17  18
ATOM     18  C   UNL     1      66.118  42.850  58.856  1.00  0.00     0.000 C 
BRANCH  18  19
ATOM     19  C   UNL     1      66.710  41.795  57.905  1.00  0.00     0.000 C 
BRANCH  19  20
ATOM     20  C   UNL     1      66.069  40.394  57.996  1.00  0.00     0.000 C 
BRANCH  20  21
ATOM     21  C   UNL     1      64.572  40.378  58.357  1.00  0.00     0.000 C 
BRANCH  21  22
ATOM     22  C   UNL     1      64.085  39.005  58.840  1.00  0.00    -0.000 C 
BRANCH  22  23
ATOM     23  C   UNL     1      62.925  38.499  57.971  1.00  0.00    -0.000 C 
BRANCH  23  24
ATOM     24  C   UNL     1      63.320  38.264  56.498  1.00  0.00    -0.000 C 
BRANCH  24  25
ATOM     25  C   UNL     1      62.160  37.939  55.535  1.00  0.00    -0.000 C 
BRANCH  25  26
ATOM     26  C   UNL     1      61.212  36.813  56.007  1.00  0.00    -0.000 C 
BRANCH  26  27
ATOM     27  C   UNL     1      59.724  37.085  55.718  1.00  0.00    -0.000 C 
BRANCH  27  28
ATOM     28  C   UNL     1      59.158  38.368  56.357  1.00  0.00    -0.000 C 
BRANCH  28  29
ATOM     29  C   UNL     1      58.714  38.225  57.823  1.00  0.00    -0.003 C 
ATOM     30  C   UNL     1      59.518  39.103  58.782  1.00  0.00     0.004 C 
ENDBRANCH  28  29
ENDBRANCH  27  28
ENDBRANCH  26  27
ENDBRANCH  25  26
ENDBRANCH  24  25
ENDBRANCH  23  24
ENDBRANCH  22  23
ENDBRANCH  21  22
ENDBRANCH  20  21
ENDBRANCH  19  20
ENDBRANCH  18  19
ENDBRANCH  17  18
ENDBRANCH   1  17
TORSDOF 26
ENDMDL
MODEL 5
REMARK VINA RESULT:    -4.172     10.499     14.654
REMARK INTER + INTRA:         -12.085
REMARK INTER:                  -8.494
REMARK INTRA:                  -3.591
REMARK UNBOUND:                -1.572
REMARK SMILES CCCCCCCCCCCCCCCCCCCCCCCCCCCC(=O)[O-]
REMARK SMILES IDX 15 1 16 2 17 3 18 4 19 5 20 6 21 7 22 8 23 9 24 10 25 11
REMARK SMILES IDX 26 12 27 13 28 14 29 15 30 16 14 17 13 18 12 19 11 20 10 21
REMARK SMILES IDX 9 22 8 23 7 24 6 25 5 26 4 27 3 28 2 29 1 30
REMARK H PARENT
REMARK Flexibility Score: inf
ROOT
ATOM      1  C   UNL     1      70.872  51.352  52.153  1.00  0.00     0.000 C 
ENDROOT
BRANCH   1   2
ATOM      2  C   UNL     1      69.357  51.095  52.200  1.00  0.00     0.000 C 
BRANCH   2   3
ATOM      3  C   UNL     1      68.760  50.632  50.854  1.00  0.00     0.000 C 
BRANCH   3   4
ATOM      4  C   UNL     1      69.017  51.642  49.721  1.00  0.00     0.000 C 
BRANCH   4   5
ATOM      5  C   UNL     1      68.013  52.809  49.737  1.00  0.00     0.000 C 
BRANCH   5   6
ATOM      6  C   UNL     1      68.631  54.117  49.220  1.00  0.00     0.000 C 
BRANCH   6   7
ATOM      7  C   UNL     1      70.081  53.902  48.761  1.00  0.00     0.000 C 
BRANCH   7   8
ATOM      8  C   UNL     1      70.365  54.533  47.387  1.00  0.00     0.000 C 
BRANCH   8   9
ATOM      9  C   UNL     1      69.476  53.956  46.273  1.00  0.00     0.000 C 
BRANCH   9  10
ATOM     10  C   UNL     1      70.134  54.033  44.884  1.00  0.00     0.000 C 
BRANCH  10  11
ATOM     11  C   UNL     1      69.164  53.729  43.721  1.00  0.00     0.000 C 
BRANCH  11  12
ATOM     12  C   UNL     1      69.863  53.005  42.557  1.00  0.00     0.006 C 
BRANCH  12  13
ATOM     13  C   UNL     1      68.960  51.947  41.905  1.00  0.00     0.053 C 
BRANCH  13  14
ATOM     14  C   UNL     1      69.726  51.068  40.966  1.00  0.00     0.041 C 
ATOM     15  O   UNL     1      69.235  50.754  39.851  1.00  0.00    -0.550 OA
ATOM     16  O   UNL     1      71.001  50.628  41.306  1.00  0.00    -0.550 OA
ENDBRANCH  13  14
ENDBRANCH  12  13
ENDBRANCH  11  12
ENDBRANCH  10  11
ENDBRANCH   9  10
ENDBRANCH   8   9
ENDBRANCH   7   8
ENDBRANCH   6   7
ENDBRANCH   5   6
ENDBRANCH   4   5
ENDBRANCH   3   4
ENDBRANCH   2   3
ENDBRANCH   1   2
BRANCH   1  17
ATOM     17  C   UNL     1      71.235  52.828  52.360  1.00  0.00     0.000 C 
BRANCH  17  18
ATOM     18  C   UNL     1      69.995  53.649  52.738  1.00  0.00     0.000 C 
BRANCH  18  19
ATOM     19  C   UNL     1      70.226  54.558  53.959  1.00  0.00     0.000 C 
BRANCH  19  20
ATOM     20  C   UNL     1      69.224  54.371  55.117  1.00  0.00     0.000 C 
BRANCH  20  21
ATOM     21  C   UNL     1      69.697  53.445  56.253  1.00  0.00     0.000 C 
BRANCH  21  22
ATOM     22  C   UNL     1      71.190  53.603  56.575  1.00  0.00    -0.000 C 
BRANCH  22  23
ATOM     23  C   UNL     1      71.827  52.244  56.900  1.00  0.00    -0.000 C 
BRANCH  23  24
ATOM     24  C   UNL     1      71.787  51.251  55.719  1.00  0.00    -0.000 C 
BRANCH  24  25
ATOM     25  C   UNL     1      72.619  49.965  55.896  1.00  0.00    -0.000 C 
BRANCH  25  26
ATOM     26  C   UNL     1      72.236  49.098  57.117  1.00  0.00    -0.000 C 
BRANCH  26  27
ATOM     27  C   UNL     1      70.754  48.682  57.150  1.00  0.00    -0.000 C 
BRANCH  27  28
ATOM     28  C   UNL     1      69.925  49.308  58.289  1.00  0.00    -0.000 C 
BRANCH  28  29
ATOM     29  C   UNL     1      68.738  50.173  57.831  1.00  0.00    -0.003 C 
ATOM     30  C   UNL     1      68.346  49.929  56.373  1.00  0.00     0.004 C 
ENDBRANCH  28  29
ENDBRANCH  27  28
ENDBRANCH  26  27
ENDBRANCH  25  26
ENDBRANCH  24  25
ENDBRANCH  23  24
ENDBRANCH  22  23
ENDBRANCH  21  22
ENDBRANCH  20  21
ENDBRANCH  19  20
ENDBRANCH  18  19
ENDBRANCH  17  18
ENDBRANCH   1  17
TORSDOF 26
ENDMDL
MODEL 6
REMARK VINA RESULT:    -4.156      1.869      2.980
REMARK INTER + INTRA:         -12.045
REMARK INTER:                 -10.275
REMARK INTRA:                  -1.771
REMARK UNBOUND:                -1.572
REMARK SMILES CCCCCCCCCCCCCCCCCCCCCCCCCCCC(=O)[O-]
REMARK SMILES IDX 15 1 16 2 17 3 18 4 19 5 20 6 21 7 22 8 23 9 24 10 25 11
REMARK SMILES IDX 26 12 27 13 28 14 29 15 30 16 14 17 13 18 12 19 11 20 10 21
REMARK SMILES IDX 9 22 8 23 7 24 6 25 5 26 4 27 3 28 2 29 1 30
REMARK H PARENT
REMARK Flexibility Score: inf
ROOT
ATOM      1  C   UNL     1      65.881  46.556  57.606  1.00  0.00     0.000 C 
ENDROOT
BRANCH   1   2
ATOM      2  C   UNL     1      65.362  45.637  58.724  1.00  0.00     0.000 C 
BRANCH   2   3
ATOM      3  C   UNL     1      64.946  44.233  58.237  1.00  0.00     0.000 C 
BRANCH   3   4
ATOM      4  C   UNL     1      65.724  43.794  56.984  1.00  0.00     0.000 C 
BRANCH   4   5
ATOM      5  C   UNL     1      66.666  42.610  57.264  1.00  0.00     0.000 C 
BRANCH   5   6
ATOM      6  C   UNL     1      66.595  42.140  58.725  1.00  0.00     0.000 C 
BRANCH   6   7
ATOM      7  C   UNL     1      66.174  40.665  58.813  1.00  0.00     0.000 C 
BRANCH   7   8
ATOM      8  C   UNL     1      64.729  40.435  58.337  1.00  0.00     0.000 C 
BRANCH   8   9
ATOM      9  C   UNL     1      64.495  39.006  57.820  1.00  0.00     0.000 C 
BRANCH   9  10
ATOM     10  C   UNL     1      63.003  38.666  57.655  1.00  0.00     0.000 C 
BRANCH  10  11
ATOM     11  C   UNL     1      62.653  38.056  56.280  1.00  0.00     0.000 C 
BRANCH  11  12
ATOM     12  C   UNL     1      61.519  37.022  56.376  1.00  0.00     0.006 C 
BRANCH  12  13
ATOM     13  C   UNL     1      60.174  37.588  55.897  1.00  0.00     0.053 C 
BRANCH  13  14
ATOM     14  C   UNL     1      59.316  38.023  57.044  1.00  0.00     0.041 C 
ATOM     15  O   UNL     1      58.474  38.946  56.890  1.00  0.00    -0.550 OA
ATOM     16  O   UNL     1      59.418  37.384  58.275  1.00  0.00    -0.550 OA
ENDBRANCH  13  14
ENDBRANCH  12  13
ENDBRANCH  11  12
ENDBRANCH  10  11
ENDBRANCH   9  10
ENDBRANCH   8   9
ENDBRANCH   7   8
ENDBRANCH   6   7
ENDBRANCH   5   6
ENDBRANCH   4   5
ENDBRANCH   3   4
ENDBRANCH   2   3
ENDBRANCH   1   2
BRANCH   1  17
ATOM     17  C   UNL     1      65.885  48.037  58.001  1.00  0.00     0.000 C 
BRANCH  17  18
ATOM     18  C   UNL     1      67.305  48.617  57.939  1.00  0.00     0.000 C 
BRANCH  18  19
ATOM     19  C   UNL     1      67.421  49.994  58.616  1.00  0.00     0.000 C 
BRANCH  19  20
ATOM     20  C   UNL     1      66.180  50.900  58.479  1.00  0.00     0.000 C 
BRANCH  20  21
ATOM     21  C   UNL     1      66.381  52.167  57.628  1.00  0.00     0.000 C 
BRANCH  21  22
ATOM     22  C   UNL     1      67.262  51.928  56.394  1.00  0.00    -0.000 C 
BRANCH  22  23
ATOM     23  C   UNL     1      68.532  52.790  56.454  1.00  0.00    -0.000 C 
BRANCH  23  24
ATOM     24  C   UNL     1      69.835  51.963  56.418  1.00  0.00    -0.000 C 
BRANCH  24  25
ATOM     25  C   UNL     1      69.947  50.936  55.273  1.00  0.00    -0.000 C 
BRANCH  25  26
ATOM     26  C   UNL     1      71.083  51.205  54.260  1.00  0.00    -0.000 C 
BRANCH  26  27
ATOM     27  C   UNL     1      70.861  52.453  53.386  1.00  0.00    -0.000 C 
BRANCH  27  28
ATOM     28  C   UNL     1      70.017  52.221  52.117  1.00  0.00    -0.000 C 
BRANCH  28  29
ATOM     29  C   UNL     1      69.299  50.861  52.053  1.00  0.00    -0.003 C 
ATOM     30  C   UNL     1      68.571  50.629  50.728  1.00  0.00     0.004 C 
ENDBRANCH  28  29
ENDBRANCH  27  28
ENDBRANCH  26  27
ENDBRANCH  25  26
ENDBRANCH  24  25
ENDBRANCH  23  24
ENDBRANCH  22  23
ENDBRANCH  21  22
ENDBRANCH  20  21
ENDBRANCH  19  20
ENDBRANCH  18  19
ENDBRANCH  17  18
ENDBRANCH   1  17
TORSDOF 26
ENDMDL
MODEL 7
REMARK VINA RESULT:    -4.136     10.145     15.416
REMARK INTER + INTRA:         -11.994
REMARK INTER:                  -9.919
REMARK INTRA:                  -2.076
REMARK UNBOUND:                -1.572
REMARK SMILES CCCCCCCCCCCCCCCCCCCCCCCCCCCC(=O)[O-]
REMARK SMILES IDX 15 1 16 2 17 3 18 4 19 5 20 6 21 7 22 8 23 9 24 10 25 11
REMARK SMILES IDX 26 12 27 13 28 14 29 15 30 16 14 17 13 18 12 19 11 20 10 21
REMARK SMILES IDX 9 22 8 23 7 24 6 25 5 26 4 27 3 28 2 29 1 30
REMARK H PARENT
REMARK Flexibility Score: inf
ROOT
ATOM      1  C   UNL     1      68.389  51.738  49.746  1.00  0.00     0.000 C 
ENDROOT
BRANCH   1   2
ATOM      2  C   UNL     1      68.444  53.249  49.468  1.00  0.00     0.000 C 
BRANCH   2   3
ATOM      3  C   UNL     1      69.239  53.622  48.199  1.00  0.00     0.000 C 
BRANCH   3   4
ATOM      4  C   UNL     1      68.611  54.804  47.439  1.00  0.00     0.000 C 
BRANCH   4   5
ATOM      5  C   UNL     1      67.074  54.738  47.421  1.00  0.00     0.000 C 
BRANCH   5   6
ATOM      6  C   UNL     1      66.507  54.754  45.993  1.00  0.00     0.000 C 
BRANCH   6   7
ATOM      7  C   UNL     1      67.627  54.909  44.953  1.00  0.00     0.000 C 
BRANCH   7   8
ATOM      8  C   UNL     1      67.395  54.043  43.703  1.00  0.00     0.000 C 
BRANCH   8   9
ATOM      9  C   UNL     1      68.227  52.749  43.713  1.00  0.00     0.000 C 
BRANCH   9  10
ATOM     10  C   UNL     1      68.627  52.284  42.302  1.00  0.00     0.000 C 
BRANCH  10  11
ATOM     11  C   UNL     1      70.066  52.679  41.903  1.00  0.00     0.000 C 
BRANCH  11  12
ATOM     12  C   UNL     1      70.528  51.969  40.619  1.00  0.00     0.006 C 
BRANCH  12  13
ATOM     13  C   UNL     1      70.824  50.480  40.854  1.00  0.00     0.053 C 
BRANCH  13  14
ATOM     14  C   UNL     1      70.311  49.631  39.732  1.00  0.00     0.041 C 
ATOM     15  O   UNL     1      70.919  48.577  39.408  1.00  0.00    -0.550 OA
ATOM     16  O   UNL     1      69.139  49.980  39.070  1.00  0.00    -0.550 OA
ENDBRANCH  13  14
ENDBRANCH  12  13
ENDBRANCH  11  12
ENDBRANCH  10  11
ENDBRANCH   9  10
ENDBRANCH   8   9
ENDBRANCH   7   8
ENDBRANCH   6   7
ENDBRANCH   5   6
ENDBRANCH   4   5
ENDBRANCH   3   4
ENDBRANCH   2   3
ENDBRANCH   1   2
BRANCH   1  17
ATOM     17  C   UNL     1      69.259  51.317  50.936  1.00  0.00     0.000 C 
BRANCH  17  18
ATOM     18  C   UNL     1      70.719  51.742  50.724  1.00  0.00     0.000 C 
BRANCH  18  19
ATOM     19  C   UNL     1      71.407  52.196  52.024  1.00  0.00     0.000 C 
BRANCH  19  20
ATOM     20  C   UNL     1      71.027  51.391  53.284  1.00  0.00     0.000 C 
BRANCH  20  21
ATOM     21  C   UNL     1      70.730  52.233  54.538  1.00  0.00     0.000 C 
BRANCH  21  22
ATOM     22  C   UNL     1      71.423  51.699  55.799  1.00  0.00    -0.000 C 
BRANCH  22  23
ATOM     23  C   UNL     1      72.254  50.448  55.478  1.00  0.00    -0.000 C 
BRANCH  23  24
ATOM     24  C   UNL     1      73.215  50.042  56.615  1.00  0.00    -0.000 C 
BRANCH  24  25
ATOM     25  C   UNL     1      72.563  49.357  57.833  1.00  0.00    -0.000 C 
BRANCH  25  26
ATOM     26  C   UNL     1      71.357  48.447  57.506  1.00  0.00    -0.000 C 
BRANCH  26  27
ATOM     27  C   UNL     1      69.996  49.039  57.916  1.00  0.00    -0.000 C 
BRANCH  27  28
ATOM     28  C   UNL     1      68.888  48.928  56.851  1.00  0.00    -0.000 C 
BRANCH  28  29
ATOM     29  C   UNL     1      67.644  49.797  57.112  1.00  0.00    -0.003 C 
ATOM     30  C   UNL     1      67.776  51.214  56.553  1.00  0.00     0.004 C 
ENDBRANCH  28  29
ENDBRANCH  27  28
ENDBRANCH  26  27
ENDBRANCH  25  26
ENDBRANCH  24  25
ENDBRANCH  23  24
ENDBRANCH  22  23
ENDBRANCH  21  22
ENDBRANCH  20  21
ENDBRANCH  19  20
ENDBRANCH  18  19
ENDBRANCH  17  18
ENDBRANCH   1  17
TORSDOF 26
ENDMDL
MODEL 8
REMARK VINA RESULT:    -4.078      9.809     13.206
REMARK INTER + INTRA:         -11.849
REMARK INTER:                  -7.411
REMARK INTRA:                  -4.439
REMARK UNBOUND:                -1.572
REMARK SMILES CCCCCCCCCCCCCCCCCCCCCCCCCCCC(=O)[O-]
REMARK SMILES IDX 15 1 16 2 17 3 18 4 19 5 20 6 21 7 22 8 23 9 24 10 25 11
REMARK SMILES IDX 26 12 27 13 28 14 29 15 30 16 14 17 13 18 12 19 11 20 10 21
REMARK SMILES IDX 9 22 8 23 7 24 6 25 5 26 4 27 3 28 2 29 1 30
REMARK H PARENT
REMARK Flexibility Score: inf
ROOT
ATOM      1  C   UNL     1      68.362  48.978  56.391  1.00  0.00     0.000 C 
ENDROOT
BRANCH   1   2
ATOM      2  C   UNL     1      69.111  50.268  56.016  1.00  0.00     0.000 C 
BRANCH   2   3
ATOM      3  C   UNL     1      68.812  50.772  54.588  1.00  0.00     0.000 C 
BRANCH   3   4
ATOM      4  C   UNL     1      70.094  51.010  53.771  1.00  0.00     0.000 C 
BRANCH   4   5
ATOM      5  C   UNL     1      70.359  52.505  53.518  1.00  0.00     0.000 C 
BRANCH   5   6
ATOM      6  C   UNL     1      70.720  52.794  52.053  1.00  0.00     0.000 C 
BRANCH   6   7
ATOM      7  C   UNL     1      70.562  51.537  51.185  1.00  0.00     0.000 C 
BRANCH   7   8
ATOM      8  C   UNL     1      69.490  51.705  50.094  1.00  0.00     0.000 C 
BRANCH   8   9
ATOM      9  C   UNL     1      68.591  52.930  50.328  1.00  0.00     0.000 C 
BRANCH   9  10
ATOM     10  C   UNL     1      68.294  53.710  49.036  1.00  0.00     0.000 C 
BRANCH  10  11
ATOM     11  C   UNL     1      69.420  53.616  47.982  1.00  0.00     0.000 C 
BRANCH  11  12
ATOM     12  C   UNL     1      69.393  54.798  46.997  1.00  0.00     0.006 C 
BRANCH  12  13
ATOM     13  C   UNL     1      68.481  54.528  45.791  1.00  0.00     0.053 C 
BRANCH  13  14
ATOM     14  C   UNL     1      69.211  53.814  44.695  1.00  0.00     0.041 C 
ATOM     15  O   UNL     1      70.469  53.822  44.663  1.00  0.00    -0.550 OA
ATOM     16  O   UNL     1      68.503  53.106  43.730  1.00  0.00    -0.550 OA
ENDBRANCH  13  14
ENDBRANCH  12  13
ENDBRANCH  11  12
ENDBRANCH  10  11
ENDBRANCH   9  10
ENDBRANCH   8   9
ENDBRANCH   7   8
ENDBRANCH   6   7
ENDBRANCH   5   6
ENDBRANCH   4   5
ENDBRANCH   3   4
ENDBRANCH   2   3
ENDBRANCH   1   2
BRANCH   1  17
ATOM     17  C   UNL     1      68.121  48.843  57.899  1.00  0.00     0.000 C 
BRANCH  17  18
ATOM     18  C   UNL     1      69.286  49.446  58.696  1.00  0.00     0.000 C 
BRANCH  18  19
ATOM     19  C   UNL     1      70.345  48.403  59.093  1.00  0.00     0.000 C 
BRANCH  19  20
ATOM     20  C   UNL     1      71.796  48.757  58.704  1.00  0.00     0.000 C 
BRANCH  20  21
ATOM     21  C   UNL     1      72.174  48.466  57.240  1.00  0.00     0.000 C 
BRANCH  21  22
ATOM     22  C   UNL     1      72.568  49.728  56.459  1.00  0.00    -0.000 C 
BRANCH  22  23
ATOM     23  C   UNL     1      72.792  50.912  57.411  1.00  0.00    -0.000 C 
BRANCH  23  24
ATOM     24  C   UNL     1      72.194  52.236  56.892  1.00  0.00    -0.000 C 
BRANCH  24  25
ATOM     25  C   UNL     1      70.917  52.722  57.609  1.00  0.00    -0.000 C 
BRANCH  25  26
ATOM     26  C   UNL     1      70.138  53.838  56.876  1.00  0.00    -0.000 C 
BRANCH  26  27
ATOM     27  C   UNL     1      68.699  54.036  57.385  1.00  0.00    -0.000 C 
BRANCH  27  28
ATOM     28  C   UNL     1      68.217  52.988  58.408  1.00  0.00    -0.000 C 
BRANCH  28  29
ATOM     29  C   UNL     1      66.870  52.323  58.074  1.00  0.00    -0.003 C 
ATOM     30  C   UNL     1      66.308  52.755  56.719  1.00  0.00     0.004 C 
ENDBRANCH  28  29
ENDBRANCH  27  28
ENDBRANCH  26  27
ENDBRANCH  25  26
ENDBRANCH  24  25
ENDBRANCH  23  24
ENDBRANCH  22  23
ENDBRANCH  21  22
ENDBRANCH  20  21
ENDBRANCH  19  20
ENDBRANCH  18  19
ENDBRANCH  17  18
ENDBRANCH   1  17
TORSDOF 26
ENDMDL
MODEL 9
REMARK VINA RESULT:    -4.055      5.655     11.281
REMARK INTER + INTRA:         -11.789
REMARK INTER:                 -10.175
REMARK INTRA:                  -1.614
REMARK UNBOUND:                -1.572
REMARK SMILES CCCCCCCCCCCCCCCCCCCCCCCCCCCC(=O)[O-]
REMARK SMILES IDX 15 1 16 2 17 3 18 4 19 5 20 6 21 7 22 8 23 9 24 10 25 11
REMARK SMILES IDX 26 12 27 13 28 14 29 15 30 16 14 17 13 18 12 19 11 20 10 21
REMARK SMILES IDX 9 22 8 23 7 24 6 25 5 26 4 27 3 28 2 29 1 30
REMARK H PARENT
REMARK Flexibility Score: inf
ROOT
ATOM      1  C   UNL     1      71.287  52.077  52.428  1.00  0.00     0.000 C 
ENDROOT
BRANCH   1   2
ATOM      2  C   UNL     1      70.507  52.280  53.738  1.00  0.00     0.000 C 
BRANCH   2   3
ATOM      3  C   UNL     1      69.652  51.063  54.150  1.00  0.00     0.000 C 
BRANCH   3   4
ATOM      4  C   UNL     1      68.898  51.297  55.471  1.00  0.00     0.000 C 
BRANCH   4   5
ATOM      5  C   UNL     1      69.815  51.164  56.700  1.00  0.00     0.000 C 
BRANCH   5   6
ATOM      6  C   UNL     1      70.821  50.011  56.556  1.00  0.00     0.000 C 
BRANCH   6   7
ATOM      7  C   UNL     1      70.447  48.832  57.467  1.00  0.00     0.000 C 
BRANCH   7   8
ATOM      8  C   UNL     1      69.513  49.248  58.616  1.00  0.00     0.000 C 
BRANCH   8   9
ATOM      9  C   UNL     1      68.283  48.333  58.742  1.00  0.00     0.000 C 
BRANCH   9  10
ATOM     10  C   UNL     1      67.349  48.415  57.522  1.00  0.00     0.000 C 
BRANCH  10  11
ATOM     11  C   UNL     1      65.974  47.749  57.747  1.00  0.00     0.000 C 
BRANCH  11  12
ATOM     12  C   UNL     1      66.071  46.505  58.647  1.00  0.00     0.006 C 
BRANCH  12  13
ATOM     13  C   UNL     1      64.935  45.507  58.382  1.00  0.00     0.053 C 
BRANCH  13  14
ATOM     14  C   UNL     1      65.381  44.382  57.500  1.00  0.00     0.041 C 
ATOM     15  O   UNL     1      65.346  43.196  57.919  1.00  0.00    -0.550 OA
ATOM     16  O   UNL     1      65.798  44.639  56.198  1.00  0.00    -0.550 OA
ENDBRANCH  13  14
ENDBRANCH  12  13
ENDBRANCH  11  12
ENDBRANCH  10  11
ENDBRANCH   9  10
ENDBRANCH   8   9
ENDBRANCH   7   8
ENDBRANCH   6   7
ENDBRANCH   5   6
ENDBRANCH   4   5
ENDBRANCH   3   4
ENDBRANCH   2   3
ENDBRANCH   1   2
BRANCH   1  17
ATOM     17  C   UNL     1      70.575  52.676  51.209  1.00  0.00     0.000 C 
BRANCH  17  18
ATOM     18  C   UNL     1      69.890  51.580  50.381  1.00  0.00     0.000 C 
BRANCH  18  19
ATOM     19  C   UNL     1      68.987  52.143  49.269  1.00  0.00     0.000 C 
BRANCH  19  20
ATOM     20  C   UNL     1      68.015  53.256  49.713  1.00  0.00     0.000 C 
BRANCH  20  21
ATOM     21  C   UNL     1      67.568  54.222  48.600  1.00  0.00     0.000 C 
BRANCH  21  22
ATOM     22  C   UNL     1      68.689  54.550  47.604  1.00  0.00    -0.000 C 
BRANCH  22  23
ATOM     23  C   UNL     1      68.150  54.589  46.167  1.00  0.00    -0.000 C 
BRANCH  23  24
ATOM     24  C   UNL     1      69.258  54.533  45.095  1.00  0.00    -0.000 C 
BRANCH  24  25
ATOM     25  C   UNL     1      68.797  54.164  43.670  1.00  0.00    -0.000 C 
BRANCH  25  26
ATOM     26  C   UNL     1      69.888  53.550  42.765  1.00  0.00    -0.000 C 
BRANCH  26  27
ATOM     27  C   UNL     1      69.404  52.359  41.918  1.00  0.00    -0.000 C 
BRANCH  27  28
ATOM     28  C   UNL     1      70.386  51.890  40.827  1.00  0.00    -0.000 C 
BRANCH  28  29
ATOM     29  C   UNL     1      70.951  50.472  41.026  1.00  0.00    -0.003 C 
ATOM     30  C   UNL     1      70.685  49.548  39.837  1.00  0.00     0.004 C 
ENDBRANCH  28  29
ENDBRANCH  27  28
ENDBRANCH  26  27
ENDBRANCH  25  26
ENDBRANCH  24  25
ENDBRANCH  23  24
ENDBRANCH  22  23
ENDBRANCH  21  22
ENDBRANCH  20  21
ENDBRANCH  19  20
ENDBRANCH  18  19
ENDBRANCH  17  18
ENDBRANCH   1  17
TORSDOF 26
ENDMDL
