MODEL 1
REMARK VINA RESULT:    -3.789      0.000      0.000
REMARK INTER + INTRA:          -7.692
REMARK INTER:                  -6.889
REMARK INTRA:                  -0.803
REMARK UNBOUND:                -0.803
REMARK SMILES CCCCCCCCCCCCCC[C@@H](C)C(=O)[O-]
REMARK SMILES IDX 9 1 10 2 11 3 12 4 13 5 14 6 15 7 16 8 17 9 18 10 19 11 8 12
REMARK SMILES IDX 7 13 6 14 5 15 4 16 3 17 2 18 1 19
REMARK H PARENT
REMARK Flexibility Score: inf
ROOT
ATOM      1  C   UNL     1      -2.421 -50.575   1.526  1.00  0.00     0.000 C 
ENDROOT
BRANCH   1   2
ATOM      2  C   UNL     1      -2.245 -51.877   2.331  1.00  0.00     0.000 C 
BRANCH   2   3
ATOM      3  C   UNL     1      -1.530 -51.712   3.685  1.00  0.00     0.000 C 
BRANCH   3   4
ATOM      4  C   UNL     1      -2.459 -51.958   4.883  1.00  0.00     0.000 C 
BRANCH   4   5
ATOM      5  C   UNL     1      -1.706 -51.761   6.208  1.00  0.00     0.001 C 
BRANCH   5   6
ATOM      6  C   UNL     1      -2.554 -51.042   7.276  1.00  0.00     0.009 C 
BRANCH   6   7
ATOM      7  C   UNL     1      -3.428 -51.985   8.133  1.00  0.00     0.032 C 
ATOM      8  C   UNL     1      -3.188 -51.728   9.625  1.00  0.00     0.014 C 
BRANCH   7   9
ATOM      9  C   UNL     1      -4.891 -51.829   7.814  1.00  0.00     0.044 C 
ATOM     10  O   UNL     1      -5.317 -52.034   6.646  1.00  0.00    -0.550 OA
ATOM     11  O   UNL     1      -5.782 -51.462   8.814  1.00  0.00    -0.550 OA
ENDBRANCH   7   9
ENDBRANCH   6   7
ENDBRANCH   5   6
ENDBRANCH   4   5
ENDBRANCH   3   4
ENDBRANCH   2   3
ENDBRANCH   1   2
BRANCH   1  12
ATOM     12  C   UNL     1      -3.440 -50.650   0.371  1.00  0.00     0.000 C 
BRANCH  12  13
ATOM     13  C   UNL     1      -4.555 -51.698   0.548  1.00  0.00    -0.000 C 
BRANCH  13  14
ATOM     14  C   UNL     1      -5.965 -51.096   0.431  1.00  0.00    -0.000 C 
BRANCH  14  15
ATOM     15  C   UNL     1      -7.081 -52.125   0.692  1.00  0.00    -0.000 C 
BRANCH  15  16
ATOM     16  C   UNL     1      -7.917 -51.883   1.962  1.00  0.00    -0.000 C 
BRANCH  16  17
ATOM     17  C   UNL     1      -8.739 -50.584   1.903  1.00  0.00    -0.000 C 
BRANCH  17  18
ATOM     18  C   UNL     1      -9.125 -50.068   3.299  1.00  0.00    -0.003 C 
ATOM     19  C   UNL     1      -8.575 -50.941   4.427  1.00  0.00     0.004 C 
ENDBRANCH  17  18
ENDBRANCH  16  17
ENDBRANCH  15  16
ENDBRANCH  14  15
ENDBRANCH  13  14
ENDBRANCH  12  13
ENDBRANCH   1  12
TORSDOF 14
ENDMDL
MODEL 2
REMARK VINA RESULT:    -3.734      1.540      5.996
REMARK INTER + INTRA:          -7.592
REMARK INTER:                  -6.624
REMARK INTRA:                  -0.968
REMARK UNBOUND:                -0.803
REMARK SMILES CCCCCCCCCCCCCC[C@@H](C)C(=O)[O-]
REMARK SMILES IDX 9 1 10 2 11 3 12 4 13 5 14 6 15 7 16 8 17 9 18 10 19 11 8 12
REMARK SMILES IDX 7 13 6 14 5 15 4 16 3 17 2 18 1 19
REMARK H PARENT
REMARK Flexibility Score: inf
ROOT
ATOM      1  C   UNL     1      -1.925 -50.896   1.190  1.00  0.00     0.000 C 
ENDROOT
BRANCH   1   2
ATOM      2  C   UNL     1      -2.789 -50.970  -0.084  1.00  0.00     0.000 C 
BRANCH   2   3
ATOM      3  C   UNL     1      -3.995 -51.923   0.004  1.00  0.00     0.000 C 
BRANCH   3   4
ATOM      4  C   UNL     1      -5.341 -51.183  -0.004  1.00  0.00     0.000 C 
BRANCH   4   5
ATOM      5  C   UNL     1      -6.439 -52.039   0.645  1.00  0.00     0.001 C 
BRANCH   5   6
ATOM      6  C   UNL     1      -6.489 -51.885   2.178  1.00  0.00     0.009 C 
BRANCH   6   7
ATOM      7  C   UNL     1      -7.644 -50.995   2.690  1.00  0.00     0.032 C 
ATOM      8  C   UNL     1      -8.826 -51.037   1.714  1.00  0.00     0.014 C 
BRANCH   7   9
ATOM      9  C   UNL     1      -8.098 -51.409   4.064  1.00  0.00     0.044 C 
ATOM     10  O   UNL     1      -9.125 -52.124   4.211  1.00  0.00    -0.550 OA
ATOM     11  O   UNL     1      -7.379 -51.005   5.181  1.00  0.00    -0.550 OA
ENDBRANCH   7   9
ENDBRANCH   6   7
ENDBRANCH   5   6
ENDBRANCH   4   5
ENDBRANCH   3   4
ENDBRANCH   2   3
ENDBRANCH   1   2
BRANCH   1  12
ATOM     12  C   UNL     1      -2.199 -51.998   2.234  1.00  0.00     0.000 C 
BRANCH  12  13
ATOM     13  C   UNL     1      -2.529 -51.492   3.650  1.00  0.00    -0.000 C 
BRANCH  13  14
ATOM     14  C   UNL     1      -1.448 -51.853   4.682  1.00  0.00    -0.000 C 
BRANCH  14  15
ATOM     15  C   UNL     1      -2.021 -52.122   6.085  1.00  0.00    -0.000 C 
BRANCH  15  16
ATOM     16  C   UNL     1      -3.084 -51.116   6.568  1.00  0.00    -0.000 C 
BRANCH  16  17
ATOM     17  C   UNL     1      -3.132 -50.980   8.099  1.00  0.00    -0.000 C 
BRANCH  17  18
ATOM     18  C   UNL     1      -4.411 -51.580   8.704  1.00  0.00    -0.003 C 
ATOM     19  C   UNL     1      -5.087 -50.647   9.708  1.00  0.00     0.004 C 
ENDBRANCH  17  18
ENDBRANCH  16  17
ENDBRANCH  15  16
ENDBRANCH  14  15
ENDBRANCH  13  14
ENDBRANCH  12  13
ENDBRANCH   1  12
TORSDOF 14
ENDMDL
MODEL 3
REMARK VINA RESULT:    -3.369      2.068      6.209
REMARK INTER + INTRA:          -6.929
REMARK INTER:                  -5.857
REMARK INTRA:                  -1.072
REMARK UNBOUND:                -0.803
REMARK SMILES CCCCCCCCCCCCCC[C@@H](C)C(=O)[O-]
REMARK SMILES IDX 9 1 10 2 11 3 12 4 13 5 14 6 15 7 16 8 17 9 18 10 19 11 8 12
REMARK SMILES IDX 7 13 6 14 5 15 4 16 3 17 2 18 1 19
REMARK H PARENT
REMARK Flexibility Score: inf
ROOT
ATOM      1  C   UNL     1      -1.748 -50.811   1.891  1.00  0.00     0.000 C 
ENDROOT
BRANCH   1   2
ATOM      2  C   UNL     1      -3.182 -51.260   1.546  1.00  0.00     0.000 C 
BRANCH   2   3
ATOM      3  C   UNL     1      -3.588 -51.064   0.074  1.00  0.00     0.000 C 
BRANCH   3   4
ATOM      4  C   UNL     1      -4.969 -51.654  -0.247  1.00  0.00     0.000 C 
BRANCH   4   5
ATOM      5  C   UNL     1      -5.674 -52.125   1.034  1.00  0.00     0.001 C 
BRANCH   5   6
ATOM      6  C   UNL     1      -7.131 -51.633   1.130  1.00  0.00     0.009 C 
BRANCH   6   7
ATOM      7  C   UNL     1      -7.742 -51.729   2.547  1.00  0.00     0.032 C 
ATOM      8  C   UNL     1      -6.635 -51.798   3.604  1.00  0.00     0.014 C 
BRANCH   7   9
ATOM      9  C   UNL     1      -8.657 -50.569   2.837  1.00  0.00     0.044 C 
ATOM     10  O   UNL     1      -9.087 -49.843   1.901  1.00  0.00    -0.550 OA
ATOM     11  O   UNL     1      -9.036 -50.297   4.145  1.00  0.00    -0.550 OA
ENDBRANCH   7   9
ENDBRANCH   6   7
ENDBRANCH   5   6
ENDBRANCH   4   5
ENDBRANCH   3   4
ENDBRANCH   2   3
ENDBRANCH   1   2
BRANCH   1  12
ATOM     12  C   UNL     1      -1.428 -50.738   3.398  1.00  0.00     0.000 C 
BRANCH  12  13
ATOM     13  C   UNL     1      -1.616 -52.056   4.172  1.00  0.00    -0.000 C 
BRANCH  13  14
ATOM     14  C   UNL     1      -2.959 -52.125   4.918  1.00  0.00    -0.000 C 
BRANCH  14  15
ATOM     15  C   UNL     1      -3.210 -50.902   5.820  1.00  0.00    -0.000 C 
BRANCH  15  16
ATOM     16  C   UNL     1      -2.892 -51.108   7.313  1.00  0.00    -0.000 C 
BRANCH  16  17
ATOM     17  C   UNL     1      -4.140 -51.422   8.155  1.00  0.00    -0.000 C 
BRANCH  17  18
ATOM     18  C   UNL     1      -3.807 -51.642   9.640  1.00  0.00    -0.003 C 
ATOM     19  C   UNL     1      -2.374 -52.125   9.862  1.00  0.00     0.004 C 
ENDBRANCH  17  18
ENDBRANCH  16  17
ENDBRANCH  15  16
ENDBRANCH  14  15
ENDBRANCH  13  14
ENDBRANCH  12  13
ENDBRANCH   1  12
TORSDOF 14
ENDMDL
MODEL 4
REMARK VINA RESULT:    -3.015      1.432      2.213
REMARK INTER + INTRA:          -6.285
REMARK INTER:                  -5.491
REMARK INTRA:                  -0.794
REMARK UNBOUND:                -0.803
REMARK SMILES CCCCCCCCCCCCCC[C@@H](C)C(=O)[O-]
REMARK SMILES IDX 9 1 10 2 11 3 12 4 13 5 14 6 15 7 16 8 17 9 18 10 19 11 8 12
REMARK SMILES IDX 7 13 6 14 5 15 4 16 3 17 2 18 1 19
REMARK H PARENT
REMARK Flexibility Score: inf
ROOT
ATOM      1  C   UNL     1      -3.990 -52.066   1.086  1.00  0.00     0.000 C 
ENDROOT
BRANCH   1   2
ATOM      2  C   UNL     1      -2.691 -51.237   1.115  1.00  0.00     0.000 C 
BRANCH   2   3
ATOM      3  C   UNL     1      -1.885 -51.337   2.423  1.00  0.00     0.000 C 
BRANCH   3   4
ATOM      4  C   UNL     1      -2.653 -52.054   3.543  1.00  0.00     0.000 C 
BRANCH   4   5
ATOM      5  C   UNL     1      -3.381 -51.042   4.442  1.00  0.00     0.001 C 
BRANCH   5   6
ATOM      6  C   UNL     1      -3.844 -51.654   5.778  1.00  0.00     0.009 C 
BRANCH   6   7
ATOM      7  C   UNL     1      -2.692 -52.029   6.738  1.00  0.00     0.032 C 
ATOM      8  C   UNL     1      -1.397 -51.323   6.321  1.00  0.00     0.014 C 
BRANCH   7   9
ATOM      9  C   UNL     1      -3.026 -51.688   8.165  1.00  0.00     0.044 C 
ATOM     10  O   UNL     1      -2.200 -51.919   9.089  1.00  0.00    -0.550 OA
ATOM     11  O   UNL     1      -4.251 -51.111   8.471  1.00  0.00    -0.550 OA
ENDBRANCH   7   9
ENDBRANCH   6   7
ENDBRANCH   5   6
ENDBRANCH   4   5
ENDBRANCH   3   4
ENDBRANCH   2   3
ENDBRANCH   1   2
BRANCH   1  12
ATOM     12  C   UNL     1      -4.784 -51.996  -0.235  1.00  0.00     0.000 C 
BRANCH  12  13
ATOM     13  C   UNL     1      -6.232 -51.489  -0.103  1.00  0.00    -0.000 C 
BRANCH  13  14
ATOM     14  C   UNL     1      -6.797 -51.655   1.317  1.00  0.00    -0.000 C 
BRANCH  14  15
ATOM     15  C   UNL     1      -8.189 -51.020   1.489  1.00  0.00    -0.000 C 
BRANCH  15  16
ATOM     16  C   UNL     1      -8.947 -51.427   2.767  1.00  0.00    -0.000 C 
BRANCH  16  17
ATOM     17  C   UNL     1      -8.048 -52.123   3.803  1.00  0.00    -0.000 C 
BRANCH  17  18
ATOM     18  C   UNL     1      -7.887 -51.298   5.090  1.00  0.00    -0.003 C 
ATOM     19  C   UNL     1      -7.357 -52.124   6.262  1.00  0.00     0.004 C 
ENDBRANCH  17  18
ENDBRANCH  16  17
ENDBRANCH  15  16
ENDBRANCH  14  15
ENDBRANCH  13  14
ENDBRANCH  12  13
ENDBRANCH   1  12
TORSDOF 14
ENDMDL
MODEL 5
REMARK VINA RESULT:    -2.944      1.427      2.003
REMARK INTER + INTRA:          -6.157
REMARK INTER:                  -4.886
REMARK INTRA:                  -1.270
REMARK UNBOUND:                -0.803
REMARK SMILES CCCCCCCCCCCCCC[C@@H](C)C(=O)[O-]
REMARK SMILES IDX 9 1 10 2 11 3 12 4 13 5 14 6 15 7 16 8 17 9 18 10 19 11 8 12
REMARK SMILES IDX 7 13 6 14 5 15 4 16 3 17 2 18 1 19
REMARK H PARENT
REMARK Flexibility Score: inf
ROOT
ATOM      1  C   UNL     1      -2.241 -51.302   0.235  1.00  0.00     0.000 C 
ENDROOT
BRANCH   1   2
ATOM      2  C   UNL     1      -1.063 -51.344   1.229  1.00  0.00     0.000 C 
BRANCH   2   3
ATOM      3  C   UNL     1      -1.422 -51.840   2.641  1.00  0.00     0.000 C 
BRANCH   3   4
ATOM      4  C   UNL     1      -1.080 -50.819   3.737  1.00  0.00     0.000 C 
BRANCH   4   5
ATOM      5  C   UNL     1      -0.548 -51.523   4.994  1.00  0.00     0.001 C 
BRANCH   5   6
ATOM      6  C   UNL     1      -1.670 -52.123   5.864  1.00  0.00     0.009 C 
BRANCH   6   7
ATOM      7  C   UNL     1      -2.703 -51.090   6.370  1.00  0.00     0.032 C 
ATOM      8  C   UNL     1      -3.943 -51.087   5.469  1.00  0.00     0.014 C 
BRANCH   7   9
ATOM      9  C   UNL     1      -3.104 -51.358   7.795  1.00  0.00     0.044 C 
ATOM     10  O   UNL     1      -2.312 -51.938   8.586  1.00  0.00    -0.550 OA
ATOM     11  O   UNL     1      -4.354 -50.959   8.249  1.00  0.00    -0.550 OA
ENDBRANCH   7   9
ENDBRANCH   6   7
ENDBRANCH   5   6
ENDBRANCH   4   5
ENDBRANCH   3   4
ENDBRANCH   2   3
ENDBRANCH   1   2
BRANCH   1  12
ATOM     12  C   UNL     1      -3.318 -50.241   0.539  1.00  0.00     0.000 C 
BRANCH  12  13
ATOM     13  C   UNL     1      -4.768 -50.683   0.269  1.00  0.00    -0.000 C 
BRANCH  13  14
ATOM     14  C   UNL     1      -5.090 -52.068   0.853  1.00  0.00    -0.000 C 
BRANCH  14  15
ATOM     15  C   UNL     1      -5.194 -52.063   2.389  1.00  0.00    -0.000 C 
BRANCH  15  16
ATOM     16  C   UNL     1      -6.626 -52.112   2.954  1.00  0.00    -0.000 C 
BRANCH  16  17
ATOM     17  C   UNL     1      -7.694 -51.719   1.919  1.00  0.00    -0.000 C 
BRANCH  17  18
ATOM     18  C   UNL     1      -8.571 -50.549   2.394  1.00  0.00    -0.003 C 
ATOM     19  C   UNL     1      -8.301 -50.157   3.847  1.00  0.00     0.004 C 
ENDBRANCH  17  18
ENDBRANCH  16  17
ENDBRANCH  15  16
ENDBRANCH  14  15
ENDBRANCH  13  14
ENDBRANCH  12  13
ENDBRANCH   1  12
TORSDOF 14
ENDMDL
MODEL 6
REMARK VINA RESULT:    -2.550      2.263      6.000
REMARK INTER + INTRA:          -5.440
REMARK INTER:                  -5.371
REMARK INTRA:                  -0.069
REMARK UNBOUND:                -0.803
REMARK SMILES CCCCCCCCCCCCCC[C@@H](C)C(=O)[O-]
REMARK SMILES IDX 9 1 10 2 11 3 12 4 13 5 14 6 15 7 16 8 17 9 18 10 19 11 8 12
REMARK SMILES IDX 7 13 6 14 5 15 4 16 3 17 2 18 1 19
REMARK H PARENT
REMARK Flexibility Score: inf
ROOT
ATOM      1  C   UNL     1      -2.779 -51.718   4.350  1.00  0.00     0.000 C 
ENDROOT
BRANCH   1   2
ATOM      2  C   UNL     1      -1.804 -51.475   3.181  1.00  0.00     0.000 C 
BRANCH   2   3
ATOM      3  C   UNL     1      -2.396 -50.697   1.992  1.00  0.00     0.000 C 
BRANCH   3   4
ATOM      4  C   UNL     1      -3.445 -51.505   1.215  1.00  0.00     0.000 C 
BRANCH   4   5
ATOM      5  C   UNL     1      -4.505 -52.083   2.165  1.00  0.00     0.001 C 
BRANCH   5   6
ATOM      6  C   UNL     1      -5.943 -51.703   1.760  1.00  0.00     0.009 C 
BRANCH   6   7
ATOM      7  C   UNL     1      -7.015 -52.063   2.814  1.00  0.00     0.032 C 
ATOM      8  C   UNL     1      -6.396 -52.105   4.215  1.00  0.00     0.014 C 
BRANCH   7   9
ATOM      9  C   UNL     1      -8.165 -51.093   2.789  1.00  0.00     0.044 C 
ATOM     10  O   UNL     1      -8.793 -50.870   1.719  1.00  0.00    -0.550 OA
ATOM     11  O   UNL     1      -8.544 -50.440   3.954  1.00  0.00    -0.550 OA
ENDBRANCH   7   9
ENDBRANCH   6   7
ENDBRANCH   5   6
ENDBRANCH   4   5
ENDBRANCH   3   4
ENDBRANCH   2   3
ENDBRANCH   1   2
BRANCH   1  12
ATOM     12  C   UNL     1      -2.600 -50.778   5.560  1.00  0.00     0.000 C 
BRANCH  12  13
ATOM     13  C   UNL     1      -1.822 -51.378   6.746  1.00  0.00    -0.000 C 
BRANCH  13  14
ATOM     14  C   UNL     1      -2.727 -52.125   7.739  1.00  0.00    -0.000 C 
BRANCH  14  15
ATOM     15  C   UNL     1      -4.065 -51.406   7.992  1.00  0.00    -0.000 C 
BRANCH  15  16
ATOM     16  C   UNL     1      -4.290 -50.921   9.436  1.00  0.00    -0.000 C 
BRANCH  16  17
ATOM     17  C   UNL     1      -5.694 -51.253   9.970  1.00  0.00    -0.000 C 
BRANCH  17  18
ATOM     18  C   UNL     1      -6.810 -50.761   9.035  1.00  0.00    -0.003 C 
ATOM     19  C   UNL     1      -7.181 -51.785   7.963  1.00  0.00     0.004 C 
ENDBRANCH  17  18
ENDBRANCH  16  17
ENDBRANCH  15  16
ENDBRANCH  14  15
ENDBRANCH  13  14
ENDBRANCH  12  13
ENDBRANCH   1  12
TORSDOF 14
ENDMDL
MODEL 7
REMARK VINA RESULT:    -2.427      1.824      2.136
REMARK INTER + INTRA:          -5.216
REMARK INTER:                  -4.320
REMARK INTRA:                  -0.896
REMARK UNBOUND:                -0.803
REMARK SMILES CCCCCCCCCCCCCC[C@@H](C)C(=O)[O-]
REMARK SMILES IDX 9 1 10 2 11 3 12 4 13 5 14 6 15 7 16 8 17 9 18 10 19 11 8 12
REMARK SMILES IDX 7 13 6 14 5 15 4 16 3 17 2 18 1 19
REMARK H PARENT
REMARK Flexibility Score: inf
ROOT
ATOM      1  C   UNL     1      -2.324 -50.235   1.413  1.00  0.00     0.000 C 
ENDROOT
BRANCH   1   2
ATOM      2  C   UNL     1      -2.196 -51.723   1.793  1.00  0.00     0.000 C 
BRANCH   2   3
ATOM      3  C   UNL     1      -2.675 -52.075   3.214  1.00  0.00     0.000 C 
BRANCH   3   4
ATOM      4  C   UNL     1      -3.390 -50.907   3.908  1.00  0.00     0.000 C 
BRANCH   4   5
ATOM      5  C   UNL     1      -4.455 -51.423   4.888  1.00  0.00     0.001 C 
BRANCH   5   6
ATOM      6  C   UNL     1      -3.845 -52.124   6.118  1.00  0.00     0.009 C 
BRANCH   6   7
ATOM      7  C   UNL     1      -3.296 -51.158   7.192  1.00  0.00     0.032 C 
ATOM      8  C   UNL     1      -4.024 -51.369   8.524  1.00  0.00     0.014 C 
BRANCH   7   9
ATOM      9  C   UNL     1      -1.813 -51.329   7.385  1.00  0.00     0.044 C 
ATOM     10  O   UNL     1      -1.044 -51.426   6.392  1.00  0.00    -0.550 OA
ATOM     11  O   UNL     1      -1.283 -51.374   8.668  1.00  0.00    -0.550 OA
ENDBRANCH   7   9
ENDBRANCH   6   7
ENDBRANCH   5   6
ENDBRANCH   4   5
ENDBRANCH   3   4
ENDBRANCH   2   3
ENDBRANCH   1   2
BRANCH   1  12
ATOM     12  C   UNL     1      -3.363 -49.924   0.316  1.00  0.00     0.000 C 
BRANCH  12  13
ATOM     13  C   UNL     1      -4.083 -51.152  -0.271  1.00  0.00    -0.000 C 
BRANCH  13  14
ATOM     14  C   UNL     1      -5.583 -51.184   0.067  1.00  0.00    -0.000 C 
BRANCH  14  15
ATOM     15  C   UNL     1      -5.916 -52.122   1.241  1.00  0.00    -0.000 C 
BRANCH  15  16
ATOM     16  C   UNL     1      -7.151 -51.727   2.072  1.00  0.00    -0.000 C 
BRANCH  16  17
ATOM     17  C   UNL     1      -6.791 -51.224   3.481  1.00  0.00    -0.000 C 
BRANCH  17  18
ATOM     18  C   UNL     1      -8.034 -50.950   4.342  1.00  0.00    -0.003 C 
ATOM     19  C   UNL     1      -9.125 -52.006   4.164  1.00  0.00     0.004 C 
ENDBRANCH  17  18
ENDBRANCH  16  17
ENDBRANCH  15  16
ENDBRANCH  14  15
ENDBRANCH  13  14
ENDBRANCH  12  13
ENDBRANCH   1  12
TORSDOF 14
ENDMDL
MODEL 8
REMARK VINA RESULT:    -1.715      1.573      2.240
REMARK INTER + INTRA:          -3.922
REMARK INTER:                  -3.780
REMARK INTRA:                  -0.141
REMARK UNBOUND:                -0.803
REMARK SMILES CCCCCCCCCCCCCC[C@@H](C)C(=O)[O-]
REMARK SMILES IDX 9 1 10 2 11 3 12 4 13 5 14 6 15 7 16 8 17 9 18 10 19 11 8 12
REMARK SMILES IDX 7 13 6 14 5 15 4 16 3 17 2 18 1 19
REMARK H PARENT
REMARK Flexibility Score: inf
ROOT
ATOM      1  C   UNL     1      -2.574 -51.122   1.236  1.00  0.00     0.000 C 
ENDROOT
BRANCH   1   2
ATOM      2  C   UNL     1      -1.632 -51.793   2.256  1.00  0.00     0.000 C 
BRANCH   2   3
ATOM      3  C   UNL     1      -0.526 -50.880   2.817  1.00  0.00     0.000 C 
BRANCH   3   4
ATOM      4  C   UNL     1      -0.700 -50.585   4.314  1.00  0.00     0.000 C 
BRANCH   4   5
ATOM      5  C   UNL     1      -1.487 -51.709   5.006  1.00  0.00     0.001 C 
BRANCH   5   6
ATOM      6  C   UNL     1      -1.056 -51.927   6.469  1.00  0.00     0.009 C 
BRANCH   6   7
ATOM      7  C   UNL     1      -2.226 -51.959   7.478  1.00  0.00     0.032 C 
ATOM      8  C   UNL     1      -1.698 -52.125   8.907  1.00  0.00     0.014 C 
BRANCH   7   9
ATOM      9  C   UNL     1      -3.073 -50.718   7.385  1.00  0.00     0.044 C 
ATOM     10  O   UNL     1      -3.994 -50.506   8.219  1.00  0.00    -0.550 OA
ATOM     11  O   UNL     1      -2.837 -49.793   6.377  1.00  0.00    -0.550 OA
ENDBRANCH   7   9
ENDBRANCH   6   7
ENDBRANCH   5   6
ENDBRANCH   4   5
ENDBRANCH   3   4
ENDBRANCH   2   3
ENDBRANCH   1   2
BRANCH   1  12
ATOM     12  C   UNL     1      -4.059 -51.521   1.353  1.00  0.00     0.000 C 
BRANCH  12  13
ATOM     13  C   UNL     1      -4.544 -51.827   2.782  1.00  0.00    -0.000 C 
BRANCH  13  14
ATOM     14  C   UNL     1      -6.056 -52.098   2.855  1.00  0.00    -0.000 C 
BRANCH  14  15
ATOM     15  C   UNL     1      -6.606 -52.059   4.293  1.00  0.00    -0.000 C 
BRANCH  15  16
ATOM     16  C   UNL     1      -8.130 -51.871   4.412  1.00  0.00    -0.000 C 
BRANCH  16  17
ATOM     17  C   UNL     1      -8.827 -51.734   3.048  1.00  0.00    -0.000 C 
BRANCH  17  18
ATOM     18  C   UNL     1      -9.027 -50.268   2.634  1.00  0.00    -0.003 C 
ATOM     19  C   UNL     1      -8.848 -50.045   1.133  1.00  0.00     0.004 C 
ENDBRANCH  17  18
ENDBRANCH  16  17
ENDBRANCH  15  16
ENDBRANCH  14  15
ENDBRANCH  13  14
ENDBRANCH  12  13
ENDBRANCH   1  12
TORSDOF 14
ENDMDL
