MODEL 1
REMARK VINA RESULT:    23.418      0.000      0.000
REMARK INTER + INTRA:          27.944
REMARK INTER:                  27.525
REMARK INTRA:                   0.419
REMARK UNBOUND:                 0.419
REMARK SMILES O=c1c(O)c(-c2ccc(O)c(O)c2)oc2cc(O)ccc12
REMARK SMILES IDX 5 1 3 2 2 3 1 4 21 5 15 6 14 7 16 8 17 9 19 10 20 11 6 12
REMARK SMILES IDX 7 13 8 14 9 15 13 16 11 17 10 18 12 20 4 22 18 24
REMARK H PARENT 10 19 12 21 4 23 18 25
REMARK Flexibility Score: inf
ROOT
ATOM      1  C   UNL     1      28.892  23.567  45.482  1.00  0.00     0.180 A 
ATOM      2  C   UNL     1      28.920  24.419  44.357  1.00  0.00     0.208 A 
ATOM      3  C   UNL     1      30.160  24.740  43.783  1.00  0.00     0.235 A 
ATOM      4  O   UNL     1      30.211  25.490  42.770  1.00  0.00    -0.285 OA
ATOM      5  C   UNL     1      31.337  24.226  44.350  1.00  0.00     0.069 A 
ATOM      6  C   UNL     1      31.225  23.400  45.489  1.00  0.00     0.142 A 
ATOM      7  O   UNL     1      30.032  23.113  45.997  1.00  0.00    -0.452 OA
ATOM      8  C   UNL     1      32.376  22.876  46.090  1.00  0.00     0.094 A 
ATOM      9  C   UNL     1      33.642  23.167  45.562  1.00  0.00     0.119 A 
ATOM     10  C   UNL     1      33.754  23.983  44.432  1.00  0.00     0.047 A 
ATOM     11  C   UNL     1      32.610  24.512  43.826  1.00  0.00     0.020 A 
ENDROOT
BRANCH   1  12
ATOM     12  C   UNL     1      27.623  23.168  46.133  1.00  0.00     0.025 A 
ATOM     13  C   UNL     1      27.661  22.515  47.375  1.00  0.00     0.016 A 
ATOM     14  C   UNL     1      26.478  22.110  47.998  1.00  0.00     0.051 A 
ATOM     15  C   UNL     1      25.241  22.337  47.382  1.00  0.00     0.157 A 
ATOM     16  C   UNL     1      26.381  23.376  45.508  1.00  0.00     0.062 A 
ATOM     17  C   UNL     1      25.193  22.970  46.128  1.00  0.00     0.158 A 
BRANCH  15  18
ATOM     18  O   UNL     1      24.062  21.934  48.006  1.00  0.00    -0.504 OA
ATOM     19  H   UNL     1      23.693  20.998  47.891  1.00  0.00     0.293 HD
ENDBRANCH  15  18
BRANCH  17  20
ATOM     20  O   UNL     1      23.980  23.198  45.481  1.00  0.00    -0.504 OA
ATOM     21  H   UNL     1      23.301  23.864  45.829  1.00  0.00     0.293 HD
ENDBRANCH  17  20
ENDBRANCH   1  12
BRANCH   2  22
ATOM     22  O   UNL     1      27.736  24.954  43.845  1.00  0.00    -0.502 OA
ATOM     23  H   UNL     1      27.702  25.860  43.392  1.00  0.00     0.293 HD
ENDBRANCH   2  22
BRANCH   9  24
ATOM     24  O   UNL     1      34.792  22.648  46.152  1.00  0.00    -0.508 OA
ATOM     25  H   UNL     1      35.692  23.103  46.048  1.00  0.00     0.293 HD
ENDBRANCH   9  24
TORSDOF 5
ENDMDL
MODEL 2
REMARK VINA RESULT:    23.668     10.054     11.435
REMARK INTER + INTRA:          28.238
REMARK INTER:                  28.471
REMARK INTRA:                  -0.233
REMARK UNBOUND:                 0.419
REMARK SMILES O=c1c(O)c(-c2ccc(O)c(O)c2)oc2cc(O)ccc12
REMARK SMILES IDX 5 1 3 2 2 3 1 4 21 5 15 6 14 7 16 8 17 9 19 10 20 11 6 12
REMARK SMILES IDX 7 13 8 14 9 15 13 16 11 17 10 18 12 20 4 22 18 24
REMARK H PARENT 10 19 12 21 4 23 18 25
REMARK Flexibility Score: inf
ROOT
ATOM      1  C   UNL     1      29.174  33.272  48.534  1.00  0.00     0.180 A 
ATOM      2  C   UNL     1      28.255  33.074  47.481  1.00  0.00     0.208 A 
ATOM      3  C   UNL     1      27.817  31.770  47.204  1.00  0.00     0.235 A 
ATOM      4  O   UNL     1      26.987  31.568  46.276  1.00  0.00    -0.285 OA
ATOM      5  C   UNL     1      28.315  30.698  47.961  1.00  0.00     0.069 A 
ATOM      6  C   UNL     1      29.250  30.977  48.981  1.00  0.00     0.142 A 
ATOM      7  O   UNL     1      29.633  32.226  49.218  1.00  0.00    -0.452 OA
ATOM      8  C   UNL     1      29.778  29.934  49.751  1.00  0.00     0.094 A 
ATOM      9  C   UNL     1      29.380  28.611  49.515  1.00  0.00     0.119 A 
ATOM     10  C   UNL     1      28.452  28.333  48.507  1.00  0.00     0.047 A 
ATOM     11  C   UNL     1      27.920  29.368  47.731  1.00  0.00     0.020 A 
ENDROOT
BRANCH   1  12
ATOM     12  C   UNL     1      29.670  34.619  48.900  1.00  0.00     0.025 A 
ATOM     13  C   UNL     1      28.809  35.519  49.546  1.00  0.00     0.016 A 
ATOM     14  C   UNL     1      29.248  36.802  49.883  1.00  0.00     0.051 A 
ATOM     15  C   UNL     1      30.551  37.209  49.564  1.00  0.00     0.157 A 
ATOM     16  C   UNL     1      30.969  35.038  48.563  1.00  0.00     0.062 A 
ATOM     17  C   UNL     1      31.413  36.323  48.896  1.00  0.00     0.158 A 
BRANCH  15  18
ATOM     18  O   UNL     1      30.987  38.488  49.902  1.00  0.00    -0.504 OA
ATOM     19  H   UNL     1      30.335  39.229  50.132  1.00  0.00     0.293 HD
ENDBRANCH  15  18
BRANCH  17  20
ATOM     20  O   UNL     1      32.709  36.703  48.551  1.00  0.00    -0.504 OA
ATOM     21  H   UNL     1      33.350  36.070  48.086  1.00  0.00     0.293 HD
ENDBRANCH  17  20
ENDBRANCH   1  12
BRANCH   2  22
ATOM     22  O   UNL     1      27.815  34.154  46.714  1.00  0.00    -0.502 OA
ATOM     23  H   UNL     1      27.866  35.111  47.044  1.00  0.00     0.293 HD
ENDBRANCH   2  22
BRANCH   9  24
ATOM     24  O   UNL     1      29.899  27.568  50.278  1.00  0.00    -0.508 OA
ATOM     25  H   UNL     1      30.564  26.909  49.891  1.00  0.00     0.293 HD
ENDBRANCH   9  24
TORSDOF 5
ENDMDL
MODEL 3
REMARK VINA RESULT:    23.674     10.043     11.172
REMARK INTER + INTRA:          28.245
REMARK INTER:                  28.420
REMARK INTRA:                  -0.175
REMARK UNBOUND:                 0.419
REMARK SMILES O=c1c(O)c(-c2ccc(O)c(O)c2)oc2cc(O)ccc12
REMARK SMILES IDX 5 1 3 2 2 3 1 4 21 5 15 6 14 7 16 8 17 9 19 10 20 11 6 12
REMARK SMILES IDX 7 13 8 14 9 15 13 16 11 17 10 18 12 20 4 22 18 24
REMARK H PARENT 10 19 12 21 4 23 18 25
REMARK Flexibility Score: inf
ROOT
ATOM      1  C   UNL     1      29.043  33.153  48.509  1.00  0.00     0.180 A 
ATOM      2  C   UNL     1      28.134  32.885  47.464  1.00  0.00     0.208 A 
ATOM      3  C   UNL     1      27.851  31.548  47.142  1.00  0.00     0.235 A 
ATOM      4  O   UNL     1      27.032  31.282  46.219  1.00  0.00    -0.285 OA
ATOM      5  C   UNL     1      28.489  30.517  47.847  1.00  0.00     0.069 A 
ATOM      6  C   UNL     1      29.405  30.869  48.863  1.00  0.00     0.142 A 
ATOM      7  O   UNL     1      29.638  32.146  49.143  1.00  0.00    -0.452 OA
ATOM      8  C   UNL     1      30.070  29.870  49.583  1.00  0.00     0.094 A 
ATOM      9  C   UNL     1      29.830  28.518  49.301  1.00  0.00     0.119 A 
ATOM     10  C   UNL     1      28.922  28.167  48.297  1.00  0.00     0.047 A 
ATOM     11  C   UNL     1      28.253  29.158  47.571  1.00  0.00     0.020 A 
ENDROOT
BRANCH   1  12
ATOM     12  C   UNL     1      29.380  34.535  48.920  1.00  0.00     0.025 A 
ATOM     13  C   UNL     1      30.708  34.980  48.822  1.00  0.00     0.016 A 
ATOM     14  C   UNL     1      31.053  36.272  49.225  1.00  0.00     0.051 A 
ATOM     15  C   UNL     1      30.079  37.134  49.746  1.00  0.00     0.157 A 
ATOM     16  C   UNL     1      28.410  35.396  49.463  1.00  0.00     0.062 A 
ATOM     17  C   UNL     1      28.751  36.691  49.870  1.00  0.00     0.158 A 
BRANCH  15  18
ATOM     18  O   UNL     1      30.426  38.424  50.145  1.00  0.00    -0.504 OA
ATOM     19  H   UNL     1      30.904  39.063  49.521  1.00  0.00     0.293 HD
ENDBRANCH  15  18
BRANCH  17  20
ATOM     20  O   UNL     1      27.762  37.518  50.399  1.00  0.00    -0.504 OA
ATOM     21  H   UNL     1      27.062  37.961  49.815  1.00  0.00     0.293 HD
ENDBRANCH  17  20
ENDBRANCH   1  12
BRANCH   2  22
ATOM     22  O   UNL     1      27.550  33.931  46.747  1.00  0.00    -0.502 OA
ATOM     23  H   UNL     1      27.771  34.112  45.775  1.00  0.00     0.293 HD
ENDBRANCH   2  22
BRANCH   9  24
ATOM     24  O   UNL     1      30.486  27.518  50.014  1.00  0.00    -0.508 OA
ATOM     25  H   UNL     1      30.263  26.538  49.880  1.00  0.00     0.293 HD
ENDBRANCH   9  24
TORSDOF 5
ENDMDL
MODEL 4
REMARK VINA RESULT:    26.176      1.159      6.593
REMARK INTER + INTRA:          31.185
REMARK INTER:                  30.842
REMARK INTRA:                   0.343
REMARK UNBOUND:                 0.419
REMARK SMILES O=c1c(O)c(-c2ccc(O)c(O)c2)oc2cc(O)ccc12
REMARK SMILES IDX 5 1 3 2 2 3 1 4 21 5 15 6 14 7 16 8 17 9 19 10 20 11 6 12
REMARK SMILES IDX 7 13 8 14 9 15 13 16 11 17 10 18 12 20 4 22 18 24
REMARK H PARENT 10 19 12 21 4 23 18 25
REMARK Flexibility Score: inf
ROOT
ATOM      1  C   UNL     1      29.884  23.658  45.334  1.00  0.00     0.180 A 
ATOM      2  C   UNL     1      29.155  24.304  44.313  1.00  0.00     0.208 A 
ATOM      3  C   UNL     1      27.755  24.356  44.413  1.00  0.00     0.235 A 
ATOM      4  O   UNL     1      27.081  24.938  43.519  1.00  0.00    -0.285 OA
ATOM      5  C   UNL     1      27.118  23.750  45.506  1.00  0.00     0.069 A 
ATOM      6  C   UNL     1      27.918  23.103  46.473  1.00  0.00     0.142 A 
ATOM      7  O   UNL     1      29.240  23.084  46.347  1.00  0.00    -0.452 OA
ATOM      8  C   UNL     1      27.319  22.478  47.573  1.00  0.00     0.094 A 
ATOM      9  C   UNL     1      25.925  22.494  47.721  1.00  0.00     0.119 A 
ATOM     10  C   UNL     1      25.131  23.136  46.766  1.00  0.00     0.047 A 
ATOM     11  C   UNL     1      25.720  23.762  45.662  1.00  0.00     0.020 A 
ENDROOT
BRANCH   1  12
ATOM     12  C   UNL     1      31.363  23.578  45.311  1.00  0.00     0.025 A 
ATOM     13  C   UNL     1      32.013  22.609  46.092  1.00  0.00     0.016 A 
ATOM     14  C   UNL     1      33.408  22.528  46.103  1.00  0.00     0.051 A 
ATOM     15  C   UNL     1      34.174  23.424  45.345  1.00  0.00     0.157 A 
ATOM     16  C   UNL     1      32.136  24.488  44.568  1.00  0.00     0.062 A 
ATOM     17  C   UNL     1      33.533  24.412  44.578  1.00  0.00     0.158 A 
BRANCH  15  18
ATOM     18  O   UNL     1      35.565  23.339  45.357  1.00  0.00    -0.504 OA
ATOM     19  H   UNL     1      36.124  23.683  44.585  1.00  0.00     0.293 HD
ENDBRANCH  15  18
BRANCH  17  20
ATOM     20  O   UNL     1      34.267  25.328  43.826  1.00  0.00    -0.504 OA
ATOM     21  H   UNL     1      34.259  25.321  42.813  1.00  0.00     0.293 HD
ENDBRANCH  17  20
ENDBRANCH   1  12
BRANCH   2  22
ATOM     22  O   UNL     1      29.813  24.856  43.213  1.00  0.00    -0.502 OA
ATOM     23  H   UNL     1      30.805  24.721  43.050  1.00  0.00     0.293 HD
ENDBRANCH   2  22
BRANCH   9  24
ATOM     24  O   UNL     1      25.321  21.876  48.813  1.00  0.00    -0.508 OA
ATOM     25  H   UNL     1      25.776  21.120  49.312  1.00  0.00     0.293 HD
ENDBRANCH   9  24
TORSDOF 5
ENDMDL
