MODEL 1
REMARK VINA RESULT:    -4.636      0.000      0.000
REMARK INTER + INTRA:          -7.911
REMARK INTER:                  -7.075
REMARK INTRA:                  -0.836
REMARK UNBOUND:                -0.836
REMARK SMILES O=C([O-])CCCCCCCCC(=O)[O-]
REMARK SMILES IDX 7 1 6 2 5 3 4 4 2 5 1 6 3 7 8 8 9 9 10 10 11 11 12 12 13 13
REMARK SMILES IDX 14 14
REMARK H PARENT
REMARK Flexibility Score: inf
ROOT
ATOM      1  C   UNL     1      20.507  69.530  35.234  1.00  0.00     0.000 C 
ENDROOT
BRANCH   1   2
ATOM      2  C   UNL     1      19.673  70.532  36.059  1.00  0.00     0.000 C 
BRANCH   2   3
ATOM      3  C   UNL     1      18.364  70.995  35.396  1.00  0.00     0.006 C 
BRANCH   3   4
ATOM      4  C   UNL     1      17.431  69.830  35.044  1.00  0.00     0.053 C 
BRANCH   4   5
ATOM      5  C   UNL     1      17.219  69.761  33.564  1.00  0.00     0.041 C 
ATOM      6  O   UNL     1      16.345  68.990  33.085  1.00  0.00    -0.550 OA
ATOM      7  O   UNL     1      17.950  70.583  32.717  1.00  0.00    -0.550 OA
ENDBRANCH   4   5
ENDBRANCH   3   4
ENDBRANCH   2   3
ENDBRANCH   1   2
BRANCH   1   8
ATOM      8  C   UNL     1      20.916  68.248  35.983  1.00  0.00     0.000 C 
BRANCH   8   9
ATOM      9  C   UNL     1      20.475  66.967  35.259  1.00  0.00     0.000 C 
BRANCH   9  10
ATOM     10  C   UNL     1      19.902  67.290  33.871  1.00  0.00     0.006 C 
BRANCH  10  11
ATOM     11  C   UNL     1      18.754  66.350  33.483  1.00  0.00     0.053 C 
BRANCH  11  12
ATOM     12  C   UNL     1      18.061  65.794  34.690  1.00  0.00     0.041 C 
ATOM     13  O   UNL     1      17.251  66.505  35.340  1.00  0.00    -0.550 OA
ATOM     14  O   UNL     1      18.285  64.479  35.075  1.00  0.00    -0.550 OA
ENDBRANCH  11  12
ENDBRANCH  10  11
ENDBRANCH   9  10
ENDBRANCH   8   9
ENDBRANCH   1   8
TORSDOF 9
ENDMDL
MODEL 2
REMARK VINA RESULT:    -4.609      1.767      4.008
REMARK INTER + INTRA:          -7.870
REMARK INTER:                  -6.939
REMARK INTRA:                  -0.931
REMARK UNBOUND:                -0.836
REMARK SMILES O=C([O-])CCCCCCCCC(=O)[O-]
REMARK SMILES IDX 7 1 6 2 5 3 4 4 2 5 1 6 3 7 8 8 9 9 10 10 11 11 12 12 13 13
REMARK SMILES IDX 14 14
REMARK H PARENT
REMARK Flexibility Score: inf
ROOT
ATOM      1  C   UNL     1      19.434  67.069  36.083  1.00  0.00     0.000 C 
ENDROOT
BRANCH   1   2
ATOM      2  C   UNL     1      19.226  65.564  35.814  1.00  0.00     0.000 C 
BRANCH   2   3
ATOM      3  C   UNL     1      18.302  65.234  34.629  1.00  0.00     0.006 C 
BRANCH   3   4
ATOM      4  C   UNL     1      17.960  66.464  33.780  1.00  0.00     0.053 C 
BRANCH   4   5
ATOM      5  C   UNL     1      18.879  66.557  32.603  1.00  0.00     0.041 C 
ATOM      6  O   UNL     1      18.715  65.799  31.610  1.00  0.00    -0.550 OA
ATOM      7  O   UNL     1      19.886  67.513  32.579  1.00  0.00    -0.550 OA
ENDBRANCH   4   5
ENDBRANCH   3   4
ENDBRANCH   2   3
ENDBRANCH   1   2
BRANCH   1   8
ATOM      8  C   UNL     1      20.900  67.537  36.075  1.00  0.00     0.000 C 
BRANCH   8   9
ATOM      9  C   UNL     1      21.055  69.010  35.667  1.00  0.00     0.000 C 
BRANCH   9  10
ATOM     10  C   UNL     1      19.713  69.751  35.765  1.00  0.00     0.006 C 
BRANCH  10  11
ATOM     11  C   UNL     1      19.299  70.383  34.430  1.00  0.00     0.053 C 
BRANCH  11  12
ATOM     12  C   UNL     1      17.854  70.134  34.123  1.00  0.00     0.041 C 
ATOM     13  O   UNL     1      17.395  70.395  32.980  1.00  0.00    -0.550 OA
ATOM     14  O   UNL     1      17.023  69.583  35.089  1.00  0.00    -0.550 OA
ENDBRANCH  11  12
ENDBRANCH  10  11
ENDBRANCH   9  10
ENDBRANCH   8   9
ENDBRANCH   1   8
TORSDOF 9
ENDMDL
MODEL 3
REMARK VINA RESULT:    -4.594      2.110      4.509
REMARK INTER + INTRA:          -7.848
REMARK INTER:                  -6.939
REMARK INTRA:                  -0.909
REMARK UNBOUND:                -0.836
REMARK SMILES O=C([O-])CCCCCCCCC(=O)[O-]
REMARK SMILES IDX 7 1 6 2 5 3 4 4 2 5 1 6 3 7 8 8 9 9 10 10 11 11 12 12 13 13
REMARK SMILES IDX 14 14
REMARK H PARENT
REMARK Flexibility Score: inf
ROOT
ATOM      1  C   UNL     1      16.774  68.887  33.357  1.00  0.00     0.000 C 
ENDROOT
BRANCH   1   2
ATOM      2  C   UNL     1      17.014  68.754  34.875  1.00  0.00     0.000 C 
BRANCH   2   3
ATOM      3  C   UNL     1      16.984  67.314  35.417  1.00  0.00     0.006 C 
BRANCH   3   4
ATOM      4  C   UNL     1      18.362  66.640  35.390  1.00  0.00     0.053 C 
BRANCH   4   5
ATOM      5  C   UNL     1      18.331  65.425  34.517  1.00  0.00     0.041 C 
ATOM      6  O   UNL     1      18.336  64.275  35.031  1.00  0.00    -0.550 OA
ATOM      7  O   UNL     1      18.249  65.562  33.138  1.00  0.00    -0.550 OA
ENDBRANCH   4   5
ENDBRANCH   3   4
ENDBRANCH   2   3
ENDBRANCH   1   2
BRANCH   1   8
ATOM      8  C   UNL     1      18.035  69.161  32.518  1.00  0.00     0.000 C 
BRANCH   8   9
ATOM      9  C   UNL     1      18.578  70.586  32.702  1.00  0.00     0.000 C 
BRANCH   9  10
ATOM     10  C   UNL     1      20.065  70.562  33.083  1.00  0.00     0.006 C 
BRANCH  10  11
ATOM     11  C   UNL     1      20.445  69.294  33.859  1.00  0.00     0.053 C 
BRANCH  11  12
ATOM     12  C   UNL     1      20.581  69.562  35.327  1.00  0.00     0.041 C 
ATOM     13  O   UNL     1      21.287  68.808  36.046  1.00  0.00    -0.550 OA
ATOM     14  O   UNL     1      19.954  70.665  35.893  1.00  0.00    -0.550 OA
ENDBRANCH  11  12
ENDBRANCH  10  11
ENDBRANCH   9  10
ENDBRANCH   8   9
ENDBRANCH   1   8
TORSDOF 9
ENDMDL
MODEL 4
REMARK VINA RESULT:    -4.591      2.302      3.547
REMARK INTER + INTRA:          -7.842
REMARK INTER:                  -7.031
REMARK INTRA:                  -0.811
REMARK UNBOUND:                -0.836
REMARK SMILES O=C([O-])CCCCCCCCC(=O)[O-]
REMARK SMILES IDX 7 1 6 2 5 3 4 4 2 5 1 6 3 7 8 8 9 9 10 10 11 11 12 12 13 13
REMARK SMILES IDX 14 14
REMARK H PARENT
REMARK Flexibility Score: inf
ROOT
ATOM      1  C   UNL     1      17.955  68.962  32.638  1.00  0.00     0.000 C 
ENDROOT
BRANCH   1   2
ATOM      2  C   UNL     1      18.497  70.388  32.870  1.00  0.00     0.000 C 
BRANCH   2   3
ATOM      3  C   UNL     1      19.980  70.465  33.275  1.00  0.00     0.006 C 
BRANCH   3   4
ATOM      4  C   UNL     1      20.441  69.244  34.079  1.00  0.00     0.053 C 
BRANCH   4   5
ATOM      5  C   UNL     1      20.716  69.629  35.499  1.00  0.00     0.041 C 
ATOM      6  O   UNL     1      21.684  69.114  36.119  1.00  0.00    -0.550 OA
ATOM      7  O   UNL     1      19.934  70.592  36.124  1.00  0.00    -0.550 OA
ENDBRANCH   4   5
ENDBRANCH   3   4
ENDBRANCH   2   3
ENDBRANCH   1   2
BRANCH   1   8
ATOM      8  C   UNL     1      16.772  68.559  33.537  1.00  0.00     0.000 C 
BRANCH   8   9
ATOM      9  C   UNL     1      17.009  68.884  35.019  1.00  0.00     0.000 C 
BRANCH   9  10
ATOM     10  C   UNL     1      17.587  67.671  35.762  1.00  0.00     0.006 C 
BRANCH  10  11
ATOM     11  C   UNL     1      17.624  66.415  34.882  1.00  0.00     0.053 C 
BRANCH  11  12
ATOM     12  C   UNL     1      18.688  65.458  35.326  1.00  0.00     0.041 C 
ATOM     13  O   UNL     1      18.434  64.229  35.427  1.00  0.00    -0.550 OA
ATOM     14  O   UNL     1      19.970  65.920  35.596  1.00  0.00    -0.550 OA
ENDBRANCH  11  12
ENDBRANCH  10  11
ENDBRANCH   9  10
ENDBRANCH   8   9
ENDBRANCH   1   8
TORSDOF 9
ENDMDL
MODEL 5
REMARK VINA RESULT:    -4.416      2.028      3.122
REMARK INTER + INTRA:          -7.576
REMARK INTER:                  -6.763
REMARK INTRA:                  -0.813
REMARK UNBOUND:                -0.836
REMARK SMILES O=C([O-])CCCCCCCCC(=O)[O-]
REMARK SMILES IDX 7 1 6 2 5 3 4 4 2 5 1 6 3 7 8 8 9 9 10 10 11 11 12 12 13 13
REMARK SMILES IDX 14 14
REMARK H PARENT
REMARK Flexibility Score: inf
ROOT
ATOM      1  C   UNL     1      17.768  68.422  32.581  1.00  0.00     0.000 C 
ENDROOT
BRANCH   1   2
ATOM      2  C   UNL     1      16.980  69.027  33.761  1.00  0.00     0.000 C 
BRANCH   2   3
ATOM      3  C   UNL     1      17.473  70.404  34.239  1.00  0.00     0.006 C 
BRANCH   3   4
ATOM      4  C   UNL     1      18.390  70.315  35.465  1.00  0.00     0.053 C 
BRANCH   4   5
ATOM      5  C   UNL     1      19.820  70.201  35.039  1.00  0.00     0.041 C 
ATOM      6  O   UNL     1      20.670  69.678  35.808  1.00  0.00    -0.550 OA
ATOM      7  O   UNL     1      20.207  70.626  33.775  1.00  0.00    -0.550 OA
ENDBRANCH   4   5
ENDBRANCH   3   4
ENDBRANCH   2   3
ENDBRANCH   1   2
BRANCH   1   8
ATOM      8  C   UNL     1      18.918  67.479  32.978  1.00  0.00     0.000 C 
BRANCH   8   9
ATOM      9  C   UNL     1      18.506  65.999  32.971  1.00  0.00     0.000 C 
BRANCH   9  10
ATOM     10  C   UNL     1      18.081  65.541  34.374  1.00  0.00     0.006 C 
BRANCH  10  11
ATOM     11  C   UNL     1      18.818  66.305  35.482  1.00  0.00     0.053 C 
BRANCH  11  12
ATOM     12  C   UNL     1      20.119  65.651  35.835  1.00  0.00     0.041 C 
ATOM     13  O   UNL     1      21.167  66.341  35.939  1.00  0.00    -0.550 OA
ATOM     14  O   UNL     1      20.166  64.285  36.083  1.00  0.00    -0.550 OA
ENDBRANCH  11  12
ENDBRANCH  10  11
ENDBRANCH   9  10
ENDBRANCH   8   9
ENDBRANCH   1   8
TORSDOF 9
ENDMDL
MODEL 6
REMARK VINA RESULT:    -4.377     12.513     14.433
REMARK INTER + INTRA:          -7.517
REMARK INTER:                  -6.692
REMARK INTRA:                  -0.825
REMARK UNBOUND:                -0.836
REMARK SMILES O=C([O-])CCCCCCCCC(=O)[O-]
REMARK SMILES IDX 7 1 6 2 5 3 4 4 2 5 1 6 3 7 8 8 9 9 10 10 11 11 12 12 13 13
REMARK SMILES IDX 14 14
REMARK H PARENT
REMARK Flexibility Score: inf
ROOT
ATOM      1  C   UNL     1       7.894  78.257  31.385  1.00  0.00     0.000 C 
ENDROOT
BRANCH   1   2
ATOM      2  C   UNL     1       8.678  76.988  31.783  1.00  0.00     0.000 C 
BRANCH   2   3
ATOM      3  C   UNL     1       9.745  76.536  30.770  1.00  0.00     0.006 C 
BRANCH   3   4
ATOM      4  C   UNL     1      11.142  77.077  31.097  1.00  0.00     0.053 C 
BRANCH   4   5
ATOM      5  C   UNL     1      11.343  78.418  30.463  1.00  0.00     0.041 C 
ATOM      6  O   UNL     1      11.690  79.405  31.165  1.00  0.00    -0.550 OA
ATOM      7  O   UNL     1      11.194  78.569  29.091  1.00  0.00    -0.550 OA
ENDBRANCH   4   5
ENDBRANCH   3   4
ENDBRANCH   2   3
ENDBRANCH   1   2
BRANCH   1   8
ATOM      8  C   UNL     1       8.324  79.545  32.111  1.00  0.00     0.000 C 
BRANCH   8   9
ATOM      9  C   UNL     1       7.553  79.779  33.418  1.00  0.00     0.000 C 
BRANCH   9  10
ATOM     10  C   UNL     1       8.517  80.058  34.581  1.00  0.00     0.006 C 
BRANCH  10  11
ATOM     11  C   UNL     1       9.963  80.246  34.105  1.00  0.00     0.053 C 
BRANCH  11  12
ATOM     12  C   UNL     1      10.901  79.305  34.796  1.00  0.00     0.041 C 
ATOM     13  O   UNL     1      11.651  79.721  35.719  1.00  0.00    -0.550 OA
ATOM     14  O   UNL     1      10.924  77.962  34.444  1.00  0.00    -0.550 OA
ENDBRANCH  11  12
ENDBRANCH  10  11
ENDBRANCH   9  10
ENDBRANCH   8   9
ENDBRANCH   1   8
TORSDOF 9
ENDMDL
MODEL 7
REMARK VINA RESULT:    -4.349      1.698      2.170
REMARK INTER + INTRA:          -7.474
REMARK INTER:                  -6.932
REMARK INTRA:                  -0.541
REMARK UNBOUND:                -0.836
REMARK SMILES O=C([O-])CCCCCCCCC(=O)[O-]
REMARK SMILES IDX 7 1 6 2 5 3 4 4 2 5 1 6 3 7 8 8 9 9 10 10 11 11 12 12 13 13
REMARK SMILES IDX 14 14
REMARK H PARENT
REMARK Flexibility Score: inf
ROOT
ATOM      1  C   UNL     1      20.808  67.945  35.213  1.00  0.00     0.000 C 
ENDROOT
BRANCH   1   2
ATOM      2  C   UNL     1      20.963  69.268  35.990  1.00  0.00     0.000 C 
BRANCH   2   3
ATOM      3  C   UNL     1      19.908  70.342  35.669  1.00  0.00     0.006 C 
BRANCH   3   4
ATOM      4  C   UNL     1      19.415  70.276  34.219  1.00  0.00     0.053 C 
BRANCH   4   5
ATOM      5  C   UNL     1      17.920  70.220  34.179  1.00  0.00     0.041 C 
ATOM      6  O   UNL     1      17.293  70.719  33.207  1.00  0.00    -0.550 OA
ATOM      7  O   UNL     1      17.220  69.575  35.190  1.00  0.00    -0.550 OA
ENDBRANCH   4   5
ENDBRANCH   3   4
ENDBRANCH   2   3
ENDBRANCH   1   2
BRANCH   1   8
ATOM      8  C   UNL     1      20.980  66.668  36.055  1.00  0.00     0.000 C 
BRANCH   8   9
ATOM      9  C   UNL     1      19.877  65.630  35.798  1.00  0.00     0.000 C 
BRANCH   9  10
ATOM     10  C   UNL     1      18.636  66.289  35.179  1.00  0.00     0.006 C 
BRANCH  10  11
ATOM     11  C   UNL     1      18.154  65.555  33.922  1.00  0.00     0.053 C 
BRANCH  11  12
ATOM     12  C   UNL     1      18.596  66.249  32.671  1.00  0.00     0.041 C 
ATOM     13  O   UNL     1      18.855  67.481  32.686  1.00  0.00    -0.550 OA
ATOM     14  O   UNL     1      18.755  65.528  31.494  1.00  0.00    -0.550 OA
ENDBRANCH  11  12
ENDBRANCH  10  11
ENDBRANCH   9  10
ENDBRANCH   8   9
ENDBRANCH   1   8
TORSDOF 9
ENDMDL
MODEL 8
REMARK VINA RESULT:    -4.321     12.649     14.094
REMARK INTER + INTRA:          -7.430
REMARK INTER:                  -6.547
REMARK INTRA:                  -0.884
REMARK UNBOUND:                -0.836
REMARK SMILES O=C([O-])CCCCCCCCC(=O)[O-]
REMARK SMILES IDX 7 1 6 2 5 3 4 4 2 5 1 6 3 7 8 8 9 9 10 10 11 11 12 12 13 13
REMARK SMILES IDX 14 14
REMARK H PARENT
REMARK Flexibility Score: inf
ROOT
ATOM      1  C   UNL     1       9.697  80.028  31.601  1.00  0.00     0.000 C 
ENDROOT
BRANCH   1   2
ATOM      2  C   UNL     1      11.157  79.530  31.610  1.00  0.00     0.000 C 
BRANCH   2   3
ATOM      3  C   UNL     1      11.339  78.033  31.307  1.00  0.00     0.006 C 
BRANCH   3   4
ATOM      4  C   UNL     1      10.293  77.154  32.004  1.00  0.00     0.053 C 
BRANCH   4   5
ATOM      5  C   UNL     1       9.656  76.223  31.021  1.00  0.00     0.041 C 
ATOM      6  O   UNL     1       8.714  75.468  31.382  1.00  0.00    -0.550 OA
ATOM      7  O   UNL     1      10.067  76.223  29.695  1.00  0.00    -0.550 OA
ENDBRANCH   4   5
ENDBRANCH   3   4
ENDBRANCH   2   3
ENDBRANCH   1   2
BRANCH   1   8
ATOM      8  C   UNL     1       9.281  80.855  32.831  1.00  0.00     0.000 C 
BRANCH   8   9
ATOM      9  C   UNL     1       8.313  80.104  33.757  1.00  0.00     0.000 C 
BRANCH   9  10
ATOM     10  C   UNL     1       8.919  79.926  35.157  1.00  0.00     0.006 C 
BRANCH  10  11
ATOM     11  C   UNL     1       9.809  78.681  35.250  1.00  0.00     0.053 C 
BRANCH  11  12
ATOM     12  C   UNL     1      11.222  79.035  35.601  1.00  0.00     0.041 C 
ATOM     13  O   UNL     1      12.056  78.129  35.866  1.00  0.00    -0.550 OA
ATOM     14  O   UNL     1      11.626  80.364  35.604  1.00  0.00    -0.550 OA
ENDBRANCH  11  12
ENDBRANCH  10  11
ENDBRANCH   9  10
ENDBRANCH   8   9
ENDBRANCH   1   8
TORSDOF 9
ENDMDL
MODEL 9
REMARK VINA RESULT:    -4.271     13.079     14.645
REMARK INTER + INTRA:          -7.354
REMARK INTER:                  -6.665
REMARK INTRA:                  -0.689
REMARK UNBOUND:                -0.836
REMARK SMILES O=C([O-])CCCCCCCCC(=O)[O-]
REMARK SMILES IDX 7 1 6 2 5 3 4 4 2 5 1 6 3 7 8 8 9 9 10 10 11 11 12 12 13 13
REMARK SMILES IDX 14 14
REMARK H PARENT
REMARK Flexibility Score: inf
ROOT
ATOM      1  C   UNL     1       8.382  79.226  32.150  1.00  0.00     0.000 C 
ENDROOT
BRANCH   1   2
ATOM      2  C   UNL     1       7.531  79.840  33.281  1.00  0.00     0.000 C 
BRANCH   2   3
ATOM      3  C   UNL     1       8.291  80.126  34.588  1.00  0.00     0.006 C 
BRANCH   3   4
ATOM      4  C   UNL     1       9.667  79.451  34.636  1.00  0.00     0.053 C 
BRANCH   4   5
ATOM      5  C   UNL     1      10.743  80.474  34.822  1.00  0.00     0.041 C 
ATOM      6  O   UNL     1      10.798  81.480  34.067  1.00  0.00    -0.550 OA
ATOM      7  O   UNL     1      11.656  80.343  35.860  1.00  0.00    -0.550 OA
ENDBRANCH   4   5
ENDBRANCH   3   4
ENDBRANCH   2   3
ENDBRANCH   1   2
BRANCH   1   8
ATOM      8  C   UNL     1       7.908  77.851  31.647  1.00  0.00     0.000 C 
BRANCH   8   9
ATOM      9  C   UNL     1       9.069  76.904  31.310  1.00  0.00     0.000 C 
BRANCH   9  10
ATOM     10  C   UNL     1      10.415  77.519  31.721  1.00  0.00     0.006 C 
BRANCH  10  11
ATOM     11  C   UNL     1      11.383  77.643  30.538  1.00  0.00     0.053 C 
BRANCH  11  12
ATOM     12  C   UNL     1      10.677  78.071  29.287  1.00  0.00     0.041 C 
ATOM     13  O   UNL     1      10.519  77.259  28.338  1.00  0.00    -0.550 OA
ATOM     14  O   UNL     1      10.164  79.358  29.184  1.00  0.00    -0.550 OA
ENDBRANCH  11  12
ENDBRANCH  10  11
ENDBRANCH   9  10
ENDBRANCH   8   9
ENDBRANCH   1   8
TORSDOF 9
ENDMDL
