MODEL 1
REMARK VINA RESULT:    -4.161      0.000      0.000
REMARK INTER + INTRA:          -4.553
REMARK INTER:                  -4.526
REMARK INTRA:                  -0.027
REMARK UNBOUND:                -0.027
REMARK SMILES O=C([O-])c1ccc(O)cc1
REMARK SMILES IDX 4 1 5 2 10 3 6 4 9 5 7 6 2 7 1 8 3 9 8 10
REMARK H PARENT 8 11
REMARK Flexibility Score: inf
ROOT
ATOM      1  C   UNL     1       5.159 -15.231  14.789  1.00  0.00    -0.003 A 
ATOM      2  C   UNL     1       4.162 -16.221  14.853  1.00  0.00     0.014 A 
ATOM      3  C   UNL     1       4.774 -13.880  14.694  1.00  0.00     0.014 A 
ATOM      4  C   UNL     1       2.809 -15.868  14.824  1.00  0.00     0.047 A 
ATOM      5  C   UNL     1       3.419 -13.531  14.665  1.00  0.00     0.047 A 
ATOM      6  C   UNL     1       2.435 -14.520  14.729  1.00  0.00     0.115 A 
ENDROOT
BRANCH   1   7
ATOM      7  C   UNL     1       6.589 -15.606  14.821  1.00  0.00     0.071 C 
ATOM      8  O   UNL     1       7.147 -15.917  15.907  1.00  0.00    -0.545 OA
ATOM      9  O   UNL     1       7.339 -15.621  13.650  1.00  0.00    -0.545 OA
ENDBRANCH   1   7
BRANCH   6  10
ATOM     10  O   UNL     1       1.090 -14.157  14.699  1.00  0.00    -0.508 OA
ATOM     11  H   UNL     1       0.361 -14.843  14.541  1.00  0.00     0.293 HD
ENDBRANCH   6  10
TORSDOF 2
ENDMDL
MODEL 2
REMARK VINA RESULT:    -4.160      0.047      1.532
REMARK INTER + INTRA:          -4.552
REMARK INTER:                  -4.525
REMARK INTRA:                  -0.027
REMARK UNBOUND:                -0.027
REMARK SMILES O=C([O-])c1ccc(O)cc1
REMARK SMILES IDX 4 1 5 2 10 3 6 4 9 5 7 6 2 7 1 8 3 9 8 10
REMARK H PARENT 8 11
REMARK Flexibility Score: inf
ROOT
ATOM      1  C   UNL     1       5.171 -15.253  14.793  1.00  0.00    -0.003 A 
ATOM      2  C   UNL     1       4.810 -13.896  14.729  1.00  0.00     0.014 A 
ATOM      3  C   UNL     1       4.156 -16.228  14.818  1.00  0.00     0.014 A 
ATOM      4  C   UNL     1       3.463 -13.522  14.691  1.00  0.00     0.047 A 
ATOM      5  C   UNL     1       2.810 -15.850  14.780  1.00  0.00     0.047 A 
ATOM      6  C   UNL     1       2.459 -14.499  14.716  1.00  0.00     0.115 A 
ENDROOT
BRANCH   1   7
ATOM      7  C   UNL     1       6.596 -15.647  14.833  1.00  0.00     0.071 C 
ATOM      8  O   UNL     1       7.135 -15.995  15.918  1.00  0.00    -0.545 OA
ATOM      9  O   UNL     1       7.362 -15.637  13.673  1.00  0.00    -0.545 OA
ENDBRANCH   1   7
BRANCH   6  10
ATOM     10  O   UNL     1       1.114 -14.138  14.678  1.00  0.00    -0.508 OA
ATOM     11  H   UNL     1       0.379 -14.827  14.785  1.00  0.00     0.293 HD
ENDBRANCH   6  10
TORSDOF 2
ENDMDL
MODEL 3
REMARK VINA RESULT:    -3.684      2.256      4.259
REMARK INTER + INTRA:          -4.034
REMARK INTER:                  -4.008
REMARK INTRA:                  -0.027
REMARK UNBOUND:                -0.027
REMARK SMILES O=C([O-])c1ccc(O)cc1
REMARK SMILES IDX 4 1 5 2 10 3 6 4 9 5 7 6 2 7 1 8 3 9 8 10
REMARK H PARENT 8 11
REMARK Flexibility Score: inf
ROOT
ATOM      1  C   UNL     1       3.707 -15.950  15.077  1.00  0.00    -0.003 A 
ATOM      2  C   UNL     1       3.617 -16.082  16.474  1.00  0.00     0.014 A 
ATOM      3  C   UNL     1       4.345 -16.962  14.335  1.00  0.00     0.014 A 
ATOM      4  C   UNL     1       4.152 -17.203  17.115  1.00  0.00     0.047 A 
ATOM      5  C   UNL     1       4.879 -18.082  14.981  1.00  0.00     0.047 A 
ATOM      6  C   UNL     1       4.786 -18.207  16.370  1.00  0.00     0.115 A 
ENDROOT
BRANCH   1   7
ATOM      7  C   UNL     1       3.140 -14.763  14.400  1.00  0.00     0.071 C 
ATOM      8  O   UNL     1       3.830 -13.719  14.251  1.00  0.00    -0.545 OA
ATOM      9  O   UNL     1       1.836 -14.784  13.918  1.00  0.00    -0.545 OA
ENDBRANCH   1   7
BRANCH   6  10
ATOM     10  O   UNL     1       5.322 -19.328  16.999  1.00  0.00    -0.508 OA
ATOM     11  H   UNL     1       4.845 -19.780  17.770  1.00  0.00     0.293 HD
ENDBRANCH   6  10
TORSDOF 2
ENDMDL
MODEL 4
REMARK VINA RESULT:    -3.670      2.458      3.499
REMARK INTER + INTRA:          -4.019
REMARK INTER:                  -3.991
REMARK INTRA:                  -0.028
REMARK UNBOUND:                -0.027
REMARK SMILES O=C([O-])c1ccc(O)cc1
REMARK SMILES IDX 4 1 5 2 10 3 6 4 9 5 7 6 2 7 1 8 3 9 8 10
REMARK H PARENT 8 11
REMARK Flexibility Score: inf
ROOT
ATOM      1  C   UNL     1       4.239 -13.483  14.641  1.00  0.00    -0.003 A 
ATOM      2  C   UNL     1       5.393 -14.280  14.741  1.00  0.00     0.014 A 
ATOM      3  C   UNL     1       2.978 -14.108  14.618  1.00  0.00     0.014 A 
ATOM      4  C   UNL     1       5.289 -15.672  14.817  1.00  0.00     0.047 A 
ATOM      5  C   UNL     1       2.878 -15.501  14.693  1.00  0.00     0.047 A 
ATOM      6  C   UNL     1       4.029 -16.287  14.793  1.00  0.00     0.115 A 
ENDROOT
BRANCH   1   7
ATOM      7  C   UNL     1       4.352 -12.010  14.562  1.00  0.00     0.071 C 
ATOM      8  O   UNL     1       4.006 -11.287  15.534  1.00  0.00    -0.545 OA
ATOM      9  O   UNL     1       4.841 -11.403  13.411  1.00  0.00    -0.545 OA
ENDBRANCH   1   7
BRANCH   6  10
ATOM     10  O   UNL     1       3.914 -17.673  14.868  1.00  0.00    -0.508 OA
ATOM     11  H   UNL     1       4.567 -18.230  15.405  1.00  0.00     0.293 HD
ENDBRANCH   6  10
TORSDOF 2
ENDMDL
MODEL 5
REMARK VINA RESULT:    -3.655      2.438      3.433
REMARK INTER + INTRA:          -4.003
REMARK INTER:                  -3.975
REMARK INTRA:                  -0.028
REMARK UNBOUND:                -0.027
REMARK SMILES O=C([O-])c1ccc(O)cc1
REMARK SMILES IDX 4 1 5 2 10 3 6 4 9 5 7 6 2 7 1 8 3 9 8 10
REMARK H PARENT 8 11
REMARK Flexibility Score: inf
ROOT
ATOM      1  C   UNL     1       4.189 -13.513  14.673  1.00  0.00    -0.003 A 
ATOM      2  C   UNL     1       2.924 -14.126  14.692  1.00  0.00     0.014 A 
ATOM      3  C   UNL     1       5.339 -14.320  14.773  1.00  0.00     0.014 A 
ATOM      4  C   UNL     1       2.810 -15.515  14.806  1.00  0.00     0.047 A 
ATOM      5  C   UNL     1       5.221 -15.709  14.887  1.00  0.00     0.047 A 
ATOM      6  C   UNL     1       3.960 -16.310  14.905  1.00  0.00     0.115 A 
ENDROOT
BRANCH   1   7
ATOM      7  C   UNL     1       4.307 -12.044  14.551  1.00  0.00     0.071 C 
ATOM      8  O   UNL     1       3.889 -11.289  15.469  1.00  0.00    -0.545 OA
ATOM      9  O   UNL     1       4.880 -11.475  13.420  1.00  0.00    -0.545 OA
ENDBRANCH   1   7
BRANCH   6  10
ATOM     10  O   UNL     1       3.859 -17.695  15.019  1.00  0.00    -0.508 OA
ATOM     11  H   UNL     1       2.977 -18.144  15.237  1.00  0.00     0.293 HD
ENDBRANCH   6  10
TORSDOF 2
ENDMDL
MODEL 6
REMARK VINA RESULT:    -3.629      1.795      2.122
REMARK INTER + INTRA:          -3.974
REMARK INTER:                  -3.939
REMARK INTRA:                  -0.035
REMARK UNBOUND:                -0.027
REMARK SMILES O=C([O-])c1ccc(O)cc1
REMARK SMILES IDX 4 1 5 2 10 3 6 4 9 5 7 6 2 7 1 8 3 9 8 10
REMARK H PARENT 8 11
REMARK Flexibility Score: inf
ROOT
ATOM      1  C   UNL     1       4.351 -15.920  16.116  1.00  0.00    -0.003 A 
ATOM      2  C   UNL     1       3.933 -16.084  14.783  1.00  0.00     0.014 A 
ATOM      3  C   UNL     1       3.601 -15.087  16.967  1.00  0.00     0.014 A 
ATOM      4  C   UNL     1       2.791 -15.431  14.313  1.00  0.00     0.047 A 
ATOM      5  C   UNL     1       2.459 -14.435  16.493  1.00  0.00     0.047 A 
ATOM      6  C   UNL     1       2.050 -14.603  15.167  1.00  0.00     0.115 A 
ENDROOT
BRANCH   1   7
ATOM      7  C   UNL     1       5.560 -16.613  16.611  1.00  0.00     0.071 C 
ATOM      8  O   UNL     1       6.049 -17.585  15.975  1.00  0.00    -0.545 OA
ATOM      9  O   UNL     1       6.174 -16.202  17.789  1.00  0.00    -0.545 OA
ENDBRANCH   1   7
BRANCH   6  10
ATOM     10  O   UNL     1       0.910 -13.947  14.709  1.00  0.00    -0.508 OA
ATOM     11  H   UNL     1       0.973 -13.148  14.088  1.00  0.00     0.293 HD
ENDBRANCH   6  10
TORSDOF 2
ENDMDL
MODEL 7
REMARK VINA RESULT:    -3.574      1.886      2.518
REMARK INTER + INTRA:          -3.915
REMARK INTER:                  -3.886
REMARK INTRA:                  -0.028
REMARK UNBOUND:                -0.027
REMARK SMILES O=C([O-])c1ccc(O)cc1
REMARK SMILES IDX 4 1 5 2 10 3 6 4 9 5 7 6 2 7 1 8 3 9 8 10
REMARK H PARENT 8 11
REMARK Flexibility Score: inf
ROOT
ATOM      1  C   UNL     1       3.885 -15.897  14.988  1.00  0.00    -0.003 A 
ATOM      2  C   UNL     1       4.772 -14.811  15.082  1.00  0.00     0.014 A 
ATOM      3  C   UNL     1       2.501 -15.658  15.085  1.00  0.00     0.014 A 
ATOM      4  C   UNL     1       4.287 -13.513  15.270  1.00  0.00     0.047 A 
ATOM      5  C   UNL     1       2.020 -14.358  15.273  1.00  0.00     0.047 A 
ATOM      6  C   UNL     1       2.908 -13.284  15.366  1.00  0.00     0.115 A 
ENDROOT
BRANCH   1   7
ATOM      7  C   UNL     1       4.400 -17.270  14.789  1.00  0.00     0.071 C 
ATOM      8  O   UNL     1       4.245 -18.148  15.678  1.00  0.00    -0.545 OA
ATOM      9  O   UNL     1       5.065 -17.608  13.616  1.00  0.00    -0.545 OA
ENDBRANCH   1   7
BRANCH   6  10
ATOM     10  O   UNL     1       2.414 -11.995  15.553  1.00  0.00    -0.508 OA
ATOM     11  H   UNL     1       2.512 -11.514  16.439  1.00  0.00     0.293 HD
ENDBRANCH   6  10
TORSDOF 2
ENDMDL
MODEL 8
REMARK VINA RESULT:    -3.504     18.105     20.187
REMARK INTER + INTRA:          -3.839
REMARK INTER:                  -3.812
REMARK INTRA:                  -0.027
REMARK UNBOUND:                -0.027
REMARK SMILES O=C([O-])c1ccc(O)cc1
REMARK SMILES IDX 4 1 5 2 10 3 6 4 9 5 7 6 2 7 1 8 3 9 8 10
REMARK H PARENT 8 11
REMARK Flexibility Score: inf
ROOT
ATOM      1  C   UNL     1     -10.669  -6.763   3.893  1.00  0.00    -0.003 A 
ATOM      2  C   UNL     1     -11.144  -7.518   4.980  1.00  0.00     0.014 A 
ATOM      3  C   UNL     1      -9.542  -5.940   4.074  1.00  0.00     0.014 A 
ATOM      4  C   UNL     1     -10.505  -7.452   6.222  1.00  0.00     0.047 A 
ATOM      5  C   UNL     1      -8.906  -5.876   5.318  1.00  0.00     0.047 A 
ATOM      6  C   UNL     1      -9.383  -6.629   6.394  1.00  0.00     0.115 A 
ENDROOT
BRANCH   1   7
ATOM      7  C   UNL     1     -11.346  -6.836   2.580  1.00  0.00     0.071 C 
ATOM      8  O   UNL     1     -12.073  -5.887   2.180  1.00  0.00    -0.545 OA
ATOM      9  O   UNL     1     -11.191  -7.953   1.768  1.00  0.00    -0.545 OA
ENDBRANCH   1   7
BRANCH   6  10
ATOM     10  O   UNL     1      -8.739  -6.555   7.627  1.00  0.00    -0.508 OA
ATOM     11  H   UNL     1      -8.791  -7.314   8.297  1.00  0.00     0.293 HD
ENDBRANCH   6  10
TORSDOF 2
ENDMDL
MODEL 9
REMARK VINA RESULT:    -3.474      1.198      4.406
REMARK INTER + INTRA:          -3.805
REMARK INTER:                  -3.772
REMARK INTRA:                  -0.034
REMARK UNBOUND:                -0.027
REMARK SMILES O=C([O-])c1ccc(O)cc1
REMARK SMILES IDX 4 1 5 2 10 3 6 4 9 5 7 6 2 7 1 8 3 9 8 10
REMARK H PARENT 8 11
REMARK Flexibility Score: inf
ROOT
ATOM      1  C   UNL     1       3.816 -14.953  14.791  1.00  0.00    -0.003 A 
ATOM      2  C   UNL     1       5.096 -14.373  14.809  1.00  0.00     0.014 A 
ATOM      3  C   UNL     1       3.703 -16.354  14.717  1.00  0.00     0.014 A 
ATOM      4  C   UNL     1       6.240 -15.175  14.756  1.00  0.00     0.047 A 
ATOM      5  C   UNL     1       4.850 -17.154  14.664  1.00  0.00     0.047 A 
ATOM      6  C   UNL     1       6.119 -16.570  14.683  1.00  0.00     0.115 A 
ENDROOT
BRANCH   1   7
ATOM      7  C   UNL     1       2.607 -14.102  14.847  1.00  0.00     0.071 C 
ATOM      8  O   UNL     1       1.524 -14.491  14.334  1.00  0.00    -0.545 OA
ATOM      9  O   UNL     1       2.651 -12.859  15.468  1.00  0.00    -0.545 OA
ENDBRANCH   1   7
BRANCH   6  10
ATOM     10  O   UNL     1       7.251 -17.379  14.630  1.00  0.00    -0.508 OA
ATOM     11  H   UNL     1       7.178 -18.390  14.629  1.00  0.00     0.293 HD
ENDBRANCH   6  10
TORSDOF 2
ENDMDL
