MODEL 1
REMARK VINA RESULT:    -6.950      0.000      0.000
REMARK INTER + INTRA:          -9.503
REMARK INTER:                  -8.779
REMARK INTRA:                  -0.724
REMARK UNBOUND:                -0.724
REMARK SMILES O=C(C=Cc1ccc(O)cc1)c1ccc(O)cc1O
REMARK SMILES IDX 4 1 3 2 5 3 6 4 7 5 8 6 11 7 10 8 9 9 2 11 1 12 12 13 18 14
REMARK SMILES IDX 13 15 17 16 14 17 15 18 19 19 16 21
REMARK H PARENT 9 10 19 20 16 22
REMARK Flexibility Score: inf
ROOT
ATOM      1  C   UNL     1      20.070  24.406  40.181  1.00  0.00     0.012 C 
ATOM      2  C   UNL     1      19.367  25.499  39.849  1.00  0.00     0.053 C 
ENDROOT
BRANCH   1   3
ATOM      3  C   UNL     1      20.089  23.159  39.376  1.00  0.00    -0.025 A 
ATOM      4  C   UNL     1      19.642  23.108  38.039  1.00  0.00     0.012 A 
ATOM      5  C   UNL     1      19.692  21.908  37.322  1.00  0.00     0.047 A 
ATOM      6  C   UNL     1      20.192  20.748  37.920  1.00  0.00     0.115 A 
ATOM      7  C   UNL     1      20.604  21.990  39.962  1.00  0.00     0.012 A 
ATOM      8  C   UNL     1      20.651  20.793  39.243  1.00  0.00     0.047 A 
BRANCH   6   9
ATOM      9  O   UNL     1      20.233  19.561  37.193  1.00  0.00    -0.508 OA
ATOM     10  H   UNL     1      20.367  18.666  37.648  1.00  0.00     0.293 HD
ENDBRANCH   6   9
ENDBRANCH   1   3
BRANCH   2  11
ATOM     11  C   UNL     1      19.368  26.730  40.668  1.00  0.00     0.189 C 
ATOM     12  O   UNL     1      19.676  27.816  40.105  1.00  0.00    -0.289 OA
BRANCH  11  13
ATOM     13  C   UNL     1      18.996  26.745  42.104  1.00  0.00     0.064 A 
ATOM     14  C   UNL     1      19.935  27.122  43.086  1.00  0.00     0.130 A 
ATOM     15  C   UNL     1      17.684  26.425  42.495  1.00  0.00     0.020 A 
ATOM     16  C   UNL     1      19.557  27.157  44.437  1.00  0.00     0.093 A 
ATOM     17  C   UNL     1      17.318  26.459  43.843  1.00  0.00     0.047 A 
ATOM     18  C   UNL     1      18.253  26.825  44.817  1.00  0.00     0.119 A 
BRANCH  14  19
ATOM     19  O   UNL     1      21.242  27.448  42.723  1.00  0.00    -0.507 OA
ATOM     20  H   UNL     1      21.881  26.751  42.360  1.00  0.00     0.293 HD
ENDBRANCH  14  19
BRANCH  18  21
ATOM     21  O   UNL     1      17.898  26.863  46.164  1.00  0.00    -0.508 OA
ATOM     22  H   UNL     1      18.548  27.180  46.874  1.00  0.00     0.293 HD
ENDBRANCH  18  21
ENDBRANCH  11  13
ENDBRANCH   2  11
TORSDOF 6
ENDMDL
MODEL 2
REMARK VINA RESULT:    -6.949      1.024      1.225
REMARK INTER + INTRA:          -9.502
REMARK INTER:                  -8.920
REMARK INTRA:                  -0.581
REMARK UNBOUND:                -0.724
REMARK SMILES O=C(C=Cc1ccc(O)cc1)c1ccc(O)cc1O
REMARK SMILES IDX 4 1 3 2 5 3 6 4 7 5 8 6 11 7 10 8 9 9 2 11 1 12 12 13 18 14
REMARK SMILES IDX 13 15 17 16 14 17 15 18 19 19 16 21
REMARK H PARENT 9 10 19 20 16 22
REMARK Flexibility Score: inf
ROOT
ATOM      1  C   UNL     1      19.914  24.733  40.220  1.00  0.00     0.012 C 
ATOM      2  C   UNL     1      19.028  24.950  41.203  1.00  0.00     0.053 C 
ENDROOT
BRANCH   1   3
ATOM      3  C   UNL     1      19.988  23.475  39.437  1.00  0.00    -0.025 A 
ATOM      4  C   UNL     1      19.535  23.380  38.104  1.00  0.00     0.012 A 
ATOM      5  C   UNL     1      19.638  22.172  37.407  1.00  0.00     0.047 A 
ATOM      6  C   UNL     1      20.199  21.048  38.020  1.00  0.00     0.115 A 
ATOM      7  C   UNL     1      20.565  22.343  40.037  1.00  0.00     0.012 A 
ATOM      8  C   UNL     1      20.666  21.137  39.337  1.00  0.00     0.047 A 
BRANCH   6   9
ATOM      9  O   UNL     1      20.293  19.852  37.312  1.00  0.00    -0.508 OA
ATOM     10  H   UNL     1      19.850  19.736  36.408  1.00  0.00     0.293 HD
ENDBRANCH   6   9
ENDBRANCH   1   3
BRANCH   2  11
ATOM     11  C   UNL     1      18.975  26.215  41.967  1.00  0.00     0.189 C 
ATOM     12  O   UNL     1      19.518  27.236  41.464  1.00  0.00    -0.289 OA
BRANCH  11  13
ATOM     13  C   UNL     1      18.290  26.339  43.277  1.00  0.00     0.064 A 
ATOM     14  C   UNL     1      18.838  27.134  44.304  1.00  0.00     0.130 A 
ATOM     15  C   UNL     1      17.056  25.697  43.490  1.00  0.00     0.020 A 
ATOM     16  C   UNL     1      18.162  27.261  45.527  1.00  0.00     0.093 A 
ATOM     17  C   UNL     1      16.392  25.827  44.711  1.00  0.00     0.047 A 
ATOM     18  C   UNL     1      16.942  26.609  45.733  1.00  0.00     0.119 A 
BRANCH  14  19
ATOM     19  O   UNL     1      20.058  27.783  44.116  1.00  0.00    -0.507 OA
ATOM     20  H   UNL     1      20.789  27.384  43.539  1.00  0.00     0.293 HD
ENDBRANCH  14  19
BRANCH  18  21
ATOM     21  O   UNL     1      16.287  26.746  46.955  1.00  0.00    -0.508 OA
ATOM     22  H   UNL     1      16.793  26.956  47.806  1.00  0.00     0.293 HD
ENDBRANCH  18  21
ENDBRANCH  11  13
ENDBRANCH   2  11
TORSDOF 6
ENDMDL
MODEL 3
REMARK VINA RESULT:    -6.409      1.611      7.471
REMARK INTER + INTRA:          -8.819
REMARK INTER:                  -8.192
REMARK INTRA:                  -0.626
REMARK UNBOUND:                -0.724
REMARK SMILES O=C(C=Cc1ccc(O)cc1)c1ccc(O)cc1O
REMARK SMILES IDX 4 1 3 2 5 3 6 4 7 5 8 6 11 7 10 8 9 9 2 11 1 12 12 13 18 14
REMARK SMILES IDX 13 15 17 16 14 17 15 18 19 19 16 21
REMARK H PARENT 9 10 19 20 16 22
REMARK Flexibility Score: inf
ROOT
ATOM      1  C   UNL     1      18.728  26.378  42.844  1.00  0.00     0.012 C 
ATOM      2  C   UNL     1      18.727  25.336  42.001  1.00  0.00     0.053 C 
ENDROOT
BRANCH   1   3
ATOM      3  C   UNL     1      17.978  26.407  44.125  1.00  0.00    -0.025 A 
ATOM      4  C   UNL     1      17.985  27.524  44.986  1.00  0.00     0.012 A 
ATOM      5  C   UNL     1      17.251  27.503  46.176  1.00  0.00     0.047 A 
ATOM      6  C   UNL     1      16.497  26.378  46.522  1.00  0.00     0.115 A 
ATOM      7  C   UNL     1      17.204  25.288  44.474  1.00  0.00     0.012 A 
ATOM      8  C   UNL     1      16.472  25.270  45.665  1.00  0.00     0.047 A 
BRANCH   6   9
ATOM      9  O   UNL     1      15.773  26.373  47.711  1.00  0.00    -0.508 OA
ATOM     10  H   UNL     1      14.844  26.774  47.768  1.00  0.00     0.293 HD
ENDBRANCH   6   9
ENDBRANCH   1   3
BRANCH   2  11
ATOM     11  C   UNL     1      19.486  25.333  40.731  1.00  0.00     0.189 C 
ATOM     12  O   UNL     1      19.953  26.428  40.317  1.00  0.00    -0.289 OA
BRANCH  11  13
ATOM     13  C   UNL     1      19.743  24.100  39.947  1.00  0.00     0.064 A 
ATOM     14  C   UNL     1      19.398  24.030  38.582  1.00  0.00     0.130 A 
ATOM     15  C   UNL     1      20.377  23.000  40.552  1.00  0.00     0.020 A 
ATOM     16  C   UNL     1      19.674  22.866  37.850  1.00  0.00     0.093 A 
ATOM     17  C   UNL     1      20.645  21.844  39.816  1.00  0.00     0.047 A 
ATOM     18  C   UNL     1      20.294  21.773  38.463  1.00  0.00     0.119 A 
BRANCH  14  19
ATOM     19  O   UNL     1      18.771  25.109  37.958  1.00  0.00    -0.507 OA
ATOM     20  H   UNL     1      17.791  25.080  37.705  1.00  0.00     0.293 HD
ENDBRANCH  14  19
BRANCH  18  21
ATOM     21  O   UNL     1      20.557  20.625  37.720  1.00  0.00    -0.508 OA
ATOM     22  H   UNL     1      19.965  20.348  36.946  1.00  0.00     0.293 HD
ENDBRANCH  18  21
ENDBRANCH  11  13
ENDBRANCH   2  11
TORSDOF 6
ENDMDL
MODEL 4
REMARK VINA RESULT:    -6.163      2.452      3.378
REMARK INTER + INTRA:          -8.508
REMARK INTER:                  -8.172
REMARK INTRA:                  -0.336
REMARK UNBOUND:                -0.724
REMARK SMILES O=C(C=Cc1ccc(O)cc1)c1ccc(O)cc1O
REMARK SMILES IDX 4 1 3 2 5 3 6 4 7 5 8 6 11 7 10 8 9 9 2 11 1 12 12 13 18 14
REMARK SMILES IDX 13 15 17 16 14 17 15 18 19 19 16 21
REMARK H PARENT 9 10 19 20 16 22
REMARK Flexibility Score: inf
ROOT
ATOM      1  C   UNL     1      18.036  24.122  41.846  1.00  0.00     0.012 C 
ATOM      2  C   UNL     1      18.092  23.660  43.104  1.00  0.00     0.053 C 
ENDROOT
BRANCH   1   3
ATOM      3  C   UNL     1      18.731  23.487  40.699  1.00  0.00    -0.025 A 
ATOM      4  C   UNL     1      18.328  23.682  39.362  1.00  0.00     0.012 A 
ATOM      5  C   UNL     1      19.025  23.068  38.317  1.00  0.00     0.047 A 
ATOM      6  C   UNL     1      20.134  22.260  38.585  1.00  0.00     0.115 A 
ATOM      7  C   UNL     1      19.857  22.686  40.957  1.00  0.00     0.012 A 
ATOM      8  C   UNL     1      20.550  22.073  39.909  1.00  0.00     0.047 A 
BRANCH   6   9
ATOM      9  O   UNL     1      20.816  21.655  37.533  1.00  0.00    -0.508 OA
ATOM     10  H   UNL     1      21.734  21.972  37.244  1.00  0.00     0.293 HD
ENDBRANCH   6   9
ENDBRANCH   1   3
BRANCH   2  11
ATOM     11  C   UNL     1      17.388  24.312  44.229  1.00  0.00     0.189 C 
ATOM     12  O   UNL     1      16.501  23.651  44.836  1.00  0.00    -0.289 OA
BRANCH  11  13
ATOM     13  C   UNL     1      17.699  25.687  44.687  1.00  0.00     0.064 A 
ATOM     14  C   UNL     1      16.839  26.360  45.580  1.00  0.00     0.130 A 
ATOM     15  C   UNL     1      18.883  26.319  44.269  1.00  0.00     0.020 A 
ATOM     16  C   UNL     1      17.163  27.651  46.024  1.00  0.00     0.093 A 
ATOM     17  C   UNL     1      19.197  27.605  44.714  1.00  0.00     0.047 A 
ATOM     18  C   UNL     1      18.338  28.275  45.592  1.00  0.00     0.119 A 
BRANCH  14  19
ATOM     19  O   UNL     1      15.660  25.754  46.013  1.00  0.00    -0.507 OA
ATOM     20  H   UNL     1      15.094  26.158  46.751  1.00  0.00     0.293 HD
ENDBRANCH  14  19
BRANCH  18  21
ATOM     21  O   UNL     1      18.641  29.558  46.043  1.00  0.00    -0.508 OA
ATOM     22  H   UNL     1      18.316  30.382  45.552  1.00  0.00     0.293 HD
ENDBRANCH  18  21
ENDBRANCH  11  13
ENDBRANCH   2  11
TORSDOF 6
ENDMDL
MODEL 5
REMARK VINA RESULT:    -6.066      5.242      8.789
REMARK INTER + INTRA:          -8.386
REMARK INTER:                  -7.686
REMARK INTRA:                  -0.700
REMARK UNBOUND:                -0.724
REMARK SMILES O=C(C=Cc1ccc(O)cc1)c1ccc(O)cc1O
REMARK SMILES IDX 4 1 3 2 5 3 6 4 7 5 8 6 11 7 10 8 9 9 2 11 1 12 12 13 18 14
REMARK SMILES IDX 13 15 17 16 14 17 15 18 19 19 16 21
REMARK H PARENT 9 10 19 20 16 22
REMARK Flexibility Score: inf
ROOT
ATOM      1  C   UNL     1      15.570  24.347  44.896  1.00  0.00     0.012 C 
ATOM      2  C   UNL     1      15.551  23.863  43.646  1.00  0.00     0.053 C 
ENDROOT
BRANCH   1   3
ATOM      3  C   UNL     1      16.231  25.619  45.281  1.00  0.00    -0.025 A 
ATOM      4  C   UNL     1      16.077  26.202  46.556  1.00  0.00     0.012 A 
ATOM      5  C   UNL     1      16.732  27.397  46.871  1.00  0.00     0.047 A 
ATOM      6  C   UNL     1      17.554  28.021  45.929  1.00  0.00     0.115 A 
ATOM      7  C   UNL     1      17.072  26.247  44.347  1.00  0.00     0.012 A 
ATOM      8  C   UNL     1      17.725  27.441  44.665  1.00  0.00     0.047 A 
BRANCH   6   9
ATOM      9  O   UNL     1      18.197  29.212  46.257  1.00  0.00    -0.508 OA
ATOM     10  H   UNL     1      19.062  29.218  46.786  1.00  0.00     0.293 HD
ENDBRANCH   6   9
ENDBRANCH   1   3
BRANCH   2  11
ATOM     11  C   UNL     1      14.882  22.593  43.289  1.00  0.00     0.189 C 
ATOM     12  O   UNL     1      13.905  22.641  42.493  1.00  0.00    -0.289 OA
BRANCH  11  13
ATOM     13  C   UNL     1      15.327  21.274  43.801  1.00  0.00     0.064 A 
ATOM     14  C   UNL     1      14.387  20.309  44.217  1.00  0.00     0.130 A 
ATOM     15  C   UNL     1      16.697  20.957  43.835  1.00  0.00     0.020 A 
ATOM     16  C   UNL     1      14.826  19.057  44.673  1.00  0.00     0.093 A 
ATOM     17  C   UNL     1      17.124  19.709  44.293  1.00  0.00     0.047 A 
ATOM     18  C   UNL     1      16.190  18.756  44.713  1.00  0.00     0.119 A 
BRANCH  14  19
ATOM     19  O   UNL     1      13.022  20.598  44.191  1.00  0.00    -0.507 OA
ATOM     20  H   UNL     1      12.634  21.267  43.537  1.00  0.00     0.293 HD
ENDBRANCH  14  19
BRANCH  18  21
ATOM     21  O   UNL     1      16.606  17.508  45.172  1.00  0.00    -0.508 OA
ATOM     22  H   UNL     1      16.208  17.089  46.004  1.00  0.00     0.293 HD
ENDBRANCH  18  21
ENDBRANCH  11  13
ENDBRANCH   2  11
TORSDOF 6
ENDMDL
MODEL 6
REMARK VINA RESULT:    -5.891      4.226      7.045
REMARK INTER + INTRA:          -8.165
REMARK INTER:                  -7.632
REMARK INTRA:                  -0.533
REMARK UNBOUND:                -0.724
REMARK SMILES O=C(C=Cc1ccc(O)cc1)c1ccc(O)cc1O
REMARK SMILES IDX 4 1 3 2 5 3 6 4 7 5 8 6 11 7 10 8 9 9 2 11 1 12 12 13 18 14
REMARK SMILES IDX 13 15 17 16 14 17 15 18 19 19 16 21
REMARK H PARENT 9 10 19 20 16 22
REMARK Flexibility Score: inf
ROOT
ATOM      1  C   UNL     1      17.810  22.219  43.106  1.00  0.00     0.012 C 
ATOM      2  C   UNL     1      17.960  23.549  43.029  1.00  0.00     0.053 C 
ENDROOT
BRANCH   1   3
ATOM      3  C   UNL     1      17.171  21.523  44.250  1.00  0.00    -0.025 A 
ATOM      4  C   UNL     1      16.709  20.192  44.171  1.00  0.00     0.012 A 
ATOM      5  C   UNL     1      16.124  19.580  45.284  1.00  0.00     0.047 A 
ATOM      6  C   UNL     1      15.997  20.277  46.489  1.00  0.00     0.115 A 
ATOM      7  C   UNL     1      17.053  22.208  45.471  1.00  0.00     0.012 A 
ATOM      8  C   UNL     1      16.466  21.593  46.581  1.00  0.00     0.047 A 
BRANCH   6   9
ATOM      9  O   UNL     1      15.410  19.653  47.587  1.00  0.00    -0.508 OA
ATOM     10  H   UNL     1      15.948  19.419  48.413  1.00  0.00     0.293 HD
ENDBRANCH   6   9
ENDBRANCH   1   3
BRANCH   2  11
ATOM     11  C   UNL     1      18.599  24.217  41.875  1.00  0.00     0.189 C 
ATOM     12  O   UNL     1      18.728  25.471  41.912  1.00  0.00    -0.289 OA
BRANCH  11  13
ATOM     13  C   UNL     1      19.117  23.477  40.699  1.00  0.00     0.064 A 
ATOM     14  C   UNL     1      18.595  23.715  39.411  1.00  0.00     0.130 A 
ATOM     15  C   UNL     1      20.171  22.558  40.852  1.00  0.00     0.020 A 
ATOM     16  C   UNL     1      19.116  23.025  38.306  1.00  0.00     0.093 A 
ATOM     17  C   UNL     1      20.682  21.874  39.747  1.00  0.00     0.047 A 
ATOM     18  C   UNL     1      20.156  22.106  38.471  1.00  0.00     0.119 A 
BRANCH  14  19
ATOM     19  O   UNL     1      17.552  24.624  39.232  1.00  0.00    -0.507 OA
ATOM     20  H   UNL     1      17.273  25.264  39.966  1.00  0.00     0.293 HD
ENDBRANCH  14  19
BRANCH  18  21
ATOM     21  O   UNL     1      20.659  21.429  37.362  1.00  0.00    -0.508 OA
ATOM     22  H   UNL     1      20.285  21.583  36.433  1.00  0.00     0.293 HD
ENDBRANCH  18  21
ENDBRANCH  11  13
ENDBRANCH   2  11
TORSDOF 6
ENDMDL
MODEL 7
REMARK VINA RESULT:    -5.839      4.948      5.835
REMARK INTER + INTRA:          -8.099
REMARK INTER:                  -7.455
REMARK INTRA:                  -0.644
REMARK UNBOUND:                -0.724
REMARK SMILES O=C(C=Cc1ccc(O)cc1)c1ccc(O)cc1O
REMARK SMILES IDX 4 1 3 2 5 3 6 4 7 5 8 6 11 7 10 8 9 9 2 11 1 12 12 13 18 14
REMARK SMILES IDX 13 15 17 16 14 17 15 18 19 19 16 21
REMARK H PARENT 9 10 19 20 16 22
REMARK Flexibility Score: inf
ROOT
ATOM      1  C   UNL     1      16.885  21.943  43.364  1.00  0.00     0.012 C 
ATOM      2  C   UNL     1      16.263  23.063  42.969  1.00  0.00     0.053 C 
ENDROOT
BRANCH   1   3
ATOM      3  C   UNL     1      16.204  20.819  44.055  1.00  0.00    -0.025 A 
ATOM      4  C   UNL     1      16.868  19.623  44.399  1.00  0.00     0.012 A 
ATOM      5  C   UNL     1      16.182  18.599  45.060  1.00  0.00     0.047 A 
ATOM      6  C   UNL     1      14.834  18.752  45.393  1.00  0.00     0.115 A 
ATOM      7  C   UNL     1      14.853  20.969  44.409  1.00  0.00     0.012 A 
ATOM      8  C   UNL     1      14.170  19.942  45.068  1.00  0.00     0.047 A 
BRANCH   6   9
ATOM      9  O   UNL     1      14.165  17.722  46.049  1.00  0.00    -0.508 OA
ATOM     10  H   UNL     1      14.622  16.842  46.257  1.00  0.00     0.293 HD
ENDBRANCH   6   9
ENDBRANCH   1   3
BRANCH   2  11
ATOM     11  C   UNL     1      16.965  24.168  42.281  1.00  0.00     0.189 C 
ATOM     12  O   UNL     1      16.853  24.252  41.028  1.00  0.00    -0.289 OA
BRANCH  11  13
ATOM     13  C   UNL     1      17.766  25.189  43.000  1.00  0.00     0.064 A 
ATOM     14  C   UNL     1      18.891  25.781  42.391  1.00  0.00     0.130 A 
ATOM     15  C   UNL     1      17.380  25.610  44.285  1.00  0.00     0.020 A 
ATOM     16  C   UNL     1      19.620  26.765  43.076  1.00  0.00     0.093 A 
ATOM     17  C   UNL     1      18.113  26.588  44.961  1.00  0.00     0.047 A 
ATOM     18  C   UNL     1      19.235  27.168  44.358  1.00  0.00     0.119 A 
BRANCH  14  19
ATOM     19  O   UNL     1      19.293  25.383  41.116  1.00  0.00    -0.507 OA
ATOM     20  H   UNL     1      18.636  24.994  40.449  1.00  0.00     0.293 HD
ENDBRANCH  14  19
BRANCH  18  21
ATOM     21  O   UNL     1      19.973  28.144  45.024  1.00  0.00    -0.508 OA
ATOM     22  H   UNL     1      19.866  28.303  46.018  1.00  0.00     0.293 HD
ENDBRANCH  18  21
ENDBRANCH  11  13
ENDBRANCH   2  11
TORSDOF 6
ENDMDL
MODEL 8
REMARK VINA RESULT:    -5.820      3.109      8.111
REMARK INTER + INTRA:          -8.075
REMARK INTER:                  -7.486
REMARK INTRA:                  -0.589
REMARK UNBOUND:                -0.724
REMARK SMILES O=C(C=Cc1ccc(O)cc1)c1ccc(O)cc1O
REMARK SMILES IDX 4 1 3 2 5 3 6 4 7 5 8 6 11 7 10 8 9 9 2 11 1 12 12 13 18 14
REMARK SMILES IDX 13 15 17 16 14 17 15 18 19 19 16 21
REMARK H PARENT 9 10 19 20 16 22
REMARK Flexibility Score: inf
ROOT
ATOM      1  C   UNL     1      17.344  26.365  46.059  1.00  0.00     0.012 C 
ATOM      2  C   UNL     1      17.584  26.868  44.839  1.00  0.00     0.053 C 
ENDROOT
BRANCH   1   3
ATOM      3  C   UNL     1      16.016  26.395  46.720  1.00  0.00    -0.025 A 
ATOM      4  C   UNL     1      14.954  25.550  46.334  1.00  0.00     0.012 A 
ATOM      5  C   UNL     1      13.725  25.611  46.998  1.00  0.00     0.047 A 
ATOM      6  C   UNL     1      13.538  26.505  48.057  1.00  0.00     0.115 A 
ATOM      7  C   UNL     1      15.822  27.278  47.795  1.00  0.00     0.012 A 
ATOM      8  C   UNL     1      14.591  27.337  48.456  1.00  0.00     0.047 A 
BRANCH   6   9
ATOM      9  O   UNL     1      12.307  26.554  48.706  1.00  0.00    -0.508 OA
ATOM     10  H   UNL     1      11.528  25.978  48.410  1.00  0.00     0.293 HD
ENDBRANCH   6   9
ENDBRANCH   1   3
BRANCH   2  11
ATOM     11  C   UNL     1      18.918  26.823  44.203  1.00  0.00     0.189 C 
ATOM     12  O   UNL     1      19.914  27.183  44.887  1.00  0.00    -0.289 OA
BRANCH  11  13
ATOM     13  C   UNL     1      19.134  26.350  42.814  1.00  0.00     0.064 A 
ATOM     14  C   UNL     1      20.158  26.901  42.016  1.00  0.00     0.130 A 
ATOM     15  C   UNL     1      18.344  25.309  42.293  1.00  0.00     0.020 A 
ATOM     16  C   UNL     1      20.365  26.421  40.714  1.00  0.00     0.093 A 
ATOM     17  C   UNL     1      18.556  24.840  40.995  1.00  0.00     0.047 A 
ATOM     18  C   UNL     1      19.567  25.394  40.202  1.00  0.00     0.119 A 
BRANCH  14  19
ATOM     19  O   UNL     1      20.958  27.931  42.511  1.00  0.00    -0.507 OA
ATOM     20  H   UNL     1      21.850  28.160  42.089  1.00  0.00     0.293 HD
ENDBRANCH  14  19
BRANCH  18  21
ATOM     21  O   UNL     1      19.786  24.933  38.906  1.00  0.00    -0.508 OA
ATOM     22  H   UNL     1      19.187  25.208  38.137  1.00  0.00     0.293 HD
ENDBRANCH  18  21
ENDBRANCH  11  13
ENDBRANCH   2  11
TORSDOF 6
ENDMDL
MODEL 9
REMARK VINA RESULT:    -5.802      4.487      5.462
REMARK INTER + INTRA:          -8.052
REMARK INTER:                  -7.608
REMARK INTRA:                  -0.445
REMARK UNBOUND:                -0.724
REMARK SMILES O=C(C=Cc1ccc(O)cc1)c1ccc(O)cc1O
REMARK SMILES IDX 4 1 3 2 5 3 6 4 7 5 8 6 11 7 10 8 9 9 2 11 1 12 12 13 18 14
REMARK SMILES IDX 13 15 17 16 14 17 15 18 19 19 16 21
REMARK H PARENT 9 10 19 20 16 22
REMARK Flexibility Score: inf
ROOT
ATOM      1  C   UNL     1      16.060  22.976  42.882  1.00  0.00     0.012 C 
ATOM      2  C   UNL     1      17.178  23.438  42.304  1.00  0.00     0.053 C 
ENDROOT
BRANCH   1   3
ATOM      3  C   UNL     1      15.939  21.628  43.491  1.00  0.00    -0.025 A 
ATOM      4  C   UNL     1      14.697  20.983  43.671  1.00  0.00     0.012 A 
ATOM      5  C   UNL     1      14.641  19.707  44.240  1.00  0.00     0.047 A 
ATOM      6  C   UNL     1      15.813  19.053  44.628  1.00  0.00     0.115 A 
ATOM      7  C   UNL     1      17.113  20.956  43.870  1.00  0.00     0.012 A 
ATOM      8  C   UNL     1      17.051  19.681  44.439  1.00  0.00     0.047 A 
BRANCH   6   9
ATOM      9  O   UNL     1      15.739  17.783  45.195  1.00  0.00    -0.508 OA
ATOM     10  H   UNL     1      15.576  17.655  46.187  1.00  0.00     0.293 HD
ENDBRANCH   6   9
ENDBRANCH   1   3
BRANCH   2  11
ATOM     11  C   UNL     1      17.272  24.787  41.706  1.00  0.00     0.189 C 
ATOM     12  O   UNL     1      16.247  25.260  41.144  1.00  0.00    -0.289 OA
BRANCH  11  13
ATOM     13  C   UNL     1      18.503  25.613  41.766  1.00  0.00     0.064 A 
ATOM     14  C   UNL     1      18.813  26.361  42.920  1.00  0.00     0.130 A 
ATOM     15  C   UNL     1      19.399  25.620  40.682  1.00  0.00     0.020 A 
ATOM     16  C   UNL     1      19.996  27.114  42.968  1.00  0.00     0.093 A 
ATOM     17  C   UNL     1      20.573  26.375  40.738  1.00  0.00     0.047 A 
ATOM     18  C   UNL     1      20.874  27.124  41.881  1.00  0.00     0.119 A 
BRANCH  14  19
ATOM     19  O   UNL     1      17.942  26.367  44.010  1.00  0.00    -0.507 OA
ATOM     20  H   UNL     1      16.965  26.613  43.907  1.00  0.00     0.293 HD
ENDBRANCH  14  19
BRANCH  18  21
ATOM     21  O   UNL     1      22.042  27.880  41.947  1.00  0.00    -0.508 OA
ATOM     22  H   UNL     1      22.590  28.082  41.119  1.00  0.00     0.293 HD
ENDBRANCH  18  21
ENDBRANCH  11  13
ENDBRANCH   2  11
TORSDOF 6
ENDMDL
