MODEL 1
REMARK VINA RESULT:     0.000      0.000      0.000
REMARK INTER + INTRA:          -0.485
REMARK INTER:                   0.000
REMARK INTRA:                  -0.485
REMARK UNBOUND:                -0.485
REMARK SMILES CCCCCCC(=O)[O-]
REMARK SMILES IDX 5 1 6 2 7 3 8 4 9 5 4 6 3 7 2 8 1 9
REMARK H PARENT
REMARK Flexibility Score: inf
ROOT
ATOM      1  C   UNL     1     180.131 186.607 195.365  1.00  0.00     0.006 C 
ENDROOT
BRANCH   1   2
ATOM      2  C   UNL     1     180.520 186.810 196.832  1.00  0.00     0.053 C 
BRANCH   2   3
ATOM      3  C   UNL     1     179.366 187.359 197.610  1.00  0.00     0.041 C 
ATOM      4  O   UNL     1     179.065 186.866 198.728  1.00  0.00    -0.550 OA
ATOM      5  O   UNL     1     178.593 188.382 197.076  1.00  0.00    -0.550 OA
ENDBRANCH   2   3
ENDBRANCH   1   2
BRANCH   1   6
ATOM      6  C   UNL     1     179.254 185.360 195.195  1.00  0.00     0.000 C 
BRANCH   6   7
ATOM      7  C   UNL     1     177.908 185.719 194.548  1.00  0.00    -0.000 C 
BRANCH   7   8
ATOM      8  C   UNL     1     176.738 185.646 195.540  1.00  0.00    -0.003 C 
ATOM      9  C   UNL     1     176.982 184.647 196.672  1.00  0.00     0.004 C 
ENDBRANCH   7   8
ENDBRANCH   6   7
ENDBRANCH   1   6
TORSDOF 5
ENDMDL
MODEL 2
REMARK VINA RESULT:     0.000     10.113     11.236
REMARK INTER + INTRA:          -0.485
REMARK INTER:                   0.000
REMARK INTRA:                  -0.485
REMARK UNBOUND:                -0.485
REMARK SMILES CCCCCCC(=O)[O-]
REMARK SMILES IDX 5 1 6 2 7 3 8 4 9 5 4 6 3 7 2 8 1 9
REMARK H PARENT
REMARK Flexibility Score: inf
ROOT
ATOM      1  C   UNL     1     179.339 191.042 186.923  1.00  0.00     0.006 C 
ENDROOT
BRANCH   1   2
ATOM      2  C   UNL     1     178.035 190.610 187.599  1.00  0.00     0.053 C 
BRANCH   2   3
ATOM      3  C   UNL     1     177.623 191.613 188.631  1.00  0.00     0.041 C 
ATOM      4  O   UNL     1     176.429 192.007 188.688  1.00  0.00    -0.550 OA
ATOM      5  O   UNL     1     178.569 192.148 189.496  1.00  0.00    -0.550 OA
ENDBRANCH   2   3
ENDBRANCH   1   2
BRANCH   1   6
ATOM      6  C   UNL     1     179.089 192.170 185.914  1.00  0.00     0.000 C 
BRANCH   6   7
ATOM      7  C   UNL     1     179.929 193.409 186.255  1.00  0.00    -0.000 C 
BRANCH   7   8
ATOM      8  C   UNL     1     179.081 194.561 186.813  1.00  0.00    -0.003 C 
ATOM      9  C   UNL     1     177.638 194.533 186.310  1.00  0.00     0.004 C 
ENDBRANCH   7   8
ENDBRANCH   6   7
ENDBRANCH   1   6
TORSDOF 5
ENDMDL
MODEL 3
REMARK VINA RESULT:     0.000      9.037     10.009
REMARK INTER + INTRA:          -0.485
REMARK INTER:                   0.000
REMARK INTRA:                  -0.485
REMARK UNBOUND:                -0.485
REMARK SMILES CCCCCCC(=O)[O-]
REMARK SMILES IDX 5 1 6 2 7 3 8 4 9 5 4 6 3 7 2 8 1 9
REMARK H PARENT
REMARK Flexibility Score: inf
ROOT
ATOM      1  C   UNL     1     187.332 189.775 193.379  1.00  0.00     0.006 C 
ENDROOT
BRANCH   1   2
ATOM      2  C   UNL     1     187.495 190.183 194.846  1.00  0.00     0.053 C 
BRANCH   2   3
ATOM      3  C   UNL     1     187.324 188.996 195.742  1.00  0.00     0.041 C 
ATOM      4  O   UNL     1     188.138 188.790 196.680  1.00  0.00    -0.550 OA
ATOM      5  O   UNL     1     186.297 188.091 195.509  1.00  0.00    -0.550 OA
ENDBRANCH   2   3
ENDBRANCH   1   2
BRANCH   1   6
ATOM      6  C   UNL     1     188.582 189.046 192.869  1.00  0.00     0.000 C 
BRANCH   6   7
ATOM      7  C   UNL     1     188.226 187.648 192.342  1.00  0.00    -0.000 C 
BRANCH   7   8
ATOM      8  C   UNL     1     188.711 186.526 193.272  1.00  0.00    -0.003 C 
ATOM      9  C   UNL     1     189.944 186.921 194.085  1.00  0.00     0.004 C 
ENDBRANCH   7   8
ENDBRANCH   6   7
ENDBRANCH   1   6
TORSDOF 5
ENDMDL
MODEL 4
REMARK VINA RESULT:     0.000      8.778      9.985
REMARK INTER + INTRA:          -0.485
REMARK INTER:                   0.000
REMARK INTRA:                  -0.485
REMARK UNBOUND:                -0.485
REMARK SMILES CCCCCCC(=O)[O-]
REMARK SMILES IDX 5 1 6 2 7 3 8 4 9 5 4 6 3 7 2 8 1 9
REMARK H PARENT
REMARK Flexibility Score: inf
ROOT
ATOM      1  C   UNL     1     176.684 185.876 185.827  1.00  0.00     0.006 C 
ENDROOT
BRANCH   1   2
ATOM      2  C   UNL     1     177.491 185.391 187.034  1.00  0.00     0.053 C 
BRANCH   2   3
ATOM      3  C   UNL     1     178.360 186.490 187.559  1.00  0.00     0.041 C 
ATOM      4  O   UNL     1     178.412 186.719 188.796  1.00  0.00    -0.550 OA
ATOM      5  O   UNL     1     179.073 187.294 186.679  1.00  0.00    -0.550 OA
ENDBRANCH   2   3
ENDBRANCH   1   2
BRANCH   1   6
ATOM      6  C   UNL     1     175.515 186.766 186.268  1.00  0.00     0.000 C 
BRANCH   6   7
ATOM      7  C   UNL     1     175.598 188.150 185.609  1.00  0.00    -0.000 C 
BRANCH   7   8
ATOM      8  C   UNL     1     176.000 189.253 186.599  1.00  0.00    -0.003 C 
ATOM      9  C   UNL     1     175.587 188.937 188.037  1.00  0.00     0.004 C 
ENDBRANCH   7   8
ENDBRANCH   6   7
ENDBRANCH   1   6
TORSDOF 5
ENDMDL
MODEL 5
REMARK VINA RESULT:     0.000      6.863      7.932
REMARK INTER + INTRA:          -0.485
REMARK INTER:                   0.000
REMARK INTRA:                  -0.485
REMARK UNBOUND:                -0.485
REMARK SMILES CCCCCCC(=O)[O-]
REMARK SMILES IDX 5 1 6 2 7 3 8 4 9 5 4 6 3 7 2 8 1 9
REMARK H PARENT
REMARK Flexibility Score: inf
ROOT
ATOM      1  C   UNL     1     180.811 181.784 194.068  1.00  0.00     0.006 C 
ENDROOT
BRANCH   1   2
ATOM      2  C   UNL     1     180.630 181.559 192.565  1.00  0.00     0.053 C 
BRANCH   2   3
ATOM      3  C   UNL     1     181.950 181.616 191.863  1.00  0.00     0.041 C 
ATOM      4  O   UNL     1     182.253 180.741 191.011  1.00  0.00    -0.550 OA
ATOM      5  O   UNL     1     182.866 182.609 192.188  1.00  0.00    -0.550 OA
ENDBRANCH   2   3
ENDBRANCH   1   2
BRANCH   1   6
ATOM      6  C   UNL     1     181.374 180.530 194.750  1.00  0.00     0.000 C 
BRANCH   6   7
ATOM      7  C   UNL     1     182.691 180.844 195.475  1.00  0.00    -0.000 C 
BRANCH   7   8
ATOM      8  C   UNL     1     183.914 180.249 194.761  1.00  0.00    -0.003 C 
ATOM      9  C   UNL     1     183.578 178.993 193.957  1.00  0.00     0.004 C 
ENDBRANCH   7   8
ENDBRANCH   6   7
ENDBRANCH   1   6
TORSDOF 5
ENDMDL
MODEL 6
REMARK VINA RESULT:     0.000      8.295      9.789
REMARK INTER + INTRA:          -0.485
REMARK INTER:                   0.000
REMARK INTRA:                  -0.485
REMARK UNBOUND:                -0.485
REMARK SMILES CCCCCCC(=O)[O-]
REMARK SMILES IDX 5 1 6 2 7 3 8 4 9 5 4 6 3 7 2 8 1 9
REMARK H PARENT
REMARK Flexibility Score: inf
ROOT
ATOM      1  C   UNL     1     186.719 191.918 198.045  1.00  0.00     0.006 C 
ENDROOT
BRANCH   1   2
ATOM      2  C   UNL     1     187.081 190.759 197.113  1.00  0.00     0.053 C 
BRANCH   2   3
ATOM      3  C   UNL     1     185.941 190.449 196.194  1.00  0.00     0.041 C 
ATOM      4  O   UNL     1     186.148 190.274 194.965  1.00  0.00    -0.550 OA
ATOM      5  O   UNL     1     184.643 190.403 196.688  1.00  0.00    -0.550 OA
ENDBRANCH   2   3
ENDBRANCH   1   2
BRANCH   1   6
ATOM      6  C   UNL     1     186.780 193.260 197.303  1.00  0.00     0.000 C 
BRANCH   6   7
ATOM      7  C   UNL     1     185.431 193.990 197.376  1.00  0.00    -0.000 C 
BRANCH   7   8
ATOM      8  C   UNL     1     184.686 193.988 196.033  1.00  0.00    -0.003 C 
ATOM      9  C   UNL     1     185.629 193.907 194.832  1.00  0.00     0.004 C 
ENDBRANCH   7   8
ENDBRANCH   6   7
ENDBRANCH   1   6
TORSDOF 5
ENDMDL
MODEL 7
REMARK VINA RESULT:     0.000      4.853      5.530
REMARK INTER + INTRA:          -0.485
REMARK INTER:                   0.000
REMARK INTRA:                  -0.485
REMARK UNBOUND:                -0.485
REMARK SMILES CCCCCCC(=O)[O-]
REMARK SMILES IDX 5 1 6 2 7 3 8 4 9 5 4 6 3 7 2 8 1 9
REMARK H PARENT
REMARK Flexibility Score: inf
ROOT
ATOM      1  C   UNL     1     180.396 187.141 192.522  1.00  0.00     0.006 C 
ENDROOT
BRANCH   1   2
ATOM      2  C   UNL     1     179.267 188.173 192.564  1.00  0.00     0.053 C 
BRANCH   2   3
ATOM      3  C   UNL     1     178.590 188.264 191.232  1.00  0.00     0.041 C 
ATOM      4  O   UNL     1     177.333 188.270 191.160  1.00  0.00    -0.550 OA
ATOM      5  O   UNL     1     179.348 188.292 190.068  1.00  0.00    -0.550 OA
ENDBRANCH   2   3
ENDBRANCH   1   2
BRANCH   1   6
ATOM      6  C   UNL     1     179.839 185.712 192.559  1.00  0.00     0.000 C 
BRANCH   6   7
ATOM      7  C   UNL     1     180.300 184.909 191.334  1.00  0.00    -0.000 C 
BRANCH   7   8
ATOM      8  C   UNL     1     179.165 184.661 190.330  1.00  0.00    -0.003 C 
ATOM      9  C   UNL     1     177.786 184.630 190.990  1.00  0.00     0.004 C 
ENDBRANCH   7   8
ENDBRANCH   6   7
ENDBRANCH   1   6
TORSDOF 5
ENDMDL
MODEL 8
REMARK VINA RESULT:     0.000      5.571      6.424
REMARK INTER + INTRA:          -0.485
REMARK INTER:                   0.000
REMARK INTRA:                  -0.485
REMARK UNBOUND:                -0.485
REMARK SMILES CCCCCCC(=O)[O-]
REMARK SMILES IDX 5 1 6 2 7 3 8 4 9 5 4 6 3 7 2 8 1 9
REMARK H PARENT
REMARK Flexibility Score: inf
ROOT
ATOM      1  C   UNL     1     182.681 184.391 189.860  1.00  0.00     0.006 C 
ENDROOT
BRANCH   1   2
ATOM      2  C   UNL     1     183.724 185.334 190.465  1.00  0.00     0.053 C 
BRANCH   2   3
ATOM      3  C   UNL     1     183.085 186.256 191.455  1.00  0.00     0.041 C 
ATOM      4  O   UNL     1     183.623 186.451 192.576  1.00  0.00    -0.550 OA
ATOM      5  O   UNL     1     181.871 186.861 191.158  1.00  0.00    -0.550 OA
ENDBRANCH   2   3
ENDBRANCH   1   2
BRANCH   1   6
ATOM      6  C   UNL     1     182.302 183.280 190.848  1.00  0.00     0.000 C 
BRANCH   6   7
ATOM      7  C   UNL     1     180.793 183.285 191.129  1.00  0.00    -0.000 C 
BRANCH   7   8
ATOM      8  C   UNL     1     180.456 183.798 192.537  1.00  0.00    -0.003 C 
ATOM      9  C   UNL     1     181.582 183.554 193.542  1.00  0.00     0.004 C 
ENDBRANCH   7   8
ENDBRANCH   6   7
ENDBRANCH   1   6
TORSDOF 5
ENDMDL
MODEL 9
REMARK VINA RESULT:     0.000      6.889      8.369
REMARK INTER + INTRA:          -0.485
REMARK INTER:                   0.000
REMARK INTRA:                  -0.485
REMARK UNBOUND:                -0.485
REMARK SMILES CCCCCCC(=O)[O-]
REMARK SMILES IDX 5 1 6 2 7 3 8 4 9 5 4 6 3 7 2 8 1 9
REMARK H PARENT
REMARK Flexibility Score: inf
ROOT
ATOM      1  C   UNL     1     186.719 186.222 195.785  1.00  0.00     0.006 C 
ENDROOT
BRANCH   1   2
ATOM      2  C   UNL     1     186.269 184.798 195.450  1.00  0.00     0.053 C 
BRANCH   2   3
ATOM      3  C   UNL     1     185.114 184.822 194.499  1.00  0.00     0.041 C 
ATOM      4  O   UNL     1     185.104 184.062 193.496  1.00  0.00    -0.550 OA
ATOM      5  O   UNL     1     184.072 185.720 194.694  1.00  0.00    -0.550 OA
ENDBRANCH   2   3
ENDBRANCH   1   2
BRANCH   1   6
ATOM      6  C   UNL     1     187.516 186.835 194.625  1.00  0.00     0.000 C 
BRANCH   6   7
ATOM      7  C   UNL     1     186.865 188.138 194.139  1.00  0.00    -0.000 C 
BRANCH   7   8
ATOM      8  C   UNL     1     186.185 187.983 192.771  1.00  0.00    -0.003 C 
ATOM      9  C   UNL     1     186.825 186.893 191.911  1.00  0.00     0.004 C 
ENDBRANCH   7   8
ENDBRANCH   6   7
ENDBRANCH   1   6
TORSDOF 5
ENDMDL
