MODEL 1
REMARK VINA RESULT:    -3.170      0.000      0.000
REMARK INTER + INTRA:          -3.546
REMARK INTER:                  -3.541
REMARK INTRA:                  -0.005
REMARK UNBOUND:                -0.005
REMARK SMILES CCCC(=O)[O-]
REMARK SMILES IDX 3 1 4 2 5 3 6 4 2 5 1 6
REMARK H PARENT
REMARK Flexibility Score: inf
ROOT
ATOM      1  C   UNL     1      -2.712   3.459  -0.383  1.00  0.00     0.052 C 
ENDROOT
BRANCH   1   2
ATOM      2  C   UNL     1      -2.830   4.900   0.010  1.00  0.00     0.041 C 
ATOM      3  O   UNL     1      -3.506   5.695  -0.693  1.00  0.00    -0.550 OA
ATOM      4  O   UNL     1      -2.164   5.371   1.135  1.00  0.00    -0.550 OA
ENDBRANCH   1   2
BRANCH   1   5
ATOM      5  C   UNL     1      -3.690   2.574   0.401  1.00  0.00     0.003 C 
ATOM      6  C   UNL     1      -3.702   1.131  -0.102  1.00  0.00     0.004 C 
ENDBRANCH   1   5
TORSDOF 2
ENDMDL
MODEL 2
REMARK VINA RESULT:    -3.101      2.709      3.519
REMARK INTER + INTRA:          -3.469
REMARK INTER:                  -3.449
REMARK INTRA:                  -0.020
REMARK UNBOUND:                -0.005
REMARK SMILES CCCC(=O)[O-]
REMARK SMILES IDX 3 1 4 2 5 3 6 4 2 5 1 6
REMARK H PARENT
REMARK Flexibility Score: inf
ROOT
ATOM      1  C   UNL     1      -2.694   2.869  -0.423  1.00  0.00     0.052 C 
ENDROOT
BRANCH   1   2
ATOM      2  C   UNL     1      -3.612   1.783   0.046  1.00  0.00     0.041 C 
ATOM      3  O   UNL     1      -3.637   0.673  -0.548  1.00  0.00    -0.550 OA
ATOM      4  O   UNL     1      -4.465   2.007   1.121  1.00  0.00    -0.550 OA
ENDBRANCH   1   2
BRANCH   1   5
ATOM      5  C   UNL     1      -2.965   4.195   0.301  1.00  0.00     0.003 C 
ATOM      6  C   UNL     1      -3.116   5.367  -0.668  1.00  0.00     0.004 C 
ENDBRANCH   1   5
TORSDOF 2
ENDMDL
MODEL 3
REMARK VINA RESULT:    -2.982      7.025      7.511
REMARK INTER + INTRA:          -3.336
REMARK INTER:                  -3.324
REMARK INTRA:                  -0.012
REMARK UNBOUND:                -0.005
REMARK SMILES CCCC(=O)[O-]
REMARK SMILES IDX 3 1 4 2 5 3 6 4 2 5 1 6
REMARK H PARENT
REMARK Flexibility Score: inf
ROOT
ATOM      1  C   UNL     1      -3.833  -3.894  -1.828  1.00  0.00     0.052 C 
ENDROOT
BRANCH   1   2
ATOM      2  C   UNL     1      -3.702  -2.647  -2.648  1.00  0.00     0.041 C 
ATOM      3  O   UNL     1      -4.585  -1.752  -2.586  1.00  0.00    -0.550 OA
ATOM      4  O   UNL     1      -2.621  -2.489  -3.507  1.00  0.00    -0.550 OA
ENDBRANCH   1   2
BRANCH   1   5
ATOM      5  C   UNL     1      -3.781  -3.593  -0.324  1.00  0.00     0.003 C 
ATOM      6  C   UNL     1      -4.584  -4.599   0.499  1.00  0.00     0.004 C 
ENDBRANCH   1   5
TORSDOF 2
ENDMDL
MODEL 4
REMARK VINA RESULT:    -2.938      9.433     10.069
REMARK INTER + INTRA:          -3.286
REMARK INTER:                  -3.239
REMARK INTRA:                  -0.047
REMARK UNBOUND:                -0.005
REMARK SMILES CCCC(=O)[O-]
REMARK SMILES IDX 3 1 4 2 5 3 6 4 2 5 1 6
REMARK H PARENT
REMARK Flexibility Score: inf
ROOT
ATOM      1  C   UNL     1      -8.269   6.586  -8.268  1.00  0.00     0.052 C 
ENDROOT
BRANCH   1   2
ATOM      2  C   UNL     1      -7.991   8.009  -8.647  1.00  0.00     0.041 C 
ATOM      3  O   UNL     1      -7.331   8.271  -9.686  1.00  0.00    -0.550 OA
ATOM      4  O   UNL     1      -8.433   9.045  -7.832  1.00  0.00    -0.550 OA
ENDBRANCH   1   2
BRANCH   1   5
ATOM      5  C   UNL     1      -7.054   5.928  -7.599  1.00  0.00     0.003 C 
ATOM      6  C   UNL     1      -7.011   6.182  -6.093  1.00  0.00     0.004 C 
ENDBRANCH   1   5
TORSDOF 2
ENDMDL
MODEL 5
REMARK VINA RESULT:    -2.747      6.123      7.072
REMARK INTER + INTRA:          -3.073
REMARK INTER:                  -3.057
REMARK INTRA:                  -0.017
REMARK UNBOUND:                -0.005
REMARK SMILES CCCC(=O)[O-]
REMARK SMILES IDX 3 1 4 2 5 3 6 4 2 5 1 6
REMARK H PARENT
REMARK Flexibility Score: inf
ROOT
ATOM      1  C   UNL     1      -3.749  -1.559  -2.321  1.00  0.00     0.052 C 
ENDROOT
BRANCH   1   2
ATOM      2  C   UNL     1      -3.764  -3.056  -2.257  1.00  0.00     0.041 C 
ATOM      3  O   UNL     1      -3.813  -3.735  -3.316  1.00  0.00    -0.550 OA
ATOM      4  O   UNL     1      -3.757  -3.700  -1.026  1.00  0.00    -0.550 OA
ENDBRANCH   1   2
BRANCH   1   5
ATOM      5  C   UNL     1      -4.100  -0.929  -0.967  1.00  0.00     0.003 C 
ATOM      6  C   UNL     1      -3.333   0.367  -0.712  1.00  0.00     0.004 C 
ENDBRANCH   1   5
TORSDOF 2
ENDMDL
MODEL 6
REMARK VINA RESULT:    -2.636      9.155     10.110
REMARK INTER + INTRA:          -2.949
REMARK INTER:                  -2.910
REMARK INTRA:                  -0.039
REMARK UNBOUND:                -0.005
REMARK SMILES CCCC(=O)[O-]
REMARK SMILES IDX 3 1 4 2 5 3 6 4 2 5 1 6
REMARK H PARENT
REMARK Flexibility Score: inf
ROOT
ATOM      1  C   UNL     1      -7.137   8.167  -7.537  1.00  0.00     0.052 C 
ENDROOT
BRANCH   1   2
ATOM      2  C   UNL     1      -7.213   6.676  -7.417  1.00  0.00     0.041 C 
ATOM      3  O   UNL     1      -6.571   5.942  -8.213  1.00  0.00    -0.550 OA
ATOM      4  O   UNL     1      -8.022   6.096  -6.447  1.00  0.00    -0.550 OA
ENDBRANCH   1   2
BRANCH   1   5
ATOM      5  C   UNL     1      -6.829   8.606  -8.975  1.00  0.00     0.003 C 
ATOM      6  C   UNL     1      -5.460   9.273  -9.099  1.00  0.00     0.004 C 
ENDBRANCH   1   5
TORSDOF 2
ENDMDL
MODEL 7
REMARK VINA RESULT:    -2.625     14.601     15.016
REMARK INTER + INTRA:          -2.937
REMARK INTER:                  -2.865
REMARK INTRA:                  -0.072
REMARK UNBOUND:                -0.005
REMARK SMILES CCCC(=O)[O-]
REMARK SMILES IDX 3 1 4 2 5 3 6 4 2 5 1 6
REMARK H PARENT
REMARK Flexibility Score: inf
ROOT
ATOM      1  C   UNL     1       8.855   1.293  -9.863  1.00  0.00     0.052 C 
ENDROOT
BRANCH   1   2
ATOM      2  C   UNL     1       7.465   1.353  -9.306  1.00  0.00     0.041 C 
ATOM      3  O   UNL     1       6.599   0.516  -9.673  1.00  0.00    -0.550 OA
ATOM      4  O   UNL     1       7.118   2.354  -8.407  1.00  0.00    -0.550 OA
ENDBRANCH   1   2
BRANCH   1   5
ATOM      5  C   UNL     1       9.578   0.003  -9.452  1.00  0.00     0.003 C 
ATOM      6  C   UNL     1       9.738  -0.117  -7.937  1.00  0.00     0.004 C 
ENDBRANCH   1   5
TORSDOF 2
ENDMDL
MODEL 8
REMARK VINA RESULT:    -2.618     14.567     15.007
REMARK INTER + INTRA:          -2.929
REMARK INTER:                  -2.857
REMARK INTRA:                  -0.071
REMARK UNBOUND:                -0.005
REMARK SMILES CCCC(=O)[O-]
REMARK SMILES IDX 3 1 4 2 5 3 6 4 2 5 1 6
REMARK H PARENT
REMARK Flexibility Score: inf
ROOT
ATOM      1  C   UNL     1       8.868   1.413  -9.750  1.00  0.00     0.052 C 
ENDROOT
BRANCH   1   2
ATOM      2  C   UNL     1       7.465   1.442  -9.226  1.00  0.00     0.041 C 
ATOM      3  O   UNL     1       7.120   2.311  -8.383  1.00  0.00    -0.550 OA
ATOM      4  O   UNL     1       6.546   0.486  -9.643  1.00  0.00    -0.550 OA
ENDBRANCH   1   2
BRANCH   1   5
ATOM      5  C   UNL     1       9.564   0.082  -9.438  1.00  0.00     0.003 C 
ATOM      6  C   UNL     1       9.750  -0.141  -7.938  1.00  0.00     0.004 C 
ENDBRANCH   1   5
TORSDOF 2
ENDMDL
MODEL 9
REMARK VINA RESULT:    -2.523     12.920     13.857
REMARK INTER + INTRA:          -2.823
REMARK INTER:                  -2.779
REMARK INTRA:                  -0.044
REMARK UNBOUND:                -0.005
REMARK SMILES CCCC(=O)[O-]
REMARK SMILES IDX 3 1 4 2 5 3 6 4 2 5 1 6
REMARK H PARENT
REMARK Flexibility Score: inf
ROOT
ATOM      1  C   UNL     1       0.702  -5.934   9.738  1.00  0.00     0.052 C 
ENDROOT
BRANCH   1   2
ATOM      2  C   UNL     1       0.829  -4.833   8.729  1.00  0.00     0.041 C 
ATOM      3  O   UNL     1       1.327  -3.726   9.060  1.00  0.00    -0.550 OA
ATOM      4  O   UNL     1       0.364  -5.020   7.433  1.00  0.00    -0.550 OA
ENDBRANCH   1   2
BRANCH   1   5
ATOM      5  C   UNL     1       2.003  -6.738   9.868  1.00  0.00     0.003 C 
ATOM      6  C   UNL     1       2.069  -7.903   8.883  1.00  0.00     0.004 C 
ENDBRANCH   1   5
TORSDOF 2
ENDMDL
