MODEL 1
REMARK VINA RESULT:    -2.991      0.000      0.000
REMARK INTER + INTRA:          -4.510
REMARK INTER:                  -4.040
REMARK INTRA:                  -0.470
REMARK UNBOUND:                -0.470
REMARK SMILES CCCCCCCC(=O)[O-]
REMARK SMILES IDX 5 1 6 2 7 3 8 4 9 5 10 6 4 7 3 8 2 9 1 10
REMARK H PARENT
REMARK Flexibility Score: inf
ROOT
ATOM      1  C   UNL     1       4.978  25.058   8.123  1.00  0.00     0.000 C 
ENDROOT
BRANCH   1   2
ATOM      2  C   UNL     1       4.010  24.196   8.946  1.00  0.00     0.006 C 
BRANCH   2   3
ATOM      3  C   UNL     1       3.417  24.962  10.137  1.00  0.00     0.053 C 
BRANCH   3   4
ATOM      4  C   UNL     1       3.900  24.415  11.445  1.00  0.00     0.041 C 
ATOM      5  O   UNL     1       3.106  24.298  12.415  1.00  0.00    -0.550 OA
ATOM      6  O   UNL     1       5.220  24.004  11.582  1.00  0.00    -0.550 OA
ENDBRANCH   3   4
ENDBRANCH   2   3
ENDBRANCH   1   2
BRANCH   1   7
ATOM      7  C   UNL     1       4.562  25.098   6.648  1.00  0.00     0.000 C 
BRANCH   7   8
ATOM      8  C   UNL     1       3.165  24.496   6.453  1.00  0.00    -0.000 C 
BRANCH   8   9
ATOM      9  C   UNL     1       2.164  25.566   6.002  1.00  0.00    -0.003 C 
ATOM     10  C   UNL     1       1.190  25.917   7.123  1.00  0.00     0.004 C 
ENDBRANCH   8   9
ENDBRANCH   7   8
ENDBRANCH   1   7
TORSDOF 6
ENDMDL
MODEL 2
REMARK VINA RESULT:    -2.940      1.059      1.436
REMARK INTER + INTRA:          -4.441
REMARK INTER:                  -3.935
REMARK INTRA:                  -0.506
REMARK UNBOUND:                -0.470
REMARK SMILES CCCCCCCC(=O)[O-]
REMARK SMILES IDX 5 1 6 2 7 3 8 4 9 5 10 6 4 7 3 8 2 9 1 10
REMARK H PARENT
REMARK Flexibility Score: inf
ROOT
ATOM      1  C   UNL     1       4.723  25.216   6.788  1.00  0.00     0.000 C 
ENDROOT
BRANCH   1   2
ATOM      2  C   UNL     1       5.202  25.164   8.247  1.00  0.00     0.006 C 
BRANCH   2   3
ATOM      3  C   UNL     1       4.436  24.121   9.072  1.00  0.00     0.053 C 
BRANCH   3   4
ATOM      4  C   UNL     1       3.710  24.747  10.223  1.00  0.00     0.041 C 
ATOM      5  O   UNL     1       2.694  25.463  10.017  1.00  0.00    -0.550 OA
ATOM      6  O   UNL     1       4.136  24.514  11.525  1.00  0.00    -0.550 OA
ENDBRANCH   3   4
ENDBRANCH   2   3
ENDBRANCH   1   2
BRANCH   1   7
ATOM      7  C   UNL     1       4.034  23.907   6.388  1.00  0.00     0.000 C 
BRANCH   7   8
ATOM      8  C   UNL     1       2.659  24.175   5.765  1.00  0.00    -0.000 C 
BRANCH   8   9
ATOM      9  C   UNL     1       2.247  25.639   5.955  1.00  0.00    -0.003 C 
ATOM     10  C   UNL     1       1.090  25.763   6.942  1.00  0.00     0.004 C 
ENDBRANCH   8   9
ENDBRANCH   7   8
ENDBRANCH   1   7
TORSDOF 6
ENDMDL
MODEL 3
REMARK VINA RESULT:    -2.836      1.345      2.085
REMARK INTER + INTRA:          -4.300
REMARK INTER:                  -3.983
REMARK INTRA:                  -0.318
REMARK UNBOUND:                -0.470
REMARK SMILES CCCCCCCC(=O)[O-]
REMARK SMILES IDX 5 1 6 2 7 3 8 4 9 5 10 6 4 7 3 8 2 9 1 10
REMARK H PARENT
REMARK Flexibility Score: inf
ROOT
ATOM      1  C   UNL     1       4.522  24.309   9.778  1.00  0.00     0.000 C 
ENDROOT
BRANCH   1   2
ATOM      2  C   UNL     1       3.333  25.056  10.402  1.00  0.00     0.006 C 
BRANCH   2   3
ATOM      3  C   UNL     1       3.010  24.555  11.817  1.00  0.00     0.053 C 
BRANCH   3   4
ATOM      4  C   UNL     1       3.647  25.412  12.867  1.00  0.00     0.041 C 
ATOM      5  O   UNL     1       4.735  25.063  13.395  1.00  0.00    -0.550 OA
ATOM      6  O   UNL     1       3.054  26.612  13.240  1.00  0.00    -0.550 OA
ENDBRANCH   3   4
ENDBRANCH   2   3
ENDBRANCH   1   2
BRANCH   1   7
ATOM      7  C   UNL     1       4.988  24.997   8.490  1.00  0.00     0.000 C 
BRANCH   7   8
ATOM      8  C   UNL     1       4.642  24.152   7.258  1.00  0.00    -0.000 C 
BRANCH   8   9
ATOM      9  C   UNL     1       3.869  24.979   6.225  1.00  0.00    -0.003 C 
ATOM     10  C   UNL     1       2.476  25.334   6.734  1.00  0.00     0.004 C 
ENDBRANCH   8   9
ENDBRANCH   7   8
ENDBRANCH   1   7
TORSDOF 6
ENDMDL
MODEL 4
REMARK VINA RESULT:    -2.790      1.746      2.857
REMARK INTER + INTRA:          -4.238
REMARK INTER:                  -4.032
REMARK INTRA:                  -0.206
REMARK UNBOUND:                -0.470
REMARK SMILES CCCCCCCC(=O)[O-]
REMARK SMILES IDX 5 1 6 2 7 3 8 4 9 5 10 6 4 7 3 8 2 9 1 10
REMARK H PARENT
REMARK Flexibility Score: inf
ROOT
ATOM      1  C   UNL     1       3.893  24.622  10.437  1.00  0.00     0.000 C 
ENDROOT
BRANCH   1   2
ATOM      2  C   UNL     1       2.787  25.505  11.035  1.00  0.00     0.006 C 
BRANCH   2   3
ATOM      3  C   UNL     1       2.329  25.008  12.414  1.00  0.00     0.053 C 
BRANCH   3   4
ATOM      4  C   UNL     1       2.759  25.936  13.509  1.00  0.00     0.041 C 
ATOM      5  O   UNL     1       3.562  26.874  13.265  1.00  0.00    -0.550 OA
ATOM      6  O   UNL     1       2.247  25.782  14.791  1.00  0.00    -0.550 OA
ENDBRANCH   3   4
ENDBRANCH   2   3
ENDBRANCH   1   2
BRANCH   1   7
ATOM      7  C   UNL     1       3.673  24.408   8.935  1.00  0.00     0.000 C 
BRANCH   7   8
ATOM      8  C   UNL     1       4.852  24.955   8.123  1.00  0.00    -0.000 C 
BRANCH   8   9
ATOM      9  C   UNL     1       4.533  24.958   6.623  1.00  0.00    -0.003 C 
ATOM     10  C   UNL     1       3.051  25.221   6.376  1.00  0.00     0.004 C 
ENDBRANCH   8   9
ENDBRANCH   7   8
ENDBRANCH   1   7
TORSDOF 6
ENDMDL
MODEL 5
REMARK VINA RESULT:    -2.787      1.489      2.744
REMARK INTER + INTRA:          -4.234
REMARK INTER:                  -3.677
REMARK INTRA:                  -0.557
REMARK UNBOUND:                -0.470
REMARK SMILES CCCCCCCC(=O)[O-]
REMARK SMILES IDX 5 1 6 2 7 3 8 4 9 5 10 6 4 7 3 8 2 9 1 10
REMARK H PARENT
REMARK Flexibility Score: inf
ROOT
ATOM      1  C   UNL     1       1.319  25.912   6.859  1.00  0.00     0.000 C 
ENDROOT
BRANCH   1   2
ATOM      2  C   UNL     1       1.233  25.007   8.097  1.00  0.00     0.006 C 
BRANCH   2   3
ATOM      3  C   UNL     1       1.363  25.798   9.406  1.00  0.00     0.053 C 
BRANCH   3   4
ATOM      4  C   UNL     1       2.415  25.220  10.301  1.00  0.00     0.041 C 
ATOM      5  O   UNL     1       2.965  25.937  11.179  1.00  0.00    -0.550 OA
ATOM      6  O   UNL     1       2.766  23.880  10.189  1.00  0.00    -0.550 OA
ENDBRANCH   3   4
ENDBRANCH   2   3
ENDBRANCH   1   2
BRANCH   1   7
ATOM      7  C   UNL     1       2.448  25.461   5.926  1.00  0.00     0.000 C 
BRANCH   7   8
ATOM      8  C   UNL     1       3.060  24.138   6.400  1.00  0.00    -0.000 C 
BRANCH   8   9
ATOM      9  C   UNL     1       4.586  24.242   6.498  1.00  0.00    -0.003 C 
ATOM     10  C   UNL     1       5.006  25.107   7.682  1.00  0.00     0.004 C 
ENDBRANCH   8   9
ENDBRANCH   7   8
ENDBRANCH   1   7
TORSDOF 6
ENDMDL
MODEL 6
REMARK VINA RESULT:    -2.666      2.750      4.372
REMARK INTER + INTRA:          -4.070
REMARK INTER:                  -3.648
REMARK INTRA:                  -0.423
REMARK UNBOUND:                -0.470
REMARK SMILES CCCCCCCC(=O)[O-]
REMARK SMILES IDX 5 1 6 2 7 3 8 4 9 5 10 6 4 7 3 8 2 9 1 10
REMARK H PARENT
REMARK Flexibility Score: inf
ROOT
ATOM      1  C   UNL     1       4.684  25.250   6.788  1.00  0.00     0.000 C 
ENDROOT
BRANCH   1   2
ATOM      2  C   UNL     1       3.371  24.546   6.415  1.00  0.00     0.006 C 
BRANCH   2   3
ATOM      3  C   UNL     1       2.305  25.532   5.918  1.00  0.00     0.053 C 
BRANCH   3   4
ATOM      4  C   UNL     1       1.063  25.474   6.753  1.00  0.00     0.041 C 
ATOM      5  O   UNL     1       0.077  24.787   6.376  1.00  0.00    -0.550 OA
ATOM      6  O   UNL     1       1.006  26.153   7.963  1.00  0.00    -0.550 OA
ENDBRANCH   3   4
ENDBRANCH   2   3
ENDBRANCH   1   2
BRANCH   1   7
ATOM      7  C   UNL     1       5.030  25.021   8.264  1.00  0.00     0.000 C 
BRANCH   7   8
ATOM      8  C   UNL     1       4.032  24.062   8.922  1.00  0.00    -0.000 C 
BRANCH   8   9
ATOM      9  C   UNL     1       3.920  24.332  10.427  1.00  0.00    -0.003 C 
ATOM     10  C   UNL     1       3.024  25.534  10.707  1.00  0.00     0.004 C 
ENDBRANCH   8   9
ENDBRANCH   7   8
ENDBRANCH   1   7
TORSDOF 6
ENDMDL
MODEL 7
REMARK VINA RESULT:    -2.589      1.044      2.375
REMARK INTER + INTRA:          -3.967
REMARK INTER:                  -3.506
REMARK INTRA:                  -0.461
REMARK UNBOUND:                -0.470
REMARK SMILES CCCCCCCC(=O)[O-]
REMARK SMILES IDX 5 1 6 2 7 3 8 4 9 5 10 6 4 7 3 8 2 9 1 10
REMARK H PARENT
REMARK Flexibility Score: inf
ROOT
ATOM      1  C   UNL     1       1.569  25.726   9.390  1.00  0.00     0.000 C 
ENDROOT
BRANCH   1   2
ATOM      2  C   UNL     1       2.343  24.456   9.773  1.00  0.00     0.006 C 
BRANCH   2   3
ATOM      3  C   UNL     1       3.724  24.774  10.364  1.00  0.00     0.053 C 
BRANCH   3   4
ATOM      4  C   UNL     1       3.775  24.500  11.835  1.00  0.00     0.041 C 
ATOM      5  O   UNL     1       4.875  24.259  12.398  1.00  0.00    -0.550 OA
ATOM      6  O   UNL     1       2.610  24.544  12.592  1.00  0.00    -0.550 OA
ENDBRANCH   3   4
ENDBRANCH   2   3
ENDBRANCH   1   2
BRANCH   1   7
ATOM      7  C   UNL     1       1.202  25.719   7.901  1.00  0.00     0.000 C 
BRANCH   7   8
ATOM      8  C   UNL     1       1.968  24.624   7.151  1.00  0.00    -0.000 C 
BRANCH   8   9
ATOM      9  C   UNL     1       2.991  25.231   6.185  1.00  0.00    -0.003 C 
ATOM     10  C   UNL     1       4.418  24.957   6.648  1.00  0.00     0.004 C 
ENDBRANCH   8   9
ENDBRANCH   7   8
ENDBRANCH   1   7
TORSDOF 6
ENDMDL
MODEL 8
REMARK VINA RESULT:    -2.545      2.668      4.196
REMARK INTER + INTRA:          -3.907
REMARK INTER:                  -3.409
REMARK INTRA:                  -0.498
REMARK UNBOUND:                -0.470
REMARK SMILES CCCCCCCC(=O)[O-]
REMARK SMILES IDX 5 1 6 2 7 3 8 4 9 5 10 6 4 7 3 8 2 9 1 10
REMARK H PARENT
REMARK Flexibility Score: inf
ROOT
ATOM      1  C   UNL     1       3.177  25.361   6.297  1.00  0.00     0.000 C 
ENDROOT
BRANCH   1   2
ATOM      2  C   UNL     1       2.055  24.342   6.048  1.00  0.00     0.006 C 
BRANCH   2   3
ATOM      3  C   UNL     1       1.024  24.322   7.185  1.00  0.00     0.053 C 
BRANCH   3   4
ATOM      4  C   UNL     1       0.664  25.706   7.631  1.00  0.00     0.041 C 
ATOM      5  O   UNL     1       0.015  26.469   6.868  1.00  0.00    -0.550 OA
ATOM      6  O   UNL     1       1.017  26.141   8.903  1.00  0.00    -0.550 OA
ENDBRANCH   3   4
ENDBRANCH   2   3
ENDBRANCH   1   2
BRANCH   1   7
ATOM      7  C   UNL     1       4.505  24.655   6.592  1.00  0.00     0.000 C 
BRANCH   7   8
ATOM      8  C   UNL     1       4.969  24.930   8.026  1.00  0.00    -0.000 C 
BRANCH   8   9
ATOM      9  C   UNL     1       4.347  23.930   9.007  1.00  0.00    -0.003 C 
ATOM     10  C   UNL     1       3.842  24.631  10.264  1.00  0.00     0.004 C 
ENDBRANCH   8   9
ENDBRANCH   7   8
ENDBRANCH   1   7
TORSDOF 6
ENDMDL
MODEL 9
REMARK VINA RESULT:    -0.088     22.861     24.027
REMARK INTER + INTRA:          -0.588
REMARK INTER:                  -0.347
REMARK INTRA:                  -0.242
REMARK UNBOUND:                -0.470
REMARK SMILES CCCCCCCC(=O)[O-]
REMARK SMILES IDX 5 1 6 2 7 3 8 4 9 5 10 6 4 7 3 8 2 9 1 10
REMARK H PARENT
REMARK Flexibility Score: inf
ROOT
ATOM      1  C   UNL     1       9.971  42.387  22.643  1.00  0.00     0.000 C 
ENDROOT
BRANCH   1   2
ATOM      2  C   UNL     1      11.429  42.156  23.066  1.00  0.00     0.006 C 
BRANCH   2   3
ATOM      3  C   UNL     1      12.325  43.360  22.742  1.00  0.00     0.053 C 
BRANCH   3   4
ATOM      4  C   UNL     1      13.779  43.009  22.830  1.00  0.00     0.041 C 
ATOM      5  O   UNL     1      14.656  43.898  22.667  1.00  0.00    -0.550 OA
ATOM      6  O   UNL     1      14.164  41.707  23.125  1.00  0.00    -0.550 OA
ENDBRANCH   3   4
ENDBRANCH   2   3
ENDBRANCH   1   2
BRANCH   1   7
ATOM      7  C   UNL     1       9.679  43.881  22.464  1.00  0.00     0.000 C 
BRANCH   7   8
ATOM      8  C   UNL     1       8.272  44.104  21.899  1.00  0.00    -0.000 C 
BRANCH   8   9
ATOM      9  C   UNL     1       8.273  44.005  20.369  1.00  0.00    -0.003 C 
ATOM     10  C   UNL     1       7.013  43.310  19.861  1.00  0.00     0.004 C 
ENDBRANCH   8   9
ENDBRANCH   7   8
ENDBRANCH   1   7
TORSDOF 6
ENDMDL
