MODEL 1
REMARK VINA RESULT:    -2.544      0.000      0.000
REMARK INTER + INTRA:          -3.071
REMARK INTER:                  -2.990
REMARK INTRA:                  -0.081
REMARK UNBOUND:                -0.081
REMARK SMILES CCCCC(=O)[O-]
REMARK SMILES IDX 4 1 5 2 6 3 7 4 3 5 2 6 1 7
REMARK H PARENT
REMARK Flexibility Score: inf
ROOT
ATOM      1  C   UNL     1     -39.246 -19.798  27.944  1.00  0.00     0.053 C 
ENDROOT
BRANCH   1   2
ATOM      2  C   UNL     1     -38.273 -20.711  27.269  1.00  0.00     0.041 C 
ATOM      3  O   UNL     1     -37.438 -21.364  27.950  1.00  0.00    -0.550 OA
ATOM      4  O   UNL     1     -38.252 -20.805  25.883  1.00  0.00    -0.550 OA
ENDBRANCH   1   2
BRANCH   1   5
ATOM      5  C   UNL     1     -40.101 -20.578  28.952  1.00  0.00     0.006 C 
BRANCH   5   6
ATOM      6  C   UNL     1     -41.063 -21.563  28.272  1.00  0.00    -0.003 C 
ATOM      7  C   UNL     1     -41.951 -22.306  29.270  1.00  0.00     0.004 C 
ENDBRANCH   5   6
ENDBRANCH   1   5
TORSDOF 3
ENDMDL
MODEL 2
REMARK VINA RESULT:    -2.536      6.180      7.244
REMARK INTER + INTRA:          -3.061
REMARK INTER:                  -3.034
REMARK INTRA:                  -0.027
REMARK UNBOUND:                -0.081
REMARK SMILES CCCCC(=O)[O-]
REMARK SMILES IDX 4 1 5 2 6 3 7 4 3 5 2 6 1 7
REMARK H PARENT
REMARK Flexibility Score: inf
ROOT
ATOM      1  C   UNL     1     -45.937 -21.531  27.526  1.00  0.00     0.053 C 
ENDROOT
BRANCH   1   2
ATOM      2  C   UNL     1     -45.237 -22.557  28.359  1.00  0.00     0.041 C 
ATOM      3  O   UNL     1     -45.858 -23.576  28.764  1.00  0.00    -0.550 OA
ATOM      4  O   UNL     1     -43.912 -22.366  28.733  1.00  0.00    -0.550 OA
ENDBRANCH   1   2
BRANCH   1   5
ATOM      5  C   UNL     1     -47.287 -21.161  28.154  1.00  0.00     0.006 C 
BRANCH   5   6
ATOM      6  C   UNL     1     -48.019 -20.059  27.373  1.00  0.00    -0.003 C 
ATOM      7  C   UNL     1     -47.080 -18.954  26.890  1.00  0.00     0.004 C 
ENDBRANCH   5   6
ENDBRANCH   1   5
TORSDOF 3
ENDMDL
MODEL 3
REMARK VINA RESULT:    -2.496      1.485      1.921
REMARK INTER + INTRA:          -3.015
REMARK INTER:                  -2.945
REMARK INTRA:                  -0.069
REMARK UNBOUND:                -0.081
REMARK SMILES CCCCC(=O)[O-]
REMARK SMILES IDX 4 1 5 2 6 3 7 4 3 5 2 6 1 7
REMARK H PARENT
REMARK Flexibility Score: inf
ROOT
ATOM      1  C   UNL     1     -38.887 -20.103  28.070  1.00  0.00     0.053 C 
ENDROOT
BRANCH   1   2
ATOM      2  C   UNL     1     -39.331 -19.297  26.890  1.00  0.00     0.041 C 
ATOM      3  O   UNL     1     -39.079 -19.693  25.721  1.00  0.00    -0.550 OA
ATOM      4  O   UNL     1     -39.978 -18.082  27.080  1.00  0.00    -0.550 OA
ENDBRANCH   1   2
BRANCH   1   5
ATOM      5  C   UNL     1     -40.095 -20.513  28.922  1.00  0.00     0.006 C 
BRANCH   5   6
ATOM      6  C   UNL     1     -40.879 -21.683  28.310  1.00  0.00    -0.003 C 
ATOM      7  C   UNL     1     -41.927 -22.256  29.263  1.00  0.00     0.004 C 
ENDBRANCH   5   6
ENDBRANCH   1   5
TORSDOF 3
ENDMDL
MODEL 4
REMARK VINA RESULT:    -2.495      2.911      3.888
REMARK INTER + INTRA:          -3.013
REMARK INTER:                  -2.942
REMARK INTRA:                  -0.071
REMARK UNBOUND:                -0.081
REMARK SMILES CCCCC(=O)[O-]
REMARK SMILES IDX 4 1 5 2 6 3 7 4 3 5 2 6 1 7
REMARK H PARENT
REMARK Flexibility Score: inf
ROOT
ATOM      1  C   UNL     1     -41.198 -21.316  27.950  1.00  0.00     0.053 C 
ENDROOT
BRANCH   1   2
ATOM      2  C   UNL     1     -41.917 -22.406  28.680  1.00  0.00     0.041 C 
ATOM      3  O   UNL     1     -41.287 -23.416  29.092  1.00  0.00    -0.550 OA
ATOM      4  O   UNL     1     -43.292 -22.331  28.863  1.00  0.00    -0.550 OA
ENDBRANCH   1   2
BRANCH   1   5
ATOM      5  C   UNL     1     -40.153 -20.660  28.861  1.00  0.00     0.006 C 
BRANCH   5   6
ATOM      6  C   UNL     1     -38.821 -20.403  28.142  1.00  0.00    -0.003 C 
ATOM      7  C   UNL     1     -37.886 -21.613  28.178  1.00  0.00     0.004 C 
ENDBRANCH   5   6
ENDBRANCH   1   5
TORSDOF 3
ENDMDL
MODEL 5
REMARK VINA RESULT:    -2.483      8.124      8.784
REMARK INTER + INTRA:          -3.000
REMARK INTER:                  -2.956
REMARK INTRA:                  -0.044
REMARK UNBOUND:                -0.081
REMARK SMILES CCCCC(=O)[O-]
REMARK SMILES IDX 4 1 5 2 6 3 7 4 3 5 2 6 1 7
REMARK H PARENT
REMARK Flexibility Score: inf
ROOT
ATOM      1  C   UNL     1     -46.649 -19.827  26.900  1.00  0.00     0.053 C 
ENDROOT
BRANCH   1   2
ATOM      2  C   UNL     1     -47.926 -20.440  27.380  1.00  0.00     0.041 C 
ATOM      3  O   UNL     1     -48.200 -20.453  28.610  1.00  0.00    -0.550 OA
ATOM      4  O   UNL     1     -48.793 -21.041  26.477  1.00  0.00    -0.550 OA
ENDBRANCH   1   2
BRANCH   1   5
ATOM      5  C   UNL     1     -46.926 -18.487  26.207  1.00  0.00     0.006 C 
BRANCH   5   6
ATOM      6  C   UNL     1     -46.633 -17.281  27.112  1.00  0.00    -0.003 C 
ATOM      7  C   UNL     1     -45.432 -16.463  26.637  1.00  0.00     0.004 C 
ENDBRANCH   5   6
ENDBRANCH   1   5
TORSDOF 3
ENDMDL
MODEL 6
REMARK VINA RESULT:    -2.479      2.304      3.596
REMARK INTER + INTRA:          -2.995
REMARK INTER:                  -2.879
REMARK INTRA:                  -0.116
REMARK UNBOUND:                -0.081
REMARK SMILES CCCCC(=O)[O-]
REMARK SMILES IDX 4 1 5 2 6 3 7 4 3 5 2 6 1 7
REMARK H PARENT
REMARK Flexibility Score: inf
ROOT
ATOM      1  C   UNL     1     -40.070 -20.421  28.868  1.00  0.00     0.053 C 
ENDROOT
BRANCH   1   2
ATOM      2  C   UNL     1     -41.007 -21.500  28.428  1.00  0.00     0.041 C 
ATOM      3  O   UNL     1     -41.258 -21.662  27.204  1.00  0.00    -0.550 OA
ATOM      4  O   UNL     1     -41.642 -22.298  29.372  1.00  0.00    -0.550 OA
ENDBRANCH   1   2
BRANCH   1   5
ATOM      5  C   UNL     1     -38.862 -20.343  27.925  1.00  0.00     0.006 C 
BRANCH   5   6
ATOM      6  C   UNL     1     -37.879 -21.506  28.127  1.00  0.00    -0.003 C 
ATOM      7  C   UNL     1     -37.561 -22.244  26.827  1.00  0.00     0.004 C 
ENDBRANCH   5   6
ENDBRANCH   1   5
TORSDOF 3
ENDMDL
MODEL 7
REMARK VINA RESULT:    -2.459      2.274      3.042
REMARK INTER + INTRA:          -2.971
REMARK INTER:                  -2.893
REMARK INTRA:                  -0.078
REMARK UNBOUND:                -0.081
REMARK SMILES CCCCC(=O)[O-]
REMARK SMILES IDX 4 1 5 2 6 3 7 4 3 5 2 6 1 7
REMARK H PARENT
REMARK Flexibility Score: inf
ROOT
ATOM      1  C   UNL     1     -40.370 -19.957  27.157  1.00  0.00     0.053 C 
ENDROOT
BRANCH   1   2
ATOM      2  C   UNL     1     -39.866 -18.700  26.521  1.00  0.00     0.041 C 
ATOM      3  O   UNL     1     -40.301 -17.580  26.899  1.00  0.00    -0.550 OA
ATOM      4  O   UNL     1     -38.954 -18.766  25.475  1.00  0.00    -0.550 OA
ENDBRANCH   1   2
BRANCH   1   5
ATOM      5  C   UNL     1     -39.744 -20.141  28.546  1.00  0.00     0.006 C 
BRANCH   5   6
ATOM      6  C   UNL     1     -38.885 -21.412  28.642  1.00  0.00    -0.003 C 
ATOM      7  C   UNL     1     -37.618 -21.335  27.790  1.00  0.00     0.004 C 
ENDBRANCH   5   6
ENDBRANCH   1   5
TORSDOF 3
ENDMDL
MODEL 8
REMARK VINA RESULT:    -2.419      7.217      7.994
REMARK INTER + INTRA:          -2.924
REMARK INTER:                  -2.849
REMARK INTRA:                  -0.075
REMARK UNBOUND:                -0.081
REMARK SMILES CCCCC(=O)[O-]
REMARK SMILES IDX 4 1 5 2 6 3 7 4 3 5 2 6 1 7
REMARK H PARENT
REMARK Flexibility Score: inf
ROOT
ATOM      1  C   UNL     1     -47.547 -20.723  28.222  1.00  0.00     0.053 C 
ENDROOT
BRANCH   1   2
ATOM      2  C   UNL     1     -46.725 -21.917  27.853  1.00  0.00     0.041 C 
ATOM      3  O   UNL     1     -45.714 -22.227  28.539  1.00  0.00    -0.550 OA
ATOM      4  O   UNL     1     -47.043 -22.660  26.723  1.00  0.00    -0.550 OA
ENDBRANCH   1   2
BRANCH   1   5
ATOM      5  C   UNL     1     -47.750 -19.816  27.002  1.00  0.00     0.006 C 
BRANCH   5   6
ATOM      6  C   UNL     1     -46.505 -18.977  26.677  1.00  0.00    -0.003 C 
ATOM      7  C   UNL     1     -46.717 -17.484  26.925  1.00  0.00     0.004 C 
ENDBRANCH   5   6
ENDBRANCH   1   5
TORSDOF 3
ENDMDL
MODEL 9
REMARK VINA RESULT:    -2.399      6.793      7.455
REMARK INTER + INTRA:          -2.901
REMARK INTER:                  -2.849
REMARK INTRA:                  -0.051
REMARK UNBOUND:                -0.081
REMARK SMILES CCCCC(=O)[O-]
REMARK SMILES IDX 4 1 5 2 6 3 7 4 3 5 2 6 1 7
REMARK H PARENT
REMARK Flexibility Score: inf
ROOT
ATOM      1  C   UNL     1     -46.865 -17.985  26.927  1.00  0.00     0.053 C 
ENDROOT
BRANCH   1   2
ATOM      2  C   UNL     1     -45.482 -17.685  26.445  1.00  0.00     0.041 C 
ATOM      3  O   UNL     1     -45.076 -16.494  26.387  1.00  0.00    -0.550 OA
ATOM      4  O   UNL     1     -44.655 -18.715  26.014  1.00  0.00    -0.550 OA
ENDBRANCH   1   2
BRANCH   1   5
ATOM      5  C   UNL     1     -47.263 -19.419  26.553  1.00  0.00     0.006 C 
BRANCH   5   6
ATOM      6  C   UNL     1     -47.875 -20.189  27.733  1.00  0.00    -0.003 C 
ATOM      7  C   UNL     1     -47.042 -21.403  28.142  1.00  0.00     0.004 C 
ENDBRANCH   5   6
ENDBRANCH   1   5
TORSDOF 3
ENDMDL
