MODEL 1
REMARK VINA RESULT:    -3.738      0.000      0.000
REMARK INTER + INTRA:          -5.889
REMARK INTER:                  -5.705
REMARK INTRA:                  -0.184
REMARK UNBOUND:                -0.184
REMARK SMILES CC1=CCC[C@@H](C)C(=O)C[C@@H](C(C)C)C(=O)C1
REMARK SMILES IDX 8 1 9 2 6 3 7 4 5 5 4 6 3 7 2 8 1 9 10 11 11 12 15 13 16 14
REMARK SMILES IDX 17 15 12 17 13 18 14 19
REMARK H PARENT
REMARK Flexibility Score: 70.00
ROOT
ATOM      1  C   UNL     1      17.592  28.952  29.385  1.00  0.00     0.136 C 
ATOM      2  O   UNL     1      16.492  28.447  29.204  1.00  0.00    -0.299 OA
ENDROOT
BRANCH   1   3
ATOM      3  C   UNL     1      18.753  28.553  28.496  1.00  0.00     0.053 C 
ATOM      4  C   UNL     1      18.247  27.626  27.386  1.00  0.00     0.016 C 
BRANCH   3   5
ATOM      5  C   UNL     1      19.890  27.861  29.289  1.00  0.00     0.015 C 
BRANCH   5   6
ATOM      6  C   UNL     1      21.281  28.478  29.066  1.00  0.00     0.028 C 
BRANCH   6   7
ATOM      7  C   UNL     1      21.937  28.852  30.374  1.00  0.00    -0.028 C 
ATOM      8  C   UNL     1      21.894  30.079  30.944  1.00  0.00    -0.070 CG0
ATOM      9  C   UNL     1      22.618  30.279  32.250  1.00  0.00     0.039 C 
ATOM     10  G   UNL     1      21.163  31.255  30.319  1.00  0.00     0.000 G0
ENDBRANCH   6   7
ENDBRANCH   5   6
ENDBRANCH   3   5
ENDBRANCH   1   3
BRANCH   1  11
ATOM     11  C   UNL     1      17.751  30.000  30.464  1.00  0.00     0.087 C 
BRANCH  11  12
ATOM     12  C   UNL     1      18.533  31.250  29.986  1.00  0.00     0.066 C 
BRANCH  12  13
ATOM     13  C   UNL     1      19.771  31.494  30.838  1.00  0.00     0.140 C 
ATOM     14  O   UNL     1      19.640  31.940  31.969  1.00  0.00    -0.299 OA
BRANCH  13  15
ATOM     15  C   UNL     1      21.173  31.272  30.316  1.00  0.00     0.106 CG0
ATOM     16  G   UNL     1      21.890  30.094  30.956  1.00  0.00     0.000 G0
ENDBRANCH  13  15
ENDBRANCH  12  13
BRANCH  12  17
ATOM     17  C   UNL     1      17.665  32.543  29.892  1.00  0.00    -0.006 C 
ATOM     18  C   UNL     1      18.479  33.741  29.379  1.00  0.00     0.008 C 
ATOM     19  C   UNL     1      16.383  32.382  29.055  1.00  0.00     0.008 C 
ENDBRANCH  12  17
ENDBRANCH  11  12
ENDBRANCH   1  11
TORSDOF 1
ENDMDL
MODEL 2
REMARK VINA RESULT:    -3.636      1.528      2.202
REMARK INTER + INTRA:          -5.733
REMARK INTER:                  -5.255
REMARK INTRA:                  -0.478
REMARK UNBOUND:                -0.184
REMARK SMILES CC1=CCC[C@@H](C)C(=O)C[C@@H](C(C)C)C(=O)C1
REMARK SMILES IDX 8 1 9 2 6 3 7 4 5 5 4 6 3 7 2 8 1 9 10 11 11 12 15 13 16 14
REMARK SMILES IDX 17 15 12 17 13 18 14 19
REMARK H PARENT
REMARK Flexibility Score: 70.00
ROOT
ATOM      1  C   UNL     1      16.915  28.791  31.129  1.00  0.00     0.136 C 
ATOM      2  O   UNL     1      16.600  27.963  31.973  1.00  0.00    -0.299 OA
ENDROOT
BRANCH   1   3
ATOM      3  C   UNL     1      16.568  28.544  29.674  1.00  0.00     0.053 C 
ATOM      4  C   UNL     1      15.103  28.108  29.569  1.00  0.00     0.016 C 
BRANCH   3   5
ATOM      5  C   UNL     1      17.487  27.479  29.023  1.00  0.00     0.015 C 
BRANCH   5   6
ATOM      6  C   UNL     1      18.567  28.061  28.095  1.00  0.00     0.028 C 
BRANCH   6   7
ATOM      7  C   UNL     1      19.945  27.933  28.702  1.00  0.00    -0.028 C 
ATOM      8  C   UNL     1      20.714  28.969  29.111  1.00  0.00    -0.070 CG0
ATOM      9  C   UNL     1      22.073  28.659  29.684  1.00  0.00     0.039 C 
ATOM     10  G   UNL     1      20.272  30.419  29.007  1.00  0.00     0.000 G0
ENDBRANCH   6   7
ENDBRANCH   5   6
ENDBRANCH   3   5
ENDBRANCH   1   3
BRANCH   1  11
ATOM     11  C   UNL     1      17.600  30.066  31.568  1.00  0.00     0.087 C 
BRANCH  11  12
ATOM     12  C   UNL     1      18.049  30.954  30.381  1.00  0.00     0.066 C 
BRANCH  12  13
ATOM     13  C   UNL     1      19.565  30.969  30.236  1.00  0.00     0.140 C 
ATOM     14  O   UNL     1      20.246  31.474  31.116  1.00  0.00    -0.299 OA
BRANCH  13  15
ATOM     15  C   UNL     1      20.268  30.441  29.004  1.00  0.00     0.106 CG0
ATOM     16  G   UNL     1      20.701  28.988  29.116  1.00  0.00     0.000 G0
ENDBRANCH  13  15
ENDBRANCH  12  13
BRANCH  12  17
ATOM     17  C   UNL     1      17.487  32.409  30.431  1.00  0.00    -0.006 C 
ATOM     18  C   UNL     1      17.505  33.075  29.046  1.00  0.00     0.008 C 
ATOM     19  C   UNL     1      16.083  32.521  31.050  1.00  0.00     0.008 C 
ENDBRANCH  12  17
ENDBRANCH  11  12
ENDBRANCH   1  11
TORSDOF 1
ENDMDL
MODEL 3
REMARK VINA RESULT:    -3.479      2.258      5.414
REMARK INTER + INTRA:          -5.493
REMARK INTER:                  -5.047
REMARK INTRA:                  -0.446
REMARK UNBOUND:                -0.184
REMARK SMILES CC1=CCC[C@@H](C)C(=O)C[C@@H](C(C)C)C(=O)C1
REMARK SMILES IDX 8 1 9 2 6 3 7 4 5 5 4 6 3 7 2 8 1 9 10 11 11 12 15 13 16 14
REMARK SMILES IDX 17 15 12 17 13 18 14 19
REMARK H PARENT
REMARK Flexibility Score: 70.00
ROOT
ATOM      1  C   UNL     1      19.855  32.907  31.313  1.00  0.00     0.136 C 
ATOM      2  O   UNL     1      20.215  33.777  32.095  1.00  0.00    -0.299 OA
ENDROOT
BRANCH   1   3
ATOM      3  C   UNL     1      19.855  33.194  29.825  1.00  0.00     0.053 C 
ATOM      4  C   UNL     1      21.101  34.010  29.466  1.00  0.00     0.016 C 
BRANCH   3   5
ATOM      5  C   UNL     1      18.578  33.945  29.371  1.00  0.00     0.015 C 
BRANCH   5   6
ATOM      6  C   UNL     1      17.446  33.026  28.881  1.00  0.00     0.028 C 
BRANCH   6   7
ATOM      7  C   UNL     1      16.452  32.738  29.981  1.00  0.00    -0.028 C 
ATOM      8  C   UNL     1      16.168  31.509  30.472  1.00  0.00    -0.070 CG0
ATOM      9  C   UNL     1      15.136  31.404  31.565  1.00  0.00     0.039 C 
ATOM     10  G   UNL     1      16.833  30.241  29.963  1.00  0.00     0.000 G0
ENDBRANCH   6   7
ENDBRANCH   5   6
ENDBRANCH   3   5
ENDBRANCH   1   3
BRANCH   1  11
ATOM     11  C   UNL     1      19.465  31.549  31.853  1.00  0.00     0.087 C 
BRANCH  11  12
ATOM     12  C   UNL     1      19.360  30.465  30.751  1.00  0.00     0.066 C 
BRANCH  12  13
ATOM     13  C   UNL     1      18.012  29.757  30.790  1.00  0.00     0.140 C 
ATOM     14  O   UNL     1      17.888  28.741  31.458  1.00  0.00    -0.299 OA
BRANCH  13  15
ATOM     15  C   UNL     1      16.826  30.224  29.974  1.00  0.00     0.106 CG0
ATOM     16  G   UNL     1      16.200  31.513  30.478  1.00  0.00     0.000 G0
ENDBRANCH  13  15
ENDBRANCH  12  13
BRANCH  12  17
ATOM     17  C   UNL     1      20.526  29.429  30.768  1.00  0.00    -0.006 C 
ATOM     18  C   UNL     1      21.029  29.111  29.351  1.00  0.00     0.008 C 
ATOM     19  C   UNL     1      21.710  29.827  31.668  1.00  0.00     0.008 C 
ENDBRANCH  12  17
ENDBRANCH  11  12
ENDBRANCH   1  11
TORSDOF 1
ENDMDL
MODEL 4
REMARK VINA RESULT:    -3.416      1.807      3.595
REMARK INTER + INTRA:          -5.397
REMARK INTER:                  -5.324
REMARK INTRA:                  -0.073
REMARK UNBOUND:                -0.184
REMARK SMILES CC1=CCC[C@@H](C)C(=O)C[C@@H](C(C)C)C(=O)C1
REMARK SMILES IDX 8 1 9 2 6 3 7 4 5 5 4 6 3 7 2 8 1 9 10 11 11 12 15 13 16 14
REMARK SMILES IDX 17 15 12 17 13 18 14 19
REMARK H PARENT
REMARK Flexibility Score: 70.00
ROOT
ATOM      1  C   UNL     1      21.174  27.837  29.475  1.00  0.00     0.136 C 
ATOM      2  O   UNL     1      21.256  26.630  29.293  1.00  0.00    -0.299 OA
ENDROOT
BRANCH   1   3
ATOM      3  C   UNL     1      22.336  28.731  29.091  1.00  0.00     0.053 C 
ATOM      4  C   UNL     1      23.220  28.004  28.072  1.00  0.00     0.016 C 
BRANCH   3   5
ATOM      5  C   UNL     1      23.181  29.158  30.317  1.00  0.00     0.015 C 
BRANCH   5   6
ATOM      6  C   UNL     1      22.452  30.105  31.286  1.00  0.00     0.028 C 
BRANCH   6   7
ATOM      7  C   UNL     1      22.200  31.454  30.656  1.00  0.00    -0.028 C 
ATOM      8  C   UNL     1      20.979  31.967  30.376  1.00  0.00    -0.070 CG0
ATOM      9  C   UNL     1      20.912  33.328  29.733  1.00  0.00     0.039 C 
ATOM     10  G   UNL     1      19.684  31.227  30.670  1.00  0.00     0.000 G0
ENDBRANCH   6   7
ENDBRANCH   5   6
ENDBRANCH   3   5
ENDBRANCH   1   3
BRANCH   1  11
ATOM     11  C   UNL     1      19.891  28.412  30.035  1.00  0.00     0.087 C 
BRANCH  11  12
ATOM     12  C   UNL     1      19.101  29.253  29.001  1.00  0.00     0.066 C 
BRANCH  12  13
ATOM     13  C   UNL     1      18.963  30.703  29.448  1.00  0.00     0.140 C 
ATOM     14  O   UNL     1      18.307  31.479  28.769  1.00  0.00    -0.299 OA
BRANCH  13  15
ATOM     15  C   UNL     1      19.668  31.245  30.672  1.00  0.00     0.106 CG0
ATOM     16  G   UNL     1      20.974  31.960  30.365  1.00  0.00     0.000 G0
ENDBRANCH  13  15
ENDBRANCH  12  13
BRANCH  12  17
ATOM     17  C   UNL     1      17.707  28.656  28.632  1.00  0.00    -0.006 C 
ATOM     18  C   UNL     1      17.839  27.385  27.779  1.00  0.00     0.008 C 
ATOM     19  C   UNL     1      16.798  28.384  29.843  1.00  0.00     0.008 C 
ENDBRANCH  12  17
ENDBRANCH  11  12
ENDBRANCH   1  11
TORSDOF 1
ENDMDL
MODEL 5
REMARK VINA RESULT:    -3.390      2.760      4.066
REMARK INTER + INTRA:          -5.358
REMARK INTER:                  -5.288
REMARK INTRA:                  -0.070
REMARK UNBOUND:                -0.184
REMARK SMILES CC1=CCC[C@@H](C)C(=O)C[C@@H](C(C)C)C(=O)C1
REMARK SMILES IDX 8 1 9 2 6 3 7 4 5 5 4 6 3 7 2 8 1 9 10 11 11 12 15 13 16 14
REMARK SMILES IDX 17 15 12 17 13 18 14 19
REMARK H PARENT
REMARK Flexibility Score: 70.00
ROOT
ATOM      1  C   UNL     1      19.689  29.504  29.107  1.00  0.00     0.136 C 
ATOM      2  O   UNL     1      20.846  29.882  29.225  1.00  0.00    -0.299 OA
ENDROOT
BRANCH   1   3
ATOM      3  C   UNL     1      19.379  28.021  29.152  1.00  0.00     0.053 C 
ATOM      4  C   UNL     1      20.681  27.237  29.345  1.00  0.00     0.016 C 
BRANCH   3   5
ATOM      5  C   UNL     1      18.649  27.534  27.876  1.00  0.00     0.015 C 
BRANCH   5   6
ATOM      6  C   UNL     1      17.167  27.184  28.091  1.00  0.00     0.028 C 
BRANCH   6   7
ATOM      7  C   UNL     1      16.830  27.085  29.560  1.00  0.00    -0.028 C 
ATOM      8  C   UNL     1      16.285  28.077  30.302  1.00  0.00    -0.070 CG0
ATOM      9  C   UNL     1      16.025  27.809  31.762  1.00  0.00     0.039 C 
ATOM     10  G   UNL     1      15.940  29.443  29.731  1.00  0.00     0.000 G0
ENDBRANCH   6   7
ENDBRANCH   5   6
ENDBRANCH   3   5
ENDBRANCH   1   3
BRANCH   1  11
ATOM     11  C   UNL     1      18.589  30.534  28.969  1.00  0.00     0.087 C 
BRANCH  11  12
ATOM     12  C   UNL     1      18.023  31.004  30.332  1.00  0.00     0.066 C 
BRANCH  12  13
ATOM     13  C   UNL     1      16.562  30.606  30.498  1.00  0.00     0.140 C 
ATOM     14  O   UNL     1      15.868  31.199  31.311  1.00  0.00    -0.299 OA
BRANCH  13  15
ATOM     15  C   UNL     1      15.945  29.450  29.741  1.00  0.00     0.106 CG0
ATOM     16  G   UNL     1      16.298  28.085  30.306  1.00  0.00     0.000 G0
ENDBRANCH  13  15
ENDBRANCH  12  13
BRANCH  12  17
ATOM     17  C   UNL     1      18.212  32.529  30.604  1.00  0.00    -0.006 C 
ATOM     18  C   UNL     1      19.527  32.818  31.345  1.00  0.00     0.008 C 
ATOM     19  C   UNL     1      18.113  33.410  29.347  1.00  0.00     0.008 C 
ENDBRANCH  12  17
ENDBRANCH  11  12
ENDBRANCH   1  11
TORSDOF 1
ENDMDL
MODEL 6
REMARK VINA RESULT:    -3.373      1.776      2.572
REMARK INTER + INTRA:          -5.331
REMARK INTER:                  -4.941
REMARK INTRA:                  -0.390
REMARK UNBOUND:                -0.184
REMARK SMILES CC1=CCC[C@@H](C)C(=O)C[C@@H](C(C)C)C(=O)C1
REMARK SMILES IDX 8 1 9 2 6 3 7 4 5 5 4 6 3 7 2 8 1 9 10 11 11 12 15 13 16 14
REMARK SMILES IDX 17 15 12 17 13 18 14 19
REMARK H PARENT
REMARK Flexibility Score: 70.00
ROOT
ATOM      1  C   UNL     1      18.521  29.586  30.700  1.00  0.00     0.136 C 
ATOM      2  O   UNL     1      18.181  28.418  30.827  1.00  0.00    -0.299 OA
ENDROOT
BRANCH   1   3
ATOM      3  C   UNL     1      19.475  29.970  29.587  1.00  0.00     0.053 C 
ATOM      4  C   UNL     1      19.028  29.301  28.283  1.00  0.00     0.016 C 
BRANCH   3   5
ATOM      5  C   UNL     1      20.940  29.584  29.909  1.00  0.00     0.015 C 
BRANCH   5   6
ATOM      6  C   UNL     1      21.698  30.627  30.748  1.00  0.00     0.028 C 
BRANCH   6   7
ATOM      7  C   UNL     1      21.613  32.002  30.130  1.00  0.00    -0.028 C 
ATOM      8  C   UNL     1      20.941  33.052  30.656  1.00  0.00    -0.070 CG0
ATOM      9  C   UNL     1      20.952  34.354  29.895  1.00  0.00     0.039 C 
ATOM     10  G   UNL     1      20.172  32.970  31.964  1.00  0.00     0.000 G0
ENDBRANCH   6   7
ENDBRANCH   5   6
ENDBRANCH   3   5
ENDBRANCH   1   3
BRANCH   1  11
ATOM     11  C   UNL     1      17.938  30.626  31.632  1.00  0.00     0.087 C 
BRANCH  11  12
ATOM     12  C   UNL     1      17.874  32.039  31.000  1.00  0.00     0.066 C 
BRANCH  12  13
ATOM     13  C   UNL     1      18.659  33.055  31.819  1.00  0.00     0.140 C 
ATOM     14  O   UNL     1      18.069  33.997  32.328  1.00  0.00    -0.299 OA
BRANCH  13  15
ATOM     15  C   UNL     1      20.162  32.985  31.974  1.00  0.00     0.106 CG0
ATOM     16  G   UNL     1      20.921  33.046  30.659  1.00  0.00     0.000 G0
ENDBRANCH  13  15
ENDBRANCH  12  13
BRANCH  12  17
ATOM     17  C   UNL     1      16.422  32.548  30.736  1.00  0.00    -0.006 C 
ATOM     18  C   UNL     1      16.232  33.000  29.279  1.00  0.00     0.008 C 
ATOM     19  C   UNL     1      15.322  31.544  31.122  1.00  0.00     0.008 C 
ENDBRANCH  12  17
ENDBRANCH  11  12
ENDBRANCH   1  11
TORSDOF 1
ENDMDL
MODEL 7
REMARK VINA RESULT:    -3.316      1.893      4.204
REMARK INTER + INTRA:          -5.245
REMARK INTER:                  -4.957
REMARK INTRA:                  -0.287
REMARK UNBOUND:                -0.184
REMARK SMILES CC1=CCC[C@@H](C)C(=O)C[C@@H](C(C)C)C(=O)C1
REMARK SMILES IDX 8 1 9 2 6 3 7 4 5 5 4 6 3 7 2 8 1 9 10 11 11 12 15 13 16 14
REMARK SMILES IDX 17 15 12 17 13 18 14 19
REMARK H PARENT
REMARK Flexibility Score: 70.00
ROOT
ATOM      1  C   UNL     1      18.540  29.644  29.180  1.00  0.00     0.136 C 
ATOM      2  O   UNL     1      18.221  28.735  28.427  1.00  0.00    -0.299 OA
ENDROOT
BRANCH   1   3
ATOM      3  C   UNL     1      17.629  30.014  30.333  1.00  0.00     0.053 C 
ATOM      4  C   UNL     1      17.074  28.736  30.971  1.00  0.00     0.016 C 
BRANCH   3   5
ATOM      5  C   UNL     1      16.465  30.936  29.890  1.00  0.00     0.015 C 
BRANCH   5   6
ATOM      6  C   UNL     1      16.911  32.323  29.398  1.00  0.00     0.028 C 
BRANCH   6   7
ATOM      7  C   UNL     1      17.380  33.191  30.542  1.00  0.00    -0.028 C 
ATOM      8  C   UNL     1      18.602  33.766  30.634  1.00  0.00    -0.070 CG0
ATOM      9  C   UNL     1      18.905  34.594  31.856  1.00  0.00     0.039 C 
ATOM     10  G   UNL     1      19.674  33.601  29.571  1.00  0.00     0.000 G0
ENDBRANCH   6   7
ENDBRANCH   5   6
ENDBRANCH   3   5
ENDBRANCH   1   3
BRANCH   1  11
ATOM     11  C   UNL     1      19.865  30.343  28.969  1.00  0.00     0.087 C 
BRANCH  11  12
ATOM     12  C   UNL     1      20.358  31.102  30.226  1.00  0.00     0.066 C 
BRANCH  12  13
ATOM     13  C   UNL     1      20.725  32.545  29.900  1.00  0.00     0.140 C 
ATOM     14  O   UNL     1      21.894  32.895  29.967  1.00  0.00    -0.299 OA
BRANCH  13  15
ATOM     15  C   UNL     1      19.685  33.589  29.562  1.00  0.00     0.106 CG0
ATOM     16  G   UNL     1      18.613  33.760  30.626  1.00  0.00     0.000 G0
ENDBRANCH  13  15
ENDBRANCH  12  13
BRANCH  12  17
ATOM     17  C   UNL     1      21.529  30.393  30.976  1.00  0.00    -0.006 C 
ATOM     18  C   UNL     1      21.377  30.500  32.501  1.00  0.00     0.008 C 
ATOM     19  C   UNL     1      21.737  28.923  30.570  1.00  0.00     0.008 C 
ENDBRANCH  12  17
ENDBRANCH  11  12
ENDBRANCH   1  11
TORSDOF 1
ENDMDL
MODEL 8
REMARK VINA RESULT:    -3.282      1.923      4.161
REMARK INTER + INTRA:          -5.192
REMARK INTER:                  -4.796
REMARK INTRA:                  -0.397
REMARK UNBOUND:                -0.184
REMARK SMILES CC1=CCC[C@@H](C)C(=O)C[C@@H](C(C)C)C(=O)C1
REMARK SMILES IDX 8 1 9 2 6 3 7 4 5 5 4 6 3 7 2 8 1 9 10 11 11 12 15 13 16 14
REMARK SMILES IDX 17 15 12 17 13 18 14 19
REMARK H PARENT
REMARK Flexibility Score: 70.00
ROOT
ATOM      1  C   UNL     1      19.815  33.780  30.050  1.00  0.00     0.136 C 
ATOM      2  O   UNL     1      20.289  34.751  29.478  1.00  0.00    -0.299 OA
ENDROOT
BRANCH   1   3
ATOM      3  C   UNL     1      19.898  33.688  31.560  1.00  0.00     0.053 C 
ATOM      4  C   UNL     1      19.620  35.067  32.168  1.00  0.00     0.016 C 
BRANCH   3   5
ATOM      5  C   UNL     1      21.273  33.162  32.043  1.00  0.00     0.015 C 
BRANCH   5   6
ATOM      6  C   UNL     1      21.276  31.676  32.440  1.00  0.00     0.028 C 
BRANCH   6   7
ATOM      7  C   UNL     1      22.060  30.842  31.454  1.00  0.00    -0.028 C 
ATOM      8  C   UNL     1      21.546  29.851  30.690  1.00  0.00    -0.070 CG0
ATOM      9  C   UNL     1      22.479  29.111  29.766  1.00  0.00     0.039 C 
ATOM     10  G   UNL     1      20.081  29.449  30.734  1.00  0.00     0.000 G0
ENDBRANCH   6   7
ENDBRANCH   5   6
ENDBRANCH   3   5
ENDBRANCH   1   3
BRANCH   1  11
ATOM     11  C   UNL     1      19.113  32.716  29.235  1.00  0.00     0.087 C 
BRANCH  11  12
ATOM     12  C   UNL     1      18.557  31.557  30.099  1.00  0.00     0.066 C 
BRANCH  12  13
ATOM     13  C   UNL     1      19.217  30.230  29.747  1.00  0.00     0.140 C 
ATOM     14  O   UNL     1      19.006  29.728  28.652  1.00  0.00    -0.299 OA
BRANCH  13  15
ATOM     15  C   UNL     1      20.076  29.464  30.730  1.00  0.00     0.106 CG0
ATOM     16  G   UNL     1      21.544  29.854  30.700  1.00  0.00     0.000 G0
ENDBRANCH  13  15
ENDBRANCH  12  13
BRANCH  12  17
ATOM     17  C   UNL     1      17.002  31.426  30.058  1.00  0.00    -0.006 C 
ATOM     18  C   UNL     1      16.413  31.189  31.458  1.00  0.00     0.008 C 
ATOM     19  C   UNL     1      16.289  32.609  29.382  1.00  0.00     0.008 C 
ENDBRANCH  12  17
ENDBRANCH  11  12
ENDBRANCH   1  11
TORSDOF 1
ENDMDL
MODEL 9
REMARK VINA RESULT:    -3.251      1.636      2.452
REMARK INTER + INTRA:          -5.146
REMARK INTER:                  -4.766
REMARK INTRA:                  -0.380
REMARK UNBOUND:                -0.184
REMARK SMILES CC1=CCC[C@@H](C)C(=O)C[C@@H](C(C)C)C(=O)C1
REMARK SMILES IDX 8 1 9 2 6 3 7 4 5 5 4 6 3 7 2 8 1 9 10 11 11 12 15 13 16 14
REMARK SMILES IDX 17 15 12 17 13 18 14 19
REMARK H PARENT
REMARK Flexibility Score: 70.00
ROOT
ATOM      1  C   UNL     1      18.120  31.301  29.746  1.00  0.00     0.136 C 
ATOM      2  O   UNL     1      17.941  32.079  28.819  1.00  0.00    -0.299 OA
ENDROOT
BRANCH   1   3
ATOM      3  C   UNL     1      17.812  29.829  29.555  1.00  0.00     0.053 C 
ATOM      4  C   UNL     1      17.621  29.169  30.924  1.00  0.00     0.016 C 
BRANCH   3   5
ATOM      5  C   UNL     1      18.921  29.094  28.761  1.00  0.00     0.015 C 
BRANCH   5   6
ATOM      6  C   UNL     1      19.832  28.205  29.625  1.00  0.00     0.028 C 
BRANCH   6   7
ATOM      7  C   UNL     1      21.268  28.670  29.576  1.00  0.00    -0.028 C 
ATOM      8  C   UNL     1      21.876  29.421  30.524  1.00  0.00    -0.070 CG0
ATOM      9  C   UNL     1      23.317  29.806  30.306  1.00  0.00     0.039 C 
ATOM     10  G   UNL     1      21.169  29.896  31.782  1.00  0.00     0.000 G0
ENDBRANCH   6   7
ENDBRANCH   5   6
ENDBRANCH   3   5
ENDBRANCH   1   3
BRANCH   1  11
ATOM     11  C   UNL     1      18.691  31.823  31.046  1.00  0.00     0.087 C 
BRANCH  11  12
ATOM     12  C   UNL     1      20.186  32.216  30.938  1.00  0.00     0.066 C 
BRANCH  12  13
ATOM     13  C   UNL     1      21.048  31.401  31.894  1.00  0.00     0.140 C 
ATOM     14  O   UNL     1      21.710  31.979  32.743  1.00  0.00    -0.299 OA
BRANCH  13  15
ATOM     15  C   UNL     1      21.174  29.897  31.791  1.00  0.00     0.106 CG0
ATOM     16  G   UNL     1      21.863  29.421  30.523  1.00  0.00     0.000 G0
ENDBRANCH  13  15
ENDBRANCH  12  13
BRANCH  12  17
ATOM     17  C   UNL     1      20.454  33.742  31.120  1.00  0.00    -0.006 C 
ATOM     18  C   UNL     1      21.098  34.361  29.869  1.00  0.00     0.008 C 
ATOM     19  C   UNL     1      19.214  34.555  31.529  1.00  0.00     0.008 C 
ENDBRANCH  12  17
ENDBRANCH  11  12
ENDBRANCH   1  11
TORSDOF 1
ENDMDL
