MODEL 1
REMARK VINA RESULT:    -6.150      0.000      0.000
REMARK INTER + INTRA:          -9.911
REMARK INTER:                  -8.667
REMARK INTRA:                  -1.245
REMARK UNBOUND:                -1.245
REMARK SMILES COc1c(O[C@@H]2O[C@@H](C(=O)[O-])[C@@H](O)[C@@H](O)[C@H]2O)cc(O)c2c(=O)cc(-c3ccccc3)oc12
REMARK SMILES IDX 5 1 6 2 8 3 12 4 7 5 14 6 16 7 9 8 10 9 11 10 13 11 15 13
REMARK SMILES IDX 17 15 4 17 3 18 18 19 33 20 19 21 21 22 32 23 22 24 25 25
REMARK SMILES IDX 24 26 23 27 2 28 1 29 20 30 26 32 27 33 31 34 28 35 30 36
REMARK SMILES IDX 29 37
REMARK H PARENT 13 12 15 14 17 16 20 31
REMARK Flexibility Score: inf
ROOT
ATOM      1  O   UNL     1     481.204  38.743 458.000  1.00  0.00    -0.458 OA
ENDROOT
BRANCH   1   2
ATOM      2  C   UNL     1     482.475  38.278 457.527  1.00  0.00     0.339 C 
ATOM      3  C   UNL     1     483.610  39.275 459.325  1.00  0.00     0.199 C 
ATOM      4  C   UNL     1     484.340  40.300 458.431  1.00  0.00     0.180 C 
ATOM      5  O   UNL     1     483.359  38.069 458.618  1.00  0.00    -0.328 OA
ATOM      6  C   UNL     1     483.488  40.572 457.178  1.00  0.00     0.181 C 
ATOM      7  C   UNL     1     483.086  39.255 456.493  1.00  0.00     0.214 C 
BRANCH   3   8
ATOM      8  C   UNL     1     484.427  38.967 460.547  1.00  0.00     0.073 C 
ATOM      9  O   UNL     1     485.553  38.416 460.430  1.00  0.00    -0.547 OA
ATOM     10  O   UNL     1     483.922  39.234 461.814  1.00  0.00    -0.547 OA
ENDBRANCH   3   8
BRANCH   4  11
ATOM     11  O   UNL     1     485.603  39.813 458.048  1.00  0.00    -0.387 OA
ATOM     12  H   UNL     1     485.468  38.895 457.694  1.00  0.00     0.211 HD
ENDBRANCH   4  11
BRANCH   6  13
ATOM     13  O   UNL     1     484.189  41.383 456.271  1.00  0.00    -0.387 OA
ATOM     14  H   UNL     1     484.427  40.807 455.498  1.00  0.00     0.211 HD
ENDBRANCH   6  13
BRANCH   7  15
ATOM     15  O   UNL     1     484.211  38.666 455.891  1.00  0.00    -0.384 OA
ATOM     16  H   UNL     1     484.153  38.864 454.920  1.00  0.00     0.211 HD
ENDBRANCH   7  15
ENDBRANCH   1   2
BRANCH   1  17
ATOM     17  C   UNL     1     480.332  38.053 458.862  1.00  0.00     0.172 A 
ATOM     18  C   UNL     1     479.510  38.815 459.704  1.00  0.00     0.205 A 
ATOM     19  C   UNL     1     480.273  36.650 458.902  1.00  0.00     0.097 A 
ATOM     20  C   UNL     1     478.616  38.162 460.590  1.00  0.00     0.188 A 
ATOM     21  C   UNL     1     479.396  35.993 459.770  1.00  0.00     0.134 A 
ATOM     22  C   UNL     1     478.559  36.744 460.624  1.00  0.00     0.111 A 
ATOM     23  O   UNL     1     477.834  38.871 461.400  1.00  0.00    -0.452 OA
ATOM     24  C   UNL     1     477.657  36.140 461.525  1.00  0.00     0.197 A 
ATOM     25  C   UNL     1     476.982  38.332 462.270  1.00  0.00     0.138 A 
ATOM     26  C   UNL     1     476.866  36.938 462.348  1.00  0.00     0.100 A 
ATOM     27  O   UNL     1     477.545  34.886 461.604  1.00  0.00    -0.289 OA
BRANCH  18  28
ATOM     28  O   UNL     1     479.637  40.214 459.610  1.00  0.00    -0.490 OA
ATOM     29  C   UNL     1     480.446  41.049 460.433  1.00  0.00     0.278 C 
ENDBRANCH  18  28
BRANCH  21  30
ATOM     30  O   UNL     1     479.367  34.597 459.780  1.00  0.00    -0.507 OA
ATOM     31  H   UNL     1     479.412  34.069 460.644  1.00  0.00     0.293 HD
ENDBRANCH  21  30
BRANCH  25  32
ATOM     32  C   UNL     1     476.169  39.225 463.131  1.00  0.00     0.017 A 
ATOM     33  C   UNL     1     474.802  38.977 463.362  1.00  0.00     0.012 A 
ATOM     34  C   UNL     1     476.774  40.328 463.760  1.00  0.00     0.012 A 
ATOM     35  C   UNL     1     474.058  39.824 464.191  1.00  0.00     0.001 A 
ATOM     36  C   UNL     1     476.027  41.172 464.587  1.00  0.00     0.001 A 
ATOM     37  C   UNL     1     474.669  40.922 464.800  1.00  0.00     0.000 A 
ENDBRANCH  25  32
ENDBRANCH   1  17
TORSDOF 9
ENDMDL
MODEL 2
REMARK VINA RESULT:    -6.145      3.142      5.328
REMARK INTER + INTRA:          -9.905
REMARK INTER:                  -8.515
REMARK INTRA:                  -1.390
REMARK UNBOUND:                -1.245
REMARK SMILES COc1c(O[C@@H]2O[C@@H](C(=O)[O-])[C@@H](O)[C@@H](O)[C@H]2O)cc(O)c2c(=O)cc(-c3ccccc3)oc12
REMARK SMILES IDX 5 1 6 2 8 3 12 4 7 5 14 6 16 7 9 8 10 9 11 10 13 11 15 13
REMARK SMILES IDX 17 15 4 17 3 18 18 19 33 20 19 21 21 22 32 23 22 24 25 25
REMARK SMILES IDX 24 26 23 27 2 28 1 29 20 30 26 32 27 33 31 34 28 35 30 36
REMARK SMILES IDX 29 37
REMARK H PARENT 13 12 15 14 17 16 20 31
REMARK Flexibility Score: inf
ROOT
ATOM      1  O   UNL     1     484.025  41.489 461.146  1.00  0.00    -0.458 OA
ENDROOT
BRANCH   1   2
ATOM      2  C   UNL     1     485.436  41.371 461.371  1.00  0.00     0.339 C 
ATOM      3  C   UNL     1     485.202  41.850 463.658  1.00  0.00     0.199 C 
ATOM      4  C   UNL     1     485.951  43.196 463.558  1.00  0.00     0.180 C 
ATOM      5  O   UNL     1     485.687  40.925 462.696  1.00  0.00    -0.328 OA
ATOM      6  C   UNL     1     485.788  43.759 462.135  1.00  0.00     0.181 C 
ATOM      7  C   UNL     1     486.169  42.704 461.083  1.00  0.00     0.214 C 
BRANCH   3   8
ATOM      8  C   UNL     1     485.361  41.259 465.029  1.00  0.00     0.073 C 
ATOM      9  O   UNL     1     484.393  41.261 465.833  1.00  0.00    -0.547 OA
ATOM     10  O   UNL     1     486.592  40.760 465.439  1.00  0.00    -0.547 OA
ENDBRANCH   3   8
BRANCH   4  11
ATOM     11  O   UNL     1     487.317  43.026 463.847  1.00  0.00    -0.387 OA
ATOM     12  H   UNL     1     487.691  43.927 464.035  1.00  0.00     0.211 HD
ENDBRANCH   4  11
BRANCH   6  13
ATOM     13  O   UNL     1     486.580  44.906 461.964  1.00  0.00    -0.387 OA
ATOM     14  H   UNL     1     487.258  44.684 461.273  1.00  0.00     0.211 HD
ENDBRANCH   6  13
BRANCH   7  15
ATOM     15  O   UNL     1     487.559  42.494 461.097  1.00  0.00    -0.384 OA
ATOM     16  H   UNL     1     487.736  41.795 461.781  1.00  0.00     0.211 HD
ENDBRANCH   7  15
ENDBRANCH   1   2
BRANCH   1  17
ATOM     17  C   UNL     1     483.235  40.645 460.345  1.00  0.00     0.172 A 
ATOM     18  C   UNL     1     482.215  39.918 460.974  1.00  0.00     0.205 A 
ATOM     19  C   UNL     1     483.444  40.512 458.963  1.00  0.00     0.097 A 
ATOM     20  C   UNL     1     481.394  39.053 460.206  1.00  0.00     0.188 A 
ATOM     21  C   UNL     1     482.642  39.663 458.193  1.00  0.00     0.134 A 
ATOM     22  C   UNL     1     481.608  38.925 458.809  1.00  0.00     0.111 A 
ATOM     23  O   UNL     1     480.425  38.351 460.790  1.00  0.00    -0.452 OA
ATOM     24  C   UNL     1     480.769  38.049 458.088  1.00  0.00     0.197 A 
ATOM     25  C   UNL     1     479.625  37.508 460.141  1.00  0.00     0.138 A 
ATOM     26  C   UNL     1     479.774  37.341 458.759  1.00  0.00     0.100 A 
ATOM     27  O   UNL     1     480.895  37.891 456.843  1.00  0.00    -0.289 OA
BRANCH  18  28
ATOM     28  O   UNL     1     482.076  40.099 462.363  1.00  0.00    -0.490 OA
ATOM     29  C   UNL     1     482.530  39.214 463.383  1.00  0.00     0.278 C 
ENDBRANCH  18  28
BRANCH  21  30
ATOM     30  O   UNL     1     482.882  39.558 456.822  1.00  0.00    -0.507 OA
ATOM     31  H   UNL     1     482.260  39.045 456.209  1.00  0.00     0.293 HD
ENDBRANCH  21  30
BRANCH  25  32
ATOM     32  C   UNL     1     478.587  36.770 460.901  1.00  0.00     0.017 A 
ATOM     33  C   UNL     1     478.556  35.361 460.923  1.00  0.00     0.012 A 
ATOM     34  C   UNL     1     477.628  37.481 461.645  1.00  0.00     0.012 A 
ATOM     35  C   UNL     1     477.577  34.686 461.660  1.00  0.00     0.001 A 
ATOM     36  C   UNL     1     476.652  36.802 462.379  1.00  0.00     0.001 A 
ATOM     37  C   UNL     1     476.624  35.405 462.384  1.00  0.00     0.000 A 
ENDBRANCH  25  32
ENDBRANCH   1  17
TORSDOF 9
ENDMDL
MODEL 3
REMARK VINA RESULT:    -6.132      3.282      5.697
REMARK INTER + INTRA:          -9.886
REMARK INTER:                  -8.582
REMARK INTRA:                  -1.304
REMARK UNBOUND:                -1.245
REMARK SMILES COc1c(O[C@@H]2O[C@@H](C(=O)[O-])[C@@H](O)[C@@H](O)[C@H]2O)cc(O)c2c(=O)cc(-c3ccccc3)oc12
REMARK SMILES IDX 5 1 6 2 8 3 12 4 7 5 14 6 16 7 9 8 10 9 11 10 13 11 15 13
REMARK SMILES IDX 17 15 4 17 3 18 18 19 33 20 19 21 21 22 32 23 22 24 25 25
REMARK SMILES IDX 24 26 23 27 2 28 1 29 20 30 26 32 27 33 31 34 28 35 30 36
REMARK SMILES IDX 29 37
REMARK H PARENT 13 12 15 14 17 16 20 31
REMARK Flexibility Score: inf
ROOT
ATOM      1  O   UNL     1     485.838  40.036 461.762  1.00  0.00    -0.458 OA
ENDROOT
BRANCH   1   2
ATOM      2  C   UNL     1     486.589  41.255 461.699  1.00  0.00     0.339 C 
ATOM      3  C   UNL     1     486.618  41.463 464.038  1.00  0.00     0.199 C 
ATOM      4  C   UNL     1     485.731  42.726 464.040  1.00  0.00     0.180 C 
ATOM      5  O   UNL     1     487.401  41.393 462.856  1.00  0.00    -0.328 OA
ATOM      6  C   UNL     1     484.830  42.712 462.792  1.00  0.00     0.181 C 
ATOM      7  C   UNL     1     485.662  42.482 461.519  1.00  0.00     0.214 C 
BRANCH   3   8
ATOM      8  C   UNL     1     487.529  41.458 465.231  1.00  0.00     0.073 C 
ATOM      9  O   UNL     1     487.394  40.582 466.125  1.00  0.00    -0.547 OA
ATOM     10  O   UNL     1     488.489  42.451 465.384  1.00  0.00    -0.547 OA
ENDBRANCH   3   8
BRANCH   4  11
ATOM     11  O   UNL     1     486.523  43.889 464.038  1.00  0.00    -0.387 OA
ATOM     12  H   UNL     1     487.113  43.843 464.836  1.00  0.00     0.211 HD
ENDBRANCH   4  11
BRANCH   6  13
ATOM     13  O   UNL     1     484.118  43.917 462.682  1.00  0.00    -0.387 OA
ATOM     14  H   UNL     1     483.158  43.693 462.800  1.00  0.00     0.211 HD
ENDBRANCH   6  13
BRANCH   7  15
ATOM     15  O   UNL     1     486.434  43.624 461.241  1.00  0.00    -0.384 OA
ATOM     16  H   UNL     1     486.706  44.006 462.116  1.00  0.00     0.211 HD
ENDBRANCH   7  15
ENDBRANCH   1   2
BRANCH   1  17
ATOM     17  C   UNL     1     484.882  39.597 460.828  1.00  0.00     0.172 A 
ATOM     18  C   UNL     1     483.554  39.479 461.261  1.00  0.00     0.205 A 
ATOM     19  C   UNL     1     485.221  39.275 459.503  1.00  0.00     0.097 A 
ATOM     20  C   UNL     1     482.556  39.040 460.354  1.00  0.00     0.188 A 
ATOM     21  C   UNL     1     484.247  38.841 458.598  1.00  0.00     0.134 A 
ATOM     22  C   UNL     1     482.904  38.719 459.016  1.00  0.00     0.111 A 
ATOM     23  O   UNL     1     481.292  38.917 460.753  1.00  0.00    -0.452 OA
ATOM     24  C   UNL     1     481.878  38.283 458.152  1.00  0.00     0.197 A 
ATOM     25  C   UNL     1     480.304  38.496 459.966  1.00  0.00     0.138 A 
ATOM     26  C   UNL     1     480.574  38.173 458.631  1.00  0.00     0.100 A 
ATOM     27  O   UNL     1     482.111  37.989 456.948  1.00  0.00    -0.289 OA
BRANCH  18  28
ATOM     28  O   UNL     1     483.298  39.811 462.606  1.00  0.00    -0.490 OA
ATOM     29  C   UNL     1     483.197  38.903 463.698  1.00  0.00     0.278 C 
ENDBRANCH  18  28
BRANCH  21  30
ATOM     30  O   UNL     1     484.624  38.531 457.290  1.00  0.00    -0.507 OA
ATOM     31  H   UNL     1     483.982  38.097 456.638  1.00  0.00     0.293 HD
ENDBRANCH  21  30
BRANCH  25  32
ATOM     32  C   UNL     1     478.934  38.387 460.526  1.00  0.00     0.017 A 
ATOM     33  C   UNL     1     477.902  39.253 460.114  1.00  0.00     0.012 A 
ATOM     34  C   UNL     1     478.642  37.383 461.466  1.00  0.00     0.012 A 
ATOM     35  C   UNL     1     476.614  39.122 460.644  1.00  0.00     0.001 A 
ATOM     36  C   UNL     1     477.354  37.256 461.993  1.00  0.00     0.001 A 
ATOM     37  C   UNL     1     476.341  38.127 461.585  1.00  0.00     0.000 A 
ENDBRANCH  25  32
ENDBRANCH   1  17
TORSDOF 9
ENDMDL
MODEL 4
REMARK VINA RESULT:    -5.960      1.245      2.401
REMARK INTER + INTRA:          -9.644
REMARK INTER:                  -8.488
REMARK INTRA:                  -1.156
REMARK UNBOUND:                -1.245
REMARK SMILES COc1c(O[C@@H]2O[C@@H](C(=O)[O-])[C@@H](O)[C@@H](O)[C@H]2O)cc(O)c2c(=O)cc(-c3ccccc3)oc12
REMARK SMILES IDX 5 1 6 2 8 3 12 4 7 5 14 6 16 7 9 8 10 9 11 10 13 11 15 13
REMARK SMILES IDX 17 15 4 17 3 18 18 19 33 20 19 21 21 22 32 23 22 24 25 25
REMARK SMILES IDX 24 26 23 27 2 28 1 29 20 30 26 32 27 33 31 34 28 35 30 36
REMARK SMILES IDX 29 37
REMARK H PARENT 13 12 15 14 17 16 20 31
REMARK Flexibility Score: inf
ROOT
ATOM      1  O   UNL     1     481.293  39.478 459.361  1.00  0.00    -0.458 OA
ENDROOT
BRANCH   1   2
ATOM      2  C   UNL     1     482.618  39.658 459.879  1.00  0.00     0.339 C 
ATOM      3  C   UNL     1     483.356  40.663 457.889  1.00  0.00     0.199 C 
ATOM      4  C   UNL     1     484.311  39.503 457.536  1.00  0.00     0.180 C 
ATOM      5  O   UNL     1     483.223  40.803 459.296  1.00  0.00    -0.328 OA
ATOM      6  C   UNL     1     483.777  38.202 458.162  1.00  0.00     0.181 C 
ATOM      7  C   UNL     1     483.487  38.396 459.660  1.00  0.00     0.214 C 
BRANCH   3   8
ATOM      8  C   UNL     1     483.861  41.954 457.314  1.00  0.00     0.073 C 
ATOM      9  O   UNL     1     484.576  41.946 456.277  1.00  0.00    -0.547 OA
ATOM     10  O   UNL     1     483.592  43.159 457.952  1.00  0.00    -0.547 OA
ENDBRANCH   3   8
BRANCH   4  11
ATOM     11  O   UNL     1     485.607  39.763 458.017  1.00  0.00    -0.387 OA
ATOM     12  H   UNL     1     485.511  40.338 458.822  1.00  0.00     0.211 HD
ENDBRANCH   4  11
BRANCH   6  13
ATOM     13  O   UNL     1     484.698  37.157 457.989  1.00  0.00    -0.387 OA
ATOM     14  H   UNL     1     485.453  37.336 458.609  1.00  0.00     0.211 HD
ENDBRANCH   6  13
BRANCH   7  15
ATOM     15  O   UNL     1     484.694  38.522 460.369  1.00  0.00    -0.384 OA
ATOM     16  H   UNL     1     485.398  38.732 459.700  1.00  0.00     0.211 HD
ENDBRANCH   7  15
ENDBRANCH   1   2
BRANCH   1  17
ATOM     17  C   UNL     1     480.255  38.744 459.964  1.00  0.00     0.172 A 
ATOM     18  C   UNL     1     479.295  39.455 460.697  1.00  0.00     0.205 A 
ATOM     19  C   UNL     1     480.165  37.347 459.856  1.00  0.00     0.097 A 
ATOM     20  C   UNL     1     478.231  38.756 461.322  1.00  0.00     0.188 A 
ATOM     21  C   UNL     1     479.122  36.645 460.467  1.00  0.00     0.134 A 
ATOM     22  C   UNL     1     478.144  37.344 461.207  1.00  0.00     0.111 A 
ATOM     23  O   UNL     1     477.315  39.416 462.027  1.00  0.00    -0.452 OA
ATOM     24  C   UNL     1     477.070  36.693 461.851  1.00  0.00     0.197 A 
ATOM     25  C   UNL     1     476.298  38.831 462.656  1.00  0.00     0.138 A 
ATOM     26  C   UNL     1     476.145  37.441 462.575  1.00  0.00     0.100 A 
ATOM     27  O   UNL     1     476.924  35.442 461.785  1.00  0.00    -0.289 OA
BRANCH  18  28
ATOM     28  O   UNL     1     479.461  40.852 460.766  1.00  0.00    -0.490 OA
ATOM     29  C   UNL     1     478.834  41.821 459.932  1.00  0.00     0.278 C 
ENDBRANCH  18  28
BRANCH  21  30
ATOM     30  O   UNL     1     479.068  35.256 460.337  1.00  0.00    -0.507 OA
ATOM     31  H   UNL     1     479.579  34.768 459.611  1.00  0.00     0.293 HD
ENDBRANCH  21  30
BRANCH  25  32
ATOM     32  C   UNL     1     475.345  39.670 463.422  1.00  0.00     0.017 A 
ATOM     33  C   UNL     1     474.027  39.883 462.972  1.00  0.00     0.012 A 
ATOM     34  C   UNL     1     475.745  40.245 464.642  1.00  0.00     0.012 A 
ATOM     35  C   UNL     1     473.141  40.666 463.719  1.00  0.00     0.001 A 
ATOM     36  C   UNL     1     474.857  41.027 465.385  1.00  0.00     0.001 A 
ATOM     37  C   UNL     1     473.556  41.240 464.922  1.00  0.00     0.000 A 
ENDBRANCH  25  32
ENDBRANCH   1  17
TORSDOF 9
ENDMDL
MODEL 5
REMARK VINA RESULT:    -5.819      2.761      8.221
REMARK INTER + INTRA:          -9.445
REMARK INTER:                  -8.463
REMARK INTRA:                  -0.982
REMARK UNBOUND:                -1.245
REMARK SMILES COc1c(O[C@@H]2O[C@@H](C(=O)[O-])[C@@H](O)[C@@H](O)[C@H]2O)cc(O)c2c(=O)cc(-c3ccccc3)oc12
REMARK SMILES IDX 5 1 6 2 8 3 12 4 7 5 14 6 16 7 9 8 10 9 11 10 13 11 15 13
REMARK SMILES IDX 17 15 4 17 3 18 18 19 33 20 19 21 21 22 32 23 22 24 25 25
REMARK SMILES IDX 24 26 23 27 2 28 1 29 20 30 26 32 27 33 31 34 28 35 30 36
REMARK SMILES IDX 29 37
REMARK H PARENT 13 12 15 14 17 16 20 31
REMARK Flexibility Score: inf
ROOT
ATOM      1  O   UNL     1     479.255  39.938 461.346  1.00  0.00    -0.458 OA
ENDROOT
BRANCH   1   2
ATOM      2  C   UNL     1     478.573  39.511 462.533  1.00  0.00     0.339 C 
ATOM      3  C   UNL     1     477.795  37.556 461.490  1.00  0.00     0.199 C 
ATOM      4  C   UNL     1     476.317  37.996 461.536  1.00  0.00     0.180 C 
ATOM      5  O   UNL     1     478.521  38.093 462.586  1.00  0.00    -0.328 OA
ATOM      6  C   UNL     1     476.248  39.534 461.530  1.00  0.00     0.181 C 
ATOM      7  C   UNL     1     477.155  40.125 462.623  1.00  0.00     0.214 C 
BRANCH   3   8
ATOM      8  C   UNL     1     477.899  36.059 461.520  1.00  0.00     0.073 C 
ATOM      9  O   UNL     1     478.488  35.448 460.589  1.00  0.00    -0.547 OA
ATOM     10  O   UNL     1     477.299  35.334 462.542  1.00  0.00    -0.547 OA
ENDBRANCH   3   8
BRANCH   4  11
ATOM     11  O   UNL     1     475.686  37.498 462.691  1.00  0.00    -0.387 OA
ATOM     12  H   UNL     1     475.025  36.819 462.394  1.00  0.00     0.211 HD
ENDBRANCH   4  11
BRANCH   6  13
ATOM     13  O   UNL     1     474.928  39.970 461.723  1.00  0.00    -0.387 OA
ATOM     14  H   UNL     1     474.630  40.367 460.862  1.00  0.00     0.211 HD
ENDBRANCH   6  13
BRANCH   7  15
ATOM     15  O   UNL     1     476.606  39.868 463.891  1.00  0.00    -0.384 OA
ATOM     16  H   UNL     1     477.367  39.671 464.498  1.00  0.00     0.211 HD
ENDBRANCH   7  15
ENDBRANCH   1   2
BRANCH   1  17
ATOM     17  C   UNL     1     480.588  39.650 461.001  1.00  0.00     0.172 A 
ATOM     18  C   UNL     1     481.601  40.226 461.779  1.00  0.00     0.205 A 
ATOM     19  C   UNL     1     480.919  38.822 459.916  1.00  0.00     0.097 A 
ATOM     20  C   UNL     1     482.960  39.964 461.469  1.00  0.00     0.188 A 
ATOM     21  C   UNL     1     482.254  38.555 459.598  1.00  0.00     0.134 A 
ATOM     22  C   UNL     1     483.288  39.124 460.373  1.00  0.00     0.111 A 
ATOM     23  O   UNL     1     483.933  40.509 462.195  1.00  0.00    -0.452 OA
ATOM     24  C   UNL     1     484.654  38.897 460.100  1.00  0.00     0.197 A 
ATOM     25  C   UNL     1     485.230  40.325 461.956  1.00  0.00     0.138 A 
ATOM     26  C   UNL     1     485.625  39.499 460.896  1.00  0.00     0.100 A 
ATOM     27  O   UNL     1     485.021  38.155 459.148  1.00  0.00    -0.289 OA
BRANCH  18  28
ATOM     28  O   UNL     1     481.187  41.051 462.843  1.00  0.00    -0.490 OA
ATOM     29  C   UNL     1     481.117  42.474 462.834  1.00  0.00     0.278 C 
ENDBRANCH  18  28
BRANCH  21  30
ATOM     30  O   UNL     1     482.543  37.727 458.512  1.00  0.00    -0.507 OA
ATOM     31  H   UNL     1     482.295  37.985 457.564  1.00  0.00     0.293 HD
ENDBRANCH  21  30
BRANCH  25  32
ATOM     32  C   UNL     1     486.226  40.995 462.827  1.00  0.00     0.017 A 
ATOM     33  C   UNL     1     487.352  41.647 462.287  1.00  0.00     0.012 A 
ATOM     34  C   UNL     1     486.035  41.014 464.220  1.00  0.00     0.012 A 
ATOM     35  C   UNL     1     488.270  42.286 463.127  1.00  0.00     0.001 A 
ATOM     36  C   UNL     1     486.956  41.653 465.055  1.00  0.00     0.001 A 
ATOM     37  C   UNL     1     488.074  42.287 464.509  1.00  0.00     0.000 A 
ENDBRANCH  25  32
ENDBRANCH   1  17
TORSDOF 9
ENDMDL
MODEL 6
REMARK VINA RESULT:    -5.667      2.336      3.984
REMARK INTER + INTRA:          -9.231
REMARK INTER:                  -7.965
REMARK INTRA:                  -1.266
REMARK UNBOUND:                -1.245
REMARK SMILES COc1c(O[C@@H]2O[C@@H](C(=O)[O-])[C@@H](O)[C@@H](O)[C@H]2O)cc(O)c2c(=O)cc(-c3ccccc3)oc12
REMARK SMILES IDX 5 1 6 2 8 3 12 4 7 5 14 6 16 7 9 8 10 9 11 10 13 11 15 13
REMARK SMILES IDX 17 15 4 17 3 18 18 19 33 20 19 21 21 22 32 23 22 24 25 25
REMARK SMILES IDX 24 26 23 27 2 28 1 29 20 30 26 32 27 33 31 34 28 35 30 36
REMARK SMILES IDX 29 37
REMARK H PARENT 13 12 15 14 17 16 20 31
REMARK Flexibility Score: inf
ROOT
ATOM      1  O   UNL     1     482.770  40.059 459.509  1.00  0.00    -0.458 OA
ENDROOT
BRANCH   1   2
ATOM      2  C   UNL     1     483.862  39.433 458.822  1.00  0.00     0.339 C 
ATOM      3  C   UNL     1     483.229  40.379 456.767  1.00  0.00     0.199 C 
ATOM      4  C   UNL     1     482.855  39.020 456.139  1.00  0.00     0.180 C 
ATOM      5  O   UNL     1     484.272  40.230 457.720  1.00  0.00    -0.328 OA
ATOM      6  C   UNL     1     482.435  38.047 457.255  1.00  0.00     0.181 C 
ATOM      7  C   UNL     1     483.496  37.999 458.367  1.00  0.00     0.214 C 
BRANCH   3   8
ATOM      8  C   UNL     1     483.670  41.346 455.707  1.00  0.00     0.073 C 
ATOM      9  O   UNL     1     484.301  42.388 456.026  1.00  0.00    -0.547 OA
ATOM     10  O   UNL     1     483.336  41.127 454.376  1.00  0.00    -0.547 OA
ENDBRANCH   3   8
BRANCH   4  11
ATOM     11  O   UNL     1     483.946  38.484 455.430  1.00  0.00    -0.387 OA
ATOM     12  H   UNL     1     483.970  38.934 454.546  1.00  0.00     0.211 HD
ENDBRANCH   4  11
BRANCH   6  13
ATOM     13  O   UNL     1     482.232  36.758 456.737  1.00  0.00    -0.387 OA
ATOM     14  H   UNL     1     481.912  36.873 455.804  1.00  0.00     0.211 HD
ENDBRANCH   6  13
BRANCH   7  15
ATOM     15  O   UNL     1     484.647  37.341 457.901  1.00  0.00    -0.384 OA
ATOM     16  H   UNL     1     484.538  36.380 458.125  1.00  0.00     0.211 HD
ENDBRANCH   7  15
ENDBRANCH   1   2
BRANCH   1  17
ATOM     17  C   UNL     1     482.387  39.836 460.843  1.00  0.00     0.172 A 
ATOM     18  C   UNL     1     481.048  40.067 461.185  1.00  0.00     0.205 A 
ATOM     19  C   UNL     1     483.297  39.401 461.821  1.00  0.00     0.097 A 
ATOM     20  C   UNL     1     480.617  39.855 462.519  1.00  0.00     0.188 A 
ATOM     21  C   UNL     1     482.886  39.188 463.141  1.00  0.00     0.134 A 
ATOM     22  C   UNL     1     481.540  39.413 463.502  1.00  0.00     0.111 A 
ATOM     23  O   UNL     1     479.349  40.077 462.860  1.00  0.00    -0.452 OA
ATOM     24  C   UNL     1     481.065  39.221 464.817  1.00  0.00     0.197 A 
ATOM     25  C   UNL     1     478.873  39.917 464.093  1.00  0.00     0.138 A 
ATOM     26  C   UNL     1     479.727  39.472 465.110  1.00  0.00     0.100 A 
ATOM     27  O   UNL     1     481.826  38.821 465.740  1.00  0.00    -0.289 OA
BRANCH  18  28
ATOM     28  O   UNL     1     480.202  40.510 460.150  1.00  0.00    -0.490 OA
ATOM     29  C   UNL     1     479.331  39.703 459.363  1.00  0.00     0.278 C 
ENDBRANCH  18  28
BRANCH  21  30
ATOM     30  O   UNL     1     483.821  38.756 464.083  1.00  0.00    -0.507 OA
ATOM     31  H   UNL     1     484.580  39.351 464.394  1.00  0.00     0.293 HD
ENDBRANCH  21  30
BRANCH  25  32
ATOM     32  C   UNL     1     477.443  40.207 464.356  1.00  0.00     0.017 A 
ATOM     33  C   UNL     1     476.469  40.076 463.347  1.00  0.00     0.012 A 
ATOM     34  C   UNL     1     477.034  40.593 465.646  1.00  0.00     0.012 A 
ATOM     35  C   UNL     1     475.123  40.341 463.622  1.00  0.00     0.001 A 
ATOM     36  C   UNL     1     475.689  40.857 465.916  1.00  0.00     0.001 A 
ATOM     37  C   UNL     1     474.734  40.733 464.904  1.00  0.00     0.000 A 
ENDBRANCH  25  32
ENDBRANCH   1  17
TORSDOF 9
ENDMDL
MODEL 7
REMARK VINA RESULT:    -5.543      3.657      7.353
REMARK INTER + INTRA:          -9.057
REMARK INTER:                  -7.721
REMARK INTRA:                  -1.335
REMARK UNBOUND:                -1.245
REMARK SMILES COc1c(O[C@@H]2O[C@@H](C(=O)[O-])[C@@H](O)[C@@H](O)[C@H]2O)cc(O)c2c(=O)cc(-c3ccccc3)oc12
REMARK SMILES IDX 5 1 6 2 8 3 12 4 7 5 14 6 16 7 9 8 10 9 11 10 13 11 15 13
REMARK SMILES IDX 17 15 4 17 3 18 18 19 33 20 19 21 21 22 32 23 22 24 25 25
REMARK SMILES IDX 24 26 23 27 2 28 1 29 20 30 26 32 27 33 31 34 28 35 30 36
REMARK SMILES IDX 29 37
REMARK H PARENT 13 12 15 14 17 16 20 31
REMARK Flexibility Score: inf
ROOT
ATOM      1  O   UNL     1     481.495  39.379 459.764  1.00  0.00    -0.458 OA
ENDROOT
BRANCH   1   2
ATOM      2  C   UNL     1     481.539  38.180 458.978  1.00  0.00     0.339 C 
ATOM      3  C   UNL     1     482.252  39.350 457.071  1.00  0.00     0.199 C 
ATOM      4  C   UNL     1     480.946  39.083 456.293  1.00  0.00     0.180 C 
ATOM      5  O   UNL     1     482.534  38.289 457.971  1.00  0.00    -0.328 OA
ATOM      6  C   UNL     1     479.791  38.898 457.293  1.00  0.00     0.181 C 
ATOM      7  C   UNL     1     480.156  37.855 458.363  1.00  0.00     0.214 C 
BRANCH   3   8
ATOM      8  C   UNL     1     483.406  39.509 456.124  1.00  0.00     0.073 C 
ATOM      9  O   UNL     1     483.739  40.655 455.722  1.00  0.00    -0.547 OA
ATOM     10  O   UNL     1     484.075  38.392 455.640  1.00  0.00    -0.547 OA
ENDBRANCH   3   8
BRANCH   4  11
ATOM     11  O   UNL     1     481.070  37.929 455.496  1.00  0.00    -0.387 OA
ATOM     12  H   UNL     1     481.788  37.372 455.897  1.00  0.00     0.211 HD
ENDBRANCH   4  11
BRANCH   6  13
ATOM     13  O   UNL     1     478.619  38.505 456.628  1.00  0.00    -0.387 OA
ATOM     14  H   UNL     1     477.990  38.182 457.326  1.00  0.00     0.211 HD
ENDBRANCH   6  13
BRANCH   7  15
ATOM     15  O   UNL     1     480.181  36.572 457.791  1.00  0.00    -0.384 OA
ATOM     16  H   UNL     1     479.301  36.438 457.351  1.00  0.00     0.211 HD
ENDBRANCH   7  15
ENDBRANCH   1   2
BRANCH   1  17
ATOM     17  C   UNL     1     481.863  39.503 461.116  1.00  0.00     0.172 A 
ATOM     18  C   UNL     1     483.126  40.039 461.402  1.00  0.00     0.205 A 
ATOM     19  C   UNL     1     481.015  39.104 462.163  1.00  0.00     0.097 A 
ATOM     20  C   UNL     1     483.539  40.182 462.751  1.00  0.00     0.188 A 
ATOM     21  C   UNL     1     481.409  39.240 463.497  1.00  0.00     0.134 A 
ATOM     22  C   UNL     1     482.676  39.780 463.804  1.00  0.00     0.111 A 
ATOM     23  O   UNL     1     484.738  40.684 463.038  1.00  0.00    -0.452 OA
ATOM     24  C   UNL     1     483.133  39.938 465.130  1.00  0.00     0.197 A 
ATOM     25  C   UNL     1     485.203  40.834 464.276  1.00  0.00     0.138 A 
ATOM     26  C   UNL     1     484.400  40.468 465.363  1.00  0.00     0.100 A 
ATOM     27  O   UNL     1     482.418  39.612 466.116  1.00  0.00    -0.289 OA
BRANCH  18  28
ATOM     28  O   UNL     1     483.919  40.405 460.297  1.00  0.00    -0.490 OA
ATOM     29  C   UNL     1     485.126  39.776 459.876  1.00  0.00     0.278 C 
ENDBRANCH  18  28
BRANCH  21  30
ATOM     30  O   UNL     1     480.538  38.832 464.509  1.00  0.00    -0.507 OA
ATOM     31  H   UNL     1     480.614  39.188 465.455  1.00  0.00     0.293 HD
ENDBRANCH  21  30
BRANCH  25  32
ATOM     32  C   UNL     1     486.563  41.394 464.472  1.00  0.00     0.017 A 
ATOM     33  C   UNL     1     487.289  41.951 463.401  1.00  0.00     0.012 A 
ATOM     34  C   UNL     1     487.136  41.401 465.757  1.00  0.00     0.012 A 
ATOM     35  C   UNL     1     488.563  42.487 463.613  1.00  0.00     0.001 A 
ATOM     36  C   UNL     1     488.410  41.937 465.963  1.00  0.00     0.001 A 
ATOM     37  C   UNL     1     489.124  42.478 464.891  1.00  0.00     0.000 A 
ENDBRANCH  25  32
ENDBRANCH   1  17
TORSDOF 9
ENDMDL
MODEL 8
REMARK VINA RESULT:    -5.522      2.033      3.263
REMARK INTER + INTRA:          -9.026
REMARK INTER:                  -7.759
REMARK INTRA:                  -1.267
REMARK UNBOUND:                -1.245
REMARK SMILES COc1c(O[C@@H]2O[C@@H](C(=O)[O-])[C@@H](O)[C@@H](O)[C@H]2O)cc(O)c2c(=O)cc(-c3ccccc3)oc12
REMARK SMILES IDX 5 1 6 2 8 3 12 4 7 5 14 6 16 7 9 8 10 9 11 10 13 11 15 13
REMARK SMILES IDX 17 15 4 17 3 18 18 19 33 20 19 21 21 22 32 23 22 24 25 25
REMARK SMILES IDX 24 26 23 27 2 28 1 29 20 30 26 32 27 33 31 34 28 35 30 36
REMARK SMILES IDX 29 37
REMARK H PARENT 13 12 15 14 17 16 20 31
REMARK Flexibility Score: inf
ROOT
ATOM      1  O   UNL     1     480.660  39.231 459.010  1.00  0.00    -0.458 OA
ENDROOT
BRANCH   1   2
ATOM      2  C   UNL     1     481.323  38.021 458.624  1.00  0.00     0.339 C 
ATOM      3  C   UNL     1     483.416  39.084 458.555  1.00  0.00     0.199 C 
ATOM      4  C   UNL     1     483.560  38.928 457.026  1.00  0.00     0.180 C 
ATOM      5  O   UNL     1     482.659  38.016 459.106  1.00  0.00    -0.328 OA
ATOM      6  C   UNL     1     482.159  38.873 456.391  1.00  0.00     0.181 C 
ATOM      7  C   UNL     1     481.284  37.818 457.089  1.00  0.00     0.214 C 
BRANCH   3   8
ATOM      8  C   UNL     1     484.767  39.115 459.210  1.00  0.00     0.073 C 
ATOM      9  O   UNL     1     485.748  39.626 458.608  1.00  0.00    -0.547 OA
ATOM     10  O   UNL     1     484.955  38.533 460.457  1.00  0.00    -0.547 OA
ENDBRANCH   3   8
BRANCH   4  11
ATOM     11  O   UNL     1     484.270  37.755 456.711  1.00  0.00    -0.387 OA
ATOM     12  H   UNL     1     484.389  37.740 455.725  1.00  0.00     0.211 HD
ENDBRANCH   4  11
BRANCH   6  13
ATOM     13  O   UNL     1     482.249  38.581 455.021  1.00  0.00    -0.387 OA
ATOM     14  H   UNL     1     482.455  39.437 454.560  1.00  0.00     0.211 HD
ENDBRANCH   6  13
BRANCH   7  15
ATOM     15  O   UNL     1     481.740  36.529 456.768  1.00  0.00    -0.384 OA
ATOM     16  H   UNL     1     482.422  36.288 457.450  1.00  0.00     0.211 HD
ENDBRANCH   7  15
ENDBRANCH   1   2
BRANCH   1  17
ATOM     17  C   UNL     1     479.995  39.465 460.228  1.00  0.00     0.172 A 
ATOM     18  C   UNL     1     478.594  39.434 460.222  1.00  0.00     0.205 A 
ATOM     19  C   UNL     1     480.688  39.730 461.421  1.00  0.00     0.097 A 
ATOM     20  C   UNL     1     477.882  39.664 461.427  1.00  0.00     0.188 A 
ATOM     21  C   UNL     1     479.999  39.959 462.615  1.00  0.00     0.134 A 
ATOM     22  C   UNL     1     478.588  39.929 462.630  1.00  0.00     0.111 A 
ATOM     23  O   UNL     1     476.551  39.644 461.436  1.00  0.00    -0.452 OA
ATOM     24  C   UNL     1     477.835  40.156 463.801  1.00  0.00     0.197 A 
ATOM     25  C   UNL     1     475.812  39.866 462.521  1.00  0.00     0.138 A 
ATOM     26  C   UNL     1     476.444  40.123 463.744  1.00  0.00     0.100 A 
ATOM     27  O   UNL     1     478.394  40.388 464.908  1.00  0.00    -0.289 OA
BRANCH  18  28
ATOM     28  O   UNL     1     477.975  39.171 458.985  1.00  0.00    -0.490 OA
ATOM     29  C   UNL     1     477.426  40.134 458.091  1.00  0.00     0.278 C 
ENDBRANCH  18  28
BRANCH  21  30
ATOM     30  O   UNL     1     480.724  40.219 463.780  1.00  0.00    -0.507 OA
ATOM     31  H   UNL     1     480.357  39.997 464.698  1.00  0.00     0.293 HD
ENDBRANCH  21  30
BRANCH  25  32
ATOM     32  C   UNL     1     474.334  39.830 462.407  1.00  0.00     0.017 A 
ATOM     33  C   UNL     1     473.509  39.835 463.548  1.00  0.00     0.012 A 
ATOM     34  C   UNL     1     473.732  39.821 461.135  1.00  0.00     0.012 A 
ATOM     35  C   UNL     1     472.117  39.815 463.416  1.00  0.00     0.001 A 
ATOM     36  C   UNL     1     472.340  39.800 461.008  1.00  0.00     0.001 A 
ATOM     37  C   UNL     1     471.533  39.795 462.148  1.00  0.00     0.000 A 
ENDBRANCH  25  32
ENDBRANCH   1  17
TORSDOF 9
ENDMDL
MODEL 9
REMARK VINA RESULT:    -5.408      2.603      4.240
REMARK INTER + INTRA:          -8.866
REMARK INTER:                  -7.640
REMARK INTRA:                  -1.226
REMARK UNBOUND:                -1.245
REMARK SMILES COc1c(O[C@@H]2O[C@@H](C(=O)[O-])[C@@H](O)[C@@H](O)[C@H]2O)cc(O)c2c(=O)cc(-c3ccccc3)oc12
REMARK SMILES IDX 5 1 6 2 8 3 12 4 7 5 14 6 16 7 9 8 10 9 11 10 13 11 15 13
REMARK SMILES IDX 17 15 4 17 3 18 18 19 33 20 19 21 21 22 32 23 22 24 25 25
REMARK SMILES IDX 24 26 23 27 2 28 1 29 20 30 26 32 27 33 31 34 28 35 30 36
REMARK SMILES IDX 29 37
REMARK H PARENT 13 12 15 14 17 16 20 31
REMARK Flexibility Score: inf
ROOT
ATOM      1  O   UNL     1     481.434  38.844 460.177  1.00  0.00    -0.458 OA
ENDROOT
BRANCH   1   2
ATOM      2  C   UNL     1     482.398  39.803 459.722  1.00  0.00     0.339 C 
ATOM      3  C   UNL     1     483.059  38.426 457.938  1.00  0.00     0.199 C 
ATOM      4  C   UNL     1     484.472  38.188 458.510  1.00  0.00     0.180 C 
ATOM      5  O   UNL     1     482.565  39.703 458.316  1.00  0.00    -0.328 OA
ATOM      6  C   UNL     1     484.425  38.320 460.042  1.00  0.00     0.181 C 
ATOM      7  C   UNL     1     483.750  39.638 460.457  1.00  0.00     0.214 C 
BRANCH   3   8
ATOM      8  C   UNL     1     483.074  38.330 456.440  1.00  0.00     0.073 C 
ATOM      9  O   UNL     1     481.991  38.255 455.801  1.00  0.00    -0.547 OA
ATOM     10  O   UNL     1     484.280  38.266 455.753  1.00  0.00    -0.547 OA
ENDBRANCH   3   8
BRANCH   4  11
ATOM     11  O   UNL     1     485.384  39.121 457.982  1.00  0.00    -0.387 OA
ATOM     12  H   UNL     1     485.680  38.775 457.100  1.00  0.00     0.211 HD
ENDBRANCH   4  11
BRANCH   6  13
ATOM     13  O   UNL     1     485.719  38.259 460.584  1.00  0.00    -0.387 OA
ATOM     14  H   UNL     1     485.649  37.746 461.432  1.00  0.00     0.211 HD
ENDBRANCH   6  13
BRANCH   7  15
ATOM     15  O   UNL     1     484.591  40.722 460.153  1.00  0.00    -0.384 OA
ATOM     16  H   UNL     1     485.027  40.512 459.285  1.00  0.00     0.211 HD
ENDBRANCH   7  15
ENDBRANCH   1   2
BRANCH   1  17
ATOM     17  C   UNL     1     480.260  39.121 460.901  1.00  0.00     0.172 A 
ATOM     18  C   UNL     1     479.047  39.126 460.199  1.00  0.00     0.205 A 
ATOM     19  C   UNL     1     480.276  39.393 462.279  1.00  0.00     0.097 A 
ATOM     20  C   UNL     1     477.839  39.401 460.888  1.00  0.00     0.188 A 
ATOM     21  C   UNL     1     479.092  39.665 462.971  1.00  0.00     0.134 A 
ATOM     22  C   UNL     1     477.861  39.672 462.281  1.00  0.00     0.111 A 
ATOM     23  O   UNL     1     476.679  39.416 460.233  1.00  0.00    -0.452 OA
ATOM     24  C   UNL     1     476.634  39.944 462.922  1.00  0.00     0.197 A 
ATOM     25  C   UNL     1     475.507  39.681 460.806  1.00  0.00     0.138 A 
ATOM     26  C   UNL     1     475.455  39.947 462.180  1.00  0.00     0.100 A 
ATOM     27  O   UNL     1     476.575  40.185 464.158  1.00  0.00    -0.289 OA
BRANCH  18  28
ATOM     28  O   UNL     1     479.117  38.854 458.819  1.00  0.00    -0.490 OA
ATOM     29  C   UNL     1     479.098  39.811 457.765  1.00  0.00     0.278 C 
ENDBRANCH  18  28
BRANCH  21  30
ATOM     30  O   UNL     1     479.150  39.931 464.341  1.00  0.00    -0.507 OA
ATOM     31  H   UNL     1     479.844  40.556 464.734  1.00  0.00     0.293 HD
ENDBRANCH  21  30
BRANCH  25  32
ATOM     32  C   UNL     1     474.281  39.681 459.971  1.00  0.00     0.017 A 
ATOM     33  C   UNL     1     474.347  39.818 458.570  1.00  0.00     0.012 A 
ATOM     34  C   UNL     1     473.023  39.510 460.577  1.00  0.00     0.012 A 
ATOM     35  C   UNL     1     473.179  39.800 457.801  1.00  0.00     0.001 A 
ATOM     36  C   UNL     1     471.859  39.493 459.805  1.00  0.00     0.001 A 
ATOM     37  C   UNL     1     471.936  39.641 458.418  1.00  0.00     0.000 A 
ENDBRANCH  25  32
ENDBRANCH   1  17
TORSDOF 9
ENDMDL
