MODEL 1
REMARK VINA RESULT:    -2.702      0.000      0.000
REMARK INTER + INTRA:          -5.431
REMARK INTER:                  -4.914
REMARK INTRA:                  -0.516
REMARK UNBOUND:                -0.516
REMARK SMILES CCCCCCCCCCCCCCCC(=O)[O-]
REMARK SMILES IDX 9 1 10 2 11 3 12 4 13 5 14 6 15 7 16 8 17 9 18 10 8 11 7 12
REMARK SMILES IDX 6 13 5 14 4 15 3 16 2 17 1 18
REMARK H PARENT
REMARK Flexibility Score: inf
ROOT
ATOM      1  C   UNL     1      -9.515 -22.969  19.602  1.00  0.00     0.000 C 
ENDROOT
BRANCH   1   2
ATOM      2  C   UNL     1     -10.373 -22.393  18.456  1.00  0.00     0.000 C 
BRANCH   2   3
ATOM      3  C   UNL     1      -9.599 -21.542  17.430  1.00  0.00     0.000 C 
BRANCH   3   4
ATOM      4  C   UNL     1      -8.511 -22.331  16.667  1.00  0.00     0.000 C 
BRANCH   4   5
ATOM      5  C   UNL     1      -7.146 -22.329  17.373  1.00  0.00     0.000 C 
BRANCH   5   6
ATOM      6  C   UNL     1      -5.980 -22.068  16.406  1.00  0.00     0.006 C 
BRANCH   6   7
ATOM      7  C   UNL     1      -4.718 -22.850  16.795  1.00  0.00     0.053 C 
BRANCH   7   8
ATOM      8  C   UNL     1      -3.538 -22.445  15.966  1.00  0.00     0.041 C 
ATOM      9  O   UNL     1      -2.479 -23.125  15.996  1.00  0.00    -0.550 OA
ATOM     10  O   UNL     1      -3.596 -21.296  15.189  1.00  0.00    -0.550 OA
ENDBRANCH   7   8
ENDBRANCH   6   7
ENDBRANCH   5   6
ENDBRANCH   4   5
ENDBRANCH   3   4
ENDBRANCH   2   3
ENDBRANCH   1   2
BRANCH   1  11
ATOM     11  C   UNL     1     -10.037 -22.691  21.026  1.00  0.00     0.000 C 
BRANCH  11  12
ATOM     12  C   UNL     1      -9.011 -22.924  22.153  1.00  0.00    -0.000 C 
BRANCH  12  13
ATOM     13  C   UNL     1      -9.210 -22.043  23.402  1.00  0.00    -0.000 C 
BRANCH  13  14
ATOM     14  C   UNL     1      -9.429 -20.543  23.118  1.00  0.00    -0.000 C 
BRANCH  14  15
ATOM     15  C   UNL     1     -10.897 -20.082  23.138  1.00  0.00    -0.000 C 
BRANCH  15  16
ATOM     16  C   UNL     1     -11.051 -18.569  22.906  1.00  0.00    -0.000 C 
BRANCH  16  17
ATOM     17  C   UNL     1      -9.970 -18.005  21.972  1.00  0.00    -0.003 C 
ATOM     18  C   UNL     1     -10.354 -18.099  20.495  1.00  0.00     0.004 C 
ENDBRANCH  16  17
ENDBRANCH  15  16
ENDBRANCH  14  15
ENDBRANCH  13  14
ENDBRANCH  12  13
ENDBRANCH  11  12
ENDBRANCH   1  11
TORSDOF 14
ENDMDL
MODEL 2
REMARK VINA RESULT:    -2.403      3.087      4.489
REMARK INTER + INTRA:          -4.887
REMARK INTER:                  -4.147
REMARK INTRA:                  -0.740
REMARK UNBOUND:                -0.516
REMARK SMILES CCCCCCCCCCCCCCCC(=O)[O-]
REMARK SMILES IDX 9 1 10 2 11 3 12 4 13 5 14 6 15 7 16 8 17 9 18 10 8 11 7 12
REMARK SMILES IDX 6 13 5 14 4 15 3 16 2 17 1 18
REMARK H PARENT
REMARK Flexibility Score: inf
ROOT
ATOM      1  C   UNL     1      -5.593 -22.500  18.805  1.00  0.00     0.000 C 
ENDROOT
BRANCH   1   2
ATOM      2  C   UNL     1      -6.243 -23.098  17.539  1.00  0.00     0.000 C 
BRANCH   2   3
ATOM      3  C   UNL     1      -6.754 -22.061  16.520  1.00  0.00     0.000 C 
BRANCH   3   4
ATOM      4  C   UNL     1      -8.295 -21.982  16.437  1.00  0.00     0.000 C 
BRANCH   4   5
ATOM      5  C   UNL     1      -8.990 -22.168  17.796  1.00  0.00     0.000 C 
BRANCH   5   6
ATOM      6  C   UNL     1     -10.502 -21.895  17.729  1.00  0.00     0.006 C 
BRANCH   6   7
ATOM      7  C   UNL     1     -11.002 -21.758  16.285  1.00  0.00     0.053 C 
BRANCH   7   8
ATOM      8  C   UNL     1     -11.028 -20.328  15.841  1.00  0.00     0.041 C 
ATOM      9  O   UNL     1     -10.931 -20.042  14.619  1.00  0.00    -0.550 OA
ATOM     10  O   UNL     1     -11.124 -19.310  16.780  1.00  0.00    -0.550 OA
ENDBRANCH   7   8
ENDBRANCH   6   7
ENDBRANCH   5   6
ENDBRANCH   4   5
ENDBRANCH   3   4
ENDBRANCH   2   3
ENDBRANCH   1   2
BRANCH   1  11
ATOM     11  C   UNL     1      -6.044 -23.125  20.140  1.00  0.00     0.000 C 
BRANCH  11  12
ATOM     12  C   UNL     1      -7.561 -23.060  20.411  1.00  0.00    -0.000 C 
BRANCH  12  13
ATOM     13  C   UNL     1      -7.946 -22.792  21.879  1.00  0.00    -0.000 C 
BRANCH  13  14
ATOM     14  C   UNL     1      -9.444 -22.966  22.207  1.00  0.00    -0.000 C 
BRANCH  14  15
ATOM     15  C   UNL     1     -10.174 -21.678  22.626  1.00  0.00    -0.000 C 
BRANCH  15  16
ATOM     16  C   UNL     1     -10.352 -20.687  21.463  1.00  0.00    -0.000 C 
BRANCH  16  17
ATOM     17  C   UNL     1     -10.209 -19.223  21.911  1.00  0.00    -0.003 C 
ATOM     18  C   UNL     1     -10.261 -18.239  20.743  1.00  0.00     0.004 C 
ENDBRANCH  16  17
ENDBRANCH  15  16
ENDBRANCH  14  15
ENDBRANCH  13  14
ENDBRANCH  12  13
ENDBRANCH  11  12
ENDBRANCH   1  11
TORSDOF 14
ENDMDL
MODEL 3
REMARK VINA RESULT:    -2.241      3.155      4.255
REMARK INTER + INTRA:          -4.592
REMARK INTER:                  -3.474
REMARK INTRA:                  -1.118
REMARK UNBOUND:                -0.516
REMARK SMILES CCCCCCCCCCCCCCCC(=O)[O-]
REMARK SMILES IDX 9 1 10 2 11 3 12 4 13 5 14 6 15 7 16 8 17 9 18 10 8 11 7 12
REMARK SMILES IDX 6 13 5 14 4 15 3 16 2 17 1 18
REMARK H PARENT
REMARK Flexibility Score: inf
ROOT
ATOM      1  C   UNL     1      -7.503 -22.196  18.900  1.00  0.00     0.000 C 
ENDROOT
BRANCH   1   2
ATOM      2  C   UNL     1      -6.175 -22.882  18.515  1.00  0.00     0.000 C 
BRANCH   2   3
ATOM      3  C   UNL     1      -5.754 -22.699  17.043  1.00  0.00     0.000 C 
BRANCH   3   4
ATOM      4  C   UNL     1      -6.945 -22.501  16.079  1.00  0.00     0.000 C 
BRANCH   4   5
ATOM      5  C   UNL     1      -6.821 -21.242  15.203  1.00  0.00     0.000 C 
BRANCH   5   6
ATOM      6  C   UNL     1      -8.167 -20.529  14.999  1.00  0.00     0.006 C 
BRANCH   6   7
ATOM      7  C   UNL     1      -9.274 -21.115  15.886  1.00  0.00     0.053 C 
BRANCH   7   8
ATOM      8  C   UNL     1     -10.549 -20.340  15.765  1.00  0.00     0.041 C 
ATOM      9  O   UNL     1     -11.122 -19.897  16.795  1.00  0.00    -0.550 OA
ATOM     10  O   UNL     1     -11.125 -20.139  14.517  1.00  0.00    -0.550 OA
ENDBRANCH   7   8
ENDBRANCH   6   7
ENDBRANCH   5   6
ENDBRANCH   4   5
ENDBRANCH   3   4
ENDBRANCH   2   3
ENDBRANCH   1   2
BRANCH   1  11
ATOM     11  C   UNL     1      -8.732 -23.124  18.970  1.00  0.00     0.000 C 
BRANCH  11  12
ATOM     12  C   UNL     1     -10.062 -22.420  19.311  1.00  0.00    -0.000 C 
BRANCH  12  13
ATOM     13  C   UNL     1     -10.710 -22.866  20.636  1.00  0.00    -0.000 C 
BRANCH  13  14
ATOM     14  C   UNL     1     -11.102 -21.721  21.593  1.00  0.00    -0.000 C 
BRANCH  14  15
ATOM     15  C   UNL     1     -10.023 -20.644  21.800  1.00  0.00    -0.000 C 
BRANCH  15  16
ATOM     16  C   UNL     1     -10.580 -19.350  22.418  1.00  0.00    -0.000 C 
BRANCH  16  17
ATOM     17  C   UNL     1      -9.754 -18.112  22.036  1.00  0.00    -0.003 C 
ATOM     18  C   UNL     1      -9.132 -17.418  23.247  1.00  0.00     0.004 C 
ENDBRANCH  16  17
ENDBRANCH  15  16
ENDBRANCH  14  15
ENDBRANCH  13  14
ENDBRANCH  12  13
ENDBRANCH  11  12
ENDBRANCH   1  11
TORSDOF 14
ENDMDL
MODEL 4
REMARK VINA RESULT:    -2.004      1.538      2.790
REMARK INTER + INTRA:          -4.161
REMARK INTER:                  -3.358
REMARK INTRA:                  -0.803
REMARK UNBOUND:                -0.516
REMARK SMILES CCCCCCCCCCCCCCCC(=O)[O-]
REMARK SMILES IDX 9 1 10 2 11 3 12 4 13 5 14 6 15 7 16 8 17 9 18 10 8 11 7 12
REMARK SMILES IDX 6 13 5 14 4 15 3 16 2 17 1 18
REMARK H PARENT
REMARK Flexibility Score: inf
ROOT
ATOM      1  C   UNL     1      -7.217 -22.396  18.821  1.00  0.00     0.000 C 
ENDROOT
BRANCH   1   2
ATOM      2  C   UNL     1      -7.695 -22.170  17.371  1.00  0.00     0.000 C 
BRANCH   2   3
ATOM      3  C   UNL     1      -6.870 -22.901  16.294  1.00  0.00     0.000 C 
BRANCH   3   4
ATOM      4  C   UNL     1      -5.393 -23.125  16.693  1.00  0.00     0.000 C 
BRANCH   4   5
ATOM      5  C   UNL     1      -4.403 -22.292  15.862  1.00  0.00     0.000 C 
BRANCH   5   6
ATOM      6  C   UNL     1      -2.950 -22.769  16.022  1.00  0.00     0.006 C 
BRANCH   6   7
ATOM      7  C   UNL     1      -1.938 -21.661  15.701  1.00  0.00     0.053 C 
BRANCH   7   8
ATOM      8  C   UNL     1      -0.559 -22.021  16.160  1.00  0.00     0.041 C 
ATOM      9  O   UNL     1       0.038 -23.010  15.661  1.00  0.00    -0.550 OA
ATOM     10  O   UNL     1       0.054 -21.284  17.165  1.00  0.00    -0.550 OA
ENDBRANCH   7   8
ENDBRANCH   6   7
ENDBRANCH   5   6
ENDBRANCH   4   5
ENDBRANCH   3   4
ENDBRANCH   2   3
ENDBRANCH   1   2
BRANCH   1  11
ATOM     11  C   UNL     1      -8.275 -22.963  19.788  1.00  0.00     0.000 C 
BRANCH  11  12
ATOM     12  C   UNL     1      -9.739 -22.761  19.344  1.00  0.00    -0.000 C 
BRANCH  12  13
ATOM     13  C   UNL     1     -10.705 -22.344  20.470  1.00  0.00    -0.000 C 
BRANCH  13  14
ATOM     14  C   UNL     1     -10.301 -22.805  21.885  1.00  0.00    -0.000 C 
BRANCH  14  15
ATOM     15  C   UNL     1      -9.976 -21.670  22.874  1.00  0.00    -0.000 C 
BRANCH  15  16
ATOM     16  C   UNL     1     -10.632 -20.334  22.485  1.00  0.00    -0.000 C 
BRANCH  16  17
ATOM     17  C   UNL     1      -9.668 -19.145  22.619  1.00  0.00    -0.003 C 
ATOM     18  C   UNL     1     -10.039 -17.976  21.707  1.00  0.00     0.004 C 
ENDBRANCH  16  17
ENDBRANCH  15  16
ENDBRANCH  14  15
ENDBRANCH  13  14
ENDBRANCH  12  13
ENDBRANCH  11  12
ENDBRANCH   1  11
TORSDOF 14
ENDMDL
MODEL 5
REMARK VINA RESULT:    -1.996      7.341     13.476
REMARK INTER + INTRA:          -4.147
REMARK INTER:                  -4.077
REMARK INTRA:                  -0.070
REMARK UNBOUND:                -0.516
REMARK SMILES CCCCCCCCCCCCCCCC(=O)[O-]
REMARK SMILES IDX 9 1 10 2 11 3 12 4 13 5 14 6 15 7 16 8 17 9 18 10 8 11 7 12
REMARK SMILES IDX 6 13 5 14 4 15 3 16 2 17 1 18
REMARK H PARENT
REMARK Flexibility Score: inf
ROOT
ATOM      1  C   UNL     1       1.703 -22.354  15.084  1.00  0.00     0.000 C 
ENDROOT
BRANCH   1   2
ATOM      2  C   UNL     1       0.401 -23.125  15.390  1.00  0.00     0.000 C 
BRANCH   2   3
ATOM      3  C   UNL     1      -0.797 -22.240  15.789  1.00  0.00     0.000 C 
BRANCH   3   4
ATOM      4  C   UNL     1      -2.109 -23.032  15.991  1.00  0.00     0.000 C 
BRANCH   4   5
ATOM      5  C   UNL     1      -3.360 -22.138  16.044  1.00  0.00     0.000 C 
BRANCH   5   6
ATOM      6  C   UNL     1      -4.620 -22.909  16.472  1.00  0.00     0.006 C 
BRANCH   6   7
ATOM      7  C   UNL     1      -5.871 -22.021  16.470  1.00  0.00     0.053 C 
BRANCH   7   8
ATOM      8  C   UNL     1      -6.798 -22.368  17.595  1.00  0.00     0.041 C 
ATOM      9  O   UNL     1      -8.044 -22.321  17.426  1.00  0.00    -0.550 OA
ATOM     10  O   UNL     1      -6.284 -22.709  18.839  1.00  0.00    -0.550 OA
ENDBRANCH   7   8
ENDBRANCH   6   7
ENDBRANCH   5   6
ENDBRANCH   4   5
ENDBRANCH   3   4
ENDBRANCH   2   3
ENDBRANCH   1   2
BRANCH   1  11
ATOM     11  C   UNL     1       2.687 -23.066  14.135  1.00  0.00     0.000 C 
BRANCH  11  12
ATOM     12  C   UNL     1       4.177 -22.760  14.390  1.00  0.00    -0.000 C 
BRANCH  12  13
ATOM     13  C   UNL     1       5.121 -23.122  13.227  1.00  0.00    -0.000 C 
BRANCH  13  14
ATOM     14  C   UNL     1       6.426 -22.303  13.163  1.00  0.00    -0.000 C 
BRANCH  14  15
ATOM     15  C   UNL     1       7.167 -22.148  14.504  1.00  0.00    -0.000 C 
BRANCH  15  16
ATOM     16  C   UNL     1       8.522 -21.435  14.358  1.00  0.00    -0.000 C 
BRANCH  16  17
ATOM     17  C   UNL     1       8.369 -19.930  14.088  1.00  0.00    -0.003 C 
ATOM     18  C   UNL     1       8.090 -19.617  12.618  1.00  0.00     0.004 C 
ENDBRANCH  16  17
ENDBRANCH  15  16
ENDBRANCH  14  15
ENDBRANCH  13  14
ENDBRANCH  12  13
ENDBRANCH  11  12
ENDBRANCH   1  11
TORSDOF 14
ENDMDL
MODEL 6
REMARK VINA RESULT:    -1.984      2.753      4.869
REMARK INTER + INTRA:          -4.125
REMARK INTER:                  -3.691
REMARK INTRA:                  -0.434
REMARK UNBOUND:                -0.516
REMARK SMILES CCCCCCCCCCCCCCCC(=O)[O-]
REMARK SMILES IDX 9 1 10 2 11 3 12 4 13 5 14 6 15 7 16 8 17 9 18 10 8 11 7 12
REMARK SMILES IDX 6 13 5 14 4 15 3 16 2 17 1 18
REMARK H PARENT
REMARK Flexibility Score: inf
ROOT
ATOM      1  C   UNL     1      -6.300 -22.726  17.360  1.00  0.00     0.000 C 
ENDROOT
BRANCH   1   2
ATOM      2  C   UNL     1      -5.013 -22.342  16.600  1.00  0.00     0.000 C 
BRANCH   2   3
ATOM      3  C   UNL     1      -3.752 -23.120  17.027  1.00  0.00     0.000 C 
BRANCH   3   4
ATOM      4  C   UNL     1      -2.632 -23.114  15.961  1.00  0.00     0.000 C 
BRANCH   4   5
ATOM      5  C   UNL     1      -1.685 -21.907  16.076  1.00  0.00     0.000 C 
BRANCH   5   6
ATOM      6  C   UNL     1      -0.211 -22.323  16.205  1.00  0.00     0.006 C 
BRANCH   6   7
ATOM      7  C   UNL     1       0.383 -22.774  14.864  1.00  0.00     0.053 C 
BRANCH   7   8
ATOM      8  C   UNL     1       1.879 -22.826  14.910  1.00  0.00     0.041 C 
ATOM      9  O   UNL     1       2.490 -22.567  15.980  1.00  0.00    -0.550 OA
ATOM     10  O   UNL     1       2.600 -23.125  13.762  1.00  0.00    -0.550 OA
ENDBRANCH   7   8
ENDBRANCH   6   7
ENDBRANCH   5   6
ENDBRANCH   4   5
ENDBRANCH   3   4
ENDBRANCH   2   3
ENDBRANCH   1   2
BRANCH   1  11
ATOM     11  C   UNL     1      -7.541 -22.973  16.480  1.00  0.00     0.000 C 
BRANCH  11  12
ATOM     12  C   UNL     1      -8.893 -22.685  17.164  1.00  0.00    -0.000 C 
BRANCH  12  13
ATOM     13  C   UNL     1      -8.808 -21.793  18.417  1.00  0.00    -0.000 C 
BRANCH  13  14
ATOM     14  C   UNL     1     -10.113 -21.681  19.233  1.00  0.00    -0.000 C 
BRANCH  14  15
ATOM     15  C   UNL     1     -10.474 -20.258  19.695  1.00  0.00    -0.000 C 
BRANCH  15  16
ATOM     16  C   UNL     1     -10.584 -20.136  21.224  1.00  0.00    -0.000 C 
BRANCH  16  17
ATOM     17  C   UNL     1     -10.026 -18.804  21.749  1.00  0.00    -0.003 C 
ATOM     18  C   UNL     1     -10.378 -17.619  20.850  1.00  0.00     0.004 C 
ENDBRANCH  16  17
ENDBRANCH  15  16
ENDBRANCH  14  15
ENDBRANCH  13  14
ENDBRANCH  12  13
ENDBRANCH  11  12
ENDBRANCH   1  11
TORSDOF 14
ENDMDL
MODEL 7
REMARK VINA RESULT:    -1.650      2.742      5.079
REMARK INTER + INTRA:          -3.518
REMARK INTER:                  -3.157
REMARK INTRA:                  -0.360
REMARK UNBOUND:                -0.516
REMARK SMILES CCCCCCCCCCCCCCCC(=O)[O-]
REMARK SMILES IDX 9 1 10 2 11 3 12 4 13 5 14 6 15 7 16 8 17 9 18 10 8 11 7 12
REMARK SMILES IDX 6 13 5 14 4 15 3 16 2 17 1 18
REMARK H PARENT
REMARK Flexibility Score: inf
ROOT
ATOM      1  C   UNL     1      -6.140 -22.263  17.595  1.00  0.00     0.000 C 
ENDROOT
BRANCH   1   2
ATOM      2  C   UNL     1      -5.432 -22.739  16.309  1.00  0.00     0.000 C 
BRANCH   2   3
ATOM      3  C   UNL     1      -4.100 -22.027  16.000  1.00  0.00     0.000 C 
BRANCH   3   4
ATOM      4  C   UNL     1      -2.856 -22.917  16.224  1.00  0.00     0.000 C 
BRANCH   4   5
ATOM      5  C   UNL     1      -1.530 -22.140  16.170  1.00  0.00     0.000 C 
BRANCH   5   6
ATOM      6  C   UNL     1      -0.367 -22.991  15.636  1.00  0.00     0.006 C 
BRANCH   6   7
ATOM      7  C   UNL     1       0.973 -22.246  15.699  1.00  0.00     0.053 C 
BRANCH   7   8
ATOM      8  C   UNL     1       1.950 -22.778  14.697  1.00  0.00     0.041 C 
ATOM      9  O   UNL     1       1.603 -22.945  13.499  1.00  0.00    -0.550 OA
ATOM     10  O   UNL     1       3.235 -23.125  15.095  1.00  0.00    -0.550 OA
ENDBRANCH   7   8
ENDBRANCH   6   7
ENDBRANCH   5   6
ENDBRANCH   4   5
ENDBRANCH   3   4
ENDBRANCH   2   3
ENDBRANCH   1   2
BRANCH   1  11
ATOM     11  C   UNL     1      -7.411 -23.045  17.981  1.00  0.00     0.000 C 
BRANCH  11  12
ATOM     12  C   UNL     1      -8.587 -22.177  18.471  1.00  0.00    -0.000 C 
BRANCH  12  13
ATOM     13  C   UNL     1      -9.861 -22.962  18.840  1.00  0.00    -0.000 C 
BRANCH  13  14
ATOM     14  C   UNL     1     -10.726 -22.325  19.948  1.00  0.00    -0.000 C 
BRANCH  14  15
ATOM     15  C   UNL     1     -10.378 -22.766  21.381  1.00  0.00    -0.000 C 
BRANCH  15  16
ATOM     16  C   UNL     1      -9.083 -22.122  21.906  1.00  0.00    -0.000 C 
BRANCH  16  17
ATOM     17  C   UNL     1      -9.081 -21.969  23.436  1.00  0.00    -0.003 C 
ATOM     18  C   UNL     1     -10.165 -22.805  24.116  1.00  0.00     0.004 C 
ENDBRANCH  16  17
ENDBRANCH  15  16
ENDBRANCH  14  15
ENDBRANCH  13  14
ENDBRANCH  12  13
ENDBRANCH  11  12
ENDBRANCH   1  11
TORSDOF 14
ENDMDL
MODEL 8
REMARK VINA RESULT:    -1.341      6.110     12.080
REMARK INTER + INTRA:          -2.954
REMARK INTER:                  -2.576
REMARK INTRA:                  -0.379
REMARK UNBOUND:                -0.516
REMARK SMILES CCCCCCCCCCCCCCCC(=O)[O-]
REMARK SMILES IDX 9 1 10 2 11 3 12 4 13 5 14 6 15 7 16 8 17 9 18 10 8 11 7 12
REMARK SMILES IDX 6 13 5 14 4 15 3 16 2 17 1 18
REMARK H PARENT
REMARK Flexibility Score: inf
ROOT
ATOM      1  C   UNL     1      -0.529 -22.303  15.909  1.00  0.00     0.000 C 
ENDROOT
BRANCH   1   2
ATOM      2  C   UNL     1      -1.833 -23.125  15.977  1.00  0.00     0.000 C 
BRANCH   2   3
ATOM      3  C   UNL     1      -3.129 -22.293  15.902  1.00  0.00     0.000 C 
BRANCH   3   4
ATOM      4  C   UNL     1      -4.381 -23.053  16.395  1.00  0.00     0.000 C 
BRANCH   4   5
ATOM      5  C   UNL     1      -5.245 -22.238  17.371  1.00  0.00     0.000 C 
BRANCH   5   6
ATOM      6  C   UNL     1      -6.751 -22.419  17.120  1.00  0.00     0.006 C 
BRANCH   6   7
ATOM      7  C   UNL     1      -7.577 -22.249  18.402  1.00  0.00     0.053 C 
BRANCH   7   8
ATOM      8  C   UNL     1      -8.994 -21.867  18.102  1.00  0.00     0.041 C 
ATOM      9  O   UNL     1      -9.879 -21.967  18.991  1.00  0.00    -0.550 OA
ATOM     10  O   UNL     1      -9.343 -21.434  16.829  1.00  0.00    -0.550 OA
ENDBRANCH   7   8
ENDBRANCH   6   7
ENDBRANCH   5   6
ENDBRANCH   4   5
ENDBRANCH   3   4
ENDBRANCH   2   3
ENDBRANCH   1   2
BRANCH   1  11
ATOM     11  C   UNL     1       0.759 -23.121  15.688  1.00  0.00     0.000 C 
BRANCH  11  12
ATOM     12  C   UNL     1       1.618 -22.672  14.488  1.00  0.00    -0.000 C 
BRANCH  12  13
ATOM     13  C   UNL     1       3.133 -22.600  14.766  1.00  0.00    -0.000 C 
BRANCH  13  14
ATOM     14  C   UNL     1       4.033 -22.653  13.514  1.00  0.00    -0.000 C 
BRANCH  14  15
ATOM     15  C   UNL     1       5.476 -23.125  13.767  1.00  0.00    -0.000 C 
BRANCH  15  16
ATOM     16  C   UNL     1       5.909 -22.962  15.234  1.00  0.00    -0.000 C 
BRANCH  16  17
ATOM     17  C   UNL     1       7.034 -21.928  15.404  1.00  0.00    -0.003 C 
ATOM     18  C   UNL     1       7.316 -21.595  16.869  1.00  0.00     0.004 C 
ENDBRANCH  16  17
ENDBRANCH  15  16
ENDBRANCH  14  15
ENDBRANCH  13  14
ENDBRANCH  12  13
ENDBRANCH  11  12
ENDBRANCH   1  11
TORSDOF 14
ENDMDL
