MODEL 1
REMARK VINA RESULT:    -4.186      0.000      0.000
REMARK INTER + INTRA:         -10.232
REMARK INTER:                  -7.857
REMARK INTRA:                  -2.374
REMARK UNBOUND:                -2.374
REMARK SMILES CCCCCCCCC=CCCCCCCCC(=O)[O-]
REMARK SMILES IDX 10 1 9 2 11 3 12 4 13 5 14 6 15 7 16 8 17 9 18 10 19 11
REMARK SMILES IDX 20 12 8 13 7 14 6 15 5 16 4 17 3 18 2 19 1 20
REMARK H PARENT
REMARK Flexibility Score: inf
ROOT
ATOM      1  C   UNL     1      10.951  56.249  90.916  1.00  0.00    -0.031 C 
ATOM      2  C   UNL     1      10.706  54.931  91.057  1.00  0.00    -0.031 C 
ENDROOT
BRANCH   1   3
ATOM      3  C   UNL     1      10.884  57.269  92.025  1.00  0.00     0.027 C 
BRANCH   3   4
ATOM      4  C   UNL     1      10.127  58.530  91.582  1.00  0.00     0.004 C 
BRANCH   4   5
ATOM      5  C   UNL     1       8.640  58.497  91.972  1.00  0.00     0.000 C 
BRANCH   5   6
ATOM      6  C   UNL     1       7.718  58.268  90.762  1.00  0.00     0.000 C 
BRANCH   6   7
ATOM      7  C   UNL     1       7.058  56.879  90.767  1.00  0.00     0.000 C 
BRANCH   7   8
ATOM      8  C   UNL     1       6.757  56.284  89.377  1.00  0.00     0.006 C 
BRANCH   8   9
ATOM      9  C   UNL     1       7.989  56.177  88.459  1.00  0.00     0.053 C 
BRANCH   9  10
ATOM     10  C   UNL     1       7.641  56.314  87.007  1.00  0.00     0.041 C 
ATOM     11  O   UNL     1       7.176  55.331  86.370  1.00  0.00    -0.550 OA
ATOM     12  O   UNL     1       7.869  57.514  86.346  1.00  0.00    -0.550 OA
ENDBRANCH   9  10
ENDBRANCH   8   9
ENDBRANCH   7   8
ENDBRANCH   6   7
ENDBRANCH   5   6
ENDBRANCH   4   5
ENDBRANCH   3   4
ENDBRANCH   1   3
BRANCH   2  13
ATOM     13  C   UNL     1      10.337  54.242  92.350  1.00  0.00     0.027 C 
BRANCH  13  14
ATOM     14  C   UNL     1       8.813  54.095  92.509  1.00  0.00     0.004 C 
BRANCH  14  15
ATOM     15  C   UNL     1       8.098  53.388  91.339  1.00  0.00     0.000 C 
BRANCH  15  16
ATOM     16  C   UNL     1       6.662  52.916  91.629  1.00  0.00     0.000 C 
BRANCH  16  17
ATOM     17  C   UNL     1       6.486  51.397  91.462  1.00  0.00    -0.000 C 
BRANCH  17  18
ATOM     18  C   UNL     1       7.459  50.790  90.434  1.00  0.00    -0.000 C 
BRANCH  18  19
ATOM     19  C   UNL     1       8.331  49.638  90.964  1.00  0.00    -0.003 C 
ATOM     20  C   UNL     1       9.606  50.119  91.654  1.00  0.00     0.004 C 
ENDBRANCH  18  19
ENDBRANCH  17  18
ENDBRANCH  16  17
ENDBRANCH  15  16
ENDBRANCH  14  15
ENDBRANCH  13  14
ENDBRANCH   2  13
TORSDOF 15
ENDMDL
MODEL 2
REMARK VINA RESULT:    -4.180      1.827      5.417
REMARK INTER + INTRA:         -10.220
REMARK INTER:                  -7.712
REMARK INTRA:                  -2.508
REMARK UNBOUND:                -2.374
REMARK SMILES CCCCCCCCC=CCCCCCCCC(=O)[O-]
REMARK SMILES IDX 10 1 9 2 11 3 12 4 13 5 14 6 15 7 16 8 17 9 18 10 19 11
REMARK SMILES IDX 20 12 8 13 7 14 6 15 5 16 4 17 3 18 2 19 1 20
REMARK H PARENT
REMARK Flexibility Score: inf
ROOT
ATOM      1  C   UNL     1      11.118  54.901  91.221  1.00  0.00    -0.031 C 
ATOM      2  C   UNL     1      11.484  56.198  91.195  1.00  0.00    -0.031 C 
ENDROOT
BRANCH   1   3
ATOM      3  C   UNL     1      10.503  54.194  92.402  1.00  0.00     0.027 C 
BRANCH   3   4
ATOM      4  C   UNL     1       9.217  53.454  92.005  1.00  0.00     0.004 C 
BRANCH   4   5
ATOM      5  C   UNL     1       7.948  54.271  92.298  1.00  0.00     0.000 C 
BRANCH   5   6
ATOM      6  C   UNL     1       7.261  54.774  91.018  1.00  0.00     0.000 C 
BRANCH   6   7
ATOM      7  C   UNL     1       7.886  54.197  89.736  1.00  0.00     0.000 C 
BRANCH   7   8
ATOM      8  C   UNL     1       8.436  55.238  88.741  1.00  0.00     0.006 C 
BRANCH   8   9
ATOM      9  C   UNL     1       7.363  56.170  88.149  1.00  0.00     0.053 C 
BRANCH   9  10
ATOM     10  C   UNL     1       7.446  56.273  86.656  1.00  0.00     0.041 C 
ATOM     11  O   UNL     1       8.028  57.251  86.117  1.00  0.00    -0.550 OA
ATOM     12  O   UNL     1       6.843  55.310  85.858  1.00  0.00    -0.550 OA
ENDBRANCH   9  10
ENDBRANCH   8   9
ENDBRANCH   7   8
ENDBRANCH   6   7
ENDBRANCH   5   6
ENDBRANCH   4   5
ENDBRANCH   3   4
ENDBRANCH   1   3
BRANCH   2  13
ATOM     13  C   UNL     1      11.330  57.174  92.339  1.00  0.00     0.027 C 
BRANCH  13  14
ATOM     14  C   UNL     1      10.359  58.317  91.995  1.00  0.00     0.004 C 
BRANCH  14  15
ATOM     15  C   UNL     1       9.077  57.885  91.253  1.00  0.00     0.000 C 
BRANCH  15  16
ATOM     16  C   UNL     1       7.755  58.353  91.888  1.00  0.00     0.000 C 
BRANCH  16  17
ATOM     17  C   UNL     1       6.616  58.494  90.864  1.00  0.00    -0.000 C 
BRANCH  17  18
ATOM     18  C   UNL     1       6.851  59.637  89.859  1.00  0.00    -0.000 C 
BRANCH  18  19
ATOM     19  C   UNL     1       6.386  61.025  90.332  1.00  0.00    -0.003 C 
ATOM     20  C   UNL     1       7.542  61.946  90.718  1.00  0.00     0.004 C 
ENDBRANCH  18  19
ENDBRANCH  17  18
ENDBRANCH  16  17
ENDBRANCH  15  16
ENDBRANCH  14  15
ENDBRANCH  13  14
ENDBRANCH   2  13
TORSDOF 15
ENDMDL
MODEL 3
REMARK VINA RESULT:    -4.126      2.812      5.917
REMARK INTER + INTRA:         -10.118
REMARK INTER:                  -7.744
REMARK INTRA:                  -2.374
REMARK UNBOUND:                -2.374
REMARK SMILES CCCCCCCCC=CCCCCCCCC(=O)[O-]
REMARK SMILES IDX 10 1 9 2 11 3 12 4 13 5 14 6 15 7 16 8 17 9 18 10 19 11
REMARK SMILES IDX 20 12 8 13 7 14 6 15 5 16 4 17 3 18 2 19 1 20
REMARK H PARENT
REMARK Flexibility Score: inf
ROOT
ATOM      1  C   UNL     1      10.692  55.154  91.359  1.00  0.00    -0.031 C 
ATOM      2  C   UNL     1      10.805  56.454  91.024  1.00  0.00    -0.031 C 
ENDROOT
BRANCH   1   3
ATOM      3  C   UNL     1      10.316  54.638  92.725  1.00  0.00     0.027 C 
BRANCH   3   4
ATOM      4  C   UNL     1       8.971  53.897  92.694  1.00  0.00     0.004 C 
BRANCH   4   5
ATOM      5  C   UNL     1       8.434  53.701  91.267  1.00  0.00     0.000 C 
BRANCH   5   6
ATOM      6  C   UNL     1       6.936  53.353  91.242  1.00  0.00     0.000 C 
BRANCH   6   7
ATOM      7  C   UNL     1       6.671  51.864  90.962  1.00  0.00     0.000 C 
BRANCH   7   8
ATOM      8  C   UNL     1       7.892  51.052  90.486  1.00  0.00     0.006 C 
BRANCH   8   9
ATOM      9  C   UNL     1       8.324  49.939  91.457  1.00  0.00     0.053 C 
BRANCH   9  10
ATOM     10  C   UNL     1       9.813  49.787  91.539  1.00  0.00     0.041 C 
ATOM     11  O   UNL     1      10.367  48.726  91.148  1.00  0.00    -0.550 OA
ATOM     12  O   UNL     1      10.587  50.803  92.086  1.00  0.00    -0.550 OA
ENDBRANCH   9  10
ENDBRANCH   8   9
ENDBRANCH   7   8
ENDBRANCH   6   7
ENDBRANCH   5   6
ENDBRANCH   4   5
ENDBRANCH   3   4
ENDBRANCH   1   3
BRANCH   2  13
ATOM     13  C   UNL     1      10.563  57.623  91.952  1.00  0.00     0.027 C 
BRANCH  13  14
ATOM     14  C   UNL     1       9.323  58.437  91.543  1.00  0.00     0.004 C 
BRANCH  14  15
ATOM     15  C   UNL     1       7.975  57.865  92.029  1.00  0.00     0.000 C 
BRANCH  15  16
ATOM     16  C   UNL     1       7.125  57.168  90.952  1.00  0.00     0.000 C 
BRANCH  16  17
ATOM     17  C   UNL     1       7.606  57.470  89.522  1.00  0.00    -0.000 C 
BRANCH  17  18
ATOM     18  C   UNL     1       7.918  56.197  88.713  1.00  0.00    -0.000 C 
BRANCH  18  19
ATOM     19  C   UNL     1       7.240  56.120  87.334  1.00  0.00    -0.003 C 
ATOM     20  C   UNL     1       7.739  57.185  86.359  1.00  0.00     0.004 C 
ENDBRANCH  18  19
ENDBRANCH  17  18
ENDBRANCH  16  17
ENDBRANCH  15  16
ENDBRANCH  14  15
ENDBRANCH  13  14
ENDBRANCH   2  13
TORSDOF 15
ENDMDL
MODEL 4
REMARK VINA RESULT:    -4.098      2.653      4.453
REMARK INTER + INTRA:         -10.067
REMARK INTER:                  -7.417
REMARK INTRA:                  -2.650
REMARK UNBOUND:                -2.374
REMARK SMILES CCCCCCCCC=CCCCCCCCC(=O)[O-]
REMARK SMILES IDX 10 1 9 2 11 3 12 4 13 5 14 6 15 7 16 8 17 9 18 10 19 11
REMARK SMILES IDX 20 12 8 13 7 14 6 15 5 16 4 17 3 18 2 19 1 20
REMARK H PARENT
REMARK Flexibility Score: inf
ROOT
ATOM      1  C   UNL     1       7.521  56.940  88.523  1.00  0.00    -0.031 C 
ATOM      2  C   UNL     1       7.166  55.643  88.438  1.00  0.00    -0.031 C 
ENDROOT
BRANCH   1   3
ATOM      3  C   UNL     1       6.563  58.096  88.664  1.00  0.00     0.027 C 
BRANCH   3   4
ATOM      4  C   UNL     1       6.681  58.757  90.046  1.00  0.00     0.004 C 
BRANCH   4   5
ATOM      5  C   UNL     1       6.519  57.754  91.200  1.00  0.00     0.000 C 
BRANCH   5   6
ATOM      6  C   UNL     1       7.530  57.991  92.334  1.00  0.00     0.000 C 
BRANCH   6   7
ATOM      7  C   UNL     1       8.573  59.067  91.992  1.00  0.00     0.000 C 
BRANCH   7   8
ATOM      8  C   UNL     1       9.991  58.543  91.689  1.00  0.00     0.006 C 
BRANCH   8   9
ATOM      9  C   UNL     1      10.065  57.021  91.469  1.00  0.00     0.053 C 
BRANCH   9  10
ATOM     10  C   UNL     1      11.429  56.462  91.740  1.00  0.00     0.041 C 
ATOM     11  O   UNL     1      12.043  56.769  92.796  1.00  0.00    -0.550 OA
ATOM     12  O   UNL     1      12.041  55.636  90.806  1.00  0.00    -0.550 OA
ENDBRANCH   9  10
ENDBRANCH   8   9
ENDBRANCH   7   8
ENDBRANCH   6   7
ENDBRANCH   5   6
ENDBRANCH   4   5
ENDBRANCH   3   4
ENDBRANCH   1   3
BRANCH   2  13
ATOM     13  C   UNL     1       5.750  55.118  88.482  1.00  0.00     0.027 C 
BRANCH  13  14
ATOM     14  C   UNL     1       5.619  53.889  89.400  1.00  0.00     0.004 C 
BRANCH  14  15
ATOM     15  C   UNL     1       5.348  54.208  90.885  1.00  0.00     0.000 C 
BRANCH  15  16
ATOM     16  C   UNL     1       6.286  53.519  91.892  1.00  0.00     0.000 C 
BRANCH  16  17
ATOM     17  C   UNL     1       7.607  54.281  92.097  1.00  0.00    -0.000 C 
BRANCH  17  18
ATOM     18  C   UNL     1       8.784  53.659  91.323  1.00  0.00    -0.000 C 
BRANCH  18  19
ATOM     19  C   UNL     1       9.825  52.932  92.194  1.00  0.00    -0.003 C 
ATOM     20  C   UNL     1      10.132  53.665  93.499  1.00  0.00     0.004 C 
ENDBRANCH  18  19
ENDBRANCH  17  18
ENDBRANCH  16  17
ENDBRANCH  15  16
ENDBRANCH  14  15
ENDBRANCH  13  14
ENDBRANCH   2  13
TORSDOF 15
ENDMDL
MODEL 5
REMARK VINA RESULT:    -4.045      2.673      5.405
REMARK INTER + INTRA:          -9.966
REMARK INTER:                  -7.583
REMARK INTRA:                  -2.383
REMARK UNBOUND:                -2.374
REMARK SMILES CCCCCCCCC=CCCCCCCCC(=O)[O-]
REMARK SMILES IDX 10 1 9 2 11 3 12 4 13 5 14 6 15 7 16 8 17 9 18 10 19 11
REMARK SMILES IDX 20 12 8 13 7 14 6 15 5 16 4 17 3 18 2 19 1 20
REMARK H PARENT
REMARK Flexibility Score: inf
ROOT
ATOM      1  C   UNL     1      11.199  57.205  92.043  1.00  0.00    -0.031 C 
ATOM      2  C   UNL     1      10.422  58.272  92.314  1.00  0.00    -0.031 C 
ENDROOT
BRANCH   1   3
ATOM      3  C   UNL     1      11.009  56.264  90.880  1.00  0.00     0.027 C 
BRANCH   3   4
ATOM      4  C   UNL     1      11.029  54.798  91.337  1.00  0.00     0.004 C 
BRANCH   4   5
ATOM      5  C   UNL     1      10.523  54.618  92.778  1.00  0.00     0.000 C 
BRANCH   5   6
ATOM      6  C   UNL     1       9.147  53.934  92.840  1.00  0.00     0.000 C 
BRANCH   6   7
ATOM      7  C   UNL     1       8.749  53.269  91.511  1.00  0.00     0.000 C 
BRANCH   7   8
ATOM      8  C   UNL     1       7.316  52.703  91.457  1.00  0.00     0.006 C 
BRANCH   8   9
ATOM      9  C   UNL     1       7.063  51.745  90.278  1.00  0.00     0.053 C 
BRANCH   9  10
ATOM     10  C   UNL     1       7.323  50.312  90.631  1.00  0.00     0.041 C 
ATOM     11  O   UNL     1       7.763  50.008  91.771  1.00  0.00    -0.550 OA
ATOM     12  O   UNL     1       7.121  49.314  89.686  1.00  0.00    -0.550 OA
ENDBRANCH   9  10
ENDBRANCH   8   9
ENDBRANCH   7   8
ENDBRANCH   6   7
ENDBRANCH   5   6
ENDBRANCH   4   5
ENDBRANCH   3   4
ENDBRANCH   1   3
BRANCH   2  13
ATOM     13  C   UNL     1       9.233  58.721  91.495  1.00  0.00     0.027 C 
BRANCH  13  14
ATOM     14  C   UNL     1       7.900  58.437  92.210  1.00  0.00     0.004 C 
BRANCH  14  15
ATOM     15  C   UNL     1       7.290  57.048  91.929  1.00  0.00     0.000 C 
BRANCH  15  16
ATOM     16  C   UNL     1       6.398  56.958  90.679  1.00  0.00     0.000 C 
BRANCH  16  17
ATOM     17  C   UNL     1       6.749  55.762  89.777  1.00  0.00    -0.000 C 
BRANCH  17  18
ATOM     18  C   UNL     1       8.015  55.999  88.933  1.00  0.00    -0.000 C 
BRANCH  18  19
ATOM     19  C   UNL     1       7.762  56.226  87.431  1.00  0.00    -0.003 C 
ATOM     20  C   UNL     1       7.242  57.627  87.115  1.00  0.00     0.004 C 
ENDBRANCH  18  19
ENDBRANCH  17  18
ENDBRANCH  16  17
ENDBRANCH  15  16
ENDBRANCH  14  15
ENDBRANCH  13  14
ENDBRANCH   2  13
TORSDOF 15
ENDMDL
MODEL 6
REMARK VINA RESULT:    -4.018      2.750      4.133
REMARK INTER + INTRA:          -9.916
REMARK INTER:                  -7.500
REMARK INTRA:                  -2.415
REMARK UNBOUND:                -2.374
REMARK SMILES CCCCCCCCC=CCCCCCCCC(=O)[O-]
REMARK SMILES IDX 10 1 9 2 11 3 12 4 13 5 14 6 15 7 16 8 17 9 18 10 19 11
REMARK SMILES IDX 20 12 8 13 7 14 6 15 5 16 4 17 3 18 2 19 1 20
REMARK H PARENT
REMARK Flexibility Score: inf
ROOT
ATOM      1  C   UNL     1      11.558  55.951  91.230  1.00  0.00    -0.031 C 
ATOM      2  C   UNL     1      11.095  54.685  91.249  1.00  0.00    -0.031 C 
ENDROOT
BRANCH   1   3
ATOM      3  C   UNL     1      11.467  56.928  92.374  1.00  0.00     0.027 C 
BRANCH   3   4
ATOM      4  C   UNL     1      10.564  58.120  92.024  1.00  0.00     0.004 C 
BRANCH   4   5
ATOM      5  C   UNL     1       9.334  57.710  91.197  1.00  0.00     0.000 C 
BRANCH   5   6
ATOM      6  C   UNL     1       8.041  57.696  92.030  1.00  0.00     0.000 C 
BRANCH   6   7
ATOM      7  C   UNL     1       6.833  58.267  91.268  1.00  0.00     0.000 C 
BRANCH   7   8
ATOM      8  C   UNL     1       7.173  59.174  90.069  1.00  0.00     0.006 C 
BRANCH   8   9
ATOM      9  C   UNL     1       6.196  60.348  89.872  1.00  0.00     0.053 C 
BRANCH   9  10
ATOM     10  C   UNL     1       6.829  61.679  90.148  1.00  0.00     0.041 C 
ATOM     11  O   UNL     1       7.715  61.789  91.036  1.00  0.00    -0.550 OA
ATOM     12  O   UNL     1       6.410  62.806  89.454  1.00  0.00    -0.550 OA
ENDBRANCH   9  10
ENDBRANCH   8   9
ENDBRANCH   7   8
ENDBRANCH   6   7
ENDBRANCH   5   6
ENDBRANCH   4   5
ENDBRANCH   3   4
ENDBRANCH   1   3
BRANCH   2  13
ATOM     13  C   UNL     1      10.416  54.019  92.424  1.00  0.00     0.027 C 
BRANCH  13  14
ATOM     14  C   UNL     1       8.889  54.202  92.386  1.00  0.00     0.004 C 
BRANCH  14  15
ATOM     15  C   UNL     1       8.107  53.045  91.732  1.00  0.00     0.000 C 
BRANCH  15  16
ATOM     16  C   UNL     1       7.757  53.240  90.246  1.00  0.00     0.000 C 
BRANCH  16  17
ATOM     17  C   UNL     1       7.499  54.712  89.880  1.00  0.00    -0.000 C 
BRANCH  17  18
ATOM     18  C   UNL     1       8.453  55.235  88.790  1.00  0.00    -0.000 C 
BRANCH  18  19
ATOM     19  C   UNL     1       7.875  56.346  87.896  1.00  0.00    -0.003 C 
ATOM     20  C   UNL     1       6.916  55.820  86.830  1.00  0.00     0.004 C 
ENDBRANCH  18  19
ENDBRANCH  17  18
ENDBRANCH  16  17
ENDBRANCH  15  16
ENDBRANCH  14  15
ENDBRANCH  13  14
ENDBRANCH   2  13
TORSDOF 15
ENDMDL
MODEL 7
REMARK VINA RESULT:    -4.007      2.599      5.896
REMARK INTER + INTRA:          -9.896
REMARK INTER:                  -6.976
REMARK INTRA:                  -2.920
REMARK UNBOUND:                -2.374
REMARK SMILES CCCCCCCCC=CCCCCCCCC(=O)[O-]
REMARK SMILES IDX 10 1 9 2 11 3 12 4 13 5 14 6 15 7 16 8 17 9 18 10 19 11
REMARK SMILES IDX 20 12 8 13 7 14 6 15 5 16 4 17 3 18 2 19 1 20
REMARK H PARENT
REMARK Flexibility Score: inf
ROOT
ATOM      1  C   UNL     1      10.113  55.236  91.524  1.00  0.00    -0.031 C 
ATOM      2  C   UNL     1      10.074  55.323  90.180  1.00  0.00    -0.031 C 
ENDROOT
BRANCH   1   3
ATOM      3  C   UNL     1       9.048  54.609  92.387  1.00  0.00     0.027 C 
BRANCH   3   4
ATOM      4  C   UNL     1       9.603  53.422  93.188  1.00  0.00     0.004 C 
BRANCH   4   5
ATOM      5  C   UNL     1      10.696  52.652  92.429  1.00  0.00     0.000 C 
BRANCH   5   6
ATOM      6  C   UNL     1      10.277  51.212  92.090  1.00  0.00     0.000 C 
BRANCH   6   7
ATOM      7  C   UNL     1       8.750  51.028  92.045  1.00  0.00     0.000 C 
BRANCH   7   8
ATOM      8  C   UNL     1       8.120  51.065  90.638  1.00  0.00     0.006 C 
BRANCH   8   9
ATOM      9  C   UNL     1       6.916  52.017  90.515  1.00  0.00     0.053 C 
BRANCH   9  10
ATOM     10  C   UNL     1       5.993  51.938  91.693  1.00  0.00     0.041 C 
ATOM     11  O   UNL     1       5.370  50.872  91.943  1.00  0.00    -0.550 OA
ATOM     12  O   UNL     1       5.788  53.056  92.492  1.00  0.00    -0.550 OA
ENDBRANCH   9  10
ENDBRANCH   8   9
ENDBRANCH   7   8
ENDBRANCH   6   7
ENDBRANCH   5   6
ENDBRANCH   4   5
ENDBRANCH   3   4
ENDBRANCH   1   3
BRANCH   2  13
ATOM     13  C   UNL     1       8.963  54.796  89.300  1.00  0.00     0.027 C 
BRANCH  13  14
ATOM     14  C   UNL     1       7.935  55.888  88.955  1.00  0.00     0.004 C 
BRANCH  14  15
ATOM     15  C   UNL     1       6.475  55.552  89.325  1.00  0.00     0.000 C 
BRANCH  15  16
ATOM     16  C   UNL     1       5.955  56.200  90.620  1.00  0.00     0.000 C 
BRANCH  16  17
ATOM     17  C   UNL     1       6.597  57.569  90.904  1.00  0.00    -0.000 C 
BRANCH  17  18
ATOM     18  C   UNL     1       7.134  57.693  92.342  1.00  0.00    -0.000 C 
BRANCH  18  19
ATOM     19  C   UNL     1       8.161  58.818  92.558  1.00  0.00    -0.003 C 
ATOM     20  C   UNL     1       9.319  58.774  91.563  1.00  0.00     0.004 C 
ENDBRANCH  18  19
ENDBRANCH  17  18
ENDBRANCH  16  17
ENDBRANCH  15  16
ENDBRANCH  14  15
ENDBRANCH  13  14
ENDBRANCH   2  13
TORSDOF 15
ENDMDL
MODEL 8
REMARK VINA RESULT:    -3.964      2.326      5.502
REMARK INTER + INTRA:          -9.815
REMARK INTER:                  -7.775
REMARK INTRA:                  -2.040
REMARK UNBOUND:                -2.374
REMARK SMILES CCCCCCCCC=CCCCCCCCC(=O)[O-]
REMARK SMILES IDX 10 1 9 2 11 3 12 4 13 5 14 6 15 7 16 8 17 9 18 10 19 11
REMARK SMILES IDX 20 12 8 13 7 14 6 15 5 16 4 17 3 18 2 19 1 20
REMARK H PARENT
REMARK Flexibility Score: inf
ROOT
ATOM      1  C   UNL     1      11.021  54.969  91.546  1.00  0.00    -0.031 C 
ATOM      2  C   UNL     1      11.203  56.258  91.197  1.00  0.00    -0.031 C 
ENDROOT
BRANCH   1   3
ATOM      3  C   UNL     1      10.456  54.495  92.861  1.00  0.00     0.027 C 
BRANCH   3   4
ATOM      4  C   UNL     1       9.025  53.962  92.696  1.00  0.00     0.004 C 
BRANCH   4   5
ATOM      5  C   UNL     1       8.931  52.821  91.669  1.00  0.00     0.000 C 
BRANCH   5   6
ATOM      6  C   UNL     1       9.641  51.542  92.142  1.00  0.00     0.000 C 
BRANCH   6   7
ATOM      7  C   UNL     1       8.912  50.258  91.710  1.00  0.00     0.000 C 
BRANCH   7   8
ATOM      8  C   UNL     1       7.499  50.462  91.128  1.00  0.00     0.006 C 
BRANCH   8   9
ATOM      9  C   UNL     1       7.067  49.371  90.131  1.00  0.00     0.053 C 
BRANCH   9  10
ATOM     10  C   UNL     1       6.294  49.922  88.970  1.00  0.00     0.041 C 
ATOM     11  O   UNL     1       5.537  50.917  89.126  1.00  0.00    -0.550 OA
ATOM     12  O   UNL     1       6.376  49.311  87.726  1.00  0.00    -0.550 OA
ENDBRANCH   9  10
ENDBRANCH   8   9
ENDBRANCH   7   8
ENDBRANCH   6   7
ENDBRANCH   5   6
ENDBRANCH   4   5
ENDBRANCH   3   4
ENDBRANCH   1   3
BRANCH   2  13
ATOM     13  C   UNL     1      10.863  57.454  92.056  1.00  0.00     0.027 C 
BRANCH  13  14
ATOM     14  C   UNL     1       9.585  58.165  91.574  1.00  0.00     0.004 C 
BRANCH  14  15
ATOM     15  C   UNL     1       8.263  57.501  92.010  1.00  0.00     0.000 C 
BRANCH  15  16
ATOM     16  C   UNL     1       7.016  57.925  91.215  1.00  0.00     0.000 C 
BRANCH  16  17
ATOM     17  C   UNL     1       6.076  56.748  90.903  1.00  0.00    -0.000 C 
BRANCH  17  18
ATOM     18  C   UNL     1       6.165  56.280  89.439  1.00  0.00    -0.000 C 
BRANCH  18  19
ATOM     19  C   UNL     1       7.002  55.008  89.212  1.00  0.00    -0.003 C 
ATOM     20  C   UNL     1       8.464  55.302  88.884  1.00  0.00     0.004 C 
ENDBRANCH  18  19
ENDBRANCH  17  18
ENDBRANCH  16  17
ENDBRANCH  15  16
ENDBRANCH  14  15
ENDBRANCH  13  14
ENDBRANCH   2  13
TORSDOF 15
ENDMDL
MODEL 9
REMARK VINA RESULT:    -3.950      1.625      3.324
REMARK INTER + INTRA:          -9.789
REMARK INTER:                  -7.284
REMARK INTRA:                  -2.505
REMARK UNBOUND:                -2.374
REMARK SMILES CCCCCCCCC=CCCCCCCCC(=O)[O-]
REMARK SMILES IDX 10 1 9 2 11 3 12 4 13 5 14 6 15 7 16 8 17 9 18 10 19 11
REMARK SMILES IDX 20 12 8 13 7 14 6 15 5 16 4 17 3 18 2 19 1 20
REMARK H PARENT
REMARK Flexibility Score: inf
ROOT
ATOM      1  C   UNL     1       8.916  58.543  91.711  1.00  0.00    -0.031 C 
ATOM      2  C   UNL     1      10.259  58.507  91.819  1.00  0.00    -0.031 C 
ENDROOT
BRANCH   1   3
ATOM      3  C   UNL     1       7.989  57.388  91.992  1.00  0.00     0.027 C 
BRANCH   3   4
ATOM      4  C   UNL     1       6.733  57.450  91.110  1.00  0.00     0.004 C 
BRANCH   4   5
ATOM      5  C   UNL     1       7.055  57.338  89.610  1.00  0.00     0.000 C 
BRANCH   5   6
ATOM      6  C   UNL     1       8.145  56.294  89.317  1.00  0.00     0.000 C 
BRANCH   6   7
ATOM      7  C   UNL     1       7.950  55.588  87.964  1.00  0.00     0.000 C 
BRANCH   7   8
ATOM      8  C   UNL     1       6.570  55.787  87.307  1.00  0.00     0.006 C 
BRANCH   8   9
ATOM      9  C   UNL     1       6.597  55.752  85.768  1.00  0.00     0.053 C 
BRANCH   9  10
ATOM     10  C   UNL     1       6.751  57.115  85.161  1.00  0.00     0.041 C 
ATOM     11  O   UNL     1       7.845  57.732  85.256  1.00  0.00    -0.550 OA
ATOM     12  O   UNL     1       5.674  57.721  84.528  1.00  0.00    -0.550 OA
ENDBRANCH   9  10
ENDBRANCH   8   9
ENDBRANCH   7   8
ENDBRANCH   6   7
ENDBRANCH   5   6
ENDBRANCH   4   5
ENDBRANCH   3   4
ENDBRANCH   1   3
BRANCH   2  13
ATOM     13  C   UNL     1      11.070  57.307  92.252  1.00  0.00     0.027 C 
BRANCH  13  14
ATOM     14  C   UNL     1      11.400  56.377  91.071  1.00  0.00     0.004 C 
BRANCH  14  15
ATOM     15  C   UNL     1      10.871  54.935  91.207  1.00  0.00     0.000 C 
BRANCH  15  16
ATOM     16  C   UNL     1      10.455  54.513  92.627  1.00  0.00     0.000 C 
BRANCH  16  17
ATOM     17  C   UNL     1       9.056  53.875  92.677  1.00  0.00    -0.000 C 
BRANCH  17  18
ATOM     18  C   UNL     1       8.583  53.362  91.304  1.00  0.00    -0.000 C 
BRANCH  18  19
ATOM     19  C   UNL     1       7.055  53.306  91.121  1.00  0.00    -0.003 C 
ATOM     20  C   UNL     1       6.288  53.916  92.293  1.00  0.00     0.004 C 
ENDBRANCH  18  19
ENDBRANCH  17  18
ENDBRANCH  16  17
ENDBRANCH  15  16
ENDBRANCH  14  15
ENDBRANCH  13  14
ENDBRANCH   2  13
TORSDOF 15
ENDMDL
