MODEL 1
REMARK VINA RESULT:    -6.209      0.000      0.000
REMARK INTER + INTRA:          -7.765
REMARK INTER:                  -7.480
REMARK INTRA:                  -0.285
REMARK UNBOUND:                -0.285
REMARK SMILES O=c1c(O)c(-c2ccc(O)c(O)c2)oc2cc(O)cc(O)c12
REMARK SMILES IDX 5 1 3 2 2 3 1 4 22 5 20 6 19 7 17 8 16 9 15 10 14 11 6 12
REMARK SMILES IDX 7 13 8 14 9 15 13 16 11 17 10 18 12 20 4 22 21 24 18 26
REMARK H PARENT 10 19 12 21 4 23 21 25 18 27
REMARK Flexibility Score: inf
ROOT
ATOM      1  C   UNL     1      16.131  24.671  31.597  1.00  0.00     0.180 A 
ATOM      2  C   UNL     1      16.680  25.668  30.772  1.00  0.00     0.208 A 
ATOM      3  C   UNL     1      15.872  26.744  30.374  1.00  0.00     0.238 A 
ATOM      4  O   UNL     1      16.352  27.605  29.592  1.00  0.00    -0.285 OA
ATOM      5  C   UNL     1      14.529  26.818  30.819  1.00  0.00     0.111 A 
ATOM      6  C   UNL     1      13.631  27.884  30.510  1.00  0.00     0.134 A 
ATOM      7  C   UNL     1      12.288  27.789  30.895  1.00  0.00     0.093 A 
ATOM      8  C   UNL     1      11.826  26.697  31.636  1.00  0.00     0.123 A 
ATOM      9  C   UNL     1      12.709  25.681  31.992  1.00  0.00     0.094 A 
ATOM     10  C   UNL     1      14.046  25.729  31.591  1.00  0.00     0.146 A 
ATOM     11  O   UNL     1      14.852  24.735  31.943  1.00  0.00    -0.452 OA
ENDROOT
BRANCH   1  12
ATOM     12  C   UNL     1      16.929  23.519  32.078  1.00  0.00     0.025 A 
ATOM     13  C   UNL     1      17.424  23.469  33.393  1.00  0.00     0.016 A 
ATOM     14  C   UNL     1      18.152  22.361  33.832  1.00  0.00     0.051 A 
ATOM     15  C   UNL     1      18.387  21.283  32.973  1.00  0.00     0.157 A 
ATOM     16  C   UNL     1      17.149  22.426  31.224  1.00  0.00     0.062 A 
ATOM     17  C   UNL     1      17.881  21.313  31.663  1.00  0.00     0.158 A 
BRANCH  15  18
ATOM     18  O   UNL     1      19.121  20.192  33.439  1.00  0.00    -0.504 OA
ATOM     19  H   UNL     1      18.827  19.237  33.274  1.00  0.00     0.293 HD
ENDBRANCH  15  18
BRANCH  17  20
ATOM     20  O   UNL     1      18.106  20.238  30.803  1.00  0.00    -0.504 OA
ATOM     21  H   UNL     1      18.604  19.411  31.108  1.00  0.00     0.293 HD
ENDBRANCH  17  20
ENDBRANCH   1  12
BRANCH   2  22
ATOM     22  O   UNL     1      18.001  25.564  30.327  1.00  0.00    -0.502 OA
ATOM     23  H   UNL     1      18.786  25.494  30.964  1.00  0.00     0.293 HD
ENDBRANCH   2  22
BRANCH   6  24
ATOM     24  O   UNL     1      14.011  29.060  29.857  1.00  0.00    -0.507 OA
ATOM     25  H   UNL     1      14.076  29.166  28.856  1.00  0.00     0.293 HD
ENDBRANCH   6  24
BRANCH   8  26
ATOM     26  O   UNL     1      10.492  26.617  32.028  1.00  0.00    -0.508 OA
ATOM     27  H   UNL     1      10.067  25.734  32.286  1.00  0.00     0.293 HD
ENDBRANCH   8  26
TORSDOF 6
ENDMDL
MODEL 2
REMARK VINA RESULT:    -6.178      2.808      4.104
REMARK INTER + INTRA:          -7.727
REMARK INTER:                  -7.409
REMARK INTRA:                  -0.319
REMARK UNBOUND:                -0.285
REMARK SMILES O=c1c(O)c(-c2ccc(O)c(O)c2)oc2cc(O)cc(O)c12
REMARK SMILES IDX 5 1 3 2 2 3 1 4 22 5 20 6 19 7 17 8 16 9 15 10 14 11 6 12
REMARK SMILES IDX 7 13 8 14 9 15 13 16 11 17 10 18 12 20 4 22 21 24 18 26
REMARK H PARENT 10 19 12 21 4 23 21 25 18 27
REMARK Flexibility Score: inf
ROOT
ATOM      1  C   UNL     1      16.935  24.724  32.909  1.00  0.00     0.180 A 
ATOM      2  C   UNL     1      15.731  24.974  33.589  1.00  0.00     0.208 A 
ATOM      3  C   UNL     1      15.381  26.300  33.889  1.00  0.00     0.238 A 
ATOM      4  O   UNL     1      14.329  26.514  34.546  1.00  0.00    -0.285 OA
ATOM      5  C   UNL     1      16.232  27.360  33.492  1.00  0.00     0.111 A 
ATOM      6  C   UNL     1      15.957  28.744  33.709  1.00  0.00     0.134 A 
ATOM      7  C   UNL     1      16.931  29.699  33.391  1.00  0.00     0.093 A 
ATOM      8  C   UNL     1      18.142  29.325  32.803  1.00  0.00     0.123 A 
ATOM      9  C   UNL     1      18.395  27.982  32.534  1.00  0.00     0.094 A 
ATOM     10  C   UNL     1      17.458  27.003  32.873  1.00  0.00     0.146 A 
ATOM     11  O   UNL     1      17.743  25.734  32.608  1.00  0.00    -0.452 OA
ENDROOT
BRANCH   1  12
ATOM     12  C   UNL     1      17.359  23.355  32.536  1.00  0.00     0.025 A 
ATOM     13  C   UNL     1      18.072  22.539  33.432  1.00  0.00     0.016 A 
ATOM     14  C   UNL     1      18.439  21.242  33.068  1.00  0.00     0.051 A 
ATOM     15  C   UNL     1      18.092  20.734  31.812  1.00  0.00     0.157 A 
ATOM     16  C   UNL     1      16.993  22.834  31.284  1.00  0.00     0.062 A 
ATOM     17  C   UNL     1      17.362  21.532  30.916  1.00  0.00     0.158 A 
BRANCH  15  18
ATOM     18  O   UNL     1      18.475  19.436  31.476  1.00  0.00    -0.504 OA
ATOM     19  H   UNL     1      18.061  18.622  31.914  1.00  0.00     0.293 HD
ENDBRANCH  15  18
BRANCH  17  20
ATOM     20  O   UNL     1      17.005  21.030  29.665  1.00  0.00    -0.504 OA
ATOM     21  H   UNL     1      16.054  21.087  29.322  1.00  0.00     0.293 HD
ENDBRANCH  17  20
ENDBRANCH   1  12
BRANCH   2  22
ATOM     22  O   UNL     1      14.916  23.912  33.991  1.00  0.00    -0.502 OA
ATOM     23  H   UNL     1      14.218  24.006  34.719  1.00  0.00     0.293 HD
ENDBRANCH   2  22
BRANCH   6  24
ATOM     24  O   UNL     1      14.744  29.231  34.204  1.00  0.00    -0.507 OA
ATOM     25  H   UNL     1      13.975  28.654  34.509  1.00  0.00     0.293 HD
ENDBRANCH   6  24
BRANCH   8  26
ATOM     26  O   UNL     1      19.099  30.283  32.475  1.00  0.00    -0.508 OA
ATOM     27  H   UNL     1      18.856  31.262  32.375  1.00  0.00     0.293 HD
ENDBRANCH   8  26
TORSDOF 6
ENDMDL
MODEL 3
REMARK VINA RESULT:    -6.138      2.602      2.681
REMARK INTER + INTRA:          -7.679
REMARK INTER:                  -7.454
REMARK INTRA:                  -0.225
REMARK UNBOUND:                -0.285
REMARK SMILES O=c1c(O)c(-c2ccc(O)c(O)c2)oc2cc(O)cc(O)c12
REMARK SMILES IDX 5 1 3 2 2 3 1 4 22 5 20 6 19 7 17 8 16 9 15 10 14 11 6 12
REMARK SMILES IDX 7 13 8 14 9 15 13 16 11 17 10 18 12 20 4 22 21 24 18 26
REMARK H PARENT 10 19 12 21 4 23 21 25 18 27
REMARK Flexibility Score: inf
ROOT
ATOM      1  C   UNL     1      16.317  24.588  33.271  1.00  0.00     0.180 A 
ATOM      2  C   UNL     1      17.026  25.763  33.572  1.00  0.00     0.208 A 
ATOM      3  C   UNL     1      16.316  26.895  34.002  1.00  0.00     0.238 A 
ATOM      4  O   UNL     1      16.951  27.961  34.217  1.00  0.00    -0.285 OA
ATOM      5  C   UNL     1      14.908  26.834  34.139  1.00  0.00     0.111 A 
ATOM      6  C   UNL     1      14.092  27.909  34.605  1.00  0.00     0.134 A 
ATOM      7  C   UNL     1      12.698  27.779  34.577  1.00  0.00     0.093 A 
ATOM      8  C   UNL     1      12.093  26.589  34.163  1.00  0.00     0.123 A 
ATOM      9  C   UNL     1      12.883  25.515  33.763  1.00  0.00     0.094 A 
ATOM     10  C   UNL     1      14.275  25.626  33.745  1.00  0.00     0.146 A 
ATOM     11  O   UNL     1      14.991  24.582  33.347  1.00  0.00    -0.452 OA
ENDROOT
BRANCH   1  12
ATOM     12  C   UNL     1      16.998  23.346  32.836  1.00  0.00     0.025 A 
ATOM     13  C   UNL     1      17.817  22.615  33.714  1.00  0.00     0.016 A 
ATOM     14  C   UNL     1      18.429  21.433  33.291  1.00  0.00     0.051 A 
ATOM     15  C   UNL     1      18.224  20.957  31.992  1.00  0.00     0.157 A 
ATOM     16  C   UNL     1      16.777  22.854  31.540  1.00  0.00     0.062 A 
ATOM     17  C   UNL     1      17.392  21.668  31.111  1.00  0.00     0.158 A 
BRANCH  15  18
ATOM     18  O   UNL     1      18.851  19.775  31.596  1.00  0.00    -0.504 OA
ATOM     19  H   UNL     1      18.390  19.094  31.006  1.00  0.00     0.293 HD
ENDBRANCH  15  18
BRANCH  17  20
ATOM     20  O   UNL     1      17.177  21.195  29.818  1.00  0.00    -0.504 OA
ATOM     21  H   UNL     1      17.189  20.204  29.607  1.00  0.00     0.293 HD
ENDBRANCH  17  20
ENDBRANCH   1  12
BRANCH   2  22
ATOM     22  O   UNL     1      18.413  25.809  33.408  1.00  0.00    -0.502 OA
ATOM     23  H   UNL     1      19.018  26.330  34.033  1.00  0.00     0.293 HD
ENDBRANCH   2  22
BRANCH   6  24
ATOM     24  O   UNL     1      14.597  29.104  35.125  1.00  0.00    -0.507 OA
ATOM     25  H   UNL     1      14.032  29.878  35.439  1.00  0.00     0.293 HD
ENDBRANCH   6  24
BRANCH   8  26
ATOM     26  O   UNL     1      10.706  26.463  34.153  1.00  0.00    -0.508 OA
ATOM     27  H   UNL     1      10.254  25.589  33.905  1.00  0.00     0.293 HD
ENDBRANCH   8  26
TORSDOF 6
ENDMDL
MODEL 4
REMARK VINA RESULT:    -6.079      2.715      4.092
REMARK INTER + INTRA:          -7.608
REMARK INTER:                  -7.752
REMARK INTRA:                   0.145
REMARK UNBOUND:                -0.285
REMARK SMILES O=c1c(O)c(-c2ccc(O)c(O)c2)oc2cc(O)cc(O)c12
REMARK SMILES IDX 5 1 3 2 2 3 1 4 22 5 20 6 19 7 17 8 16 9 15 10 14 11 6 12
REMARK SMILES IDX 7 13 8 14 9 15 13 16 11 17 10 18 12 20 4 22 21 24 18 26
REMARK H PARENT 10 19 12 21 4 23 21 25 18 27
REMARK Flexibility Score: inf
ROOT
ATOM      1  C   UNL     1      17.660  22.712  32.569  1.00  0.00     0.180 A 
ATOM      2  C   UNL     1      17.980  23.265  33.821  1.00  0.00     0.208 A 
ATOM      3  C   UNL     1      17.814  24.644  34.019  1.00  0.00     0.238 A 
ATOM      4  O   UNL     1      18.154  25.142  35.124  1.00  0.00    -0.285 OA
ATOM      5  C   UNL     1      17.315  25.452  32.968  1.00  0.00     0.111 A 
ATOM      6  C   UNL     1      17.070  26.855  33.071  1.00  0.00     0.134 A 
ATOM      7  C   UNL     1      16.699  27.576  31.928  1.00  0.00     0.093 A 
ATOM      8  C   UNL     1      16.502  26.933  30.703  1.00  0.00     0.123 A 
ATOM      9  C   UNL     1      16.682  25.556  30.608  1.00  0.00     0.094 A 
ATOM     10  C   UNL     1      17.086  24.815  31.720  1.00  0.00     0.146 A 
ATOM     11  O   UNL     1      17.256  23.506  31.584  1.00  0.00    -0.452 OA
ENDROOT
BRANCH   1  12
ATOM     12  C   UNL     1      17.785  21.263  32.292  1.00  0.00     0.025 A 
ATOM     13  C   UNL     1      18.879  20.518  32.767  1.00  0.00     0.016 A 
ATOM     14  C   UNL     1      18.963  19.147  32.516  1.00  0.00     0.051 A 
ATOM     15  C   UNL     1      17.954  18.496  31.800  1.00  0.00     0.157 A 
ATOM     16  C   UNL     1      16.763  20.602  31.592  1.00  0.00     0.062 A 
ATOM     17  C   UNL     1      16.846  19.225  31.337  1.00  0.00     0.158 A 
BRANCH  15  18
ATOM     18  O   UNL     1      18.068  17.126  31.562  1.00  0.00    -0.504 OA
ATOM     19  H   UNL     1      18.958  16.687  31.364  1.00  0.00     0.293 HD
ENDBRANCH  15  18
BRANCH  17  20
ATOM     20  O   UNL     1      15.833  18.580  30.629  1.00  0.00    -0.504 OA
ATOM     21  H   UNL     1      16.030  18.039  29.796  1.00  0.00     0.293 HD
ENDBRANCH  17  20
ENDBRANCH   1  12
BRANCH   2  22
ATOM     22  O   UNL     1      18.492  22.453  34.837  1.00  0.00    -0.502 OA
ATOM     23  H   UNL     1      19.343  22.681  35.339  1.00  0.00     0.293 HD
ENDBRANCH   2  22
BRANCH   6  24
ATOM     24  O   UNL     1      17.148  27.575  34.266  1.00  0.00    -0.507 OA
ATOM     25  H   UNL     1      16.354  27.863  34.816  1.00  0.00     0.293 HD
ENDBRANCH   6  24
BRANCH   8  26
ATOM     26  O   UNL     1      16.118  27.656  29.576  1.00  0.00    -0.508 OA
ATOM     27  H   UNL     1      15.632  28.542  29.654  1.00  0.00     0.293 HD
ENDBRANCH   8  26
TORSDOF 6
ENDMDL
MODEL 5
REMARK VINA RESULT:    -5.787      2.815      5.451
REMARK INTER + INTRA:          -7.256
REMARK INTER:                  -6.961
REMARK INTRA:                  -0.295
REMARK UNBOUND:                -0.285
REMARK SMILES O=c1c(O)c(-c2ccc(O)c(O)c2)oc2cc(O)cc(O)c12
REMARK SMILES IDX 5 1 3 2 2 3 1 4 22 5 20 6 19 7 17 8 16 9 15 10 14 11 6 12
REMARK SMILES IDX 7 13 8 14 9 15 13 16 11 17 10 18 12 20 4 22 21 24 18 26
REMARK H PARENT 10 19 12 21 4 23 21 25 18 27
REMARK Flexibility Score: inf
ROOT
ATOM      1  C   UNL     1      15.177  25.924  29.579  1.00  0.00     0.180 A 
ATOM      2  C   UNL     1      15.886  25.295  30.617  1.00  0.00     0.208 A 
ATOM      3  C   UNL     1      15.258  25.118  31.860  1.00  0.00     0.238 A 
ATOM      4  O   UNL     1      15.915  24.603  32.802  1.00  0.00    -0.285 OA
ATOM      5  C   UNL     1      13.924  25.558  32.045  1.00  0.00     0.111 A 
ATOM      6  C   UNL     1      13.176  25.393  33.249  1.00  0.00     0.134 A 
ATOM      7  C   UNL     1      11.911  25.984  33.362  1.00  0.00     0.093 A 
ATOM      8  C   UNL     1      11.340  26.675  32.290  1.00  0.00     0.123 A 
ATOM      9  C   UNL     1      12.038  26.789  31.091  1.00  0.00     0.094 A 
ATOM     10  C   UNL     1      13.317  26.243  30.960  1.00  0.00     0.146 A 
ATOM     11  O   UNL     1      13.952  26.384  29.803  1.00  0.00    -0.452 OA
ENDROOT
BRANCH   1  12
ATOM     12  C   UNL     1      15.764  26.124  28.233  1.00  0.00     0.025 A 
ATOM     13  C   UNL     1      15.431  25.284  27.157  1.00  0.00     0.016 A 
ATOM     14  C   UNL     1      15.976  25.506  25.891  1.00  0.00     0.051 A 
ATOM     15  C   UNL     1      16.852  26.576  25.676  1.00  0.00     0.157 A 
ATOM     16  C   UNL     1      16.626  27.210  28.009  1.00  0.00     0.062 A 
ATOM     17  C   UNL     1      17.176  27.435  26.739  1.00  0.00     0.158 A 
BRANCH  15  18
ATOM     18  O   UNL     1      17.383  26.771  24.401  1.00  0.00    -0.504 OA
ATOM     19  H   UNL     1      18.160  27.398  24.233  1.00  0.00     0.293 HD
ENDBRANCH  15  18
BRANCH  17  20
ATOM     20  O   UNL     1      18.042  28.508  26.530  1.00  0.00    -0.504 OA
ATOM     21  H   UNL     1      17.749  29.464  26.690  1.00  0.00     0.293 HD
ENDBRANCH  17  20
ENDBRANCH   1  12
BRANCH   2  22
ATOM     22  O   UNL     1      17.208  24.888  30.420  1.00  0.00    -0.502 OA
ATOM     23  H   UNL     1      17.998  25.495  30.606  1.00  0.00     0.293 HD
ENDBRANCH   2  22
BRANCH   6  24
ATOM     24  O   UNL     1      13.616  24.644  34.344  1.00  0.00    -0.507 OA
ATOM     25  H   UNL     1      13.663  23.637  34.370  1.00  0.00     0.293 HD
ENDBRANCH   6  24
BRANCH   8  26
ATOM     26  O   UNL     1      10.075  27.245  32.406  1.00  0.00    -0.508 OA
ATOM     27  H   UNL     1       9.331  27.023  31.753  1.00  0.00     0.293 HD
ENDBRANCH   8  26
TORSDOF 6
ENDMDL
MODEL 6
REMARK VINA RESULT:    -5.659      1.682      6.970
REMARK INTER + INTRA:          -7.102
REMARK INTER:                  -6.774
REMARK INTRA:                  -0.329
REMARK UNBOUND:                -0.285
REMARK SMILES O=c1c(O)c(-c2ccc(O)c(O)c2)oc2cc(O)cc(O)c12
REMARK SMILES IDX 5 1 3 2 2 3 1 4 22 5 20 6 19 7 17 8 16 9 15 10 14 11 6 12
REMARK SMILES IDX 7 13 8 14 9 15 13 16 11 17 10 18 12 20 4 22 21 24 18 26
REMARK H PARENT 10 19 12 21 4 23 21 25 18 27
REMARK Flexibility Score: inf
ROOT
ATOM      1  C   UNL     1      15.388  25.116  31.596  1.00  0.00     0.180 A 
ATOM      2  C   UNL     1      15.587  25.406  32.957  1.00  0.00     0.208 A 
ATOM      3  C   UNL     1      16.433  24.580  33.713  1.00  0.00     0.238 A 
ATOM      4  O   UNL     1      16.565  24.812  34.943  1.00  0.00    -0.285 OA
ATOM      5  C   UNL     1      17.082  23.482  33.095  1.00  0.00     0.111 A 
ATOM      6  C   UNL     1      17.992  22.603  33.755  1.00  0.00     0.134 A 
ATOM      7  C   UNL     1      18.473  21.474  33.080  1.00  0.00     0.093 A 
ATOM      8  C   UNL     1      18.129  21.230  31.748  1.00  0.00     0.123 A 
ATOM      9  C   UNL     1      17.289  22.115  31.077  1.00  0.00     0.094 A 
ATOM     10  C   UNL     1      16.764  23.230  31.735  1.00  0.00     0.146 A 
ATOM     11  O   UNL     1      15.959  24.043  31.062  1.00  0.00    -0.452 OA
ENDROOT
BRANCH   1  12
ATOM     12  C   UNL     1      14.530  25.956  30.729  1.00  0.00     0.025 A 
ATOM     13  C   UNL     1      15.062  27.027  29.990  1.00  0.00     0.016 A 
ATOM     14  C   UNL     1      14.239  27.790  29.159  1.00  0.00     0.051 A 
ATOM     15  C   UNL     1      12.878  27.491  29.043  1.00  0.00     0.157 A 
ATOM     16  C   UNL     1      13.168  25.644  30.594  1.00  0.00     0.062 A 
ATOM     17  C   UNL     1      12.338  26.410  29.761  1.00  0.00     0.158 A 
BRANCH  15  18
ATOM     18  O   UNL     1      12.080  28.272  28.208  1.00  0.00    -0.504 OA
ATOM     19  H   UNL     1      11.957  28.057  27.226  1.00  0.00     0.293 HD
ENDBRANCH  15  18
BRANCH  17  20
ATOM     20  O   UNL     1      10.984  26.101  29.644  1.00  0.00    -0.504 OA
ATOM     21  H   UNL     1      10.266  26.800  29.791  1.00  0.00     0.293 HD
ENDBRANCH  17  20
ENDBRANCH   1  12
BRANCH   2  22
ATOM     22  O   UNL     1      14.920  26.481  33.552  1.00  0.00    -0.502 OA
ATOM     23  H   UNL     1      14.270  26.360  34.320  1.00  0.00     0.293 HD
ENDBRANCH   2  22
BRANCH   6  24
ATOM     24  O   UNL     1      18.471  22.806  35.053  1.00  0.00    -0.507 OA
ATOM     25  H   UNL     1      18.099  23.480  35.704  1.00  0.00     0.293 HD
ENDBRANCH   6  24
BRANCH   8  26
ATOM     26  O   UNL     1      18.625  20.114  31.079  1.00  0.00    -0.508 OA
ATOM     27  H   UNL     1      18.937  20.167  30.116  1.00  0.00     0.293 HD
ENDBRANCH   8  26
TORSDOF 6
ENDMDL
MODEL 7
REMARK VINA RESULT:    -5.570      2.176      6.932
REMARK INTER + INTRA:          -6.995
REMARK INTER:                  -6.674
REMARK INTRA:                  -0.321
REMARK UNBOUND:                -0.285
REMARK SMILES O=c1c(O)c(-c2ccc(O)c(O)c2)oc2cc(O)cc(O)c12
REMARK SMILES IDX 5 1 3 2 2 3 1 4 22 5 20 6 19 7 17 8 16 9 15 10 14 11 6 12
REMARK SMILES IDX 7 13 8 14 9 15 13 16 11 17 10 18 12 20 4 22 21 24 18 26
REMARK H PARENT 10 19 12 21 4 23 21 25 18 27
REMARK Flexibility Score: inf
ROOT
ATOM      1  C   UNL     1      16.353  24.841  30.994  1.00  0.00     0.180 A 
ATOM      2  C   UNL     1      16.587  25.272  32.311  1.00  0.00     0.208 A 
ATOM      3  C   UNL     1      17.207  24.395  33.214  1.00  0.00     0.238 A 
ATOM      4  O   UNL     1      17.364  24.766  34.407  1.00  0.00    -0.285 OA
ATOM      5  C   UNL     1      17.601  23.103  32.785  1.00  0.00     0.111 A 
ATOM      6  C   UNL     1      18.273  22.148  33.605  1.00  0.00     0.134 A 
ATOM      7  C   UNL     1      18.498  20.855  33.115  1.00  0.00     0.093 A 
ATOM      8  C   UNL     1      18.133  20.505  31.811  1.00  0.00     0.123 A 
ATOM      9  C   UNL     1      17.530  21.449  30.985  1.00  0.00     0.094 A 
ATOM     10  C   UNL     1      17.260  22.736  31.457  1.00  0.00     0.146 A 
ATOM     11  O   UNL     1      16.675  23.602  30.640  1.00  0.00    -0.452 OA
ENDROOT
BRANCH   1  12
ATOM     12  C   UNL     1      15.726  25.718  29.978  1.00  0.00     0.025 A 
ATOM     13  C   UNL     1      14.330  25.804  29.846  1.00  0.00     0.016 A 
ATOM     14  C   UNL     1      13.760  26.656  28.898  1.00  0.00     0.051 A 
ATOM     15  C   UNL     1      14.572  27.444  28.077  1.00  0.00     0.157 A 
ATOM     16  C   UNL     1      16.539  26.527  29.167  1.00  0.00     0.062 A 
ATOM     17  C   UNL     1      15.969  27.383  28.213  1.00  0.00     0.158 A 
BRANCH  15  18
ATOM     18  O   UNL     1      13.975  28.284  27.137  1.00  0.00    -0.504 OA
ATOM     19  H   UNL     1      14.187  28.223  26.149  1.00  0.00     0.293 HD
ENDBRANCH  15  18
BRANCH  17  20
ATOM     20  O   UNL     1      16.785  28.172  27.402  1.00  0.00    -0.504 OA
ATOM     21  H   UNL     1      17.593  27.787  26.929  1.00  0.00     0.293 HD
ENDBRANCH  17  20
ENDBRANCH   1  12
BRANCH   2  22
ATOM     22  O   UNL     1      16.170  26.542  32.719  1.00  0.00    -0.502 OA
ATOM     23  H   UNL     1      15.785  27.222  32.075  1.00  0.00     0.293 HD
ENDBRANCH   2  22
BRANCH   6  24
ATOM     24  O   UNL     1      18.761  22.423  34.886  1.00  0.00    -0.507 OA
ATOM     25  H   UNL     1      18.185  22.559  35.702  1.00  0.00     0.293 HD
ENDBRANCH   6  24
BRANCH   8  26
ATOM     26  O   UNL     1      18.375  19.222  31.327  1.00  0.00    -0.508 OA
ATOM     27  H   UNL     1      17.657  18.694  30.842  1.00  0.00     0.293 HD
ENDBRANCH   8  26
TORSDOF 6
ENDMDL
MODEL 8
REMARK VINA RESULT:    -5.539      2.820      5.914
REMARK INTER + INTRA:          -6.958
REMARK INTER:                  -6.635
REMARK INTRA:                  -0.323
REMARK UNBOUND:                -0.285
REMARK SMILES O=c1c(O)c(-c2ccc(O)c(O)c2)oc2cc(O)cc(O)c12
REMARK SMILES IDX 5 1 3 2 2 3 1 4 22 5 20 6 19 7 17 8 16 9 15 10 14 11 6 12
REMARK SMILES IDX 7 13 8 14 9 15 13 16 11 17 10 18 12 20 4 22 21 24 18 26
REMARK H PARENT 10 19 12 21 4 23 21 25 18 27
REMARK Flexibility Score: inf
ROOT
ATOM      1  C   UNL     1      16.113  26.866  29.401  1.00  0.00     0.180 A 
ATOM      2  C   UNL     1      16.958  26.107  30.228  1.00  0.00     0.208 A 
ATOM      3  C   UNL     1      16.399  25.390  31.298  1.00  0.00     0.238 A 
ATOM      4  O   UNL     1      17.167  24.757  32.069  1.00  0.00    -0.285 OA
ATOM      5  C   UNL     1      15.000  25.429  31.518  1.00  0.00     0.111 A 
ATOM      6  C   UNL     1      14.322  24.709  32.547  1.00  0.00     0.134 A 
ATOM      7  C   UNL     1      12.953  24.924  32.752  1.00  0.00     0.093 A 
ATOM      8  C   UNL     1      12.226  25.783  31.922  1.00  0.00     0.123 A 
ATOM      9  C   UNL     1      12.869  26.443  30.878  1.00  0.00     0.094 A 
ATOM     10  C   UNL     1      14.240  26.278  30.671  1.00  0.00     0.146 A 
ATOM     11  O   UNL     1      14.815  26.934  29.671  1.00  0.00    -0.452 OA
ENDROOT
BRANCH   1  12
ATOM     12  C   UNL     1      16.626  27.628  28.239  1.00  0.00     0.025 A 
ATOM     13  C   UNL     1      17.077  28.952  28.373  1.00  0.00     0.016 A 
ATOM     14  C   UNL     1      17.580  29.643  27.268  1.00  0.00     0.051 A 
ATOM     15  C   UNL     1      17.654  29.021  26.018  1.00  0.00     0.157 A 
ATOM     16  C   UNL     1      16.722  26.998  26.987  1.00  0.00     0.062 A 
ATOM     17  C   UNL     1      17.225  27.690  25.876  1.00  0.00     0.158 A 
BRANCH  15  18
ATOM     18  O   UNL     1      18.158  29.737  24.933  1.00  0.00    -0.504 OA
ATOM     19  H   UNL     1      17.892  29.525  23.979  1.00  0.00     0.293 HD
ENDBRANCH  15  18
BRANCH  17  20
ATOM     20  O   UNL     1      17.303  27.061  24.634  1.00  0.00    -0.504 OA
ATOM     21  H   UNL     1      16.475  26.724  24.158  1.00  0.00     0.293 HD
ENDBRANCH  17  20
ENDBRANCH   1  12
BRANCH   2  22
ATOM     22  O   UNL     1      18.338  26.100  30.008  1.00  0.00    -0.502 OA
ATOM     23  H   UNL     1      18.937  26.870  30.283  1.00  0.00     0.293 HD
ENDBRANCH   2  22
BRANCH   6  24
ATOM     24  O   UNL     1      14.934  23.760  33.370  1.00  0.00    -0.507 OA
ATOM     25  H   UNL     1      15.729  23.198  33.106  1.00  0.00     0.293 HD
ENDBRANCH   6  24
BRANCH   8  26
ATOM     26  O   UNL     1      10.862  25.979  32.123  1.00  0.00    -0.508 OA
ATOM     27  H   UNL     1      10.513  26.754  32.675  1.00  0.00     0.293 HD
ENDBRANCH   8  26
TORSDOF 6
ENDMDL
MODEL 9
REMARK VINA RESULT:    -5.450      3.790      6.195
REMARK INTER + INTRA:          -6.850
REMARK INTER:                  -6.668
REMARK INTRA:                  -0.182
REMARK UNBOUND:                -0.285
REMARK SMILES O=c1c(O)c(-c2ccc(O)c(O)c2)oc2cc(O)cc(O)c12
REMARK SMILES IDX 5 1 3 2 2 3 1 4 22 5 20 6 19 7 17 8 16 9 15 10 14 11 6 12
REMARK SMILES IDX 7 13 8 14 9 15 13 16 11 17 10 18 12 20 4 22 21 24 18 26
REMARK H PARENT 10 19 12 21 4 23 21 25 18 27
REMARK Flexibility Score: inf
ROOT
ATOM      1  C   UNL     1      13.900  26.637  28.578  1.00  0.00     0.180 A 
ATOM      2  C   UNL     1      12.623  27.212  28.458  1.00  0.00     0.208 A 
ATOM      3  C   UNL     1      11.766  27.205  29.570  1.00  0.00     0.238 A 
ATOM      4  O   UNL     1      10.605  27.672  29.442  1.00  0.00    -0.285 OA
ATOM      5  C   UNL     1      12.202  26.636  30.792  1.00  0.00     0.111 A 
ATOM      6  C   UNL     1      11.432  26.610  31.994  1.00  0.00     0.134 A 
ATOM      7  C   UNL     1      11.912  25.907  33.105  1.00  0.00     0.093 A 
ATOM      8  C   UNL     1      13.163  25.285  33.080  1.00  0.00     0.123 A 
ATOM      9  C   UNL     1      13.947  25.356  31.931  1.00  0.00     0.094 A 
ATOM     10  C   UNL     1      13.480  26.019  30.794  1.00  0.00     0.146 A 
ATOM     11  O   UNL     1      14.255  26.054  29.717  1.00  0.00    -0.452 OA
ENDROOT
BRANCH   1  12
ATOM     12  C   UNL     1      14.868  26.629  27.457  1.00  0.00     0.025 A 
ATOM     13  C   UNL     1      15.229  25.434  26.810  1.00  0.00     0.016 A 
ATOM     14  C   UNL     1      16.125  25.453  25.738  1.00  0.00     0.051 A 
ATOM     15  C   UNL     1      16.664  26.663  25.288  1.00  0.00     0.157 A 
ATOM     16  C   UNL     1      15.394  27.844  26.989  1.00  0.00     0.062 A 
ATOM     17  C   UNL     1      16.295  27.866  25.914  1.00  0.00     0.158 A 
BRANCH  15  18
ATOM     18  O   UNL     1      17.558  26.651  24.218  1.00  0.00    -0.504 OA
ATOM     19  H   UNL     1      17.481  25.983  23.461  1.00  0.00     0.293 HD
ENDBRANCH  15  18
BRANCH  17  20
ATOM     20  O   UNL     1      16.822  29.076  25.465  1.00  0.00    -0.504 OA
ATOM     21  H   UNL     1      16.317  29.947  25.575  1.00  0.00     0.293 HD
ENDBRANCH  17  20
ENDBRANCH   1  12
BRANCH   2  22
ATOM     22  O   UNL     1      12.205  27.748  27.237  1.00  0.00    -0.502 OA
ATOM     23  H   UNL     1      11.976  27.168  26.438  1.00  0.00     0.293 HD
ENDBRANCH   2  22
BRANCH   6  24
ATOM     24  O   UNL     1      10.213  27.276  32.154  1.00  0.00    -0.507 OA
ATOM     25  H   UNL     1       9.313  26.824  32.196  1.00  0.00     0.293 HD
ENDBRANCH   6  24
BRANCH   8  26
ATOM     26  O   UNL     1      13.639  24.601  34.195  1.00  0.00    -0.508 OA
ATOM     27  H   UNL     1      13.154  24.633  35.085  1.00  0.00     0.293 HD
ENDBRANCH   8  26
TORSDOF 6
ENDMDL
