MODEL 1
REMARK VINA RESULT:    -4.271      0.000      0.000
REMARK INTER + INTRA:          -4.271
REMARK INTER:                  -4.271
REMARK INTRA:                   0.000
REMARK UNBOUND:                 0.000
REMARK SMILES CC(C)=C1CC[C@@H](C)CC1=O
REMARK SMILES IDX 8 1 7 2 6 3 5 4 4 5 2 6 1 7 3 8 10 9 11 10 9 11
REMARK H PARENT
REMARK Flexibility Score: inf
ROOT
ATOM      1  C   UNL     1       9.847 -30.023  12.068  1.00  0.00     0.008 C 
ATOM      2  C   UNL     1       9.311 -29.493  13.402  1.00  0.00    -0.006 C 
ATOM      3  C   UNL     1      10.438 -29.405  14.442  1.00  0.00     0.008 C 
ATOM      4  C   UNL     1       9.941 -28.782  15.753  1.00  0.00     0.039 C 
ATOM      5  C   UNL     1       8.698 -29.474  16.295  1.00  0.00    -0.006 C 
ATOM      6  C   UNL     1       8.461 -29.560  17.636  1.00  0.00    -0.070 C 
ATOM      7  C   UNL     1       9.416 -28.954  18.641  1.00  0.00     0.039 C 
ATOM      8  C   UNL     1       7.261 -30.294  18.188  1.00  0.00     0.039 C 
ATOM      9  C   UNL     1       7.712 -29.943  15.276  1.00  0.00     0.159 C 
ATOM     10  O   UNL     1       6.475 -29.963  15.522  1.00  0.00    -0.295 OA
ATOM     11  C   UNL     1       8.183 -30.396  13.925  1.00  0.00     0.084 C 
ENDROOT
TORSDOF 0
ENDMDL
MODEL 2
REMARK VINA RESULT:    -4.265      1.259      4.175
REMARK INTER + INTRA:          -4.265
REMARK INTER:                  -4.265
REMARK INTRA:                   0.000
REMARK UNBOUND:                 0.000
REMARK SMILES CC(C)=C1CC[C@@H](C)CC1=O
REMARK SMILES IDX 8 1 7 2 6 3 5 4 4 5 2 6 1 7 3 8 10 9 11 10 9 11
REMARK H PARENT
REMARK Flexibility Score: inf
ROOT
ATOM      1  C   UNL     1       7.994 -29.514  18.442  1.00  0.00     0.008 C 
ATOM      2  C   UNL     1       8.152 -29.976  16.990  1.00  0.00    -0.006 C 
ATOM      3  C   UNL     1       9.254 -29.173  16.282  1.00  0.00     0.008 C 
ATOM      4  C   UNL     1       9.496 -29.690  14.858  1.00  0.00     0.039 C 
ATOM      5  C   UNL     1       8.215 -29.770  14.040  1.00  0.00    -0.006 C 
ATOM      6  C   UNL     1       8.222 -29.572  12.690  1.00  0.00    -0.070 C 
ATOM      7  C   UNL     1       9.507 -29.283  11.946  1.00  0.00     0.039 C 
ATOM      8  C   UNL     1       6.949 -29.592  11.875  1.00  0.00     0.039 C 
ATOM      9  C   UNL     1       6.988 -30.187  14.782  1.00  0.00     0.159 C 
ATOM     10  O   UNL     1       6.076 -30.850  14.218  1.00  0.00    -0.295 OA
ATOM     11  C   UNL     1       6.825 -29.827  16.230  1.00  0.00     0.084 C 
ENDROOT
TORSDOF 0
ENDMDL
MODEL 3
REMARK VINA RESULT:    -4.201      1.209      4.018
REMARK INTER + INTRA:          -4.201
REMARK INTER:                  -4.201
REMARK INTRA:                   0.000
REMARK UNBOUND:                 0.000
REMARK SMILES CC(C)=C1CC[C@@H](C)CC1=O
REMARK SMILES IDX 8 1 7 2 6 3 5 4 4 5 2 6 1 7 3 8 10 9 11 10 9 11
REMARK H PARENT
REMARK Flexibility Score: inf
ROOT
ATOM      1  C   UNL     1       9.174 -28.756  19.062  1.00  0.00     0.008 C 
ATOM      2  C   UNL     1       8.905 -29.527  17.765  1.00  0.00    -0.006 C 
ATOM      3  C   UNL     1       9.436 -28.748  16.552  1.00  0.00     0.008 C 
ATOM      4  C   UNL     1       9.267 -29.551  15.255  1.00  0.00     0.039 C 
ATOM      5  C   UNL     1       7.841 -30.044  15.055  1.00  0.00    -0.006 C 
ATOM      6  C   UNL     1       7.307 -30.186  13.807  1.00  0.00    -0.070 C 
ATOM      7  C   UNL     1       8.118 -29.876  12.568  1.00  0.00     0.039 C 
ATOM      8  C   UNL     1       5.875 -30.620  13.597  1.00  0.00     0.039 C 
ATOM      9  C   UNL     1       7.114 -30.468  16.289  1.00  0.00     0.159 C 
ATOM     10  O   UNL     1       6.257 -31.392  16.260  1.00  0.00    -0.295 OA
ATOM     11  C   UNL     1       7.402 -29.795  17.600  1.00  0.00     0.084 C 
ENDROOT
TORSDOF 0
ENDMDL
MODEL 4
REMARK VINA RESULT:    -4.173      1.768      2.925
REMARK INTER + INTRA:          -4.173
REMARK INTER:                  -4.173
REMARK INTRA:                   0.000
REMARK UNBOUND:                 0.000
REMARK SMILES CC(C)=C1CC[C@@H](C)CC1=O
REMARK SMILES IDX 8 1 7 2 6 3 5 4 4 5 2 6 1 7 3 8 10 9 11 10 9 11
REMARK H PARENT
REMARK Flexibility Score: inf
ROOT
ATOM      1  C   UNL     1       5.875 -31.230  13.548  1.00  0.00     0.008 C 
ATOM      2  C   UNL     1       7.008 -31.027  14.560  1.00  0.00    -0.006 C 
ATOM      3  C   UNL     1       6.440 -30.703  15.950  1.00  0.00     0.008 C 
ATOM      4  C   UNL     1       7.556 -30.597  16.998  1.00  0.00     0.039 C 
ATOM      5  C   UNL     1       8.661 -29.638  16.580  1.00  0.00    -0.006 C 
ATOM      6  C   UNL     1       9.359 -28.913  17.503  1.00  0.00    -0.070 C 
ATOM      7  C   UNL     1       9.075 -29.048  18.982  1.00  0.00     0.039 C 
ATOM      8  C   UNL     1      10.419 -27.916  17.097  1.00  0.00     0.039 C 
ATOM      9  C   UNL     1       9.005 -29.627  15.127  1.00  0.00     0.159 C 
ATOM     10  O   UNL     1      10.181 -29.399  14.734  1.00  0.00    -0.295 OA
ATOM     11  C   UNL     1       7.945 -29.900  14.100  1.00  0.00     0.084 C 
ENDROOT
TORSDOF 0
ENDMDL
MODEL 5
REMARK VINA RESULT:    -4.128      1.767      4.606
REMARK INTER + INTRA:          -4.128
REMARK INTER:                  -4.128
REMARK INTRA:                   0.000
REMARK UNBOUND:                 0.000
REMARK SMILES CC(C)=C1CC[C@@H](C)CC1=O
REMARK SMILES IDX 8 1 7 2 6 3 5 4 4 5 2 6 1 7 3 8 10 9 11 10 9 11
REMARK H PARENT
REMARK Flexibility Score: inf
ROOT
ATOM      1  C   UNL     1       7.303 -30.272  19.000  1.00  0.00     0.008 C 
ATOM      2  C   UNL     1       7.868 -29.588  17.751  1.00  0.00    -0.006 C 
ATOM      3  C   UNL     1       7.830 -30.542  16.547  1.00  0.00     0.008 C 
ATOM      4  C   UNL     1       8.298 -29.842  15.264  1.00  0.00     0.039 C 
ATOM      5  C   UNL     1       9.650 -29.163  15.429  1.00  0.00    -0.006 C 
ATOM      6  C   UNL     1      10.523 -29.057  14.385  1.00  0.00    -0.070 C 
ATOM      7  C   UNL     1      10.174 -29.592  13.014  1.00  0.00     0.039 C 
ATOM      8  C   UNL     1      11.891 -28.436  14.550  1.00  0.00     0.039 C 
ATOM      9  C   UNL     1       9.908 -28.529  16.756  1.00  0.00     0.159 C 
ATOM     10  O   UNL     1      10.621 -27.494  16.860  1.00  0.00    -0.295 OA
ATOM     11  C   UNL     1       9.309 -29.117  18.000  1.00  0.00     0.084 C 
ENDROOT
TORSDOF 0
ENDMDL
MODEL 6
REMARK VINA RESULT:    -4.120      1.889      2.967
REMARK INTER + INTRA:          -4.120
REMARK INTER:                  -4.120
REMARK INTRA:                   0.000
REMARK UNBOUND:                 0.000
REMARK SMILES CC(C)=C1CC[C@@H](C)CC1=O
REMARK SMILES IDX 8 1 7 2 6 3 5 4 4 5 2 6 1 7 3 8 10 9 11 10 9 11
REMARK H PARENT
REMARK Flexibility Score: inf
ROOT
ATOM      1  C   UNL     1       6.438 -32.896  14.921  1.00  0.00     0.008 C 
ATOM      2  C   UNL     1       6.872 -31.557  15.526  1.00  0.00    -0.006 C 
ATOM      3  C   UNL     1       8.265 -31.158  15.016  1.00  0.00     0.008 C 
ATOM      4  C   UNL     1       8.673 -29.772  15.532  1.00  0.00     0.039 C 
ATOM      5  C   UNL     1       8.548 -29.651  17.044  1.00  0.00    -0.006 C 
ATOM      6  C   UNL     1       9.388 -28.852  17.764  1.00  0.00    -0.070 C 
ATOM      7  C   UNL     1      10.467 -28.037  17.087  1.00  0.00     0.039 C 
ATOM      8  C   UNL     1       9.311 -28.769  19.271  1.00  0.00     0.039 C 
ATOM      9  C   UNL     1       7.392 -30.363  17.666  1.00  0.00     0.159 C 
ATOM     10  O   UNL     1       6.822 -29.913  18.696  1.00  0.00    -0.295 OA
ATOM     11  C   UNL     1       6.879 -31.638  17.061  1.00  0.00     0.084 C 
ENDROOT
TORSDOF 0
ENDMDL
MODEL 7
REMARK VINA RESULT:    -3.853      1.645      4.647
REMARK INTER + INTRA:          -3.853
REMARK INTER:                  -3.853
REMARK INTRA:                   0.000
REMARK UNBOUND:                 0.000
REMARK SMILES CC(C)=C1CC[C@@H](C)CC1=O
REMARK SMILES IDX 8 1 7 2 6 3 5 4 4 5 2 6 1 7 3 8 10 9 11 10 9 11
REMARK H PARENT
REMARK Flexibility Score: inf
ROOT
ATOM      1  C   UNL     1       6.617 -29.829  18.218  1.00  0.00     0.008 C 
ATOM      2  C   UNL     1       7.186 -29.518  16.830  1.00  0.00    -0.006 C 
ATOM      3  C   UNL     1       6.572 -30.448  15.772  1.00  0.00     0.008 C 
ATOM      4  C   UNL     1       7.053 -30.085  14.361  1.00  0.00     0.039 C 
ATOM      5  C   UNL     1       8.570 -30.010  14.263  1.00  0.00    -0.006 C 
ATOM      6  C   UNL     1       9.224 -30.337  13.110  1.00  0.00    -0.070 C 
ATOM      7  C   UNL     1       8.466 -30.770  11.875  1.00  0.00     0.039 C 
ATOM      8  C   UNL     1      10.732 -30.322  13.018  1.00  0.00     0.039 C 
ATOM      9  C   UNL     1       9.278 -29.453  15.454  1.00  0.00     0.159 C 
ATOM     10  O   UNL     1      10.347 -28.797  15.333  1.00  0.00    -0.295 OA
ATOM     11  C   UNL     1       8.715 -29.663  16.830  1.00  0.00     0.084 C 
ENDROOT
TORSDOF 0
ENDMDL
MODEL 8
REMARK VINA RESULT:    -3.847      1.793      2.466
REMARK INTER + INTRA:          -3.847
REMARK INTER:                  -3.847
REMARK INTRA:                   0.000
REMARK UNBOUND:                 0.000
REMARK SMILES CC(C)=C1CC[C@@H](C)CC1=O
REMARK SMILES IDX 8 1 7 2 6 3 5 4 4 5 2 6 1 7 3 8 10 9 11 10 9 11
REMARK H PARENT
REMARK Flexibility Score: inf
ROOT
ATOM      1  C   UNL     1      10.036 -30.330  11.891  1.00  0.00     0.008 C 
ATOM      2  C   UNL     1       9.906 -30.673  13.379  1.00  0.00    -0.006 C 
ATOM      3  C   UNL     1       9.090 -31.962  13.568  1.00  0.00     0.008 C 
ATOM      4  C   UNL     1       9.035 -32.376  15.044  1.00  0.00     0.039 C 
ATOM      5  C   UNL     1       8.563 -31.248  15.950  1.00  0.00    -0.006 C 
ATOM      6  C   UNL     1       7.851 -31.501  17.087  1.00  0.00    -0.070 C 
ATOM      7  C   UNL     1       7.516 -32.916  17.503  1.00  0.00     0.039 C 
ATOM      8  C   UNL     1       7.328 -30.387  17.964  1.00  0.00     0.039 C 
ATOM      9  C   UNL     1       9.022 -29.876  15.583  1.00  0.00     0.159 C 
ATOM     10  O   UNL     1       9.240 -29.000  16.463  1.00  0.00    -0.295 OA
ATOM     11  C   UNL     1       9.243 -29.517  14.142  1.00  0.00     0.084 C 
ENDROOT
TORSDOF 0
ENDMDL
MODEL 9
REMARK VINA RESULT:    -3.815      1.690      2.776
REMARK INTER + INTRA:          -3.815
REMARK INTER:                  -3.815
REMARK INTRA:                   0.000
REMARK UNBOUND:                 0.000
REMARK SMILES CC(C)=C1CC[C@@H](C)CC1=O
REMARK SMILES IDX 8 1 7 2 6 3 5 4 4 5 2 6 1 7 3 8 10 9 11 10 9 11
REMARK H PARENT
REMARK Flexibility Score: inf
ROOT
ATOM      1  C   UNL     1      11.679 -28.358  14.126  1.00  0.00     0.008 C 
ATOM      2  C   UNL     1      10.692 -29.164  14.975  1.00  0.00    -0.006 C 
ATOM      3  C   UNL     1       9.437 -29.514  14.161  1.00  0.00     0.008 C 
ATOM      4  C   UNL     1       8.481 -30.408  14.962  1.00  0.00     0.039 C 
ATOM      5  C   UNL     1       8.147 -29.827  16.329  1.00  0.00    -0.006 C 
ATOM      6  C   UNL     1       6.933 -30.043  16.915  1.00  0.00    -0.070 C 
ATOM      7  C   UNL     1       5.875 -30.885  16.237  1.00  0.00     0.039 C 
ATOM      8  C   UNL     1       6.569 -29.425  18.245  1.00  0.00     0.039 C 
ATOM      9  C   UNL     1       9.257 -29.114  17.028  1.00  0.00     0.159 C 
ATOM     10  O   UNL     1       9.351 -29.120  18.285  1.00  0.00    -0.295 OA
ATOM     11  C   UNL     1      10.296 -28.377  16.234  1.00  0.00     0.084 C 
ENDROOT
TORSDOF 0
ENDMDL
