MODEL 1
REMARK VINA RESULT:    -6.992      0.000      0.000
REMARK INTER + INTRA:          -8.760
REMARK INTER:                  -8.627
REMARK INTRA:                  -0.133
REMARK UNBOUND:                -0.133
REMARK SMILES O=C1c2c(O)cc(O)cc2O[C@@H](c2cc(O)c(O)c(O)c2)[C@@H]1O
REMARK SMILES IDX 12 1 22 2 2 3 1 4 3 5 4 6 6 7 7 8 9 9 10 10 11 11 13 12
REMARK SMILES IDX 14 13 15 14 21 15 17 16 19 17 16 18 18 20 20 22 23 24 5 26
REMARK SMILES IDX 8 28
REMARK H PARENT 16 19 18 21 20 23 23 25 5 27 8 29
REMARK Flexibility Score: inf
ROOT
ATOM      1  C   UNL     1     -16.949  -7.112  44.022  1.00  0.00     0.240 C 
ATOM      2  C   UNL     1     -16.716  -8.611  44.277  1.00  0.00     0.231 C 
ATOM      3  C   UNL     1     -16.918  -8.891  45.744  1.00  0.00     0.202 C 
ATOM      4  O   UNL     1     -17.623  -9.871  46.105  1.00  0.00    -0.291 OA
ATOM      5  C   UNL     1     -16.325  -7.959  46.733  1.00  0.00     0.105 A 
ATOM      6  C   UNL     1     -16.089  -8.289  48.094  1.00  0.00     0.133 A 
ATOM      7  C   UNL     1     -15.591  -7.310  48.964  1.00  0.00     0.093 A 
ATOM      8  C   UNL     1     -15.268  -6.032  48.495  1.00  0.00     0.123 A 
ATOM      9  C   UNL     1     -15.453  -5.721  47.148  1.00  0.00     0.093 A 
ATOM     10  C   UNL     1     -15.986  -6.669  46.271  1.00  0.00     0.138 A 
ATOM     11  O   UNL     1     -16.171  -6.321  44.927  1.00  0.00    -0.481 OA
ENDROOT
BRANCH   1  12
ATOM     12  C   UNL     1     -16.605  -6.742  42.598  1.00  0.00     0.003 A 
ATOM     13  C   UNL     1     -15.385  -6.115  42.306  1.00  0.00     0.058 A 
ATOM     14  C   UNL     1     -15.064  -5.740  40.996  1.00  0.00     0.161 A 
ATOM     15  C   UNL     1     -17.520  -6.975  41.562  1.00  0.00     0.058 A 
ATOM     16  C   UNL     1     -15.987  -5.991  39.952  1.00  0.00     0.200 A 
ATOM     17  C   UNL     1     -17.212  -6.605  40.246  1.00  0.00     0.161 A 
BRANCH  14  18
ATOM     18  O   UNL     1     -13.829  -5.124  40.780  1.00  0.00    -0.504 OA
ATOM     19  H   UNL     1     -13.588  -4.621  39.939  1.00  0.00     0.293 HD
ENDBRANCH  14  18
BRANCH  16  20
ATOM     20  O   UNL     1     -15.728  -5.647  38.623  1.00  0.00    -0.502 OA
ATOM     21  H   UNL     1     -15.267  -4.795  38.339  1.00  0.00     0.293 HD
ENDBRANCH  16  20
BRANCH  17  22
ATOM     22  O   UNL     1     -18.125  -6.846  39.220  1.00  0.00    -0.504 OA
ATOM     23  H   UNL     1     -18.412  -6.113  38.583  1.00  0.00     0.293 HD
ENDBRANCH  17  22
ENDBRANCH   1  12
BRANCH   2  24
ATOM     24  O   UNL     1     -17.610  -9.365  43.497  1.00  0.00    -0.381 OA
ATOM     25  H   UNL     1     -17.785 -10.207  43.994  1.00  0.00     0.211 HD
ENDBRANCH   2  24
BRANCH   6  26
ATOM     26  O   UNL     1     -16.297  -9.567  48.617  1.00  0.00    -0.507 OA
ATOM     27  H   UNL     1     -16.376 -10.400  48.054  1.00  0.00     0.293 HD
ENDBRANCH   6  26
BRANCH   8  28
ATOM     28  O   UNL     1     -14.755  -5.066  49.359  1.00  0.00    -0.508 OA
ATOM     29  H   UNL     1     -13.758  -4.969  49.511  1.00  0.00     0.293 HD
ENDBRANCH   8  28
TORSDOF 7
ENDMDL
MODEL 2
REMARK VINA RESULT:    -6.788      5.901      9.456
REMARK INTER + INTRA:          -8.509
REMARK INTER:                  -8.322
REMARK INTRA:                  -0.186
REMARK UNBOUND:                -0.133
REMARK SMILES O=C1c2c(O)cc(O)cc2O[C@@H](c2cc(O)c(O)c(O)c2)[C@@H]1O
REMARK SMILES IDX 12 1 22 2 2 3 1 4 3 5 4 6 6 7 7 8 9 9 10 10 11 11 13 12
REMARK SMILES IDX 14 13 15 14 21 15 17 16 19 17 16 18 18 20 20 22 23 24 5 26
REMARK SMILES IDX 8 28
REMARK H PARENT 16 19 18 21 20 23 23 25 5 27 8 29
REMARK Flexibility Score: inf
ROOT
ATOM      1  C   UNL     1     -10.364  -8.316  39.963  1.00  0.00     0.240 C 
ATOM      2  C   UNL     1     -10.732  -9.317  38.854  1.00  0.00     0.231 C 
ATOM      3  C   UNL     1     -11.426  -8.574  37.741  1.00  0.00     0.202 C 
ATOM      4  O   UNL     1     -11.083  -8.770  36.545  1.00  0.00    -0.291 OA
ATOM      5  C   UNL     1     -12.466  -7.576  38.094  1.00  0.00     0.105 A 
ATOM      6  C   UNL     1     -13.456  -7.107  37.191  1.00  0.00     0.133 A 
ATOM      7  C   UNL     1     -14.347  -6.108  37.603  1.00  0.00     0.093 A 
ATOM      8  C   UNL     1     -14.311  -5.612  38.911  1.00  0.00     0.123 A 
ATOM      9  C   UNL     1     -13.372  -6.107  39.815  1.00  0.00     0.093 A 
ATOM     10  C   UNL     1     -12.447  -7.074  39.413  1.00  0.00     0.138 A 
ATOM     11  O   UNL     1     -11.507  -7.542  40.341  1.00  0.00    -0.481 OA
ENDROOT
BRANCH   1  12
ATOM     12  C   UNL     1      -9.809  -9.027  41.175  1.00  0.00     0.003 A 
ATOM     13  C   UNL     1     -10.642  -9.329  42.262  1.00  0.00     0.058 A 
ATOM     14  C   UNL     1     -10.136  -9.961  43.404  1.00  0.00     0.161 A 
ATOM     15  C   UNL     1      -8.446  -9.349  41.248  1.00  0.00     0.058 A 
ATOM     16  C   UNL     1      -8.762 -10.296  43.464  1.00  0.00     0.200 A 
ATOM     17  C   UNL     1      -7.925  -9.983  42.384  1.00  0.00     0.161 A 
BRANCH  14  18
ATOM     18  O   UNL     1     -11.026 -10.234  44.444  1.00  0.00    -0.504 OA
ATOM     19  H   UNL     1     -10.840 -10.887  45.191  1.00  0.00     0.293 HD
ENDBRANCH  14  18
BRANCH  16  20
ATOM     20  O   UNL     1      -8.193 -10.932  44.571  1.00  0.00    -0.502 OA
ATOM     21  H   UNL     1      -7.687 -10.451  45.301  1.00  0.00     0.293 HD
ENDBRANCH  16  20
BRANCH  17  22
ATOM     22  O   UNL     1      -6.570 -10.305  42.446  1.00  0.00    -0.504 OA
ATOM     23  H   UNL     1      -6.228 -11.039  43.055  1.00  0.00     0.293 HD
ENDBRANCH  17  22
ENDBRANCH   1  12
BRANCH   2  24
ATOM     24  O   UNL     1      -9.566  -9.945  38.382  1.00  0.00    -0.381 OA
ATOM     25  H   UNL     1      -9.743 -10.922  38.391  1.00  0.00     0.211 HD
ENDBRANCH   2  24
BRANCH   6  26
ATOM     26  O   UNL     1     -13.616  -7.617  35.901  1.00  0.00    -0.507 OA
ATOM     27  H   UNL     1     -13.341  -8.547  35.625  1.00  0.00     0.293 HD
ENDBRANCH   6  26
BRANCH   8  28
ATOM     28  O   UNL     1     -15.212  -4.632  39.325  1.00  0.00    -0.508 OA
ATOM     29  H   UNL     1     -16.106  -4.874  39.734  1.00  0.00     0.293 HD
ENDBRANCH   8  28
TORSDOF 7
ENDMDL
MODEL 3
REMARK VINA RESULT:    -6.764      6.972      9.247
REMARK INTER + INTRA:          -8.479
REMARK INTER:                  -8.449
REMARK INTRA:                  -0.030
REMARK UNBOUND:                -0.133
REMARK SMILES O=C1c2c(O)cc(O)cc2O[C@@H](c2cc(O)c(O)c(O)c2)[C@@H]1O
REMARK SMILES IDX 12 1 22 2 2 3 1 4 3 5 4 6 6 7 7 8 9 9 10 10 11 11 13 12
REMARK SMILES IDX 14 13 15 14 21 15 17 16 19 17 16 18 18 20 20 22 23 24 5 26
REMARK SMILES IDX 8 28
REMARK H PARENT 16 19 18 21 20 23 23 25 5 27 8 29
REMARK Flexibility Score: inf
ROOT
ATOM      1  C   UNL     1     -10.683  -9.457  38.394  1.00  0.00     0.240 C 
ATOM      2  C   UNL     1      -9.385  -9.054  37.673  1.00  0.00     0.231 C 
ATOM      3  C   UNL     1      -8.338 -10.105  37.938  1.00  0.00     0.202 C 
ATOM      4  O   UNL     1      -7.649 -10.560  36.986  1.00  0.00    -0.291 OA
ATOM      5  C   UNL     1      -8.187 -10.625  39.319  1.00  0.00     0.105 A 
ATOM      6  C   UNL     1      -7.026 -11.291  39.795  1.00  0.00     0.133 A 
ATOM      7  C   UNL     1      -7.014 -11.809  41.096  1.00  0.00     0.093 A 
ATOM      8  C   UNL     1      -8.107 -11.626  41.951  1.00  0.00     0.123 A 
ATOM      9  C   UNL     1      -9.228 -10.928  41.501  1.00  0.00     0.093 A 
ATOM     10  C   UNL     1      -9.278 -10.438  40.194  1.00  0.00     0.138 A 
ATOM     11  O   UNL     1     -10.424  -9.754  39.770  1.00  0.00    -0.481 OA
ENDROOT
BRANCH   1  12
ATOM     12  C   UNL     1     -11.721  -8.362  38.297  1.00  0.00     0.003 A 
ATOM     13  C   UNL     1     -12.076  -7.622  39.434  1.00  0.00     0.058 A 
ATOM     14  C   UNL     1     -13.056  -6.625  39.367  1.00  0.00     0.161 A 
ATOM     15  C   UNL     1     -12.375  -8.108  37.083  1.00  0.00     0.058 A 
ATOM     16  C   UNL     1     -13.702  -6.364  38.135  1.00  0.00     0.200 A 
ATOM     17  C   UNL     1     -13.357  -7.112  37.000  1.00  0.00     0.161 A 
BRANCH  14  18
ATOM     18  O   UNL     1     -13.355  -5.926  40.538  1.00  0.00    -0.504 OA
ATOM     19  H   UNL     1     -14.083  -5.232  40.613  1.00  0.00     0.293 HD
ENDBRANCH  14  18
BRANCH  16  20
ATOM     20  O   UNL     1     -14.685  -5.380  37.996  1.00  0.00    -0.502 OA
ATOM     21  H   UNL     1     -14.549  -4.408  38.234  1.00  0.00     0.293 HD
ENDBRANCH  16  20
BRANCH  17  22
ATOM     22  O   UNL     1     -13.998  -6.860  35.788  1.00  0.00    -0.504 OA
ATOM     23  H   UNL     1     -14.258  -5.921  35.511  1.00  0.00     0.293 HD
ENDBRANCH  17  22
ENDBRANCH   1  12
BRANCH   2  24
ATOM     24  O   UNL     1      -9.631  -8.931  36.295  1.00  0.00    -0.381 OA
ATOM     25  H   UNL     1      -9.656  -9.852  35.925  1.00  0.00     0.211 HD
ENDBRANCH   2  24
BRANCH   6  26
ATOM     26  O   UNL     1      -5.862 -11.433  39.037  1.00  0.00    -0.507 OA
ATOM     27  H   UNL     1      -5.829 -11.338  38.033  1.00  0.00     0.293 HD
ENDBRANCH   6  26
BRANCH   8  28
ATOM     28  O   UNL     1      -8.084 -12.125  43.252  1.00  0.00    -0.508 OA
ATOM     29  H   UNL     1      -7.977 -11.513  44.052  1.00  0.00     0.293 HD
ENDBRANCH   8  28
TORSDOF 7
ENDMDL
MODEL 4
REMARK VINA RESULT:    -6.630      6.387      9.210
REMARK INTER + INTRA:          -8.313
REMARK INTER:                  -8.270
REMARK INTRA:                  -0.044
REMARK UNBOUND:                -0.133
REMARK SMILES O=C1c2c(O)cc(O)cc2O[C@@H](c2cc(O)c(O)c(O)c2)[C@@H]1O
REMARK SMILES IDX 12 1 22 2 2 3 1 4 3 5 4 6 6 7 7 8 9 9 10 10 11 11 13 12
REMARK SMILES IDX 14 13 15 14 21 15 17 16 19 17 16 18 18 20 20 22 23 24 5 26
REMARK SMILES IDX 8 28
REMARK H PARENT 16 19 18 21 20 23 23 25 5 27 8 29
REMARK Flexibility Score: inf
ROOT
ATOM      1  C   UNL     1     -11.373  -8.765  38.331  1.00  0.00     0.240 C 
ATOM      2  C   UNL     1     -10.216  -8.309  37.425  1.00  0.00     0.231 C 
ATOM      3  C   UNL     1      -9.190  -9.411  37.357  1.00  0.00     0.202 C 
ATOM      4  O   UNL     1      -8.717  -9.761  36.243  1.00  0.00    -0.291 OA
ATOM      5  C   UNL     1      -8.806 -10.102  38.612  1.00  0.00     0.105 A 
ATOM      6  C   UNL     1      -7.610 -10.851  38.773  1.00  0.00     0.133 A 
ATOM      7  C   UNL     1      -7.376 -11.526  39.978  1.00  0.00     0.093 A 
ATOM      8  C   UNL     1      -8.278 -11.422  41.043  1.00  0.00     0.123 A 
ATOM      9  C   UNL     1      -9.428 -10.647  40.904  1.00  0.00     0.093 A 
ATOM     10  C   UNL     1      -9.701  -9.998  39.698  1.00  0.00     0.138 A 
ATOM     11  O   UNL     1     -10.873  -9.237  39.586  1.00  0.00    -0.481 OA
ENDROOT
BRANCH   1  12
ATOM     12  C   UNL     1     -12.355  -7.641  38.566  1.00  0.00     0.003 A 
ATOM     13  C   UNL     1     -13.229  -7.242  37.544  1.00  0.00     0.058 A 
ATOM     14  C   UNL     1     -14.125  -6.183  37.735  1.00  0.00     0.161 A 
ATOM     15  C   UNL     1     -12.371  -6.953  39.787  1.00  0.00     0.058 A 
ATOM     16  C   UNL     1     -14.145  -5.503  38.976  1.00  0.00     0.200 A 
ATOM     17  C   UNL     1     -13.263  -5.893  39.994  1.00  0.00     0.161 A 
BRANCH  14  18
ATOM     18  O   UNL     1     -14.968  -5.845  36.675  1.00  0.00    -0.504 OA
ATOM     19  H   UNL     1     -15.895  -5.463  36.789  1.00  0.00     0.293 HD
ENDBRANCH  14  18
BRANCH  16  20
ATOM     20  O   UNL     1     -15.017  -4.442  39.236  1.00  0.00    -0.502 OA
ATOM     21  H   UNL     1     -14.765  -3.468  39.146  1.00  0.00     0.293 HD
ENDBRANCH  16  20
BRANCH  17  22
ATOM     22  O   UNL     1     -13.277  -5.217  41.213  1.00  0.00    -0.504 OA
ATOM     23  H   UNL     1     -12.437  -4.805  41.601  1.00  0.00     0.293 HD
ENDBRANCH  17  22
ENDBRANCH   1  12
BRANCH   2  24
ATOM     24  O   UNL     1     -10.712  -8.010  36.144  1.00  0.00    -0.381 OA
ATOM     25  H   UNL     1     -10.483  -8.780  35.561  1.00  0.00     0.211 HD
ENDBRANCH   2  24
BRANCH   6  26
ATOM     26  O   UNL     1      -6.619 -10.927  37.792  1.00  0.00    -0.507 OA
ATOM     27  H   UNL     1      -6.786 -11.231  36.845  1.00  0.00     0.293 HD
ENDBRANCH   6  26
BRANCH   8  28
ATOM     28  O   UNL     1      -8.033 -12.080  42.248  1.00  0.00    -0.508 OA
ATOM     29  H   UNL     1      -8.116 -13.086  42.327  1.00  0.00     0.293 HD
ENDBRANCH   8  28
TORSDOF 7
ENDMDL
MODEL 5
REMARK VINA RESULT:    -6.489      1.386      7.211
REMARK INTER + INTRA:          -8.139
REMARK INTER:                  -8.130
REMARK INTRA:                  -0.010
REMARK UNBOUND:                -0.133
REMARK SMILES O=C1c2c(O)cc(O)cc2O[C@@H](c2cc(O)c(O)c(O)c2)[C@@H]1O
REMARK SMILES IDX 12 1 22 2 2 3 1 4 3 5 4 6 6 7 7 8 9 9 10 10 11 11 13 12
REMARK SMILES IDX 14 13 15 14 21 15 17 16 19 17 16 18 18 20 20 22 23 24 5 26
REMARK SMILES IDX 8 28
REMARK H PARENT 16 19 18 21 20 23 23 25 5 27 8 29
REMARK Flexibility Score: inf
ROOT
ATOM      1  C   UNL     1     -16.017  -6.257  44.098  1.00  0.00     0.240 C 
ATOM      2  C   UNL     1     -14.503  -6.163  43.836  1.00  0.00     0.231 C 
ATOM      3  C   UNL     1     -14.278  -5.358  42.582  1.00  0.00     0.202 C 
ATOM      4  O   UNL     1     -13.414  -4.441  42.570  1.00  0.00    -0.291 OA
ATOM      5  C   UNL     1     -15.132  -5.630  41.400  1.00  0.00     0.105 A 
ATOM      6  C   UNL     1     -14.794  -5.258  40.072  1.00  0.00     0.133 A 
ATOM      7  C   UNL     1     -15.705  -5.497  39.035  1.00  0.00     0.093 A 
ATOM      8  C   UNL     1     -16.918  -6.151  39.284  1.00  0.00     0.123 A 
ATOM      9  C   UNL     1     -17.230  -6.561  40.580  1.00  0.00     0.093 A 
ATOM     10  C   UNL     1     -16.354  -6.297  41.635  1.00  0.00     0.138 A 
ATOM     11  O   UNL     1     -16.703  -6.711  42.927  1.00  0.00    -0.481 OA
ENDROOT
BRANCH   1  12
ATOM     12  C   UNL     1     -16.312  -7.186  45.253  1.00  0.00     0.003 A 
ATOM     13  C   UNL     1     -15.992  -6.806  46.565  1.00  0.00     0.058 A 
ATOM     14  C   UNL     1     -16.232  -7.667  47.642  1.00  0.00     0.161 A 
ATOM     15  C   UNL     1     -16.861  -8.455  45.023  1.00  0.00     0.058 A 
ATOM     16  C   UNL     1     -16.800  -8.941  47.404  1.00  0.00     0.200 A 
ATOM     17  C   UNL     1     -17.107  -9.327  46.091  1.00  0.00     0.161 A 
BRANCH  14  18
ATOM     18  O   UNL     1     -15.893  -7.219  48.921  1.00  0.00    -0.504 OA
ATOM     19  H   UNL     1     -15.535  -7.816  49.652  1.00  0.00     0.293 HD
ENDBRANCH  14  18
BRANCH  16  20
ATOM     20  O   UNL     1     -17.070  -9.848  48.433  1.00  0.00    -0.502 OA
ATOM     21  H   UNL     1     -17.331  -9.576  49.370  1.00  0.00     0.293 HD
ENDBRANCH  16  20
BRANCH  17  22
ATOM     22  O   UNL     1     -17.660 -10.585  45.855  1.00  0.00    -0.504 OA
ATOM     23  H   UNL     1     -18.651 -10.706  45.686  1.00  0.00     0.293 HD
ENDBRANCH  17  22
ENDBRANCH   1  12
BRANCH   2  24
ATOM     24  O   UNL     1     -13.872  -5.559  44.937  1.00  0.00    -0.381 OA
ATOM     25  H   UNL     1     -14.446  -5.734  45.728  1.00  0.00     0.211 HD
ENDBRANCH   2  24
BRANCH   6  26
ATOM     26  O   UNL     1     -13.567  -4.687  39.728  1.00  0.00    -0.507 OA
ATOM     27  H   UNL     1     -12.698  -5.198  39.693  1.00  0.00     0.293 HD
ENDBRANCH   6  26
BRANCH   8  28
ATOM     28  O   UNL     1     -17.814  -6.404  38.248  1.00  0.00    -0.508 OA
ATOM     29  H   UNL     1     -18.249  -5.651  37.728  1.00  0.00     0.293 HD
ENDBRANCH   8  28
TORSDOF 7
ENDMDL
MODEL 6
REMARK VINA RESULT:    -6.473      3.732      6.605
REMARK INTER + INTRA:          -8.119
REMARK INTER:                  -7.735
REMARK INTRA:                  -0.385
REMARK UNBOUND:                -0.133
REMARK SMILES O=C1c2c(O)cc(O)cc2O[C@@H](c2cc(O)c(O)c(O)c2)[C@@H]1O
REMARK SMILES IDX 12 1 22 2 2 3 1 4 3 5 4 6 6 7 7 8 9 9 10 10 11 11 13 12
REMARK SMILES IDX 14 13 15 14 21 15 17 16 19 17 16 18 18 20 20 22 23 24 5 26
REMARK SMILES IDX 8 28
REMARK H PARENT 16 19 18 21 20 23 23 25 5 27 8 29
REMARK Flexibility Score: inf
ROOT
ATOM      1  C   UNL     1     -14.626  -4.844  47.705  1.00  0.00     0.240 C 
ATOM      2  C   UNL     1     -14.759  -5.338  49.157  1.00  0.00     0.231 C 
ATOM      3  C   UNL     1     -14.855  -6.842  49.150  1.00  0.00     0.202 C 
ATOM      4  O   UNL     1     -14.152  -7.520  49.947  1.00  0.00    -0.291 OA
ATOM      5  C   UNL     1     -15.740  -7.493  48.154  1.00  0.00     0.105 A 
ATOM      6  C   UNL     1     -16.233  -8.819  48.275  1.00  0.00     0.133 A 
ATOM      7  C   UNL     1     -17.004  -9.365  47.241  1.00  0.00     0.093 A 
ATOM      8  C   UNL     1     -17.342  -8.600  46.119  1.00  0.00     0.123 A 
ATOM      9  C   UNL     1     -16.900  -7.281  46.021  1.00  0.00     0.093 A 
ATOM     10  C   UNL     1     -16.096  -6.729  47.022  1.00  0.00     0.138 A 
ATOM     11  O   UNL     1     -15.658  -5.405  46.887  1.00  0.00    -0.481 OA
ENDROOT
BRANCH   1  12
ATOM     12  C   UNL     1     -14.686  -3.336  47.636  1.00  0.00     0.003 A 
ATOM     13  C   UNL     1     -15.790  -2.647  48.161  1.00  0.00     0.058 A 
ATOM     14  C   UNL     1     -15.874  -1.253  48.078  1.00  0.00     0.161 A 
ATOM     15  C   UNL     1     -13.665  -2.612  47.005  1.00  0.00     0.058 A 
ATOM     16  C   UNL     1     -14.833  -0.527  47.452  1.00  0.00     0.200 A 
ATOM     17  C   UNL     1     -13.735  -1.215  46.916  1.00  0.00     0.161 A 
BRANCH  14  18
ATOM     18  O   UNL     1     -17.001  -0.636  48.626  1.00  0.00    -0.504 OA
ATOM     19  H   UNL     1     -17.951  -0.867  48.374  1.00  0.00     0.293 HD
ENDBRANCH  14  18
BRANCH  16  20
ATOM     20  O   UNL     1     -14.850   0.866  47.340  1.00  0.00    -0.502 OA
ATOM     21  H   UNL     1     -14.078   1.463  47.599  1.00  0.00     0.293 HD
ENDBRANCH  16  20
BRANCH  17  22
ATOM     22  O   UNL     1     -12.713  -0.501  46.293  1.00  0.00    -0.504 OA
ATOM     23  H   UNL     1     -12.579   0.489  46.460  1.00  0.00     0.293 HD
ENDBRANCH  17  22
ENDBRANCH   1  12
BRANCH   2  24
ATOM     24  O   UNL     1     -13.645  -4.912  49.902  1.00  0.00    -0.381 OA
ATOM     25  H   UNL     1     -13.128  -5.727  50.135  1.00  0.00     0.211 HD
ENDBRANCH   2  24
BRANCH   6  26
ATOM     26  O   UNL     1     -16.018  -9.614  49.403  1.00  0.00    -0.507 OA
ATOM     27  H   UNL     1     -16.693 -10.268  49.768  1.00  0.00     0.293 HD
ENDBRANCH   6  26
BRANCH   8  28
ATOM     28  O   UNL     1     -18.125  -9.140  45.100  1.00  0.00    -0.508 OA
ATOM     29  H   UNL     1     -18.175  -8.707  44.186  1.00  0.00     0.293 HD
ENDBRANCH   8  28
TORSDOF 7
ENDMDL
MODEL 7
REMARK VINA RESULT:    -6.468      1.872      3.152
REMARK INTER + INTRA:          -8.114
REMARK INTER:                  -7.752
REMARK INTRA:                  -0.362
REMARK UNBOUND:                -0.133
REMARK SMILES O=C1c2c(O)cc(O)cc2O[C@@H](c2cc(O)c(O)c(O)c2)[C@@H]1O
REMARK SMILES IDX 12 1 22 2 2 3 1 4 3 5 4 6 6 7 7 8 9 9 10 10 11 11 13 12
REMARK SMILES IDX 14 13 15 14 21 15 17 16 19 17 16 18 18 20 20 22 23 24 5 26
REMARK SMILES IDX 8 28
REMARK H PARENT 16 19 18 21 20 23 23 25 5 27 8 29
REMARK Flexibility Score: inf
ROOT
ATOM      1  C   UNL     1     -14.779  -6.892  45.077  1.00  0.00     0.240 C 
ATOM      2  C   UNL     1     -15.835  -6.342  46.053  1.00  0.00     0.231 C 
ATOM      3  C   UNL     1     -15.472  -6.774  47.451  1.00  0.00     0.202 C 
ATOM      4  O   UNL     1     -15.490  -5.936  48.391  1.00  0.00    -0.291 OA
ATOM      5  C   UNL     1     -15.042  -8.176  47.672  1.00  0.00     0.105 A 
ATOM      6  C   UNL     1     -15.057  -8.822  48.937  1.00  0.00     0.133 A 
ATOM      7  C   UNL     1     -14.560 -10.126  49.051  1.00  0.00     0.093 A 
ATOM      8  C   UNL     1     -14.105 -10.820  47.924  1.00  0.00     0.123 A 
ATOM      9  C   UNL     1     -14.135 -10.205  46.673  1.00  0.00     0.093 A 
ATOM     10  C   UNL     1     -14.589  -8.891  46.543  1.00  0.00     0.138 A 
ATOM     11  O   UNL     1     -14.595  -8.297  45.273  1.00  0.00    -0.481 OA
ENDROOT
BRANCH   1  12
ATOM     12  C   UNL     1     -15.175  -6.626  43.643  1.00  0.00     0.003 A 
ATOM     13  C   UNL     1     -14.269  -6.020  42.760  1.00  0.00     0.058 A 
ATOM     14  C   UNL     1     -14.630  -5.741  41.437  1.00  0.00     0.161 A 
ATOM     15  C   UNL     1     -16.466  -6.937  43.192  1.00  0.00     0.058 A 
ATOM     16  C   UNL     1     -15.931  -6.070  40.985  1.00  0.00     0.200 A 
ATOM     17  C   UNL     1     -16.841  -6.664  41.870  1.00  0.00     0.161 A 
BRANCH  14  18
ATOM     18  O   UNL     1     -13.675  -5.140  40.615  1.00  0.00    -0.504 OA
ATOM     19  H   UNL     1     -13.484  -5.427  39.666  1.00  0.00     0.293 HD
ENDBRANCH  14  18
BRANCH  16  20
ATOM     20  O   UNL     1     -16.355  -5.824  39.676  1.00  0.00    -0.502 OA
ATOM     21  H   UNL     1     -17.267  -6.074  39.322  1.00  0.00     0.293 HD
ENDBRANCH  16  20
BRANCH  17  22
ATOM     22  O   UNL     1     -18.125  -6.982  41.427  1.00  0.00    -0.504 OA
ATOM     23  H   UNL     1     -18.877  -6.305  41.453  1.00  0.00     0.293 HD
ENDBRANCH  17  22
ENDBRANCH   1  12
BRANCH   2  24
ATOM     24  O   UNL     1     -15.878  -4.940  45.959  1.00  0.00    -0.381 OA
ATOM     25  H   UNL     1     -16.207  -4.724  45.047  1.00  0.00     0.211 HD
ENDBRANCH   2  24
BRANCH   6  26
ATOM     26  O   UNL     1     -15.580  -8.231  50.090  1.00  0.00    -0.507 OA
ATOM     27  H   UNL     1     -16.557  -8.252  50.339  1.00  0.00     0.293 HD
ENDBRANCH   6  26
BRANCH   8  28
ATOM     28  O   UNL     1     -13.629 -12.125  48.037  1.00  0.00    -0.508 OA
ATOM     29  H   UNL     1     -13.012 -12.525  47.340  1.00  0.00     0.293 HD
ENDBRANCH   8  28
TORSDOF 7
ENDMDL
MODEL 8
REMARK VINA RESULT:    -6.388      1.273      6.856
REMARK INTER + INTRA:          -8.015
REMARK INTER:                  -7.667
REMARK INTRA:                  -0.348
REMARK UNBOUND:                -0.133
REMARK SMILES O=C1c2c(O)cc(O)cc2O[C@@H](c2cc(O)c(O)c(O)c2)[C@@H]1O
REMARK SMILES IDX 12 1 22 2 2 3 1 4 3 5 4 6 6 7 7 8 9 9 10 10 11 11 13 12
REMARK SMILES IDX 14 13 15 14 21 15 17 16 19 17 16 18 18 20 20 22 23 24 5 26
REMARK SMILES IDX 8 28
REMARK H PARENT 16 19 18 21 20 23 23 25 5 27 8 29
REMARK Flexibility Score: inf
ROOT
ATOM      1  C   UNL     1     -15.707  -7.422  44.379  1.00  0.00     0.240 C 
ATOM      2  C   UNL     1     -17.207  -7.578  44.070  1.00  0.00     0.231 C 
ATOM      3  C   UNL     1     -17.382  -7.721  42.580  1.00  0.00     0.202 C 
ATOM      4  O   UNL     1     -18.125  -8.629  42.119  1.00  0.00    -0.291 OA
ATOM      5  C   UNL     1     -16.620  -6.817  41.685  1.00  0.00     0.105 A 
ATOM      6  C   UNL     1     -16.965  -6.561  40.331  1.00  0.00     0.133 A 
ATOM      7  C   UNL     1     -16.135  -5.747  39.550  1.00  0.00     0.093 A 
ATOM      8  C   UNL     1     -15.005  -5.135  40.104  1.00  0.00     0.123 A 
ATOM      9  C   UNL     1     -14.692  -5.345  41.447  1.00  0.00     0.093 A 
ATOM     10  C   UNL     1     -15.482  -6.186  42.234  1.00  0.00     0.138 A 
ATOM     11  O   UNL     1     -15.133  -6.386  43.576  1.00  0.00    -0.481 OA
ENDROOT
BRANCH   1  12
ATOM     12  C   UNL     1     -15.482  -7.116  45.841  1.00  0.00     0.003 A 
ATOM     13  C   UNL     1     -15.696  -5.819  46.333  1.00  0.00     0.058 A 
ATOM     14  C   UNL     1     -15.464  -5.513  47.679  1.00  0.00     0.161 A 
ATOM     15  C   UNL     1     -15.011  -8.109  46.712  1.00  0.00     0.058 A 
ATOM     16  C   UNL     1     -15.001  -6.524  48.555  1.00  0.00     0.200 A 
ATOM     17  C   UNL     1     -14.775  -7.817  48.061  1.00  0.00     0.161 A 
BRANCH  14  18
ATOM     18  O   UNL     1     -15.702  -4.202  48.097  1.00  0.00    -0.504 OA
ATOM     19  H   UNL     1     -15.834  -3.423  47.470  1.00  0.00     0.293 HD
ENDBRANCH  14  18
BRANCH  16  20
ATOM     20  O   UNL     1     -14.755  -6.288  49.910  1.00  0.00    -0.502 OA
ATOM     21  H   UNL     1     -15.276  -6.715  50.662  1.00  0.00     0.293 HD
ENDBRANCH  16  20
BRANCH  17  22
ATOM     22  O   UNL     1     -14.312  -8.811  48.922  1.00  0.00    -0.504 OA
ATOM     23  H   UNL     1     -14.918  -9.238  49.613  1.00  0.00     0.293 HD
ENDBRANCH  17  22
ENDBRANCH   1  12
BRANCH   2  24
ATOM     24  O   UNL     1     -17.710  -8.706  44.742  1.00  0.00    -0.381 OA
ATOM     25  H   UNL     1     -17.082  -9.453  44.558  1.00  0.00     0.211 HD
ENDBRANCH   2  24
BRANCH   6  26
ATOM     26  O   UNL     1     -18.124  -7.058  39.732  1.00  0.00    -0.507 OA
ATOM     27  H   UNL     1     -18.671  -7.818  40.108  1.00  0.00     0.293 HD
ENDBRANCH   6  26
BRANCH   8  28
ATOM     28  O   UNL     1     -14.192  -4.310  39.330  1.00  0.00    -0.508 OA
ATOM     29  H   UNL     1     -14.511  -3.932  38.445  1.00  0.00     0.293 HD
ENDBRANCH   8  28
TORSDOF 7
ENDMDL
MODEL 9
REMARK VINA RESULT:    -6.285      3.552      6.768
REMARK INTER + INTRA:          -7.888
REMARK INTER:                  -7.537
REMARK INTRA:                  -0.351
REMARK UNBOUND:                -0.133
REMARK SMILES O=C1c2c(O)cc(O)cc2O[C@@H](c2cc(O)c(O)c(O)c2)[C@@H]1O
REMARK SMILES IDX 12 1 22 2 2 3 1 4 3 5 4 6 6 7 7 8 9 9 10 10 11 11 13 12
REMARK SMILES IDX 14 13 15 14 21 15 17 16 19 17 16 18 18 20 20 22 23 24 5 26
REMARK SMILES IDX 8 28
REMARK H PARENT 16 19 18 21 20 23 23 25 5 27 8 29
REMARK Flexibility Score: inf
ROOT
ATOM      1  C   UNL     1     -13.021  -8.009  46.288  1.00  0.00     0.240 C 
ATOM      2  C   UNL     1     -13.714  -8.978  47.263  1.00  0.00     0.231 C 
ATOM      3  C   UNL     1     -14.892  -9.607  46.565  1.00  0.00     0.202 C 
ATOM      4  O   UNL     1     -15.071 -10.852  46.634  1.00  0.00    -0.291 OA
ATOM      5  C   UNL     1     -15.785  -8.740  45.757  1.00  0.00     0.105 A 
ATOM      6  C   UNL     1     -17.110  -9.091  45.386  1.00  0.00     0.133 A 
ATOM      7  C   UNL     1     -17.844  -8.232  44.559  1.00  0.00     0.093 A 
ATOM      8  C   UNL     1     -17.310  -7.007  44.143  1.00  0.00     0.123 A 
ATOM      9  C   UNL     1     -16.027  -6.638  44.548  1.00  0.00     0.093 A 
ATOM     10  C   UNL     1     -15.261  -7.498  45.340  1.00  0.00     0.138 A 
ATOM     11  O   UNL     1     -13.971  -7.104  45.718  1.00  0.00    -0.481 OA
ENDROOT
BRANCH   1  12
ATOM     12  C   UNL     1     -11.928  -7.229  46.981  1.00  0.00     0.003 A 
ATOM     13  C   UNL     1     -10.653  -7.133  46.404  1.00  0.00     0.058 A 
ATOM     14  C   UNL     1      -9.622  -6.439  47.048  1.00  0.00     0.161 A 
ATOM     15  C   UNL     1     -12.160  -6.636  48.230  1.00  0.00     0.058 A 
ATOM     16  C   UNL     1      -9.868  -5.830  48.302  1.00  0.00     0.200 A 
ATOM     17  C   UNL     1     -11.138  -5.937  48.886  1.00  0.00     0.161 A 
BRANCH  14  18
ATOM     18  O   UNL     1      -8.380  -6.381  46.412  1.00  0.00    -0.504 OA
ATOM     19  H   UNL     1      -7.681  -7.107  46.470  1.00  0.00     0.293 HD
ENDBRANCH  14  18
BRANCH  16  20
ATOM     20  O   UNL     1      -8.886  -5.118  48.997  1.00  0.00    -0.502 OA
ATOM     21  H   UNL     1      -8.545  -4.209  48.719  1.00  0.00     0.293 HD
ENDBRANCH  16  20
BRANCH  17  22
ATOM     22  O   UNL     1     -11.379  -5.344  50.125  1.00  0.00    -0.504 OA
ATOM     23  H   UNL     1     -10.823  -4.564  50.456  1.00  0.00     0.293 HD
ENDBRANCH  17  22
ENDBRANCH   1  12
BRANCH   2  24
ATOM     24  O   UNL     1     -12.798  -9.960  47.680  1.00  0.00    -0.381 OA
ATOM     25  H   UNL     1     -13.299 -10.815  47.731  1.00  0.00     0.211 HD
ENDBRANCH   2  24
BRANCH   6  26
ATOM     26  O   UNL     1     -17.747 -10.250  45.834  1.00  0.00    -0.507 OA
ATOM     27  H   UNL     1     -17.567 -11.171  45.465  1.00  0.00     0.293 HD
ENDBRANCH   6  26
BRANCH   8  28
ATOM     28  O   UNL     1     -18.050  -6.145  43.336  1.00  0.00    -0.508 OA
ATOM     29  H   UNL     1     -18.743  -5.519  43.727  1.00  0.00     0.293 HD
ENDBRANCH   8  28
TORSDOF 7
ENDMDL
