MODEL 1
REMARK VINA RESULT:    -4.644      0.000      0.000
REMARK INTER + INTRA:          -5.291
REMARK INTER:                  -4.916
REMARK INTRA:                  -0.376
REMARK UNBOUND:                -0.376
REMARK SMILES CC1=C[C@H]2C(=C(C)CC[C@@H]2C(C)C)CC1
REMARK SMILES IDX 1 1 2 2 3 3 4 4 10 5 9 6 8 7 6 8 5 9 14 10 15 11 7 12 11 13
REMARK SMILES IDX 12 14 13 15
REMARK H PARENT
REMARK Flexibility Score: inf
ROOT
ATOM      1  C   UNL     1      25.125  65.243  12.041  1.00  0.00     0.039 C 
ATOM      2  C   UNL     1      24.292  64.267  12.826  1.00  0.00    -0.076 C 
ATOM      3  C   UNL     1      23.054  64.639  13.232  1.00  0.00    -0.020 C 
ATOM      4  C   UNL     1      22.122  63.694  13.967  1.00  0.00     0.041 C 
ATOM      5  C   UNL     1      21.086  64.455  14.847  1.00  0.00     0.003 C 
ATOM      6  C   UNL     1      21.791  64.884  16.152  1.00  0.00     0.009 C 
ATOM      7  C   UNL     1      22.280  63.666  16.937  1.00  0.00     0.031 C 
ATOM      8  C   UNL     1      23.100  62.719  16.087  1.00  0.00    -0.073 C 
ATOM      9  C   UNL     1      22.961  62.683  14.730  1.00  0.00    -0.064 C 
ATOM     10  C   UNL     1      23.919  61.938  13.831  1.00  0.00     0.036 C 
ATOM     11  C   UNL     1      24.922  62.944  13.248  1.00  0.00     0.035 C 
ATOM     12  C   UNL     1      24.029  61.773  16.808  1.00  0.00     0.039 C 
ENDROOT
BRANCH   5  13
ATOM     13  C   UNL     1      19.771  63.628  15.081  1.00  0.00    -0.013 C 
ATOM     14  C   UNL     1      19.456  62.706  13.882  1.00  0.00     0.007 C 
ATOM     15  C   UNL     1      18.544  64.530  15.323  1.00  0.00     0.007 C 
ENDBRANCH   5  13
TORSDOF 1
ENDMDL
MODEL 2
REMARK VINA RESULT:    -4.528      1.720      3.884
REMARK INTER + INTRA:          -5.168
REMARK INTER:                  -4.817
REMARK INTRA:                  -0.351
REMARK UNBOUND:                -0.376
REMARK SMILES CC1=C[C@H]2C(=C(C)CC[C@@H]2C(C)C)CC1
REMARK SMILES IDX 1 1 2 2 3 3 4 4 10 5 9 6 8 7 6 8 5 9 14 10 15 11 7 12 11 13
REMARK SMILES IDX 12 14 13 15
REMARK H PARENT
REMARK Flexibility Score: inf
ROOT
ATOM      1  C   UNL     1      25.109  60.464  15.155  1.00  0.00     0.039 C 
ATOM      2  C   UNL     1      24.209  61.668  15.179  1.00  0.00    -0.076 C 
ATOM      3  C   UNL     1      23.998  62.306  16.357  1.00  0.00    -0.020 C 
ATOM      4  C   UNL     1      23.161  63.567  16.459  1.00  0.00     0.041 C 
ATOM      5  C   UNL     1      22.553  63.757  17.881  1.00  0.00     0.003 C 
ATOM      6  C   UNL     1      21.315  62.844  17.997  1.00  0.00     0.009 C 
ATOM      7  C   UNL     1      20.250  63.229  16.969  1.00  0.00     0.031 C 
ATOM      8  C   UNL     1      20.807  63.320  15.565  1.00  0.00    -0.073 C 
ATOM      9  C   UNL     1      22.132  63.556  15.341  1.00  0.00    -0.064 C 
ATOM     10  C   UNL     1      22.767  63.416  13.978  1.00  0.00     0.036 C 
ATOM     11  C   UNL     1      23.464  62.048  13.905  1.00  0.00     0.035 C 
ATOM     12  C   UNL     1      19.825  63.203  14.423  1.00  0.00     0.039 C 
ENDROOT
BRANCH   5  13
ATOM     13  C   UNL     1      22.262  65.265  18.214  1.00  0.00    -0.013 C 
ATOM     14  C   UNL     1      23.543  66.123  18.140  1.00  0.00     0.007 C 
ATOM     15  C   UNL     1      21.645  65.448  19.616  1.00  0.00     0.007 C 
ENDBRANCH   5  13
TORSDOF 1
ENDMDL
MODEL 3
REMARK VINA RESULT:    -4.403      2.283      5.836
REMARK INTER + INTRA:          -5.036
REMARK INTER:                  -4.992
REMARK INTRA:                  -0.044
REMARK UNBOUND:                -0.376
REMARK SMILES CC1=C[C@H]2C(=C(C)CC[C@@H]2C(C)C)CC1
REMARK SMILES IDX 1 1 2 2 3 3 4 4 10 5 9 6 8 7 6 8 5 9 14 10 15 11 7 12 11 13
REMARK SMILES IDX 12 14 13 15
REMARK H PARENT
REMARK Flexibility Score: inf
ROOT
ATOM      1  C   UNL     1      14.869  64.710  15.798  1.00  0.00     0.039 C 
ATOM      2  C   UNL     1      16.322  65.028  16.018  1.00  0.00    -0.076 C 
ATOM      3  C   UNL     1      17.191  64.867  14.990  1.00  0.00    -0.020 C 
ATOM      4  C   UNL     1      18.660  65.230  15.103  1.00  0.00     0.041 C 
ATOM      5  C   UNL     1      19.544  64.424  14.105  1.00  0.00     0.003 C 
ATOM      6  C   UNL     1      19.775  63.018  14.698  1.00  0.00     0.009 C 
ATOM      7  C   UNL     1      20.518  63.100  16.033  1.00  0.00     0.031 C 
ATOM      8  C   UNL     1      19.867  64.067  16.999  1.00  0.00    -0.073 C 
ATOM      9  C   UNL     1      19.081  65.091  16.557  1.00  0.00    -0.064 C 
ATOM     10  C   UNL     1      18.227  65.923  17.483  1.00  0.00     0.036 C 
ATOM     11  C   UNL     1      16.786  65.392  17.423  1.00  0.00     0.035 C 
ATOM     12  C   UNL     1      20.177  63.891  18.466  1.00  0.00     0.039 C 
ENDROOT
BRANCH   5  13
ATOM     13  C   UNL     1      20.871  65.179  13.731  1.00  0.00    -0.013 C 
ATOM     14  C   UNL     1      20.669  66.124  12.527  1.00  0.00     0.007 C 
ATOM     15  C   UNL     1      22.021  64.211  13.390  1.00  0.00     0.007 C 
ENDBRANCH   5  13
TORSDOF 1
ENDMDL
MODEL 4
REMARK VINA RESULT:    -4.389      2.275      3.481
REMARK INTER + INTRA:          -5.021
REMARK INTER:                  -4.819
REMARK INTRA:                  -0.202
REMARK UNBOUND:                -0.376
REMARK SMILES CC1=C[C@H]2C(=C(C)CC[C@@H]2C(C)C)CC1
REMARK SMILES IDX 1 1 2 2 3 3 4 4 10 5 9 6 8 7 6 8 5 9 14 10 15 11 7 12 11 13
REMARK SMILES IDX 12 14 13 15
REMARK H PARENT
REMARK Flexibility Score: inf
ROOT
ATOM      1  C   UNL     1      21.952  66.053  12.644  1.00  0.00     0.039 C 
ATOM      2  C   UNL     1      21.116  65.170  13.529  1.00  0.00    -0.076 C 
ATOM      3  C   UNL     1      19.913  65.624  13.959  1.00  0.00    -0.020 C 
ATOM      4  C   UNL     1      18.977  64.773  14.797  1.00  0.00     0.041 C 
ATOM      5  C   UNL     1      18.014  65.638  15.664  1.00  0.00     0.003 C 
ATOM      6  C   UNL     1      18.793  66.124  16.905  1.00  0.00     0.009 C 
ATOM      7  C   UNL     1      19.266  64.942  17.753  1.00  0.00     0.031 C 
ATOM      8  C   UNL     1      20.008  63.905  16.938  1.00  0.00    -0.073 C 
ATOM      9  C   UNL     1      19.807  63.782  15.595  1.00  0.00    -0.064 C 
ATOM     10  C   UNL     1      20.692  62.935  14.711  1.00  0.00     0.036 C 
ATOM     11  C   UNL     1      21.710  63.854  14.017  1.00  0.00     0.035 C 
ATOM     12  C   UNL     1      20.929  62.970  17.685  1.00  0.00     0.039 C 
ENDROOT
BRANCH   5  13
ATOM     13  C   UNL     1      16.677  64.887  16.010  1.00  0.00    -0.013 C 
ATOM     14  C   UNL     1      15.710  64.860  14.807  1.00  0.00     0.007 C 
ATOM     15  C   UNL     1      15.937  65.525  17.203  1.00  0.00     0.007 C 
ENDBRANCH   5  13
TORSDOF 1
ENDMDL
MODEL 5
REMARK VINA RESULT:    -4.159      1.960      2.731
REMARK INTER + INTRA:          -4.778
REMARK INTER:                  -4.600
REMARK INTRA:                  -0.178
REMARK UNBOUND:                -0.376
REMARK SMILES CC1=C[C@H]2C(=C(C)CC[C@@H]2C(C)C)CC1
REMARK SMILES IDX 1 1 2 2 3 3 4 4 10 5 9 6 8 7 6 8 5 9 14 10 15 11 7 12 11 13
REMARK SMILES IDX 12 14 13 15
REMARK H PARENT
REMARK Flexibility Score: inf
ROOT
ATOM      1  C   UNL     1      24.477  61.626  13.271  1.00  0.00     0.039 C 
ATOM      2  C   UNL     1      23.980  61.921  14.659  1.00  0.00    -0.076 C 
ATOM      3  C   UNL     1      22.938  62.774  14.815  1.00  0.00    -0.020 C 
ATOM      4  C   UNL     1      22.329  63.073  16.173  1.00  0.00     0.041 C 
ATOM      5  C   UNL     1      21.626  64.463  16.209  1.00  0.00     0.003 C 
ATOM      6  C   UNL     1      22.712  65.545  16.382  1.00  0.00     0.009 C 
ATOM      7  C   UNL     1      23.468  65.359  17.699  1.00  0.00     0.031 C 
ATOM      8  C   UNL     1      23.983  63.947  17.876  1.00  0.00    -0.073 C 
ATOM      9  C   UNL     1      23.402  62.893  17.234  1.00  0.00    -0.064 C 
ATOM     10  C   UNL     1      24.025  61.518  17.191  1.00  0.00     0.036 C 
ATOM     11  C   UNL     1      24.750  61.354  15.846  1.00  0.00     0.035 C 
ATOM     12  C   UNL     1      25.125  63.745  18.844  1.00  0.00     0.039 C 
ENDROOT
BRANCH   5  13
ATOM     13  C   UNL     1      20.486  64.532  17.289  1.00  0.00    -0.013 C 
ATOM     14  C   UNL     1      20.263  63.166  17.972  1.00  0.00     0.007 C 
ATOM     15  C   UNL     1      19.140  64.993  16.693  1.00  0.00     0.007 C 
ENDBRANCH   5  13
TORSDOF 1
ENDMDL
MODEL 6
REMARK VINA RESULT:    -4.097      1.569      3.675
REMARK INTER + INTRA:          -4.712
REMARK INTER:                  -4.390
REMARK INTRA:                  -0.322
REMARK UNBOUND:                -0.376
REMARK SMILES CC1=C[C@H]2C(=C(C)CC[C@@H]2C(C)C)CC1
REMARK SMILES IDX 1 1 2 2 3 3 4 4 10 5 9 6 8 7 6 8 5 9 14 10 15 11 7 12 11 13
REMARK SMILES IDX 12 14 13 15
REMARK H PARENT
REMARK Flexibility Score: inf
ROOT
ATOM      1  C   UNL     1      24.036  61.642  17.236  1.00  0.00     0.039 C 
ATOM      2  C   UNL     1      23.368  62.846  16.632  1.00  0.00    -0.076 C 
ATOM      3  C   UNL     1      22.014  62.903  16.610  1.00  0.00    -0.020 C 
ATOM      4  C   UNL     1      21.260  64.110  16.083  1.00  0.00     0.041 C 
ATOM      5  C   UNL     1      19.832  63.739  15.583  1.00  0.00     0.003 C 
ATOM      6  C   UNL     1      19.963  63.121  14.175  1.00  0.00     0.009 C 
ATOM      7  C   UNL     1      20.568  64.123  13.189  1.00  0.00     0.031 C 
ATOM      8  C   UNL     1      21.851  64.739  13.705  1.00  0.00    -0.073 C 
ATOM      9  C   UNL     1      22.122  64.801  15.040  1.00  0.00    -0.064 C 
ATOM     10  C   UNL     1      23.480  65.182  15.581  1.00  0.00     0.036 C 
ATOM     11  C   UNL     1      24.236  63.896  15.948  1.00  0.00     0.035 C 
ATOM     12  C   UNL     1      22.787  65.340  12.683  1.00  0.00     0.039 C 
ENDROOT
BRANCH   5  13
ATOM     13  C   UNL     1      18.836  64.954  15.650  1.00  0.00    -0.013 C 
ATOM     14  C   UNL     1      18.598  65.416  17.104  1.00  0.00     0.007 C 
ATOM     15  C   UNL     1      17.466  64.626  15.023  1.00  0.00     0.007 C 
ENDBRANCH   5  13
TORSDOF 1
ENDMDL
MODEL 7
REMARK VINA RESULT:    -4.076      2.520      5.030
REMARK INTER + INTRA:          -4.690
REMARK INTER:                  -4.299
REMARK INTRA:                  -0.390
REMARK UNBOUND:                -0.376
REMARK SMILES CC1=C[C@H]2C(=C(C)CC[C@@H]2C(C)C)CC1
REMARK SMILES IDX 1 1 2 2 3 3 4 4 10 5 9 6 8 7 6 8 5 9 14 10 15 11 7 12 11 13
REMARK SMILES IDX 12 14 13 15
REMARK H PARENT
REMARK Flexibility Score: inf
ROOT
ATOM      1  C   UNL     1      19.201  62.704  13.840  1.00  0.00     0.039 C 
ATOM      2  C   UNL     1      19.895  63.638  14.792  1.00  0.00    -0.076 C 
ATOM      3  C   UNL     1      21.029  63.222  15.409  1.00  0.00    -0.020 C 
ATOM      4  C   UNL     1      21.830  64.124  16.329  1.00  0.00     0.041 C 
ATOM      5  C   UNL     1      22.667  63.314  17.364  1.00  0.00     0.003 C 
ATOM      6  C   UNL     1      21.724  62.875  18.503  1.00  0.00     0.009 C 
ATOM      7  C   UNL     1      21.125  64.087  19.219  1.00  0.00     0.031 C 
ATOM      8  C   UNL     1      20.499  65.075  18.259  1.00  0.00    -0.073 C 
ATOM      9  C   UNL     1      20.887  65.139  16.953  1.00  0.00    -0.064 C 
ATOM     10  C   UNL     1      20.129  65.931  15.915  1.00  0.00     0.036 C 
ATOM     11  C   UNL     1      19.228  64.967  15.128  1.00  0.00     0.035 C 
ATOM     12  C   UNL     1      19.473  66.029  18.823  1.00  0.00     0.039 C 
ENDROOT
BRANCH   5  13
ATOM     13  C   UNL     1      23.935  64.100  17.859  1.00  0.00    -0.013 C 
ATOM     14  C   UNL     1      24.616  64.869  16.706  1.00  0.00     0.007 C 
ATOM     15  C   UNL     1      24.987  63.173  18.501  1.00  0.00     0.007 C 
ENDBRANCH   5  13
TORSDOF 1
ENDMDL
MODEL 8
REMARK VINA RESULT:    -4.053      1.354      3.362
REMARK INTER + INTRA:          -4.665
REMARK INTER:                  -4.297
REMARK INTRA:                  -0.368
REMARK UNBOUND:                -0.376
REMARK SMILES CC1=C[C@H]2C(=C(C)CC[C@@H]2C(C)C)CC1
REMARK SMILES IDX 1 1 2 2 3 3 4 4 10 5 9 6 8 7 6 8 5 9 14 10 15 11 7 12 11 13
REMARK SMILES IDX 12 14 13 15
REMARK H PARENT
REMARK Flexibility Score: inf
ROOT
ATOM      1  C   UNL     1      24.928  60.659  13.097  1.00  0.00     0.039 C 
ATOM      2  C   UNL     1      24.347  61.990  13.487  1.00  0.00    -0.076 C 
ATOM      3  C   UNL     1      23.373  62.030  14.429  1.00  0.00    -0.020 C 
ATOM      4  C   UNL     1      22.782  63.334  14.931  1.00  0.00     0.041 C 
ATOM      5  C   UNL     1      21.339  63.149  15.490  1.00  0.00     0.003 C 
ATOM      6  C   UNL     1      20.367  63.090  14.293  1.00  0.00     0.009 C 
ATOM      7  C   UNL     1      20.404  64.391  13.490  1.00  0.00     0.031 C 
ATOM      8  C   UNL     1      21.812  64.797  13.110  1.00  0.00    -0.073 C 
ATOM      9  C   UNL     1      22.891  64.371  13.827  1.00  0.00    -0.064 C 
ATOM     10  C   UNL     1      24.312  64.550  13.347  1.00  0.00     0.036 C 
ATOM     11  C   UNL     1      24.782  63.230  12.715  1.00  0.00     0.035 C 
ATOM     12  C   UNL     1      21.965  65.744  11.943  1.00  0.00     0.039 C 
ENDROOT
BRANCH   5  13
ATOM     13  C   UNL     1      20.963  64.239  16.557  1.00  0.00    -0.013 C 
ATOM     14  C   UNL     1      22.206  64.739  17.325  1.00  0.00     0.007 C 
ATOM     15  C   UNL     1      19.940  63.722  17.589  1.00  0.00     0.007 C 
ENDBRANCH   5  13
TORSDOF 1
ENDMDL
MODEL 9
REMARK VINA RESULT:    -4.007      1.714      5.095
REMARK INTER + INTRA:          -4.617
REMARK INTER:                  -4.412
REMARK INTRA:                  -0.205
REMARK UNBOUND:                -0.376
REMARK SMILES CC1=C[C@H]2C(=C(C)CC[C@@H]2C(C)C)CC1
REMARK SMILES IDX 1 1 2 2 3 3 4 4 10 5 9 6 8 7 6 8 5 9 14 10 15 11 7 12 11 13
REMARK SMILES IDX 12 14 13 15
REMARK H PARENT
REMARK Flexibility Score: inf
ROOT
ATOM      1  C   UNL     1      22.869  65.643  20.034  1.00  0.00     0.039 C 
ATOM      2  C   UNL     1      22.406  64.641  19.013  1.00  0.00    -0.076 C 
ATOM      3  C   UNL     1      23.297  64.166  18.109  1.00  0.00    -0.020 C 
ATOM      4  C   UNL     1      22.932  63.103  17.089  1.00  0.00     0.041 C 
ATOM      5  C   UNL     1      23.841  63.164  15.825  1.00  0.00     0.003 C 
ATOM      6  C   UNL     1      23.326  64.305  14.921  1.00  0.00     0.009 C 
ATOM      7  C   UNL     1      21.891  64.039  14.464  1.00  0.00     0.031 C 
ATOM      8  C   UNL     1      20.967  63.714  15.618  1.00  0.00    -0.073 C 
ATOM      9  C   UNL     1      21.446  63.209  16.791  1.00  0.00    -0.064 C 
ATOM     10  C   UNL     1      20.603  63.100  18.039  1.00  0.00     0.036 C 
ATOM     11  C   UNL     1      20.922  64.296  18.949  1.00  0.00     0.035 C 
ATOM     12  C   UNL     1      19.486  63.913  15.394  1.00  0.00     0.039 C 
ENDROOT
BRANCH   5  13
ATOM     13  C   UNL     1      23.949  61.777  15.094  1.00  0.00    -0.013 C 
ATOM     14  C   UNL     1      24.895  60.811  15.840  1.00  0.00     0.007 C 
ATOM     15  C   UNL     1      24.454  61.916  13.643  1.00  0.00     0.007 C 
ENDBRANCH   5  13
TORSDOF 1
ENDMDL
