MODEL 1
REMARK VINA RESULT:    -4.404      0.000      0.000
REMARK INTER + INTRA:         -10.576
REMARK INTER:                  -8.524
REMARK INTRA:                  -2.052
REMARK UNBOUND:                -2.052
REMARK SMILES CCCCCCCCCCCCCCCCCC(=O)[O-]
REMARK SMILES IDX 10 1 11 2 12 3 13 4 14 5 15 6 16 7 17 8 18 9 19 10 20 11
REMARK SMILES IDX 9 12 8 13 7 14 6 15 5 16 4 17 3 18 2 19 1 20
REMARK H PARENT
REMARK Flexibility Score: inf
ROOT
ATOM      1  C   UNL     1       5.917  -0.204  18.027  1.00  0.00     0.000 C 
ENDROOT
BRANCH   1   2
ATOM      2  C   UNL     1       5.667  -1.610  17.470  1.00  0.00     0.000 C 
BRANCH   2   3
ATOM      3  C   UNL     1       6.037  -1.687  15.981  1.00  0.00     0.000 C 
BRANCH   3   4
ATOM      4  C   UNL     1       6.053  -0.308  15.297  1.00  0.00     0.000 C 
BRANCH   4   5
ATOM      5  C   UNL     1       6.313  -0.335  13.778  1.00  0.00     0.000 C 
BRANCH   5   6
ATOM      6  C   UNL     1       6.217   1.030  13.069  1.00  0.00     0.000 C 
BRANCH   6   7
ATOM      7  C   UNL     1       4.791   1.596  12.925  1.00  0.00     0.006 C 
BRANCH   7   8
ATOM      8  C   UNL     1       4.727   3.133  12.910  1.00  0.00     0.053 C 
BRANCH   8   9
ATOM      9  C   UNL     1       4.087   3.697  14.142  1.00  0.00     0.041 C 
ATOM     10  O   UNL     1       2.855   3.960  14.154  1.00  0.00    -0.550 OA
ATOM     11  O   UNL     1       4.842   3.898  15.290  1.00  0.00    -0.550 OA
ENDBRANCH   8   9
ENDBRANCH   7   8
ENDBRANCH   6   7
ENDBRANCH   5   6
ENDBRANCH   4   5
ENDBRANCH   3   4
ENDBRANCH   2   3
ENDBRANCH   1   2
BRANCH   1  12
ATOM     12  C   UNL     1       5.077   0.045  19.288  1.00  0.00     0.000 C 
BRANCH  12  13
ATOM     13  C   UNL     1       4.149   1.263  19.151  1.00  0.00    -0.000 C 
BRANCH  13  14
ATOM     14  C   UNL     1       4.214   1.903  17.756  1.00  0.00    -0.000 C 
BRANCH  14  15
ATOM     15  C   UNL     1       2.911   1.668  16.983  1.00  0.00    -0.000 C 
BRANCH  15  16
ATOM     16  C   UNL     1       3.088   0.564  15.929  1.00  0.00    -0.000 C 
BRANCH  16  17
ATOM     17  C   UNL     1       1.981   0.575  14.859  1.00  0.00    -0.000 C 
BRANCH  17  18
ATOM     18  C   UNL     1       1.093  -0.686  14.825  1.00  0.00    -0.000 C 
BRANCH  18  19
ATOM     19  C   UNL     1       1.857  -2.020  14.886  1.00  0.00    -0.003 C 
ATOM     20  C   UNL     1       2.988  -2.105  13.862  1.00  0.00     0.004 C 
ENDBRANCH  18  19
ENDBRANCH  17  18
ENDBRANCH  16  17
ENDBRANCH  15  16
ENDBRANCH  14  15
ENDBRANCH  13  14
ENDBRANCH  12  13
ENDBRANCH   1  12
TORSDOF 16
ENDMDL
MODEL 2
REMARK VINA RESULT:    -3.962      2.530      5.360
REMARK INTER + INTRA:          -9.721
REMARK INTER:                  -7.720
REMARK INTRA:                  -2.001
REMARK UNBOUND:                -2.052
REMARK SMILES CCCCCCCCCCCCCCCCCC(=O)[O-]
REMARK SMILES IDX 10 1 11 2 12 3 13 4 14 5 15 6 16 7 17 8 18 9 19 10 20 11
REMARK SMILES IDX 9 12 8 13 7 14 6 15 5 16 4 17 3 18 2 19 1 20
REMARK H PARENT
REMARK Flexibility Score: inf
ROOT
ATOM      1  C   UNL     1       4.584   2.130  12.989  1.00  0.00     0.000 C 
ENDROOT
BRANCH   1   2
ATOM      2  C   UNL     1       4.639   3.585  13.468  1.00  0.00     0.000 C 
BRANCH   2   3
ATOM      3  C   UNL     1       3.964   3.740  14.839  1.00  0.00     0.000 C 
BRANCH   3   4
ATOM      4  C   UNL     1       2.816   2.740  15.056  1.00  0.00     0.000 C 
BRANCH   4   5
ATOM      5  C   UNL     1       2.969   1.826  16.289  1.00  0.00     0.000 C 
BRANCH   5   6
ATOM      6  C   UNL     1       4.312   1.944  17.033  1.00  0.00     0.000 C 
BRANCH   6   7
ATOM      7  C   UNL     1       5.058   0.615  17.258  1.00  0.00     0.006 C 
BRANCH   7   8
ATOM      8  C   UNL     1       5.072   0.145  18.723  1.00  0.00     0.053 C 
BRANCH   8   9
ATOM      9  C   UNL     1       6.009  -1.000  18.954  1.00  0.00     0.041 C 
ATOM     10  O   UNL     1       5.955  -2.024  18.223  1.00  0.00    -0.550 OA
ATOM     11  O   UNL     1       6.970  -0.923  19.955  1.00  0.00    -0.550 OA
ENDBRANCH   8   9
ENDBRANCH   7   8
ENDBRANCH   6   7
ENDBRANCH   5   6
ENDBRANCH   4   5
ENDBRANCH   3   4
ENDBRANCH   2   3
ENDBRANCH   1   2
BRANCH   1  12
ATOM     12  C   UNL     1       5.996   1.535  12.875  1.00  0.00     0.000 C 
BRANCH  12  13
ATOM     13  C   UNL     1       6.315   0.545  14.007  1.00  0.00    -0.000 C 
BRANCH  13  14
ATOM     14  C   UNL     1       6.994  -0.736  13.500  1.00  0.00    -0.000 C 
BRANCH  14  15
ATOM     15  C   UNL     1       6.538  -1.955  14.309  1.00  0.00    -0.000 C 
BRANCH  15  16
ATOM     16  C   UNL     1       5.124  -1.746  14.871  1.00  0.00    -0.000 C 
BRANCH  16  17
ATOM     17  C   UNL     1       4.020  -2.022  13.834  1.00  0.00    -0.000 C 
BRANCH  17  18
ATOM     18  C   UNL     1       3.217  -0.783  13.390  1.00  0.00    -0.000 C 
BRANCH  18  19
ATOM     19  C   UNL     1       1.814  -0.662  14.010  1.00  0.00    -0.003 C 
ATOM     20  C   UNL     1       1.574  -1.662  15.139  1.00  0.00     0.004 C 
ENDBRANCH  18  19
ENDBRANCH  17  18
ENDBRANCH  16  17
ENDBRANCH  15  16
ENDBRANCH  14  15
ENDBRANCH  13  14
ENDBRANCH  12  13
ENDBRANCH   1  12
TORSDOF 16
ENDMDL
MODEL 3
REMARK VINA RESULT:    -3.914      1.706      4.002
REMARK INTER + INTRA:          -9.628
REMARK INTER:                  -7.660
REMARK INTRA:                  -1.968
REMARK UNBOUND:                -2.052
REMARK SMILES CCCCCCCCCCCCCCCCCC(=O)[O-]
REMARK SMILES IDX 10 1 11 2 12 3 13 4 14 5 15 6 16 7 17 8 18 9 19 10 20 11
REMARK SMILES IDX 9 12 8 13 7 14 6 15 5 16 4 17 3 18 2 19 1 20
REMARK H PARENT
REMARK Flexibility Score: inf
ROOT
ATOM      1  C   UNL     1       4.378   1.599  19.005  1.00  0.00     0.000 C 
ENDROOT
BRANCH   1   2
ATOM      2  C   UNL     1       4.565   0.162  19.508  1.00  0.00     0.000 C 
BRANCH   2   3
ATOM      3  C   UNL     1       5.861  -0.450  18.954  1.00  0.00     0.000 C 
BRANCH   3   4
ATOM      4  C   UNL     1       5.617  -1.742  18.154  1.00  0.00     0.000 C 
BRANCH   4   5
ATOM      5  C   UNL     1       6.098  -1.705  16.690  1.00  0.00     0.000 C 
BRANCH   5   6
ATOM      6  C   UNL     1       4.981  -1.727  15.629  1.00  0.00     0.000 C 
BRANCH   6   7
ATOM      7  C   UNL     1       3.547  -1.633  16.184  1.00  0.00     0.006 C 
BRANCH   7   8
ATOM      8  C   UNL     1       2.451  -1.748  15.110  1.00  0.00     0.053 C 
BRANCH   8   9
ATOM      9  C   UNL     1       2.016  -0.415  14.582  1.00  0.00     0.041 C 
ATOM     10  O   UNL     1       1.295   0.342  15.284  1.00  0.00    -0.550 OA
ATOM     11  O   UNL     1       2.438   0.010  13.328  1.00  0.00    -0.550 OA
ENDBRANCH   8   9
ENDBRANCH   7   8
ENDBRANCH   6   7
ENDBRANCH   5   6
ENDBRANCH   4   5
ENDBRANCH   3   4
ENDBRANCH   2   3
ENDBRANCH   1   2
BRANCH   1  12
ATOM     12  C   UNL     1       3.644   1.617  17.656  1.00  0.00     0.000 C 
BRANCH  12  13
ATOM     13  C   UNL     1       4.591   1.864  16.470  1.00  0.00    -0.000 C 
BRANCH  13  14
ATOM     14  C   UNL     1       4.432   3.267  15.867  1.00  0.00    -0.000 C 
BRANCH  14  15
ATOM     15  C   UNL     1       3.244   3.318  14.900  1.00  0.00    -0.000 C 
BRANCH  15  16
ATOM     16  C   UNL     1       3.656   3.928  13.552  1.00  0.00    -0.000 C 
BRANCH  16  17
ATOM     17  C   UNL     1       4.974   3.347  13.009  1.00  0.00    -0.000 C 
BRANCH  17  18
ATOM     18  C   UNL     1       5.004   1.811  12.875  1.00  0.00    -0.000 C 
BRANCH  18  19
ATOM     19  C   UNL     1       6.371   1.162  13.149  1.00  0.00    -0.003 C 
ATOM     20  C   UNL     1       6.356  -0.356  12.974  1.00  0.00     0.004 C 
ENDBRANCH  18  19
ENDBRANCH  17  18
ENDBRANCH  16  17
ENDBRANCH  15  16
ENDBRANCH  14  15
ENDBRANCH  13  14
ENDBRANCH  12  13
ENDBRANCH   1  12
TORSDOF 16
ENDMDL
MODEL 4
REMARK VINA RESULT:    -3.830      2.173      5.536
REMARK INTER + INTRA:          -9.465
REMARK INTER:                  -7.812
REMARK INTRA:                  -1.653
REMARK UNBOUND:                -2.052
REMARK SMILES CCCCCCCCCCCCCCCCCC(=O)[O-]
REMARK SMILES IDX 10 1 11 2 12 3 13 4 14 5 15 6 16 7 17 8 18 9 19 10 20 11
REMARK SMILES IDX 9 12 8 13 7 14 6 15 5 16 4 17 3 18 2 19 1 20
REMARK H PARENT
REMARK Flexibility Score: inf
ROOT
ATOM      1  C   UNL     1       5.098   2.873  12.883  1.00  0.00     0.000 C 
ENDROOT
BRANCH   1   2
ATOM      2  C   UNL     1       3.909   3.452  13.657  1.00  0.00     0.000 C 
BRANCH   2   3
ATOM      3  C   UNL     1       4.335   3.908  15.061  1.00  0.00     0.000 C 
BRANCH   3   4
ATOM      4  C   UNL     1       4.590   2.732  16.020  1.00  0.00     0.000 C 
BRANCH   4   5
ATOM      5  C   UNL     1       3.327   2.136  16.674  1.00  0.00     0.000 C 
BRANCH   5   6
ATOM      6  C   UNL     1       2.845   0.799  16.080  1.00  0.00     0.000 C 
BRANCH   6   7
ATOM      7  C   UNL     1       1.715   0.913  15.039  1.00  0.00     0.006 C 
BRANCH   7   8
ATOM      8  C   UNL     1       1.016  -0.423  14.726  1.00  0.00     0.053 C 
BRANCH   8   9
ATOM      9  C   UNL     1       1.952  -1.591  14.778  1.00  0.00     0.041 C 
ATOM     10  O   UNL     1       2.241  -2.125  15.881  1.00  0.00    -0.550 OA
ATOM     11  O   UNL     1       2.477  -2.116  13.603  1.00  0.00    -0.550 OA
ENDBRANCH   8   9
ENDBRANCH   7   8
ENDBRANCH   6   7
ENDBRANCH   5   6
ENDBRANCH   4   5
ENDBRANCH   3   4
ENDBRANCH   2   3
ENDBRANCH   1   2
BRANCH   1  12
ATOM     12  C   UNL     1       5.080   1.337  12.916  1.00  0.00     0.000 C 
BRANCH  12  13
ATOM     13  C   UNL     1       6.264   0.748  13.701  1.00  0.00    -0.000 C 
BRANCH  13  14
ATOM     14  C   UNL     1       6.653  -0.658  13.219  1.00  0.00    -0.000 C 
BRANCH  14  15
ATOM     15  C   UNL     1       5.732  -1.721  13.829  1.00  0.00    -0.000 C 
BRANCH  15  16
ATOM     16  C   UNL     1       6.208  -2.123  15.233  1.00  0.00    -0.000 C 
BRANCH  16  17
ATOM     17  C   UNL     1       5.366  -1.491  16.355  1.00  0.00    -0.000 C 
BRANCH  17  18
ATOM     18  C   UNL     1       6.116  -1.255  17.681  1.00  0.00    -0.000 C 
BRANCH  18  19
ATOM     19  C   UNL     1       5.815   0.088  18.368  1.00  0.00    -0.003 C 
ATOM     20  C   UNL     1       4.827  -0.044  19.526  1.00  0.00     0.004 C 
ENDBRANCH  18  19
ENDBRANCH  17  18
ENDBRANCH  16  17
ENDBRANCH  15  16
ENDBRANCH  14  15
ENDBRANCH  13  14
ENDBRANCH  12  13
ENDBRANCH   1  12
TORSDOF 16
ENDMDL
MODEL 5
REMARK VINA RESULT:    -3.809      2.063      4.358
REMARK INTER + INTRA:          -9.423
REMARK INTER:                  -7.307
REMARK INTRA:                  -2.116
REMARK UNBOUND:                -2.052
REMARK SMILES CCCCCCCCCCCCCCCCCC(=O)[O-]
REMARK SMILES IDX 10 1 11 2 12 3 13 4 14 5 15 6 16 7 17 8 18 9 19 10 20 11
REMARK SMILES IDX 9 12 8 13 7 14 6 15 5 16 4 17 3 18 2 19 1 20
REMARK H PARENT
REMARK Flexibility Score: inf
ROOT
ATOM      1  C   UNL     1       5.126   3.124  14.077  1.00  0.00     0.000 C 
ENDROOT
BRANCH   1   2
ATOM      2  C   UNL     1       5.212   2.145  12.901  1.00  0.00     0.000 C 
BRANCH   2   3
ATOM      3  C   UNL     1       6.373   1.157  13.089  1.00  0.00     0.000 C 
BRANCH   3   4
ATOM      4  C   UNL     1       6.322   0.426  14.442  1.00  0.00     0.000 C 
BRANCH   4   5
ATOM      5  C   UNL     1       6.614  -1.086  14.379  1.00  0.00     0.000 C 
BRANCH   5   6
ATOM      6  C   UNL     1       6.285  -1.875  15.661  1.00  0.00     0.000 C 
BRANCH   6   7
ATOM      7  C   UNL     1       5.154  -1.282  16.524  1.00  0.00     0.006 C 
BRANCH   7   8
ATOM      8  C   UNL     1       5.207  -1.706  18.003  1.00  0.00     0.053 C 
BRANCH   8   9
ATOM      9  C   UNL     1       5.575  -0.576  18.914  1.00  0.00     0.041 C 
ATOM     10  O   UNL     1       4.810   0.418  19.036  1.00  0.00    -0.550 OA
ATOM     11  O   UNL     1       6.746  -0.634  19.660  1.00  0.00    -0.550 OA
ENDBRANCH   8   9
ENDBRANCH   7   8
ENDBRANCH   6   7
ENDBRANCH   5   6
ENDBRANCH   4   5
ENDBRANCH   3   4
ENDBRANCH   2   3
ENDBRANCH   1   2
BRANCH   1  12
ATOM     12  C   UNL     1       3.768   3.840  14.100  1.00  0.00     0.000 C 
BRANCH  12  13
ATOM     13  C   UNL     1       2.677   3.020  14.809  1.00  0.00    -0.000 C 
BRANCH  13  14
ATOM     14  C   UNL     1       3.223   2.208  15.993  1.00  0.00    -0.000 C 
BRANCH  14  15
ATOM     15  C   UNL     1       2.650   0.786  15.992  1.00  0.00    -0.000 C 
BRANCH  15  16
ATOM     16  C   UNL     1       1.315   0.730  15.236  1.00  0.00    -0.000 C 
BRANCH  16  17
ATOM     17  C   UNL     1       0.968  -0.684  14.736  1.00  0.00    -0.000 C 
BRANCH  17  18
ATOM     18  C   UNL     1       1.990  -1.777  15.108  1.00  0.00    -0.000 C 
BRANCH  18  19
ATOM     19  C   UNL     1       3.003  -2.122  14.003  1.00  0.00    -0.003 C 
ATOM     20  C   UNL     1       3.231  -0.972  13.024  1.00  0.00     0.004 C 
ENDBRANCH  18  19
ENDBRANCH  17  18
ENDBRANCH  16  17
ENDBRANCH  15  16
ENDBRANCH  14  15
ENDBRANCH  13  14
ENDBRANCH  12  13
ENDBRANCH   1  12
TORSDOF 16
ENDMDL
MODEL 6
REMARK VINA RESULT:    -3.778      1.800      3.760
REMARK INTER + INTRA:          -9.364
REMARK INTER:                  -7.134
REMARK INTRA:                  -2.230
REMARK UNBOUND:                -2.052
REMARK SMILES CCCCCCCCCCCCCCCCCC(=O)[O-]
REMARK SMILES IDX 10 1 11 2 12 3 13 4 14 5 15 6 16 7 17 8 18 9 19 10 20 11
REMARK SMILES IDX 9 12 8 13 7 14 6 15 5 16 4 17 3 18 2 19 1 20
REMARK H PARENT
REMARK Flexibility Score: inf
ROOT
ATOM      1  C   UNL     1       5.640  -0.188  19.540  1.00  0.00     0.000 C 
ENDROOT
BRANCH   1   2
ATOM      2  C   UNL     1       6.299  -1.392  18.857  1.00  0.00     0.000 C 
BRANCH   2   3
ATOM      3  C   UNL     1       5.421  -1.928  17.716  1.00  0.00     0.000 C 
BRANCH   3   4
ATOM      4  C   UNL     1       6.182  -2.054  16.385  1.00  0.00     0.000 C 
BRANCH   4   5
ATOM      5  C   UNL     1       5.294  -2.100  15.126  1.00  0.00     0.000 C 
BRANCH   5   6
ATOM      6  C   UNL     1       3.811  -1.751  15.353  1.00  0.00     0.000 C 
BRANCH   6   7
ATOM      7  C   UNL     1       2.949  -1.682  14.077  1.00  0.00     0.006 C 
BRANCH   7   8
ATOM      8  C   UNL     1       2.282  -0.315  13.845  1.00  0.00     0.053 C 
BRANCH   8   9
ATOM      9  C   UNL     1       1.299   0.038  14.919  1.00  0.00     0.041 C 
ATOM     10  O   UNL     1       0.137  -0.446  14.901  1.00  0.00    -0.550 OA
ATOM     11  O   UNL     1       1.677   0.874  15.963  1.00  0.00    -0.550 OA
ENDBRANCH   8   9
ENDBRANCH   7   8
ENDBRANCH   6   7
ENDBRANCH   5   6
ENDBRANCH   4   5
ENDBRANCH   3   4
ENDBRANCH   2   3
ENDBRANCH   1   2
BRANCH   1  12
ATOM     12  C   UNL     1       4.340   0.207  18.822  1.00  0.00     0.000 C 
BRANCH  12  13
ATOM     13  C   UNL     1       4.389   1.633  18.250  1.00  0.00    -0.000 C 
BRANCH  13  14
ATOM     14  C   UNL     1       4.474   1.654  16.717  1.00  0.00    -0.000 C 
BRANCH  14  15
ATOM     15  C   UNL     1       5.916   1.439  16.245  1.00  0.00    -0.000 C 
BRANCH  15  16
ATOM     16  C   UNL     1       5.981   1.304  14.716  1.00  0.00    -0.000 C 
BRANCH  16  17
ATOM     17  C   UNL     1       4.672   1.719  14.022  1.00  0.00    -0.000 C 
BRANCH  17  18
ATOM     18  C   UNL     1       4.812   2.858  12.991  1.00  0.00    -0.000 C 
BRANCH  18  19
ATOM     19  C   UNL     1       3.950   4.100  13.275  1.00  0.00    -0.003 C 
ATOM     20  C   UNL     1       2.952   3.886  14.412  1.00  0.00     0.004 C 
ENDBRANCH  18  19
ENDBRANCH  17  18
ENDBRANCH  16  17
ENDBRANCH  15  16
ENDBRANCH  14  15
ENDBRANCH  13  14
ENDBRANCH  12  13
ENDBRANCH   1  12
TORSDOF 16
ENDMDL
MODEL 7
REMARK VINA RESULT:    -3.590      2.058      4.776
REMARK INTER + INTRA:          -8.999
REMARK INTER:                  -7.207
REMARK INTRA:                  -1.792
REMARK UNBOUND:                -2.052
REMARK SMILES CCCCCCCCCCCCCCCCCC(=O)[O-]
REMARK SMILES IDX 10 1 11 2 12 3 13 4 14 5 15 6 16 7 17 8 18 9 19 10 20 11
REMARK SMILES IDX 9 12 8 13 7 14 6 15 5 16 4 17 3 18 2 19 1 20
REMARK H PARENT
REMARK Flexibility Score: inf
ROOT
ATOM      1  C   UNL     1       5.198  -1.861  16.689  1.00  0.00     0.000 C 
ENDROOT
BRANCH   1   2
ATOM      2  C   UNL     1       5.376  -1.702  18.204  1.00  0.00     0.000 C 
BRANCH   2   3
ATOM      3  C   UNL     1       5.954  -0.321  18.549  1.00  0.00     0.000 C 
BRANCH   3   4
ATOM      4  C   UNL     1       4.903   0.640  19.130  1.00  0.00     0.000 C 
BRANCH   4   5
ATOM      5  C   UNL     1       4.345   1.678  18.135  1.00  0.00     0.000 C 
BRANCH   5   6
ATOM      6  C   UNL     1       3.992   1.129  16.740  1.00  0.00     0.000 C 
BRANCH   6   7
ATOM      7  C   UNL     1       2.485   1.008  16.444  1.00  0.00     0.006 C 
BRANCH   7   8
ATOM      8  C   UNL     1       2.155   0.780  14.958  1.00  0.00     0.053 C 
BRANCH   8   9
ATOM      9  C   UNL     1       1.220  -0.370  14.743  1.00  0.00     0.041 C 
ATOM     10  O   UNL     1       1.650  -1.462  14.285  1.00  0.00    -0.550 OA
ATOM     11  O   UNL     1      -0.122  -0.251  15.083  1.00  0.00    -0.550 OA
ENDBRANCH   8   9
ENDBRANCH   7   8
ENDBRANCH   6   7
ENDBRANCH   5   6
ENDBRANCH   4   5
ENDBRANCH   3   4
ENDBRANCH   2   3
ENDBRANCH   1   2
BRANCH   1  12
ATOM     12  C   UNL     1       6.491  -1.499  15.943  1.00  0.00     0.000 C 
BRANCH  12  13
ATOM     13  C   UNL     1       6.499  -2.003  14.491  1.00  0.00    -0.000 C 
BRANCH  13  14
ATOM     14  C   UNL     1       5.128  -1.875  13.812  1.00  0.00    -0.000 C 
BRANCH  14  15
ATOM     15  C   UNL     1       4.919  -0.460  13.261  1.00  0.00    -0.000 C 
BRANCH  15  16
ATOM     16  C   UNL     1       6.238   0.329  13.255  1.00  0.00    -0.000 C 
BRANCH  16  17
ATOM     17  C   UNL     1       6.049   1.809  12.875  1.00  0.00    -0.000 C 
BRANCH  17  18
ATOM     18  C   UNL     1       4.639   2.376  13.137  1.00  0.00    -0.000 C 
BRANCH  18  19
ATOM     19  C   UNL     1       4.564   3.449  14.237  1.00  0.00    -0.003 C 
ATOM     20  C   UNL     1       3.212   4.157  14.286  1.00  0.00     0.004 C 
ENDBRANCH  18  19
ENDBRANCH  17  18
ENDBRANCH  16  17
ENDBRANCH  15  16
ENDBRANCH  14  15
ENDBRANCH  13  14
ENDBRANCH  12  13
ENDBRANCH   1  12
TORSDOF 16
ENDMDL
MODEL 8
REMARK VINA RESULT:    -3.569      1.786      3.715
REMARK INTER + INTRA:          -8.958
REMARK INTER:                  -6.672
REMARK INTRA:                  -2.286
REMARK UNBOUND:                -2.052
REMARK SMILES CCCCCCCCCCCCCCCCCC(=O)[O-]
REMARK SMILES IDX 10 1 11 2 12 3 13 4 14 5 15 6 16 7 17 8 18 9 19 10 20 11
REMARK SMILES IDX 9 12 8 13 7 14 6 15 5 16 4 17 3 18 2 19 1 20
REMARK H PARENT
REMARK Flexibility Score: inf
ROOT
ATOM      1  C   UNL     1       6.381  -1.637  17.105  1.00  0.00     0.000 C 
ENDROOT
BRANCH   1   2
ATOM      2  C   UNL     1       5.782  -2.104  15.773  1.00  0.00     0.000 C 
BRANCH   2   3
ATOM      3  C   UNL     1       6.622  -1.606  14.587  1.00  0.00     0.000 C 
BRANCH   3   4
ATOM      4  C   UNL     1       5.836  -1.588  13.264  1.00  0.00     0.000 C 
BRANCH   4   5
ATOM      5  C   UNL     1       5.180  -0.237  12.913  1.00  0.00     0.000 C 
BRANCH   5   6
ATOM      6  C   UNL     1       3.652  -0.179  13.102  1.00  0.00     0.000 C 
BRANCH   6   7
ATOM      7  C   UNL     1       3.027  -1.412  13.782  1.00  0.00     0.006 C 
BRANCH   7   8
ATOM      8  C   UNL     1       2.485  -1.140  15.196  1.00  0.00     0.053 C 
BRANCH   8   9
ATOM      9  C   UNL     1       1.443  -0.063  15.219  1.00  0.00     0.041 C 
ATOM     10  O   UNL     1       0.265  -0.311  14.850  1.00  0.00    -0.550 OA
ATOM     11  O   UNL     1       1.763   1.207  15.681  1.00  0.00    -0.550 OA
ENDBRANCH   8   9
ENDBRANCH   7   8
ENDBRANCH   6   7
ENDBRANCH   5   6
ENDBRANCH   4   5
ENDBRANCH   3   4
ENDBRANCH   2   3
ENDBRANCH   1   2
BRANCH   1  12
ATOM     12  C   UNL     1       5.309  -1.591  18.204  1.00  0.00     0.000 C 
BRANCH  12  13
ATOM     13  C   UNL     1       5.677  -0.638  19.352  1.00  0.00    -0.000 C 
BRANCH  13  14
ATOM     14  C   UNL     1       4.767   0.598  19.412  1.00  0.00    -0.000 C 
BRANCH  14  15
ATOM     15  C   UNL     1       4.055   0.819  18.072  1.00  0.00    -0.000 C 
BRANCH  15  16
ATOM     16  C   UNL     1       4.638   2.032  17.331  1.00  0.00    -0.000 C 
BRANCH  16  17
ATOM     17  C   UNL     1       5.084   1.699  15.896  1.00  0.00    -0.000 C 
BRANCH  17  18
ATOM     18  C   UNL     1       5.120   2.900  14.929  1.00  0.00    -0.000 C 
BRANCH  18  19
ATOM     19  C   UNL     1       4.128   4.028  15.257  1.00  0.00    -0.003 C 
ATOM     20  C   UNL     1       2.927   4.059  14.312  1.00  0.00     0.004 C 
ENDBRANCH  18  19
ENDBRANCH  17  18
ENDBRANCH  16  17
ENDBRANCH  15  16
ENDBRANCH  14  15
ENDBRANCH  13  14
ENDBRANCH  12  13
ENDBRANCH   1  12
TORSDOF 16
ENDMDL
MODEL 9
REMARK VINA RESULT:    -3.535      1.907      4.218
REMARK INTER + INTRA:          -8.893
REMARK INTER:                  -6.720
REMARK INTRA:                  -2.173
REMARK UNBOUND:                -2.052
REMARK SMILES CCCCCCCCCCCCCCCCCC(=O)[O-]
REMARK SMILES IDX 10 1 11 2 12 3 13 4 14 5 15 6 16 7 17 8 18 9 19 10 20 11
REMARK SMILES IDX 9 12 8 13 7 14 6 15 5 16 4 17 3 18 2 19 1 20
REMARK H PARENT
REMARK Flexibility Score: inf
ROOT
ATOM      1  C   UNL     1       5.284   1.220  13.175  1.00  0.00     0.000 C 
ENDROOT
BRANCH   1   2
ATOM      2  C   UNL     1       6.632   0.555  12.875  1.00  0.00     0.000 C 
BRANCH   2   3
ATOM      3  C   UNL     1       6.723  -0.830  13.534  1.00  0.00     0.000 C 
BRANCH   3   4
ATOM      4  C   UNL     1       5.608  -1.074  14.566  1.00  0.00     0.000 C 
BRANCH   4   5
ATOM      5  C   UNL     1       5.968  -2.057  15.698  1.00  0.00     0.000 C 
BRANCH   5   6
ATOM      6  C   UNL     1       5.431  -1.681  17.092  1.00  0.00     0.000 C 
BRANCH   6   7
ATOM      7  C   UNL     1       6.137  -0.491  17.769  1.00  0.00     0.006 C 
BRANCH   7   8
ATOM      8  C   UNL     1       5.323   0.815  17.748  1.00  0.00     0.053 C 
BRANCH   8   9
ATOM      9  C   UNL     1       4.531   1.023  19.002  1.00  0.00     0.041 C 
ATOM     10  O   UNL     1       3.748   2.004  19.104  1.00  0.00    -0.550 OA
ATOM     11  O   UNL     1       4.629   0.113  20.048  1.00  0.00    -0.550 OA
ENDBRANCH   8   9
ENDBRANCH   7   8
ENDBRANCH   6   7
ENDBRANCH   5   6
ENDBRANCH   4   5
ENDBRANCH   3   4
ENDBRANCH   2   3
ENDBRANCH   1   2
BRANCH   1  12
ATOM     12  C   UNL     1       5.407   2.750  13.147  1.00  0.00     0.000 C 
BRANCH  12  13
ATOM     13  C   UNL     1       4.725   3.422  14.350  1.00  0.00    -0.000 C 
BRANCH  13  14
ATOM     14  C   UNL     1       3.302   3.905  14.030  1.00  0.00    -0.000 C 
BRANCH  14  15
ATOM     15  C   UNL     1       2.257   3.056  14.763  1.00  0.00    -0.000 C 
BRANCH  15  16
ATOM     16  C   UNL     1       2.927   2.091  15.753  1.00  0.00    -0.000 C 
BRANCH  16  17
ATOM     17  C   UNL     1       2.053   0.867  16.080  1.00  0.00    -0.000 C 
BRANCH  17  18
ATOM     18  C   UNL     1       1.296   0.264  14.880  1.00  0.00    -0.000 C 
BRANCH  18  19
ATOM     19  C   UNL     1       2.123  -0.693  14.004  1.00  0.00    -0.003 C 
ATOM     20  C   UNL     1       2.225  -2.099  14.592  1.00  0.00     0.004 C 
ENDBRANCH  18  19
ENDBRANCH  17  18
ENDBRANCH  16  17
ENDBRANCH  15  16
ENDBRANCH  14  15
ENDBRANCH  13  14
ENDBRANCH  12  13
ENDBRANCH   1  12
TORSDOF 16
ENDMDL
