MODEL 1
REMARK VINA RESULT:    -3.743      0.000      0.000
REMARK INTER + INTRA:          -4.578
REMARK INTER:                  -4.509
REMARK INTRA:                  -0.070
REMARK UNBOUND:                -0.070
REMARK SMILES CC[C@@H](C)[C@H]([NH3+])C(=O)[O-]
REMARK SMILES IDX 3 1 4 2 5 3 6 4 7 8 8 9 9 10 2 11 1 12
REMARK H PARENT 6 5 6 6 6 7
REMARK Flexibility Score: inf
ROOT
ATOM      1  C   UNL     1      66.112  -2.951   2.921  1.00  0.00     0.050 C 
ATOM      2  C   UNL     1      65.673  -4.054   1.941  1.00  0.00     0.014 C 
ENDROOT
BRANCH   1   3
ATOM      3  C   UNL     1      65.261  -2.939   4.232  1.00  0.00     0.230 C 
BRANCH   3   4
ATOM      4  N   UNL     1      64.575  -4.221   4.447  1.00  0.00    -0.350 N 
ATOM      5  H   UNL     1      64.808  -4.886   3.674  1.00  0.00     0.345 HD
ATOM      6  H   UNL     1      64.900  -4.646   5.347  1.00  0.00     0.345 HD
ATOM      7  H   UNL     1      63.539  -4.095   4.491  1.00  0.00     0.345 HD
ENDBRANCH   3   4
BRANCH   3   8
ATOM      8  C   UNL     1      64.300  -1.773   4.341  1.00  0.00     0.099 C 
ATOM      9  O   UNL     1      63.434  -1.560   3.451  1.00  0.00    -0.544 OA
ATOM     10  O   UNL     1      64.340  -0.947   5.457  1.00  0.00    -0.544 OA
ENDBRANCH   3   8
ENDBRANCH   1   3
BRANCH   1  11
ATOM     11  C   UNL     1      67.653  -2.914   3.098  1.00  0.00     0.006 C 
ATOM     12  C   UNL     1      68.301  -1.534   2.976  1.00  0.00     0.004 C 
ENDBRANCH   1  11
TORSDOF 4
ENDMDL
MODEL 2
REMARK VINA RESULT:    -3.689      1.987      2.659
REMARK INTER + INTRA:          -4.513
REMARK INTER:                  -4.427
REMARK INTRA:                  -0.086
REMARK UNBOUND:                -0.070
REMARK SMILES CC[C@@H](C)[C@H]([NH3+])C(=O)[O-]
REMARK SMILES IDX 3 1 4 2 5 3 6 4 7 8 8 9 9 10 2 11 1 12
REMARK H PARENT 6 5 6 6 6 7
REMARK Flexibility Score: inf
ROOT
ATOM      1  C   UNL     1      65.540  -3.319   3.719  1.00  0.00     0.050 C 
ATOM      2  C   UNL     1      65.162  -3.563   2.247  1.00  0.00     0.014 C 
ENDROOT
BRANCH   1   3
ATOM      3  C   UNL     1      64.464  -2.481   4.484  1.00  0.00     0.230 C 
BRANCH   3   4
ATOM      4  N   UNL     1      63.473  -1.901   3.566  1.00  0.00    -0.350 N 
ATOM      5  H   UNL     1      62.923  -1.158   4.056  1.00  0.00     0.345 HD
ATOM      6  H   UNL     1      63.963  -1.457   2.755  1.00  0.00     0.345 HD
ATOM      7  H   UNL     1      62.818  -2.630   3.203  1.00  0.00     0.345 HD
ENDBRANCH   3   4
BRANCH   3   8
ATOM      8  C   UNL     1      65.038  -1.432   5.412  1.00  0.00     0.099 C 
ATOM      9  O   UNL     1      66.283  -1.304   5.559  1.00  0.00    -0.544 OA
ATOM     10  O   UNL     1      64.186  -0.564   6.084  1.00  0.00    -0.544 OA
ENDBRANCH   3   8
ENDBRANCH   1   3
BRANCH   1  11
ATOM     11  C   UNL     1      66.024  -4.619   4.415  1.00  0.00     0.006 C 
ATOM     12  C   UNL     1      64.925  -5.604   4.818  1.00  0.00     0.004 C 
ENDBRANCH   1  11
TORSDOF 4
ENDMDL
MODEL 3
REMARK VINA RESULT:    -3.621      0.838      1.673
REMARK INTER + INTRA:          -4.432
REMARK INTER:                  -4.343
REMARK INTRA:                  -0.088
REMARK UNBOUND:                -0.070
REMARK SMILES CC[C@@H](C)[C@H]([NH3+])C(=O)[O-]
REMARK SMILES IDX 3 1 4 2 5 3 6 4 7 8 8 9 9 10 2 11 1 12
REMARK H PARENT 6 5 6 6 6 7
REMARK Flexibility Score: inf
ROOT
ATOM      1  C   UNL     1      66.580  -3.224   3.393  1.00  0.00     0.050 C 
ATOM      2  C   UNL     1      67.463  -1.965   3.446  1.00  0.00     0.014 C 
ENDROOT
BRANCH   1   3
ATOM      3  C   UNL     1      65.433  -3.198   4.455  1.00  0.00     0.230 C 
BRANCH   3   4
ATOM      4  N   UNL     1      64.606  -4.413   4.392  1.00  0.00    -0.350 N 
ATOM      5  H   UNL     1      65.131  -5.178   3.909  1.00  0.00     0.345 HD
ATOM      6  H   UNL     1      64.384  -4.737   5.363  1.00  0.00     0.345 HD
ATOM      7  H   UNL     1      63.710  -4.237   3.885  1.00  0.00     0.345 HD
ENDBRANCH   3   4
BRANCH   3   8
ATOM      8  C   UNL     1      64.580  -1.948   4.420  1.00  0.00     0.099 C 
ATOM      9  O   UNL     1      63.730  -1.765   3.507  1.00  0.00    -0.544 OA
ATOM     10  O   UNL     1      64.700  -1.001   5.430  1.00  0.00    -0.544 OA
ENDBRANCH   3   8
ENDBRANCH   1   3
BRANCH   1  11
ATOM     11  C   UNL     1      66.166  -3.581   1.940  1.00  0.00     0.006 C 
ATOM     12  C   UNL     1      67.319  -3.826   0.965  1.00  0.00     0.004 C 
ENDBRANCH   1  11
TORSDOF 4
ENDMDL
MODEL 4
REMARK VINA RESULT:    -3.498      1.825      2.352
REMARK INTER + INTRA:          -4.284
REMARK INTER:                  -4.202
REMARK INTRA:                  -0.082
REMARK UNBOUND:                -0.070
REMARK SMILES CC[C@@H](C)[C@H]([NH3+])C(=O)[O-]
REMARK SMILES IDX 3 1 4 2 5 3 6 4 7 8 8 9 9 10 2 11 1 12
REMARK H PARENT 6 5 6 6 6 7
REMARK Flexibility Score: inf
ROOT
ATOM      1  C   UNL     1      67.237  -2.892   2.206  1.00  0.00     0.050 C 
ATOM      2  C   UNL     1      68.455  -3.497   1.488  1.00  0.00     0.014 C 
ENDROOT
BRANCH   1   3
ATOM      3  C   UNL     1      66.084  -3.928   2.412  1.00  0.00     0.230 C 
BRANCH   3   4
ATOM      4  N   UNL     1      65.515  -4.370   1.131  1.00  0.00    -0.350 N 
ATOM      5  H   UNL     1      64.690  -4.990   1.300  1.00  0.00     0.345 HD
ATOM      6  H   UNL     1      65.187  -3.538   0.587  1.00  0.00     0.345 HD
ATOM      7  H   UNL     1      66.221  -4.887   0.559  1.00  0.00     0.345 HD
ENDBRANCH   3   4
BRANCH   3   8
ATOM      8  C   UNL     1      65.003  -3.475   3.370  1.00  0.00     0.099 C 
ATOM      9  O   UNL     1      64.844  -4.039   4.486  1.00  0.00    -0.544 OA
ATOM     10  O   UNL     1      64.196  -2.394   3.039  1.00  0.00    -0.544 OA
ENDBRANCH   3   8
ENDBRANCH   1   3
BRANCH   1  11
ATOM     11  C   UNL     1      67.651  -2.065   3.453  1.00  0.00     0.006 C 
ATOM     12  C   UNL     1      68.634  -0.922   3.193  1.00  0.00     0.004 C 
ENDBRANCH   1  11
TORSDOF 4
ENDMDL
MODEL 5
REMARK VINA RESULT:    -3.465      1.253      1.625
REMARK INTER + INTRA:          -4.243
REMARK INTER:                  -4.128
REMARK INTRA:                  -0.115
REMARK UNBOUND:                -0.070
REMARK SMILES CC[C@@H](C)[C@H]([NH3+])C(=O)[O-]
REMARK SMILES IDX 3 1 4 2 5 3 6 4 7 8 8 9 9 10 2 11 1 12
REMARK H PARENT 6 5 6 6 6 7
REMARK Flexibility Score: inf
ROOT
ATOM      1  C   UNL     1      65.251  -3.817   3.356  1.00  0.00     0.050 C 
ATOM      2  C   UNL     1      65.261  -5.074   4.242  1.00  0.00     0.014 C 
ENDROOT
BRANCH   1   3
ATOM      3  C   UNL     1      65.551  -2.511   4.162  1.00  0.00     0.230 C 
BRANCH   3   4
ATOM      4  N   UNL     1      66.200  -2.803   5.448  1.00  0.00    -0.350 N 
ATOM      5  H   UNL     1      65.905  -3.746   5.792  1.00  0.00     0.345 HD
ATOM      6  H   UNL     1      67.240  -2.816   5.321  1.00  0.00     0.345 HD
ATOM      7  H   UNL     1      65.960  -2.084   6.167  1.00  0.00     0.345 HD
ENDBRANCH   3   4
BRANCH   3   8
ATOM      8  C   UNL     1      64.353  -1.602   4.342  1.00  0.00     0.099 C 
ATOM      9  O   UNL     1      63.438  -1.553   3.477  1.00  0.00    -0.544 OA
ATOM     10  O   UNL     1      64.232  -0.840   5.497  1.00  0.00    -0.544 OA
ENDBRANCH   3   8
ENDBRANCH   1   3
BRANCH   1  11
ATOM     11  C   UNL     1      66.065  -4.022   2.050  1.00  0.00     0.006 C 
ATOM     12  C   UNL     1      67.342  -3.189   1.927  1.00  0.00     0.004 C 
ENDBRANCH   1  11
TORSDOF 4
ENDMDL
MODEL 6
REMARK VINA RESULT:    -3.453      2.989      3.848
REMARK INTER + INTRA:          -4.229
REMARK INTER:                  -4.101
REMARK INTRA:                  -0.128
REMARK UNBOUND:                -0.070
REMARK SMILES CC[C@@H](C)[C@H]([NH3+])C(=O)[O-]
REMARK SMILES IDX 3 1 4 2 5 3 6 4 7 8 8 9 9 10 2 11 1 12
REMARK H PARENT 6 5 6 6 6 7
REMARK Flexibility Score: inf
ROOT
ATOM      1  C   UNL     1      65.863  -4.575   3.355  1.00  0.00     0.050 C 
ATOM      2  C   UNL     1      65.725  -6.091   3.582  1.00  0.00     0.014 C 
ENDROOT
BRANCH   1   3
ATOM      3  C   UNL     1      65.836  -4.190   1.839  1.00  0.00     0.230 C 
BRANCH   3   4
ATOM      4  N   UNL     1      65.513  -5.346   0.991  1.00  0.00    -0.350 N 
ATOM      5  H   UNL     1      65.983  -5.250   0.061  1.00  0.00     0.345 HD
ATOM      6  H   UNL     1      65.867  -6.223   1.442  1.00  0.00     0.345 HD
ATOM      7  H   UNL     1      64.482  -5.437   0.847  1.00  0.00     0.345 HD
ENDBRANCH   3   4
BRANCH   3   8
ATOM      8  C   UNL     1      67.082  -3.480   1.355  1.00  0.00     0.099 C 
ATOM      9  O   UNL     1      67.529  -3.672   0.192  1.00  0.00    -0.544 OA
ATOM     10  O   UNL     1      67.724  -2.569   2.183  1.00  0.00    -0.544 OA
ENDBRANCH   3   8
ENDBRANCH   1   3
BRANCH   1  11
ATOM     11  C   UNL     1      64.928  -3.762   4.289  1.00  0.00     0.006 C 
ATOM     12  C   UNL     1      64.474  -2.403   3.753  1.00  0.00     0.004 C 
ENDBRANCH   1  11
TORSDOF 4
ENDMDL
MODEL 7
REMARK VINA RESULT:    -3.432      1.766      2.543
REMARK INTER + INTRA:          -4.203
REMARK INTER:                  -4.084
REMARK INTRA:                  -0.119
REMARK UNBOUND:                -0.070
REMARK SMILES CC[C@@H](C)[C@H]([NH3+])C(=O)[O-]
REMARK SMILES IDX 3 1 4 2 5 3 6 4 7 8 8 9 9 10 2 11 1 12
REMARK H PARENT 6 5 6 6 6 7
REMARK Flexibility Score: inf
ROOT
ATOM      1  C   UNL     1      66.943  -1.814   4.554  1.00  0.00     0.050 C 
ATOM      2  C   UNL     1      67.827  -1.769   3.294  1.00  0.00     0.014 C 
ENDROOT
BRANCH   1   3
ATOM      3  C   UNL     1      65.579  -2.535   4.305  1.00  0.00     0.230 C 
BRANCH   3   4
ATOM      4  N   UNL     1      65.579  -3.277   3.036  1.00  0.00    -0.350 N 
ATOM      5  H   UNL     1      65.241  -2.661   2.260  1.00  0.00     0.345 HD
ATOM      6  H   UNL     1      66.556  -3.579   2.806  1.00  0.00     0.345 HD
ATOM      7  H   UNL     1      64.971  -4.125   3.091  1.00  0.00     0.345 HD
ENDBRANCH   3   4
BRANCH   3   8
ATOM      8  C   UNL     1      64.368  -1.632   4.415  1.00  0.00     0.099 C 
ATOM      9  O   UNL     1      64.216  -0.867   5.406  1.00  0.00    -0.544 OA
ATOM     10  O   UNL     1      63.428  -1.608   3.393  1.00  0.00    -0.544 OA
ENDBRANCH   3   8
ENDBRANCH   1   3
BRANCH   1  11
ATOM     11  C   UNL     1      67.743  -2.264   5.806  1.00  0.00     0.006 C 
ATOM     12  C   UNL     1      66.978  -2.221   7.130  1.00  0.00     0.004 C 
ENDBRANCH   1  11
TORSDOF 4
ENDMDL
MODEL 8
REMARK VINA RESULT:    -3.425      1.406      2.078
REMARK INTER + INTRA:          -4.195
REMARK INTER:                  -4.106
REMARK INTRA:                  -0.089
REMARK UNBOUND:                -0.070
REMARK SMILES CC[C@@H](C)[C@H]([NH3+])C(=O)[O-]
REMARK SMILES IDX 3 1 4 2 5 3 6 4 7 8 8 9 9 10 2 11 1 12
REMARK H PARENT 6 5 6 6 6 7
REMARK Flexibility Score: inf
ROOT
ATOM      1  C   UNL     1      66.696  -2.916   4.596  1.00  0.00     0.050 C 
ATOM      2  C   UNL     1      66.550  -1.654   5.463  1.00  0.00     0.014 C 
ENDROOT
BRANCH   1   3
ATOM      3  C   UNL     1      65.319  -3.575   4.256  1.00  0.00     0.230 C 
BRANCH   3   4
ATOM      4  N   UNL     1      65.456  -5.015   3.994  1.00  0.00    -0.350 N 
ATOM      5  H   UNL     1      64.511  -5.447   3.870  1.00  0.00     0.345 HD
ATOM      6  H   UNL     1      65.996  -5.161   3.109  1.00  0.00     0.345 HD
ATOM      7  H   UNL     1      65.954  -5.498   4.774  1.00  0.00     0.345 HD
ENDBRANCH   3   4
BRANCH   3   8
ATOM      8  C   UNL     1      64.554  -2.882   3.149  1.00  0.00     0.099 C 
ATOM      9  O   UNL     1      64.607  -3.299   1.961  1.00  0.00    -0.544 OA
ATOM     10  O   UNL     1      63.743  -1.794   3.446  1.00  0.00    -0.544 OA
ENDBRANCH   3   8
ENDBRANCH   1   3
BRANCH   1  11
ATOM     11  C   UNL     1      67.665  -2.690   3.404  1.00  0.00     0.006 C 
ATOM     12  C   UNL     1      68.247  -1.281   3.281  1.00  0.00     0.004 C 
ENDBRANCH   1  11
TORSDOF 4
ENDMDL
MODEL 9
REMARK VINA RESULT:    -3.378      2.172      2.940
REMARK INTER + INTRA:          -4.138
REMARK INTER:                  -4.029
REMARK INTRA:                  -0.110
REMARK UNBOUND:                -0.070
REMARK SMILES CC[C@@H](C)[C@H]([NH3+])C(=O)[O-]
REMARK SMILES IDX 3 1 4 2 5 3 6 4 7 8 8 9 9 10 2 11 1 12
REMARK H PARENT 6 5 6 6 6 7
REMARK Flexibility Score: inf
ROOT
ATOM      1  C   UNL     1      66.613  -2.300   5.353  1.00  0.00     0.050 C 
ATOM      2  C   UNL     1      66.414  -1.616   6.717  1.00  0.00     0.014 C 
ENDROOT
BRANCH   1   3
ATOM      3  C   UNL     1      65.446  -2.004   4.356  1.00  0.00     0.230 C 
BRANCH   3   4
ATOM      4  N   UNL     1      64.367  -1.235   4.994  1.00  0.00    -0.350 N 
ATOM      5  H   UNL     1      63.612  -1.881   5.320  1.00  0.00     0.345 HD
ATOM      6  H   UNL     1      64.744  -0.731   5.831  1.00  0.00     0.345 HD
ATOM      7  H   UNL     1      63.960  -0.533   4.336  1.00  0.00     0.345 HD
ENDBRANCH   3   4
BRANCH   3   8
ATOM      8  C   UNL     1      64.906  -3.229   3.648  1.00  0.00     0.099 C 
ATOM      9  O   UNL     1      64.802  -4.333   4.246  1.00  0.00    -0.544 OA
ATOM     10  O   UNL     1      64.475  -3.131   2.331  1.00  0.00    -0.544 OA
ENDBRANCH   3   8
ENDBRANCH   1   3
BRANCH   1  11
ATOM     11  C   UNL     1      68.052  -2.099   4.809  1.00  0.00     0.006 C 
ATOM     12  C   UNL     1      68.155  -1.407   3.448  1.00  0.00     0.004 C 
ENDBRANCH   1  11
TORSDOF 4
ENDMDL
