MODEL 1
REMARK VINA RESULT:    -5.576      0.000      0.000
REMARK INTER + INTRA:          -6.679
REMARK INTER:                  -6.554
REMARK INTRA:                  -0.125
REMARK UNBOUND:                -0.125
REMARK SMILES O=C([O-])C=Cc1ccc(O)c(O)c1
REMARK SMILES IDX 6 1 13 2 7 3 11 4 8 5 9 6 5 7 4 8 2 9 1 10 3 11 12 12 10 14
REMARK H PARENT 12 13 10 15
REMARK Flexibility Score: inf
ROOT
ATOM      1  C   UNL     1       8.749  15.691 -21.663  1.00  0.00    -0.022 A 
ATOM      2  C   UNL     1       8.500  16.998 -21.198  1.00  0.00     0.058 A 
ATOM      3  C   UNL     1       8.874  14.652 -20.728  1.00  0.00     0.012 A 
ATOM      4  C   UNL     1       8.353  17.252 -19.826  1.00  0.00     0.157 A 
ATOM      5  C   UNL     1       8.726  14.903 -19.361  1.00  0.00     0.051 A 
ATOM      6  C   UNL     1       8.463  16.197 -18.905  1.00  0.00     0.157 A 
ENDROOT
BRANCH   1   7
ATOM      7  C   UNL     1       8.925  15.374 -23.102  1.00  0.00     0.010 C 
ATOM      8  C   UNL     1       9.737  16.060 -23.921  1.00  0.00     0.025 C 
BRANCH   8   9
ATOM      9  C   UNL     1       9.877  15.726 -25.349  1.00  0.00     0.064 C 
ATOM     10  O   UNL     1       8.884  15.751 -26.125  1.00  0.00    -0.545 OA
ATOM     11  O   UNL     1      11.124  15.375 -25.847  1.00  0.00    -0.545 OA
ENDBRANCH   8   9
ENDBRANCH   1   7
BRANCH   4  12
ATOM     12  O   UNL     1       8.103  18.547 -19.376  1.00  0.00    -0.504 OA
ATOM     13  H   UNL     1       8.311  18.830 -18.426  1.00  0.00     0.293 HD
ENDBRANCH   4  12
BRANCH   6  14
ATOM     14  O   UNL     1       8.318  16.417 -17.536  1.00  0.00    -0.504 OA
ATOM     15  H   UNL     1       7.433  16.688 -17.125  1.00  0.00     0.293 HD
ENDBRANCH   6  14
TORSDOF 4
ENDMDL
MODEL 2
REMARK VINA RESULT:    -5.429      0.846      1.939
REMARK INTER + INTRA:          -6.506
REMARK INTER:                  -6.372
REMARK INTRA:                  -0.134
REMARK UNBOUND:                -0.125
REMARK SMILES O=C([O-])C=Cc1ccc(O)c(O)c1
REMARK SMILES IDX 6 1 13 2 7 3 11 4 8 5 9 6 5 7 4 8 2 9 1 10 3 11 12 12 10 14
REMARK H PARENT 12 13 10 15
REMARK Flexibility Score: inf
ROOT
ATOM      1  C   UNL     1       8.786  15.593 -21.744  1.00  0.00    -0.022 A 
ATOM      2  C   UNL     1       8.936  14.528 -20.833  1.00  0.00     0.058 A 
ATOM      3  C   UNL     1       8.517  16.877 -21.246  1.00  0.00     0.012 A 
ATOM      4  C   UNL     1       8.845  14.753 -19.451  1.00  0.00     0.157 A 
ATOM      5  C   UNL     1       8.427  17.103 -19.870  1.00  0.00     0.051 A 
ATOM      6  C   UNL     1       8.593  16.048 -18.969  1.00  0.00     0.157 A 
ENDROOT
BRANCH   1   7
ATOM      7  C   UNL     1       8.860  15.404 -23.214  1.00  0.00     0.010 C 
ATOM      8  C   UNL     1       9.875  15.847 -23.971  1.00  0.00     0.025 C 
BRANCH   8   9
ATOM      9  C   UNL     1       9.910  15.653 -25.430  1.00  0.00     0.064 C 
ATOM     10  O   UNL     1       8.863  15.741 -26.125  1.00  0.00    -0.545 OA
ATOM     11  O   UNL     1      11.118  15.366 -26.051  1.00  0.00    -0.545 OA
ENDBRANCH   8   9
ENDBRANCH   1   7
BRANCH   4  12
ATOM     12  O   UNL     1       8.999  13.694 -18.558  1.00  0.00    -0.504 OA
ATOM     13  H   UNL     1       8.940  12.729 -18.861  1.00  0.00     0.293 HD
ENDBRANCH   4  12
BRANCH   6  14
ATOM     14  O   UNL     1       8.501  16.303 -17.601  1.00  0.00    -0.504 OA
ATOM     15  H   UNL     1       7.752  15.927 -17.033  1.00  0.00     0.293 HD
ENDBRANCH   6  14
TORSDOF 4
ENDMDL
MODEL 3
REMARK VINA RESULT:    -5.254     10.639     13.989
REMARK INTER + INTRA:          -6.301
REMARK INTER:                  -6.177
REMARK INTRA:                  -0.124
REMARK UNBOUND:                -0.125
REMARK SMILES O=C([O-])C=Cc1ccc(O)c(O)c1
REMARK SMILES IDX 6 1 13 2 7 3 11 4 8 5 9 6 5 7 4 8 2 9 1 10 3 11 12 12 10 14
REMARK H PARENT 12 13 10 15
REMARK Flexibility Score: inf
ROOT
ATOM      1  C   UNL     1       7.052   8.321 -12.405  1.00  0.00    -0.022 A 
ATOM      2  C   UNL     1       6.537   7.132 -12.958  1.00  0.00     0.058 A 
ATOM      3  C   UNL     1       7.789   9.187 -13.229  1.00  0.00     0.012 A 
ATOM      4  C   UNL     1       6.735   6.830 -14.315  1.00  0.00     0.157 A 
ATOM      5  C   UNL     1       7.985   8.889 -14.580  1.00  0.00     0.051 A 
ATOM      6  C   UNL     1       7.460   7.716 -15.128  1.00  0.00     0.157 A 
ENDROOT
BRANCH   1   7
ATOM      7  C   UNL     1       6.880   8.678 -10.976  1.00  0.00     0.010 C 
ATOM      8  C   UNL     1       7.219   7.869  -9.961  1.00  0.00     0.025 C 
BRANCH   8   9
ATOM      9  C   UNL     1       7.022   8.250  -8.552  1.00  0.00     0.064 C 
ATOM     10  O   UNL     1       5.875   8.248  -8.030  1.00  0.00    -0.545 OA
ATOM     11  O   UNL     1       8.119   8.621  -7.787  1.00  0.00    -0.545 OA
ENDBRANCH   8   9
ENDBRANCH   1   7
BRANCH   4  12
ATOM     12  O   UNL     1       6.218   5.652 -14.853  1.00  0.00    -0.504 OA
ATOM     13  H   UNL     1       6.734   5.108 -15.533  1.00  0.00     0.293 HD
ENDBRANCH   4  12
BRANCH   6  14
ATOM     14  O   UNL     1       7.670   7.446 -16.480  1.00  0.00    -0.504 OA
ATOM     15  H   UNL     1       7.399   8.097 -17.208  1.00  0.00     0.293 HD
ENDBRANCH   6  14
TORSDOF 4
ENDMDL
MODEL 4
REMARK VINA RESULT:    -5.127      2.545      5.692
REMARK INTER + INTRA:          -6.151
REMARK INTER:                  -6.025
REMARK INTRA:                  -0.127
REMARK UNBOUND:                -0.125
REMARK SMILES O=C([O-])C=Cc1ccc(O)c(O)c1
REMARK SMILES IDX 6 1 13 2 7 3 11 4 8 5 9 6 5 7 4 8 2 9 1 10 3 11 12 12 10 14
REMARK H PARENT 12 13 10 15
REMARK Flexibility Score: inf
ROOT
ATOM      1  C   UNL     1       9.064  16.682 -19.579  1.00  0.00    -0.022 A 
ATOM      2  C   UNL     1       8.707  16.538 -20.934  1.00  0.00     0.058 A 
ATOM      3  C   UNL     1       9.349  15.531 -18.828  1.00  0.00     0.012 A 
ATOM      4  C   UNL     1       8.662  15.268 -21.530  1.00  0.00     0.157 A 
ATOM      5  C   UNL     1       9.307  14.266 -19.420  1.00  0.00     0.051 A 
ATOM      6  C   UNL     1       8.968  14.129 -20.769  1.00  0.00     0.157 A 
ENDROOT
BRANCH   1   7
ATOM      7  C   UNL     1       9.113  18.001 -18.901  1.00  0.00     0.010 C 
ATOM      8  C   UNL     1       8.036  18.775 -18.701  1.00  0.00     0.025 C 
BRANCH   8   9
ATOM      9  C   UNL     1       8.123  20.086 -18.035  1.00  0.00     0.064 C 
ATOM     10  O   UNL     1       9.150  20.807 -18.148  1.00  0.00    -0.545 OA
ATOM     11  O   UNL     1       7.056  20.533 -17.268  1.00  0.00    -0.545 OA
ENDBRANCH   8   9
ENDBRANCH   1   7
BRANCH   4  12
ATOM     12  O   UNL     1       8.311  15.137 -22.873  1.00  0.00    -0.504 OA
ATOM     13  H   UNL     1       8.797  14.496 -23.489  1.00  0.00     0.293 HD
ENDBRANCH   4  12
BRANCH   6  14
ATOM     14  O   UNL     1       8.937  12.854 -21.333  1.00  0.00    -0.504 OA
ATOM     15  H   UNL     1       8.096  12.468 -21.746  1.00  0.00     0.293 HD
ENDBRANCH   6  14
TORSDOF 4
ENDMDL
MODEL 5
REMARK VINA RESULT:    -4.994      2.775      3.756
REMARK INTER + INTRA:          -5.995
REMARK INTER:                  -5.869
REMARK INTRA:                  -0.126
REMARK UNBOUND:                -0.125
REMARK SMILES O=C([O-])C=Cc1ccc(O)c(O)c1
REMARK SMILES IDX 6 1 13 2 7 3 11 4 8 5 9 6 5 7 4 8 2 9 1 10 3 11 12 12 10 14
REMARK H PARENT 12 13 10 15
REMARK Flexibility Score: inf
ROOT
ATOM      1  C   UNL     1       8.194  17.917 -19.130  1.00  0.00    -0.022 A 
ATOM      2  C   UNL     1       8.903  19.119 -18.939  1.00  0.00     0.058 A 
ATOM      3  C   UNL     1       7.005  17.711 -18.412  1.00  0.00     0.012 A 
ATOM      4  C   UNL     1       8.417  20.105 -18.066  1.00  0.00     0.157 A 
ATOM      5  C   UNL     1       6.519  18.692 -17.544  1.00  0.00     0.051 A 
ATOM      6  C   UNL     1       7.217  19.889 -17.370  1.00  0.00     0.157 A 
ENDROOT
BRANCH   1   7
ATOM      7  C   UNL     1       8.674  16.840 -20.031  1.00  0.00     0.010 C 
ATOM      8  C   UNL     1       8.522  16.862 -21.363  1.00  0.00     0.025 C 
BRANCH   8   9
ATOM      9  C   UNL     1       9.000  15.769 -22.227  1.00  0.00     0.064 C 
ATOM     10  O   UNL     1       8.759  14.564 -21.947  1.00  0.00    -0.545 OA
ATOM     11  O   UNL     1       9.730  16.071 -23.368  1.00  0.00    -0.545 OA
ENDBRANCH   8   9
ENDBRANCH   1   7
BRANCH   4  12
ATOM     12  O   UNL     1       9.124  21.293 -17.887  1.00  0.00    -0.504 OA
ATOM     13  H   UNL     1      10.063  21.412 -18.248  1.00  0.00     0.293 HD
ENDBRANCH   4  12
BRANCH   6  14
ATOM     14  O   UNL     1       6.706  20.851 -16.498  1.00  0.00    -0.504 OA
ATOM     15  H   UNL     1       5.729  21.119 -16.505  1.00  0.00     0.293 HD
ENDBRANCH   6  14
TORSDOF 4
ENDMDL
MODEL 6
REMARK VINA RESULT:    -4.858      8.889     12.363
REMARK INTER + INTRA:          -5.834
REMARK INTER:                  -5.703
REMARK INTRA:                  -0.132
REMARK UNBOUND:                -0.125
REMARK SMILES O=C([O-])C=Cc1ccc(O)c(O)c1
REMARK SMILES IDX 6 1 13 2 7 3 11 4 8 5 9 6 5 7 4 8 2 9 1 10 3 11 12 12 10 14
REMARK H PARENT 12 13 10 15
REMARK Flexibility Score: inf
ROOT
ATOM      1  C   UNL     1       7.592   9.616 -13.205  1.00  0.00    -0.022 A 
ATOM      2  C   UNL     1       8.270   9.038 -14.296  1.00  0.00     0.058 A 
ATOM      3  C   UNL     1       7.681  11.004 -13.011  1.00  0.00     0.012 A 
ATOM      4  C   UNL     1       8.999   9.838 -15.190  1.00  0.00     0.157 A 
ATOM      5  C   UNL     1       8.405  11.802 -13.901  1.00  0.00     0.051 A 
ATOM      6  C   UNL     1       9.062  11.227 -14.991  1.00  0.00     0.157 A 
ENDROOT
BRANCH   1   7
ATOM      7  C   UNL     1       6.820   8.811 -12.227  1.00  0.00     0.010 C 
ATOM      8  C   UNL     1       7.232   8.566 -10.974  1.00  0.00     0.025 C 
BRANCH   8   9
ATOM      9  C   UNL     1       6.445   7.751 -10.033  1.00  0.00     0.064 C 
ATOM     10  O   UNL     1       5.898   6.677 -10.400  1.00  0.00    -0.545 OA
ATOM     11  O   UNL     1       6.301   8.175  -8.719  1.00  0.00    -0.545 OA
ENDBRANCH   8   9
ENDBRANCH   1   7
BRANCH   4  12
ATOM     12  O   UNL     1       9.663   9.257 -16.269  1.00  0.00    -0.504 OA
ATOM     13  H   UNL     1      10.062   9.818 -17.012  1.00  0.00     0.293 HD
ENDBRANCH   4  12
BRANCH   6  14
ATOM     14  O   UNL     1       9.775  12.049 -15.863  1.00  0.00    -0.504 OA
ATOM     15  H   UNL     1      10.370  12.798 -15.531  1.00  0.00     0.293 HD
ENDBRANCH   6  14
TORSDOF 4
ENDMDL
MODEL 7
REMARK VINA RESULT:    -4.844      9.639     11.612
REMARK INTER + INTRA:          -5.818
REMARK INTER:                  -5.695
REMARK INTRA:                  -0.123
REMARK UNBOUND:                -0.125
REMARK SMILES O=C([O-])C=Cc1ccc(O)c(O)c1
REMARK SMILES IDX 6 1 13 2 7 3 11 4 8 5 9 6 5 7 4 8 2 9 1 10 3 11 12 12 10 14
REMARK H PARENT 12 13 10 15
REMARK Flexibility Score: inf
ROOT
ATOM      1  C   UNL     1       7.093   8.030 -14.006  1.00  0.00    -0.022 A 
ATOM      2  C   UNL     1       7.894   8.871 -14.804  1.00  0.00     0.058 A 
ATOM      3  C   UNL     1       6.701   8.476 -12.734  1.00  0.00     0.012 A 
ATOM      4  C   UNL     1       8.270  10.143 -14.347  1.00  0.00     0.157 A 
ATOM      5  C   UNL     1       7.074   9.743 -12.278  1.00  0.00     0.051 A 
ATOM      6  C   UNL     1       7.854  10.581 -13.079  1.00  0.00     0.157 A 
ENDROOT
BRANCH   1   7
ATOM      7  C   UNL     1       6.680   6.672 -14.440  1.00  0.00     0.010 C 
ATOM      8  C   UNL     1       7.450   5.862 -15.181  1.00  0.00     0.025 C 
BRANCH   8   9
ATOM      9  C   UNL     1       7.002   4.524 -15.605  1.00  0.00     0.064 C 
ATOM     10  O   UNL     1       5.877   4.355 -16.147  1.00  0.00    -0.545 OA
ATOM     11  O   UNL     1       7.833   3.431 -15.401  1.00  0.00    -0.545 OA
ENDBRANCH   8   9
ENDBRANCH   1   7
BRANCH   4  12
ATOM     12  O   UNL     1       9.059  10.970 -15.146  1.00  0.00    -0.504 OA
ATOM     13  H   UNL     1       8.767  11.247 -16.075  1.00  0.00     0.293 HD
ENDBRANCH   4  12
BRANCH   6  14
ATOM     14  O   UNL     1       8.208  11.841 -12.598  1.00  0.00    -0.504 OA
ATOM     15  H   UNL     1       8.439  12.608 -13.217  1.00  0.00     0.293 HD
ENDBRANCH   6  14
TORSDOF 4
ENDMDL
MODEL 8
REMARK VINA RESULT:    -4.839      3.240      5.507
REMARK INTER + INTRA:          -5.812
REMARK INTER:                  -5.690
REMARK INTRA:                  -0.123
REMARK UNBOUND:                -0.125
REMARK SMILES O=C([O-])C=Cc1ccc(O)c(O)c1
REMARK SMILES IDX 6 1 13 2 7 3 11 4 8 5 9 6 5 7 4 8 2 9 1 10 3 11 12 12 10 14
REMARK H PARENT 12 13 10 15
REMARK Flexibility Score: inf
ROOT
ATOM      1  C   UNL     1       8.514  15.600 -20.017  1.00  0.00    -0.022 A 
ATOM      2  C   UNL     1       8.936  14.732 -18.990  1.00  0.00     0.058 A 
ATOM      3  C   UNL     1       8.492  15.125 -21.337  1.00  0.00     0.012 A 
ATOM      4  C   UNL     1       9.302  13.408 -19.279  1.00  0.00     0.157 A 
ATOM      5  C   UNL     1       8.854  13.807 -21.627  1.00  0.00     0.051 A 
ATOM      6  C   UNL     1       9.257  12.945 -20.604  1.00  0.00     0.157 A 
ENDROOT
BRANCH   1   7
ATOM      7  C   UNL     1       8.129  17.010 -19.763  1.00  0.00     0.010 C 
ATOM      8  C   UNL     1       8.737  17.797 -18.863  1.00  0.00     0.025 C 
BRANCH   8   9
ATOM      9  C   UNL     1       8.320  19.190 -18.628  1.00  0.00     0.064 C 
ATOM     10  O   UNL     1       9.168  20.100 -18.428  1.00  0.00    -0.545 OA
ATOM     11  O   UNL     1       6.967  19.505 -18.624  1.00  0.00    -0.545 OA
ENDBRANCH   8   9
ENDBRANCH   1   7
BRANCH   4  12
ATOM     12  O   UNL     1       9.714  12.556 -18.255  1.00  0.00    -0.504 OA
ATOM     13  H   UNL     1       9.073  12.235 -17.540  1.00  0.00     0.293 HD
ENDBRANCH   4  12
BRANCH   6  14
ATOM     14  O   UNL     1       9.611  11.634 -20.922  1.00  0.00    -0.504 OA
ATOM     15  H   UNL     1       8.923  10.942 -21.193  1.00  0.00     0.293 HD
ENDBRANCH   6  14
TORSDOF 4
ENDMDL
MODEL 9
REMARK VINA RESULT:    -4.826      2.897      3.931
REMARK INTER + INTRA:          -5.798
REMARK INTER:                  -5.663
REMARK INTRA:                  -0.135
REMARK UNBOUND:                -0.125
REMARK SMILES O=C([O-])C=Cc1ccc(O)c(O)c1
REMARK SMILES IDX 6 1 13 2 7 3 11 4 8 5 9 6 5 7 4 8 2 9 1 10 3 11 12 12 10 14
REMARK H PARENT 12 13 10 15
REMARK Flexibility Score: inf
ROOT
ATOM      1  C   UNL     1       8.914  13.851 -20.498  1.00  0.00    -0.022 A 
ATOM      2  C   UNL     1       9.210  12.473 -20.517  1.00  0.00     0.058 A 
ATOM      3  C   UNL     1       8.973  14.540 -19.277  1.00  0.00     0.012 A 
ATOM      4  C   UNL     1       9.583  11.807 -19.339  1.00  0.00     0.157 A 
ATOM      5  C   UNL     1       9.346  13.878 -18.104  1.00  0.00     0.051 A 
ATOM      6  C   UNL     1       9.654  12.516 -18.129  1.00  0.00     0.157 A 
ENDROOT
BRANCH   1   7
ATOM      7  C   UNL     1       8.502  14.596 -21.714  1.00  0.00     0.010 C 
ATOM      8  C   UNL     1       9.151  15.673 -22.181  1.00  0.00     0.025 C 
BRANCH   8   9
ATOM      9  C   UNL     1       8.706  16.396 -23.385  1.00  0.00     0.064 C 
ATOM     10  O   UNL     1       8.109  17.502 -23.297  1.00  0.00    -0.545 OA
ATOM     11  O   UNL     1       8.947  15.848 -24.638  1.00  0.00    -0.545 OA
ENDBRANCH   8   9
ENDBRANCH   1   7
BRANCH   4  12
ATOM     12  O   UNL     1       9.878  10.445 -19.368  1.00  0.00    -0.504 OA
ATOM     13  H   UNL     1       9.307   9.767 -18.878  1.00  0.00     0.293 HD
ENDBRANCH   4  12
BRANCH   6  14
ATOM     14  O   UNL     1      10.026  11.883 -16.943  1.00  0.00    -0.504 OA
ATOM     15  H   UNL     1      10.773  11.201 -16.908  1.00  0.00     0.293 HD
ENDBRANCH   6  14
TORSDOF 4
ENDMDL
