MODEL 1
REMARK VINA RESULT:    -3.408      0.000      0.000
REMARK INTER + INTRA:          -3.507
REMARK INTER:                  -3.507
REMARK INTRA:                   0.000
REMARK UNBOUND:                 0.000
REMARK SMILES Oc1ccc2[nH]ccc2c1
REMARK SMILES IDX 3 1 4 2 5 3 9 4 8 5 7 6 6 7 10 8 2 9 1 11
REMARK H PARENT 6 10 1 12
REMARK Flexibility Score: inf
ROOT
ATOM      1  C   UNL     1      31.240  20.998  26.875  1.00  0.00     0.048 A 
ATOM      2  C   UNL     1      32.498  21.560  27.166  1.00  0.00     0.030 A 
ATOM      3  C   UNL     1      32.552  22.576  28.120  1.00  0.00     0.046 A 
ATOM      4  C   UNL     1      31.426  23.022  28.760  1.00  0.00     0.003 A 
ATOM      5  C   UNL     1      31.814  24.017  29.631  1.00  0.00     0.028 A 
ATOM      6  C   UNL     1      33.192  24.125  29.467  1.00  0.00     0.083 A 
ATOM      7  N   UNL     1      33.637  23.242  28.544  1.00  0.00    -0.361 N 
ATOM      8  C   UNL     1      30.167  22.487  28.495  1.00  0.00     0.056 A 
ATOM      9  C   UNL     1      30.075  21.459  27.537  1.00  0.00     0.116 A 
ATOM     10  H   UNL     1      34.624  23.110  28.228  1.00  0.00     0.166 HD
ENDROOT
BRANCH   9  11
ATOM     11  O   UNL     1      28.832  20.902  27.249  1.00  0.00    -0.508 OA
ATOM     12  H   UNL     1      28.016  21.109  27.813  1.00  0.00     0.293 HD
ENDBRANCH   9  11
TORSDOF 1
ENDMDL
MODEL 2
REMARK VINA RESULT:    -3.106      1.017      2.100
REMARK INTER + INTRA:          -3.197
REMARK INTER:                  -3.197
REMARK INTRA:                   0.000
REMARK UNBOUND:                 0.000
REMARK SMILES Oc1ccc2[nH]ccc2c1
REMARK SMILES IDX 3 1 4 2 5 3 9 4 8 5 7 6 6 7 10 8 2 9 1 11
REMARK H PARENT 6 10 1 12
REMARK Flexibility Score: inf
ROOT
ATOM      1  C   UNL     1      30.043  22.517  28.594  1.00  0.00     0.048 A 
ATOM      2  C   UNL     1      31.069  23.384  29.013  1.00  0.00     0.030 A 
ATOM      3  C   UNL     1      32.291  23.316  28.347  1.00  0.00     0.046 A 
ATOM      4  C   UNL     1      32.501  22.440  27.315  1.00  0.00     0.003 A 
ATOM      5  C   UNL     1      33.795  22.621  26.876  1.00  0.00     0.028 A 
ATOM      6  C   UNL     1      34.315  23.624  27.688  1.00  0.00     0.083 A 
ATOM      7  N   UNL     1      33.393  24.045  28.583  1.00  0.00    -0.361 N 
ATOM      8  C   UNL     1      31.506  21.568  26.875  1.00  0.00     0.056 A 
ATOM      9  C   UNL     1      30.258  21.610  27.526  1.00  0.00     0.116 A 
ATOM     10  H   UNL     1      33.518  24.787  29.309  1.00  0.00     0.166 HD
ENDROOT
BRANCH   9  11
ATOM     11  O   UNL     1      29.242  20.753  27.112  1.00  0.00    -0.508 OA
ATOM     12  H   UNL     1      28.519  21.061  26.471  1.00  0.00     0.293 HD
ENDBRANCH   9  11
TORSDOF 1
ENDMDL
MODEL 3
REMARK VINA RESULT:    -2.935      2.619      4.091
REMARK INTER + INTRA:          -3.021
REMARK INTER:                  -3.021
REMARK INTRA:                   0.000
REMARK UNBOUND:                 0.000
REMARK SMILES Oc1ccc2[nH]ccc2c1
REMARK SMILES IDX 3 1 4 2 5 3 9 4 8 5 7 6 6 7 10 8 2 9 1 11
REMARK H PARENT 6 10 1 12
REMARK Flexibility Score: inf
ROOT
ATOM      1  C   UNL     1      32.045  24.104  29.757  1.00  0.00     0.048 A 
ATOM      2  C   UNL     1      30.783  23.598  29.391  1.00  0.00     0.030 A 
ATOM      3  C   UNL     1      30.738  22.617  28.401  1.00  0.00     0.046 A 
ATOM      4  C   UNL     1      31.875  22.152  27.795  1.00  0.00     0.003 A 
ATOM      5  C   UNL     1      31.492  21.201  26.875  1.00  0.00     0.028 A 
ATOM      6  C   UNL     1      30.106  21.138  26.974  1.00  0.00     0.083 A 
ATOM      7  N   UNL     1      29.650  22.005  27.907  1.00  0.00    -0.361 N 
ATOM      8  C   UNL     1      33.139  22.633  28.134  1.00  0.00     0.056 A 
ATOM      9  C   UNL     1      33.222  23.624  29.131  1.00  0.00     0.116 A 
ATOM     10  H   UNL     1      28.655  22.162  28.184  1.00  0.00     0.166 HD
ENDROOT
BRANCH   9  11
ATOM     11  O   UNL     1      34.470  24.125  29.494  1.00  0.00    -0.508 OA
ATOM     12  H   UNL     1      34.634  24.521  30.413  1.00  0.00     0.293 HD
ENDBRANCH   9  11
TORSDOF 1
ENDMDL
MODEL 4
REMARK VINA RESULT:    -2.365      2.096      2.927
REMARK INTER + INTRA:          -2.434
REMARK INTER:                  -2.434
REMARK INTRA:                   0.000
REMARK UNBOUND:                 0.000
REMARK SMILES Oc1ccc2[nH]ccc2c1
REMARK SMILES IDX 3 1 4 2 5 3 9 4 8 5 7 6 6 7 10 8 2 9 1 11
REMARK H PARENT 6 10 1 12
REMARK Flexibility Score: inf
ROOT
ATOM      1  C   UNL     1      30.968  22.869  28.683  1.00  0.00     0.048 A 
ATOM      2  C   UNL     1      31.855  22.492  27.658  1.00  0.00     0.030 A 
ATOM      3  C   UNL     1      33.172  22.944  27.738  1.00  0.00     0.046 A 
ATOM      4  C   UNL     1      33.602  23.729  28.775  1.00  0.00     0.003 A 
ATOM      5  C   UNL     1      34.935  24.001  28.561  1.00  0.00     0.028 A 
ATOM      6  C   UNL     1      35.252  23.348  27.374  1.00  0.00     0.083 A 
ATOM      7  N   UNL     1      34.172  22.704  26.876  1.00  0.00    -0.361 N 
ATOM      8  C   UNL     1      32.749  24.120  29.805  1.00  0.00     0.056 A 
ATOM      9  C   UNL     1      31.411  23.681  29.757  1.00  0.00     0.116 A 
ATOM     10  H   UNL     1      34.129  22.137  25.999  1.00  0.00     0.166 HD
ENDROOT
BRANCH   9  11
ATOM     11  O   UNL     1      30.532  24.054  30.771  1.00  0.00    -0.508 OA
ATOM     12  H   UNL     1      29.564  24.281  30.574  1.00  0.00     0.293 HD
ENDBRANCH   9  11
TORSDOF 1
ENDMDL
MODEL 5
REMARK VINA RESULT:    -2.048      3.028      3.807
REMARK INTER + INTRA:          -2.107
REMARK INTER:                  -2.107
REMARK INTRA:                   0.000
REMARK UNBOUND:                 0.000
REMARK SMILES Oc1ccc2[nH]ccc2c1
REMARK SMILES IDX 3 1 4 2 5 3 9 4 8 5 7 6 6 7 10 8 2 9 1 11
REMARK H PARENT 6 10 1 12
REMARK Flexibility Score: inf
ROOT
ATOM      1  C   UNL     1      34.337  22.842  26.875  1.00  0.00     0.048 A 
ATOM      2  C   UNL     1      32.963  22.554  26.964  1.00  0.00     0.030 A 
ATOM      3  C   UNL     1      32.264  23.049  28.065  1.00  0.00     0.046 A 
ATOM      4  C   UNL     1      32.883  23.793  29.035  1.00  0.00     0.003 A 
ATOM      5  C   UNL     1      31.928  24.125  29.971  1.00  0.00     0.028 A 
ATOM      6  C   UNL     1      30.750  23.549  29.507  1.00  0.00     0.083 A 
ATOM      7  N   UNL     1      30.960  22.894  28.343  1.00  0.00    -0.361 N 
ATOM      8  C   UNL     1      34.242  24.096  28.976  1.00  0.00     0.056 A 
ATOM      9  C   UNL     1      34.978  23.612  27.877  1.00  0.00     0.116 A 
ATOM     10  H   UNL     1      30.251  22.373  27.779  1.00  0.00     0.166 HD
ENDROOT
BRANCH   9  11
ATOM     11  O   UNL     1      36.339  23.897  27.788  1.00  0.00    -0.508 OA
ATOM     12  H   UNL     1      36.937  23.414  27.128  1.00  0.00     0.293 HD
ENDBRANCH   9  11
TORSDOF 1
ENDMDL
