MODEL 1
REMARK VINA RESULT:    -5.706      0.000      0.000
REMARK INTER + INTRA:          -6.598
REMARK INTER:                  -6.374
REMARK INTRA:                  -0.224
REMARK UNBOUND:                -0.224
REMARK SMILES O=C([O-])c1ccccc1C(=O)[O-]
REMARK SMILES IDX 4 1 9 2 5 3 8 4 6 5 7 6 2 7 1 8 3 9 10 10 11 11 12 12
REMARK H PARENT
REMARK Flexibility Score: inf
ROOT
ATOM      1  C   UNL     1     129.288 126.217 126.602  1.00  0.00     0.006 A 
ATOM      2  C   UNL     1     130.416 125.437 126.218  1.00  0.00     0.006 A 
ATOM      3  C   UNL     1     128.301 125.636 127.420  1.00  0.00     0.010 A 
ATOM      4  C   UNL     1     130.480 124.088 126.611  1.00  0.00     0.010 A 
ATOM      5  C   UNL     1     128.397 124.301 127.816  1.00  0.00     0.001 A 
ATOM      6  C   UNL     1     129.478 123.526 127.404  1.00  0.00     0.001 A 
ENDROOT
BRANCH   1   7
ATOM      7  C   UNL     1     129.063 127.602 126.126  1.00  0.00     0.072 C 
ATOM      8  O   UNL     1     129.339 128.588 126.859  1.00  0.00    -0.545 OA
ATOM      9  O   UNL     1     128.606 127.828 124.833  1.00  0.00    -0.545 OA
ENDBRANCH   1   7
BRANCH   2  10
ATOM     10  C   UNL     1     131.568 125.996 125.475  1.00  0.00     0.072 C 
ATOM     11  O   UNL     1     131.595 125.977 124.216  1.00  0.00    -0.545 OA
ATOM     12  O   UNL     1     132.606 126.615 126.163  1.00  0.00    -0.545 OA
ENDBRANCH   2  10
TORSDOF 2
ENDMDL
MODEL 2
REMARK VINA RESULT:    -5.705      0.033      3.141
REMARK INTER + INTRA:          -6.596
REMARK INTER:                  -6.376
REMARK INTRA:                  -0.221
REMARK UNBOUND:                -0.224
REMARK SMILES O=C([O-])c1ccccc1C(=O)[O-]
REMARK SMILES IDX 4 1 9 2 5 3 8 4 6 5 7 6 2 7 1 8 3 9 10 10 11 11 12 12
REMARK H PARENT
REMARK Flexibility Score: inf
ROOT
ATOM      1  C   UNL     1     130.421 125.450 126.204  1.00  0.00     0.006 A 
ATOM      2  C   UNL     1     129.288 126.227 126.578  1.00  0.00     0.006 A 
ATOM      3  C   UNL     1     130.494 124.106 126.613  1.00  0.00     0.010 A 
ATOM      4  C   UNL     1     128.305 125.649 127.403  1.00  0.00     0.010 A 
ATOM      5  C   UNL     1     129.496 123.547 127.412  1.00  0.00     0.001 A 
ATOM      6  C   UNL     1     128.409 124.320 127.815  1.00  0.00     0.001 A 
ENDROOT
BRANCH   1   7
ATOM      7  C   UNL     1     131.571 126.008 125.455  1.00  0.00     0.072 C 
ATOM      8  O   UNL     1     131.586 125.998 124.195  1.00  0.00    -0.545 OA
ATOM      9  O   UNL     1     132.620 126.613 126.137  1.00  0.00    -0.545 OA
ENDBRANCH   1   7
BRANCH   2  10
ATOM     10  C   UNL     1     129.055 127.604 126.086  1.00  0.00     0.072 C 
ATOM     11  O   UNL     1     129.322 128.601 126.808  1.00  0.00    -0.545 OA
ATOM     12  O   UNL     1     128.601 127.813 124.789  1.00  0.00    -0.545 OA
ENDBRANCH   2  10
TORSDOF 2
ENDMDL
MODEL 3
REMARK VINA RESULT:    -5.143      1.937      3.672
REMARK INTER + INTRA:          -5.969
REMARK INTER:                  -5.748
REMARK INTRA:                  -0.221
REMARK UNBOUND:                -0.224
REMARK SMILES O=C([O-])c1ccccc1C(=O)[O-]
REMARK SMILES IDX 4 1 9 2 5 3 8 4 6 5 7 6 2 7 1 8 3 9 10 10 11 11 12 12
REMARK H PARENT
REMARK Flexibility Score: inf
ROOT
ATOM      1  C   UNL     1     130.906 125.970 125.105  1.00  0.00     0.006 A 
ATOM      2  C   UNL     1     129.780 126.831 124.966  1.00  0.00     0.006 A 
ATOM      3  C   UNL     1     131.223 125.459 126.377  1.00  0.00     0.010 A 
ATOM      4  C   UNL     1     129.055 127.199 126.115  1.00  0.00     0.010 A 
ATOM      5  C   UNL     1     130.477 125.820 127.499  1.00  0.00     0.001 A 
ATOM      6  C   UNL     1     129.402 126.698 127.370  1.00  0.00     0.001 A 
ENDROOT
BRANCH   1   7
ATOM      7  C   UNL     1     131.810 125.635 123.980  1.00  0.00     0.072 C 
ATOM      8  O   UNL     1     132.813 126.352 123.724  1.00  0.00    -0.545 OA
ATOM      9  O   UNL     1     131.595 124.482 123.235  1.00  0.00    -0.545 OA
ENDBRANCH   1   7
BRANCH   2  10
ATOM     10  C   UNL     1     129.287 127.310 123.655  1.00  0.00     0.072 C 
ATOM     11  O   UNL     1     129.568 128.467 123.243  1.00  0.00    -0.545 OA
ATOM     12  O   UNL     1     128.562 126.458 122.829  1.00  0.00    -0.545 OA
ENDBRANCH   2  10
TORSDOF 2
ENDMDL
MODEL 4
REMARK VINA RESULT:    -5.032      2.750      3.758
REMARK INTER + INTRA:          -5.844
REMARK INTER:                  -5.617
REMARK INTRA:                  -0.227
REMARK UNBOUND:                -0.224
REMARK SMILES O=C([O-])c1ccccc1C(=O)[O-]
REMARK SMILES IDX 4 1 9 2 5 3 8 4 6 5 7 6 2 7 1 8 3 9 10 10 11 11 12 12
REMARK H PARENT
REMARK Flexibility Score: inf
ROOT
ATOM      1  C   UNL     1     130.067 126.891 124.489  1.00  0.00     0.006 A 
ATOM      2  C   UNL     1     130.190 127.244 125.863  1.00  0.00     0.006 A 
ATOM      3  C   UNL     1     131.129 126.219 123.858  1.00  0.00     0.010 A 
ATOM      4  C   UNL     1     131.396 126.969 126.534  1.00  0.00     0.010 A 
ATOM      5  C   UNL     1     132.308 125.937 124.549  1.00  0.00     0.001 A 
ATOM      6  C   UNL     1     132.445 126.321 125.881  1.00  0.00     0.001 A 
ENDROOT
BRANCH   1   7
ATOM      7  C   UNL     1     128.893 127.259 123.663  1.00  0.00     0.072 C 
ATOM      8  O   UNL     1     127.953 126.442 123.480  1.00  0.00    -0.545 OA
ATOM      9  O   UNL     1     128.787 128.540 123.135  1.00  0.00    -0.545 OA
ENDBRANCH   1   7
BRANCH   2  10
ATOM     10  C   UNL     1     129.080 127.830 126.649  1.00  0.00     0.072 C 
ATOM     11  O   UNL     1     128.923 129.078 126.711  1.00  0.00    -0.545 OA
ATOM     12  O   UNL     1     128.153 127.001 127.271  1.00  0.00    -0.545 OA
ENDBRANCH   2  10
TORSDOF 2
ENDMDL
MODEL 5
REMARK VINA RESULT:    -4.956      2.774      3.441
REMARK INTER + INTRA:          -5.760
REMARK INTER:                  -5.553
REMARK INTRA:                  -0.207
REMARK UNBOUND:                -0.224
REMARK SMILES O=C([O-])c1ccccc1C(=O)[O-]
REMARK SMILES IDX 4 1 9 2 5 3 8 4 6 5 7 6 2 7 1 8 3 9 10 10 11 11 12 12
REMARK H PARENT
REMARK Flexibility Score: inf
ROOT
ATOM      1  C   UNL     1     130.198 127.312 125.888  1.00  0.00     0.006 A 
ATOM      2  C   UNL     1     130.092 126.964 124.511  1.00  0.00     0.006 A 
ATOM      3  C   UNL     1     131.384 127.009 126.581  1.00  0.00     0.010 A 
ATOM      4  C   UNL     1     131.150 126.266 123.900  1.00  0.00     0.010 A 
ATOM      5  C   UNL     1     132.429 126.336 125.948  1.00  0.00     0.001 A 
ATOM      6  C   UNL     1     132.308 125.955 124.613  1.00  0.00     0.001 A 
ENDROOT
BRANCH   1   7
ATOM      7  C   UNL     1     129.087 127.925 126.654  1.00  0.00     0.072 C 
ATOM      8  O   UNL     1     128.991 129.176 126.761  1.00  0.00    -0.545 OA
ATOM      9  O   UNL     1     128.097 127.122 127.208  1.00  0.00    -0.545 OA
ENDBRANCH   1   7
BRANCH   2  10
ATOM     10  C   UNL     1     128.943 127.360 123.664  1.00  0.00     0.072 C 
ATOM     11  O   UNL     1     128.846 128.533 123.217  1.00  0.00    -0.545 OA
ATOM     12  O   UNL     1     127.992 126.416 123.296  1.00  0.00    -0.545 OA
ENDBRANCH   2  10
TORSDOF 2
ENDMDL
MODEL 6
REMARK VINA RESULT:    -4.937      2.144      3.714
REMARK INTER + INTRA:          -5.738
REMARK INTER:                  -5.509
REMARK INTRA:                  -0.229
REMARK UNBOUND:                -0.224
REMARK SMILES O=C([O-])c1ccccc1C(=O)[O-]
REMARK SMILES IDX 4 1 9 2 5 3 8 4 6 5 7 6 2 7 1 8 3 9 10 10 11 11 12 12
REMARK H PARENT
REMARK Flexibility Score: inf
ROOT
ATOM      1  C   UNL     1     129.464 126.094 125.719  1.00  0.00     0.006 A 
ATOM      2  C   UNL     1     130.143 127.317 125.991  1.00  0.00     0.006 A 
ATOM      3  C   UNL     1     128.573 126.034 124.631  1.00  0.00     0.010 A 
ATOM      4  C   UNL     1     129.854 128.448 125.206  1.00  0.00     0.010 A 
ATOM      5  C   UNL     1     128.319 127.164 123.852  1.00  0.00     0.001 A 
ATOM      6  C   UNL     1     128.950 128.371 124.146  1.00  0.00     0.001 A 
ENDROOT
BRANCH   1   7
ATOM      7  C   UNL     1     129.597 124.890 126.571  1.00  0.00     0.072 C 
ATOM      8  O   UNL     1     130.411 123.976 126.272  1.00  0.00    -0.545 OA
ATOM      9  O   UNL     1     128.871 124.787 127.751  1.00  0.00    -0.545 OA
ENDBRANCH   1   7
BRANCH   2  10
ATOM     10  C   UNL     1     131.196 127.442 127.024  1.00  0.00     0.072 C 
ATOM     11  O   UNL     1     130.932 127.922 128.159  1.00  0.00    -0.545 OA
ATOM     12  O   UNL     1     132.477 126.964 126.775  1.00  0.00    -0.545 OA
ENDBRANCH   2  10
TORSDOF 2
ENDMDL
MODEL 7
REMARK VINA RESULT:    -4.879      2.491      3.359
REMARK INTER + INTRA:          -5.674
REMARK INTER:                  -5.462
REMARK INTRA:                  -0.212
REMARK UNBOUND:                -0.224
REMARK SMILES O=C([O-])c1ccccc1C(=O)[O-]
REMARK SMILES IDX 4 1 9 2 5 3 8 4 6 5 7 6 2 7 1 8 3 9 10 10 11 11 12 12
REMARK H PARENT
REMARK Flexibility Score: inf
ROOT
ATOM      1  C   UNL     1     130.564 126.370 125.795  1.00  0.00     0.006 A 
ATOM      2  C   UNL     1     130.672 126.292 124.377  1.00  0.00     0.006 A 
ATOM      3  C   UNL     1     129.403 126.928 126.362  1.00  0.00     0.010 A 
ATOM      4  C   UNL     1     129.646 126.835 123.582  1.00  0.00     0.010 A 
ATOM      5  C   UNL     1     128.388 127.440 125.553  1.00  0.00     0.001 A 
ATOM      6  C   UNL     1     128.514 127.404 124.166  1.00  0.00     0.001 A 
ENDROOT
BRANCH   1   7
ATOM      7  C   UNL     1     131.649 125.952 126.712  1.00  0.00     0.072 C 
ATOM      8  O   UNL     1     131.598 124.843 127.308  1.00  0.00    -0.545 OA
ATOM      9  O   UNL     1     132.773 126.753 126.872  1.00  0.00    -0.545 OA
ENDBRANCH   1   7
BRANCH   2  10
ATOM     10  C   UNL     1     131.789 125.603 123.689  1.00  0.00     0.072 C 
ATOM     11  O   UNL     1     131.652 124.428 123.257  1.00  0.00    -0.545 OA
ATOM     12  O   UNL     1     132.982 126.276 123.452  1.00  0.00    -0.545 OA
ENDBRANCH   2  10
TORSDOF 2
ENDMDL
MODEL 8
REMARK VINA RESULT:    -4.879      2.172      3.586
REMARK INTER + INTRA:          -5.674
REMARK INTER:                  -5.444
REMARK INTRA:                  -0.229
REMARK UNBOUND:                -0.224
REMARK SMILES O=C([O-])c1ccccc1C(=O)[O-]
REMARK SMILES IDX 4 1 9 2 5 3 8 4 6 5 7 6 2 7 1 8 3 9 10 10 11 11 12 12
REMARK H PARENT
REMARK Flexibility Score: inf
ROOT
ATOM      1  C   UNL     1     130.147 127.219 126.160  1.00  0.00     0.006 A 
ATOM      2  C   UNL     1     129.443 126.025 125.833  1.00  0.00     0.006 A 
ATOM      3  C   UNL     1     129.892 128.388 125.419  1.00  0.00     0.010 A 
ATOM      4  C   UNL     1     128.562 126.029 124.737  1.00  0.00     0.010 A 
ATOM      5  C   UNL     1     128.996 128.374 124.349  1.00  0.00     0.001 A 
ATOM      6  C   UNL     1     128.341 127.194 124.001  1.00  0.00     0.001 A 
ENDROOT
BRANCH   1   7
ATOM      7  C   UNL     1     131.194 127.280 127.207  1.00  0.00     0.072 C 
ATOM      8  O   UNL     1     130.902 127.588 128.393  1.00  0.00    -0.545 OA
ATOM      9  O   UNL     1     132.503 126.929 126.903  1.00  0.00    -0.545 OA
ENDBRANCH   1   7
BRANCH   2  10
ATOM     10  C   UNL     1     129.542 124.785 126.637  1.00  0.00     0.072 C 
ATOM     11  O   UNL     1     130.383 123.893 126.346  1.00  0.00    -0.545 OA
ATOM     12  O   UNL     1     128.750 124.623 127.768  1.00  0.00    -0.545 OA
ENDBRANCH   2  10
TORSDOF 2
ENDMDL
MODEL 9
REMARK VINA RESULT:    -4.511      2.106      3.466
REMARK INTER + INTRA:          -5.263
REMARK INTER:                  -5.060
REMARK INTRA:                  -0.203
REMARK UNBOUND:                -0.224
REMARK SMILES O=C([O-])c1ccccc1C(=O)[O-]
REMARK SMILES IDX 4 1 9 2 5 3 8 4 6 5 7 6 2 7 1 8 3 9 10 10 11 11 12 12
REMARK H PARENT
REMARK Flexibility Score: inf
ROOT
ATOM      1  C   UNL     1     129.977 126.326 125.415  1.00  0.00     0.006 A 
ATOM      2  C   UNL     1     129.914 125.716 126.700  1.00  0.00     0.006 A 
ATOM      3  C   UNL     1     131.236 126.610 124.854  1.00  0.00     0.010 A 
ATOM      4  C   UNL     1     131.109 125.475 127.402  1.00  0.00     0.010 A 
ATOM      5  C   UNL     1     132.410 126.342 125.560  1.00  0.00     0.001 A 
ATOM      6  C   UNL     1     132.346 125.786 126.836  1.00  0.00     0.001 A 
ENDROOT
BRANCH   1   7
ATOM      7  C   UNL     1     128.774 126.743 124.657  1.00  0.00     0.072 C 
ATOM      8  O   UNL     1     128.302 126.013 123.745  1.00  0.00    -0.545 OA
ATOM      9  O   UNL     1     128.111 127.917 124.994  1.00  0.00    -0.545 OA
ENDBRANCH   1   7
BRANCH   2  10
ATOM     10  C   UNL     1     128.646 125.256 127.313  1.00  0.00     0.072 C 
ATOM     11  O   UNL     1     128.344 124.033 127.330  1.00  0.00    -0.545 OA
ATOM     12  O   UNL     1     127.806 126.168 127.942  1.00  0.00    -0.545 OA
ENDBRANCH   2  10
TORSDOF 2
ENDMDL
