MODEL 1
REMARK VINA RESULT:    -3.262      0.000      0.000
REMARK INTER + INTRA:          -8.125
REMARK INTER:                  -6.123
REMARK INTRA:                  -2.002
REMARK UNBOUND:                -2.002
REMARK SMILES O=C([O-])CCCCCCCCCCCCCCC(=O)[O-]
REMARK SMILES IDX 10 1 9 2 8 3 7 4 6 5 5 6 4 7 2 8 1 9 3 10 11 11 12 12 13 13
REMARK SMILES IDX 14 14 15 15 16 16 17 17 18 18 19 19 20 20
REMARK H PARENT
REMARK Flexibility Score: inf
ROOT
ATOM      1  C   UNL     1      61.120  32.233  60.327  1.00  0.00     0.000 C 
ENDROOT
BRANCH   1   2
ATOM      2  C   UNL     1      62.094  33.413  60.489  1.00  0.00     0.000 C 
BRANCH   2   3
ATOM      3  C   UNL     1      63.525  32.964  60.822  1.00  0.00     0.000 C 
BRANCH   3   4
ATOM      4  C   UNL     1      63.928  31.748  59.974  1.00  0.00     0.000 C 
BRANCH   4   5
ATOM      5  C   UNL     1      64.715  30.701  60.777  1.00  0.00     0.000 C 
BRANCH   5   6
ATOM      6  C   UNL     1      65.424  29.676  59.880  1.00  0.00     0.006 C 
BRANCH   6   7
ATOM      7  C   UNL     1      66.006  28.529  60.712  1.00  0.00     0.053 C 
BRANCH   7   8
ATOM      8  C   UNL     1      67.411  28.840  61.124  1.00  0.00     0.041 C 
ATOM      9  O   UNL     1      67.779  28.652  62.313  1.00  0.00    -0.550 OA
ATOM     10  O   UNL     1      68.299  29.387  60.207  1.00  0.00    -0.550 OA
ENDBRANCH   7   8
ENDBRANCH   6   7
ENDBRANCH   5   6
ENDBRANCH   4   5
ENDBRANCH   3   4
ENDBRANCH   2   3
ENDBRANCH   1   2
BRANCH   1  11
ATOM     11  C   UNL     1      60.752  31.509  61.637  1.00  0.00     0.000 C 
BRANCH  11  12
ATOM     12  C   UNL     1      61.090  30.005  61.672  1.00  0.00     0.000 C 
BRANCH  12  13
ATOM     13  C   UNL     1      60.841  29.253  60.352  1.00  0.00     0.000 C 
BRANCH  13  14
ATOM     14  C   UNL     1      61.947  28.239  60.026  1.00  0.00     0.000 C 
BRANCH  14  15
ATOM     15  C   UNL     1      62.564  27.667  61.309  1.00  0.00     0.000 C 
BRANCH  15  16
ATOM     16  C   UNL     1      62.186  26.196  61.558  1.00  0.00     0.006 C 
BRANCH  16  17
ATOM     17  C   UNL     1      61.479  25.950  62.903  1.00  0.00     0.053 C 
BRANCH  17  18
ATOM     18  C   UNL     1      60.016  25.667  62.745  1.00  0.00     0.041 C 
ATOM     19  O   UNL     1      59.311  26.369  61.974  1.00  0.00    -0.550 OA
ATOM     20  O   UNL     1      59.437  24.603  63.426  1.00  0.00    -0.550 OA
ENDBRANCH  17  18
ENDBRANCH  16  17
ENDBRANCH  15  16
ENDBRANCH  14  15
ENDBRANCH  13  14
ENDBRANCH  12  13
ENDBRANCH  11  12
ENDBRANCH   1  11
TORSDOF 15
ENDMDL
MODEL 2
REMARK VINA RESULT:    -3.236      3.460      8.255
REMARK INTER + INTRA:          -8.076
REMARK INTER:                  -6.533
REMARK INTRA:                  -1.543
REMARK UNBOUND:                -2.002
REMARK SMILES O=C([O-])CCCCCCCCCCCCCCC(=O)[O-]
REMARK SMILES IDX 10 1 9 2 8 3 7 4 6 5 5 6 4 7 2 8 1 9 3 10 11 11 12 12 13 13
REMARK SMILES IDX 14 14 15 15 16 16 17 17 18 18 19 19 20 20
REMARK H PARENT
REMARK Flexibility Score: inf
ROOT
ATOM      1  C   UNL     1      63.834  30.346  60.552  1.00  0.00     0.000 C 
ENDROOT
BRANCH   1   2
ATOM      2  C   UNL     1      62.743  29.629  61.369  1.00  0.00     0.000 C 
BRANCH   2   3
ATOM      3  C   UNL     1      61.659  30.587  61.884  1.00  0.00     0.000 C 
BRANCH   3   4
ATOM      4  C   UNL     1      60.317  30.321  61.185  1.00  0.00     0.000 C 
BRANCH   4   5
ATOM      5  C   UNL     1      60.137  28.848  60.787  1.00  0.00     0.000 C 
BRANCH   5   6
ATOM      6  C   UNL     1      58.696  28.517  60.374  1.00  0.00     0.006 C 
BRANCH   6   7
ATOM      7  C   UNL     1      57.988  27.700  61.459  1.00  0.00     0.053 C 
BRANCH   7   8
ATOM      8  C   UNL     1      56.540  28.071  61.534  1.00  0.00     0.041 C 
ATOM      9  O   UNL     1      55.892  28.315  60.482  1.00  0.00    -0.550 OA
ATOM     10  O   UNL     1      55.919  28.196  62.770  1.00  0.00    -0.550 OA
ENDBRANCH   7   8
ENDBRANCH   6   7
ENDBRANCH   5   6
ENDBRANCH   4   5
ENDBRANCH   3   4
ENDBRANCH   2   3
ENDBRANCH   1   2
BRANCH   1  11
ATOM     11  C   UNL     1      64.143  31.787  61.003  1.00  0.00     0.000 C 
BRANCH  11  12
ATOM     12  C   UNL     1      63.943  32.869  59.923  1.00  0.00     0.000 C 
BRANCH  12  13
ATOM     13  C   UNL     1      62.753  32.627  58.975  1.00  0.00     0.000 C 
BRANCH  13  14
ATOM     14  C   UNL     1      61.512  33.448  59.355  1.00  0.00     0.000 C 
BRANCH  14  15
ATOM     15  C   UNL     1      61.748  34.230  60.655  1.00  0.00     0.000 C 
BRANCH  15  16
ATOM     16  C   UNL     1      61.486  35.739  60.509  1.00  0.00     0.006 C 
BRANCH  16  17
ATOM     17  C   UNL     1      62.474  36.624  61.292  1.00  0.00     0.053 C 
BRANCH  17  18
ATOM     18  C   UNL     1      63.906  36.278  61.015  1.00  0.00     0.041 C 
ATOM     19  O   UNL     1      64.400  36.475  59.874  1.00  0.00    -0.550 OA
ATOM     20  O   UNL     1      64.705  35.767  62.030  1.00  0.00    -0.550 OA
ENDBRANCH  17  18
ENDBRANCH  16  17
ENDBRANCH  15  16
ENDBRANCH  14  15
ENDBRANCH  13  14
ENDBRANCH  12  13
ENDBRANCH  11  12
ENDBRANCH   1  11
TORSDOF 15
ENDMDL
MODEL 3
REMARK VINA RESULT:    -3.208      2.863      4.739
REMARK INTER + INTRA:          -8.024
REMARK INTER:                  -6.116
REMARK INTRA:                  -1.908
REMARK UNBOUND:                -2.002
REMARK SMILES O=C([O-])CCCCCCCCCCCCCCC(=O)[O-]
REMARK SMILES IDX 10 1 9 2 8 3 7 4 6 5 5 6 4 7 2 8 1 9 3 10 11 11 12 12 13 13
REMARK SMILES IDX 14 14 15 15 16 16 17 17 18 18 19 19 20 20
REMARK H PARENT
REMARK Flexibility Score: inf
ROOT
ATOM      1  C   UNL     1      61.759  30.334  61.882  1.00  0.00     0.000 C 
ENDROOT
BRANCH   1   2
ATOM      2  C   UNL     1      60.755  31.458  61.571  1.00  0.00     0.000 C 
BRANCH   2   3
ATOM      3  C   UNL     1      60.500  31.631  60.067  1.00  0.00     0.000 C 
BRANCH   3   4
ATOM      4  C   UNL     1      61.103  32.949  59.557  1.00  0.00     0.000 C 
BRANCH   4   5
ATOM      5  C   UNL     1      61.593  33.856  60.697  1.00  0.00     0.000 C 
BRANCH   5   6
ATOM      6  C   UNL     1      61.370  35.347  60.406  1.00  0.00     0.006 C 
BRANCH   6   7
ATOM      7  C   UNL     1      62.369  36.212  61.180  1.00  0.00     0.053 C 
BRANCH   7   8
ATOM      8  C   UNL     1      63.774  35.821  60.842  1.00  0.00     0.041 C 
ATOM      9  O   UNL     1      64.201  35.948  59.664  1.00  0.00    -0.550 OA
ATOM     10  O   UNL     1      64.595  35.270  61.817  1.00  0.00    -0.550 OA
ENDBRANCH   7   8
ENDBRANCH   6   7
ENDBRANCH   5   6
ENDBRANCH   4   5
ENDBRANCH   3   4
ENDBRANCH   2   3
ENDBRANCH   1   2
BRANCH   1  11
ATOM     11  C   UNL     1      63.211  30.621  61.450  1.00  0.00     0.000 C 
BRANCH  11  12
ATOM     12  C   UNL     1      64.054  29.374  61.117  1.00  0.00     0.000 C 
BRANCH  12  13
ATOM     13  C   UNL     1      64.427  29.220  59.631  1.00  0.00     0.000 C 
BRANCH  13  14
ATOM     14  C   UNL     1      63.302  29.666  58.685  1.00  0.00     0.000 C 
BRANCH  14  15
ATOM     15  C   UNL     1      62.528  28.456  58.143  1.00  0.00     0.000 C 
BRANCH  15  16
ATOM     16  C   UNL     1      61.343  28.048  59.035  1.00  0.00     0.006 C 
BRANCH  16  17
ATOM     17  C   UNL     1      61.581  26.757  59.839  1.00  0.00     0.053 C 
BRANCH  17  18
ATOM     18  C   UNL     1      61.062  26.844  61.242  1.00  0.00     0.041 C 
ATOM     19  O   UNL     1      61.855  26.786  62.219  1.00  0.00    -0.550 OA
ATOM     20  O   UNL     1      59.704  27.023  61.470  1.00  0.00    -0.550 OA
ENDBRANCH  17  18
ENDBRANCH  16  17
ENDBRANCH  15  16
ENDBRANCH  14  15
ENDBRANCH  13  14
ENDBRANCH  12  13
ENDBRANCH  11  12
ENDBRANCH   1  11
TORSDOF 15
ENDMDL
MODEL 4
REMARK VINA RESULT:    -3.190     11.685     12.689
REMARK INTER + INTRA:          -7.990
REMARK INTER:                  -6.731
REMARK INTRA:                  -1.260
REMARK UNBOUND:                -2.002
REMARK SMILES O=C([O-])CCCCCCCCCCCCCCC(=O)[O-]
REMARK SMILES IDX 10 1 9 2 8 3 7 4 6 5 5 6 4 7 2 8 1 9 3 10 11 11 12 12 13 13
REMARK SMILES IDX 14 14 15 15 16 16 17 17 18 18 19 19 20 20
REMARK H PARENT
REMARK Flexibility Score: inf
ROOT
ATOM      1  C   UNL     1      60.501  26.324  50.346  1.00  0.00     0.000 C 
ENDROOT
BRANCH   1   2
ATOM      2  C   UNL     1      61.754  27.191  50.566  1.00  0.00     0.000 C 
BRANCH   2   3
ATOM      3  C   UNL     1      63.046  26.495  50.115  1.00  0.00     0.000 C 
BRANCH   3   4
ATOM      4  C   UNL     1      64.005  27.498  49.454  1.00  0.00     0.000 C 
BRANCH   4   5
ATOM      5  C   UNL     1      63.769  28.942  49.924  1.00  0.00     0.000 C 
BRANCH   5   6
ATOM      6  C   UNL     1      63.801  29.954  48.770  1.00  0.00     0.006 C 
BRANCH   6   7
ATOM      7  C   UNL     1      64.025  31.376  49.294  1.00  0.00     0.053 C 
BRANCH   7   8
ATOM      8  C   UNL     1      62.723  32.108  49.395  1.00  0.00     0.041 C 
ATOM      9  O   UNL     1      61.703  31.528  49.852  1.00  0.00    -0.550 OA
ATOM     10  O   UNL     1      62.625  33.416  48.938  1.00  0.00    -0.550 OA
ENDBRANCH   7   8
ENDBRANCH   6   7
ENDBRANCH   5   6
ENDBRANCH   4   5
ENDBRANCH   3   4
ENDBRANCH   2   3
ENDBRANCH   1   2
BRANCH   1  11
ATOM     11  C   UNL     1      59.409  26.970  49.471  1.00  0.00     0.000 C 
BRANCH  11  12
ATOM     12  C   UNL     1      59.651  28.449  49.105  1.00  0.00     0.000 C 
BRANCH  12  13
ATOM     13  C   UNL     1      58.535  29.417  49.540  1.00  0.00     0.000 C 
BRANCH  13  14
ATOM     14  C   UNL     1      57.780  28.934  50.787  1.00  0.00     0.000 C 
BRANCH  14  15
ATOM     15  C   UNL     1      56.275  28.822  50.509  1.00  0.00     0.000 C 
BRANCH  15  16
ATOM     16  C   UNL     1      55.671  27.486  50.978  1.00  0.00     0.006 C 
BRANCH  16  17
ATOM     17  C   UNL     1      55.493  26.451  49.852  1.00  0.00     0.053 C 
BRANCH  17  18
ATOM     18  C   UNL     1      54.054  26.212  49.509  1.00  0.00     0.041 C 
ATOM     19  O   UNL     1      53.615  25.038  49.384  1.00  0.00    -0.550 OA
ATOM     20  O   UNL     1      53.187  27.287  49.358  1.00  0.00    -0.550 OA
ENDBRANCH  17  18
ENDBRANCH  16  17
ENDBRANCH  15  16
ENDBRANCH  14  15
ENDBRANCH  13  14
ENDBRANCH  12  13
ENDBRANCH  11  12
ENDBRANCH   1  11
TORSDOF 15
ENDMDL
MODEL 5
REMARK VINA RESULT:    -3.176     10.879     13.269
REMARK INTER + INTRA:          -7.964
REMARK INTER:                  -5.934
REMARK INTRA:                  -2.030
REMARK UNBOUND:                -2.002
REMARK SMILES O=C([O-])CCCCCCCCCCCCCCC(=O)[O-]
REMARK SMILES IDX 10 1 9 2 8 3 7 4 6 5 5 6 4 7 2 8 1 9 3 10 11 11 12 12 13 13
REMARK SMILES IDX 14 14 15 15 16 16 17 17 18 18 19 19 20 20
REMARK H PARENT
REMARK Flexibility Score: inf
ROOT
ATOM      1  C   UNL     1      57.078  28.605  52.321  1.00  0.00     0.000 C 
ENDROOT
BRANCH   1   2
ATOM      2  C   UNL     1      57.396  27.115  52.101  1.00  0.00     0.000 C 
BRANCH   2   3
ATOM      3  C   UNL     1      56.180  26.310  51.619  1.00  0.00     0.000 C 
BRANCH   3   4
ATOM      4  C   UNL     1      55.873  26.614  50.145  1.00  0.00     0.000 C 
BRANCH   4   5
ATOM      5  C   UNL     1      54.452  26.193  49.737  1.00  0.00     0.000 C 
BRANCH   5   6
ATOM      6  C   UNL     1      53.449  27.353  49.800  1.00  0.00     0.006 C 
BRANCH   6   7
ATOM      7  C   UNL     1      54.166  28.684  50.047  1.00  0.00     0.053 C 
BRANCH   7   8
ATOM      8  C   UNL     1      53.584  29.381  51.237  1.00  0.00     0.041 C 
ATOM      9  O   UNL     1      53.305  30.608  51.179  1.00  0.00    -0.550 OA
ATOM     10  O   UNL     1      53.399  28.688  52.426  1.00  0.00    -0.550 OA
ENDBRANCH   7   8
ENDBRANCH   6   7
ENDBRANCH   5   6
ENDBRANCH   4   5
ENDBRANCH   3   4
ENDBRANCH   2   3
ENDBRANCH   1   2
BRANCH   1  11
ATOM     11  C   UNL     1      57.974  29.584  51.537  1.00  0.00     0.000 C 
BRANCH  11  12
ATOM     12  C   UNL     1      57.885  29.468  50.002  1.00  0.00     0.000 C 
BRANCH  12  13
ATOM     13  C   UNL     1      59.198  29.069  49.304  1.00  0.00     0.000 C 
BRANCH  13  14
ATOM     14  C   UNL     1      59.437  27.552  49.307  1.00  0.00     0.000 C 
BRANCH  14  15
ATOM     15  C   UNL     1      60.635  27.186  50.195  1.00  0.00     0.000 C 
BRANCH  15  16
ATOM     16  C   UNL     1      60.933  25.677  50.215  1.00  0.00     0.006 C 
BRANCH  16  17
ATOM     17  C   UNL     1      59.697  24.798  50.482  1.00  0.00     0.053 C 
BRANCH  17  18
ATOM     18  C   UNL     1      59.680  24.229  51.868  1.00  0.00     0.041 C 
ATOM     19  O   UNL     1      58.927  23.260  52.150  1.00  0.00    -0.550 OA
ATOM     20  O   UNL     1      60.521  24.750  52.844  1.00  0.00    -0.550 OA
ENDBRANCH  17  18
ENDBRANCH  16  17
ENDBRANCH  15  16
ENDBRANCH  14  15
ENDBRANCH  13  14
ENDBRANCH  12  13
ENDBRANCH  11  12
ENDBRANCH   1  11
TORSDOF 15
ENDMDL
MODEL 6
REMARK VINA RESULT:    -3.163     10.946     12.710
REMARK INTER + INTRA:          -7.938
REMARK INTER:                  -5.793
REMARK INTRA:                  -2.145
REMARK UNBOUND:                -2.002
REMARK SMILES O=C([O-])CCCCCCCCCCCCCCC(=O)[O-]
REMARK SMILES IDX 10 1 9 2 8 3 7 4 6 5 5 6 4 7 2 8 1 9 3 10 11 11 12 12 13 13
REMARK SMILES IDX 14 14 15 15 16 16 17 17 18 18 19 19 20 20
REMARK H PARENT
REMARK Flexibility Score: inf
ROOT
ATOM      1  C   UNL     1      55.308  26.120  50.847  1.00  0.00     0.000 C 
ENDROOT
BRANCH   1   2
ATOM      2  C   UNL     1      56.588  26.791  50.317  1.00  0.00     0.000 C 
BRANCH   2   3
ATOM      3  C   UNL     1      57.008  28.013  51.147  1.00  0.00     0.000 C 
BRANCH   3   4
ATOM      4  C   UNL     1      57.300  29.217  50.238  1.00  0.00     0.000 C 
BRANCH   4   5
ATOM      5  C   UNL     1      58.804  29.502  50.097  1.00  0.00     0.000 C 
BRANCH   5   6
ATOM      6  C   UNL     1      59.476  28.620  49.035  1.00  0.00     0.006 C 
BRANCH   6   7
ATOM      7  C   UNL     1      60.717  27.926  49.605  1.00  0.00     0.053 C 
BRANCH   7   8
ATOM      8  C   UNL     1      60.331  26.685  50.347  1.00  0.00     0.041 C 
ATOM      9  O   UNL     1      59.991  25.649  49.716  1.00  0.00    -0.550 OA
ATOM     10  O   UNL     1      60.297  26.687  51.736  1.00  0.00    -0.550 OA
ENDBRANCH   7   8
ENDBRANCH   6   7
ENDBRANCH   5   6
ENDBRANCH   4   5
ENDBRANCH   3   4
ENDBRANCH   2   3
ENDBRANCH   1   2
BRANCH   1  11
ATOM     11  C   UNL     1      54.206  25.898  49.793  1.00  0.00     0.000 C 
BRANCH  11  12
ATOM     12  C   UNL     1      53.352  27.140  49.466  1.00  0.00     0.000 C 
BRANCH  12  13
ATOM     13  C   UNL     1      53.195  28.143  50.624  1.00  0.00     0.000 C 
BRANCH  13  14
ATOM     14  C   UNL     1      53.583  29.575  50.228  1.00  0.00     0.000 C 
BRANCH  14  15
ATOM     15  C   UNL     1      53.700  30.475  51.466  1.00  0.00     0.000 C 
BRANCH  15  16
ATOM     16  C   UNL     1      54.304  29.753  52.684  1.00  0.00     0.006 C 
BRANCH  16  17
ATOM     17  C   UNL     1      54.889  30.702  53.746  1.00  0.00     0.053 C 
BRANCH  17  18
ATOM     18  C   UNL     1      56.387  30.758  53.710  1.00  0.00     0.041 C 
ATOM     19  O   UNL     1      56.978  31.486  52.870  1.00  0.00    -0.550 OA
ATOM     20  O   UNL     1      57.131  30.028  54.629  1.00  0.00    -0.550 OA
ENDBRANCH  17  18
ENDBRANCH  16  17
ENDBRANCH  15  16
ENDBRANCH  14  15
ENDBRANCH  13  14
ENDBRANCH  12  13
ENDBRANCH  11  12
ENDBRANCH   1  11
TORSDOF 15
ENDMDL
MODEL 7
REMARK VINA RESULT:    -3.142     11.093     12.572
REMARK INTER + INTRA:          -7.899
REMARK INTER:                  -5.778
REMARK INTRA:                  -2.122
REMARK UNBOUND:                -2.002
REMARK SMILES O=C([O-])CCCCCCCCCCCCCCC(=O)[O-]
REMARK SMILES IDX 10 1 9 2 8 3 7 4 6 5 5 6 4 7 2 8 1 9 3 10 11 11 12 12 13 13
REMARK SMILES IDX 14 14 15 15 16 16 17 17 18 18 19 19 20 20
REMARK H PARENT
REMARK Flexibility Score: inf
ROOT
ATOM      1  C   UNL     1      53.961  29.137  50.172  1.00  0.00     0.000 C 
ENDROOT
BRANCH   1   2
ATOM      2  C   UNL     1      53.440  30.358  50.951  1.00  0.00     0.000 C 
BRANCH   2   3
ATOM      3  C   UNL     1      54.324  30.720  52.154  1.00  0.00     0.000 C 
BRANCH   3   4
ATOM      4  C   UNL     1      55.380  29.632  52.403  1.00  0.00     0.000 C 
BRANCH   4   5
ATOM      5  C   UNL     1      56.810  30.193  52.445  1.00  0.00     0.000 C 
BRANCH   5   6
ATOM      6  C   UNL     1      57.834  29.253  51.794  1.00  0.00     0.006 C 
BRANCH   6   7
ATOM      7  C   UNL     1      57.790  29.367  50.267  1.00  0.00     0.053 C 
BRANCH   7   8
ATOM      8  C   UNL     1      59.147  29.127  49.683  1.00  0.00     0.041 C 
ATOM      9  O   UNL     1      59.376  28.081  49.020  1.00  0.00    -0.550 OA
ATOM     10  O   UNL     1      60.173  30.034  49.913  1.00  0.00    -0.550 OA
ENDBRANCH   7   8
ENDBRANCH   6   7
ENDBRANCH   5   6
ENDBRANCH   4   5
ENDBRANCH   3   4
ENDBRANCH   2   3
ENDBRANCH   1   2
BRANCH   1  11
ATOM     11  C   UNL     1      52.945  27.990  50.004  1.00  0.00     0.000 C 
BRANCH  11  12
ATOM     12  C   UNL     1      53.513  26.574  50.228  1.00  0.00     0.000 C 
BRANCH  12  13
ATOM     13  C   UNL     1      54.705  26.202  49.327  1.00  0.00     0.000 C 
BRANCH  13  14
ATOM     14  C   UNL     1      56.048  26.239  50.071  1.00  0.00     0.000 C 
BRANCH  14  15
ATOM     15  C   UNL     1      55.841  26.097  51.586  1.00  0.00     0.000 C 
BRANCH  15  16
ATOM     16  C   UNL     1      57.073  25.532  52.314  1.00  0.00     0.006 C 
BRANCH  16  17
ATOM     17  C   UNL     1      58.355  25.525  51.461  1.00  0.00     0.053 C 
BRANCH  17  18
ATOM     18  C   UNL     1      59.265  24.381  51.792  1.00  0.00     0.041 C 
ATOM     19  O   UNL     1      60.503  24.469  51.578  1.00  0.00    -0.550 OA
ATOM     20  O   UNL     1      58.749  23.227  52.368  1.00  0.00    -0.550 OA
ENDBRANCH  17  18
ENDBRANCH  16  17
ENDBRANCH  15  16
ENDBRANCH  14  15
ENDBRANCH  13  14
ENDBRANCH  12  13
ENDBRANCH  11  12
ENDBRANCH   1  11
TORSDOF 15
ENDMDL
MODEL 8
REMARK VINA RESULT:    -3.136     10.914     13.167
REMARK INTER + INTRA:          -7.889
REMARK INTER:                  -5.868
REMARK INTRA:                  -2.021
REMARK UNBOUND:                -2.002
REMARK SMILES O=C([O-])CCCCCCCCCCCCCCC(=O)[O-]
REMARK SMILES IDX 10 1 9 2 8 3 7 4 6 5 5 6 4 7 2 8 1 9 3 10 11 11 12 12 13 13
REMARK SMILES IDX 14 14 15 15 16 16 17 17 18 18 19 19 20 20
REMARK H PARENT
REMARK Flexibility Score: inf
ROOT
ATOM      1  C   UNL     1      54.643  26.223  49.378  1.00  0.00     0.000 C 
ENDROOT
BRANCH   1   2
ATOM      2  C   UNL     1      53.235  26.822  49.550  1.00  0.00     0.000 C 
BRANCH   2   3
ATOM      3  C   UNL     1      53.171  27.885  50.657  1.00  0.00     0.000 C 
BRANCH   3   4
ATOM      4  C   UNL     1      53.134  29.298  50.056  1.00  0.00     0.000 C 
BRANCH   4   5
ATOM      5  C   UNL     1      53.913  30.321  50.898  1.00  0.00     0.000 C 
BRANCH   5   6
ATOM      6  C   UNL     1      54.059  29.891  52.365  1.00  0.00     0.006 C 
BRANCH   6   7
ATOM      7  C   UNL     1      54.592  31.042  53.223  1.00  0.00     0.053 C 
BRANCH   7   8
ATOM      8  C   UNL     1      56.049  30.851  53.512  1.00  0.00     0.041 C 
ATOM      9  O   UNL     1      56.428  29.920  54.271  1.00  0.00    -0.550 OA
ATOM     10  O   UNL     1      56.983  31.733  52.984  1.00  0.00    -0.550 OA
ENDBRANCH   7   8
ENDBRANCH   6   7
ENDBRANCH   5   6
ENDBRANCH   4   5
ENDBRANCH   3   4
ENDBRANCH   2   3
ENDBRANCH   1   2
BRANCH   1  11
ATOM     11  C   UNL     1      55.620  26.516  50.533  1.00  0.00     0.000 C 
BRANCH  11  12
ATOM     12  C   UNL     1      56.910  27.257  50.127  1.00  0.00     0.000 C 
BRANCH  12  13
ATOM     13  C   UNL     1      57.187  28.555  50.910  1.00  0.00     0.000 C 
BRANCH  13  14
ATOM     14  C   UNL     1      58.184  29.479  50.196  1.00  0.00     0.000 C 
BRANCH  14  15
ATOM     15  C   UNL     1      58.938  28.726  49.092  1.00  0.00     0.000 C 
BRANCH  15  16
ATOM     16  C   UNL     1      60.380  28.361  49.486  1.00  0.00     0.006 C 
BRANCH  16  17
ATOM     17  C   UNL     1      60.573  26.876  49.847  1.00  0.00     0.053 C 
BRANCH  17  18
ATOM     18  C   UNL     1      60.411  26.611  51.314  1.00  0.00     0.041 C 
ATOM     19  O   UNL     1      60.522  27.549  52.147  1.00  0.00    -0.550 OA
ATOM     20  O   UNL     1      60.105  25.331  51.759  1.00  0.00    -0.550 OA
ENDBRANCH  17  18
ENDBRANCH  16  17
ENDBRANCH  15  16
ENDBRANCH  14  15
ENDBRANCH  13  14
ENDBRANCH  12  13
ENDBRANCH  11  12
ENDBRANCH   1  11
TORSDOF 15
ENDMDL
MODEL 9
REMARK VINA RESULT:    -3.113      2.421      7.238
REMARK INTER + INTRA:          -7.844
REMARK INTER:                  -5.896
REMARK INTRA:                  -1.948
REMARK UNBOUND:                -2.002
REMARK SMILES O=C([O-])CCCCCCCCCCCCCCC(=O)[O-]
REMARK SMILES IDX 10 1 9 2 8 3 7 4 6 5 5 6 4 7 2 8 1 9 3 10 11 11 12 12 13 13
REMARK SMILES IDX 14 14 15 15 16 16 17 17 18 18 19 19 20 20
REMARK H PARENT
REMARK Flexibility Score: inf
ROOT
ATOM      1  C   UNL     1      62.923  28.859  59.568  1.00  0.00     0.000 C 
ENDROOT
BRANCH   1   2
ATOM      2  C   UNL     1      63.109  27.335  59.464  1.00  0.00     0.000 C 
BRANCH   2   3
ATOM      3  C   UNL     1      63.739  26.723  60.724  1.00  0.00     0.000 C 
BRANCH   3   4
ATOM      4  C   UNL     1      62.756  25.769  61.420  1.00  0.00     0.000 C 
BRANCH   4   5
ATOM      5  C   UNL     1      61.688  26.511  62.237  1.00  0.00     0.000 C 
BRANCH   5   6
ATOM      6  C   UNL     1      60.258  26.142  61.817  1.00  0.00     0.006 C 
BRANCH   6   7
ATOM      7  C   UNL     1      59.709  27.148  60.801  1.00  0.00     0.053 C 
BRANCH   7   8
ATOM      8  C   UNL     1      58.212  27.146  60.816  1.00  0.00     0.041 C 
ATOM      9  O   UNL     1      57.567  27.129  59.735  1.00  0.00    -0.550 OA
ATOM     10  O   UNL     1      57.529  27.215  62.024  1.00  0.00    -0.550 OA
ENDBRANCH   7   8
ENDBRANCH   6   7
ENDBRANCH   5   6
ENDBRANCH   4   5
ENDBRANCH   3   4
ENDBRANCH   2   3
ENDBRANCH   1   2
BRANCH   1  11
ATOM     11  C   UNL     1      63.802  29.550  60.630  1.00  0.00     0.000 C 
BRANCH  11  12
ATOM     12  C   UNL     1      63.031  30.355  61.696  1.00  0.00     0.000 C 
BRANCH  12  13
ATOM     13  C   UNL     1      61.525  30.043  61.781  1.00  0.00     0.000 C 
BRANCH  13  14
ATOM     14  C   UNL     1      60.655  31.308  61.799  1.00  0.00     0.000 C 
BRANCH  14  15
ATOM     15  C   UNL     1      60.843  32.123  60.512  1.00  0.00     0.000 C 
BRANCH  15  16
ATOM     16  C   UNL     1      61.382  33.542  60.768  1.00  0.00     0.006 C 
BRANCH  16  17
ATOM     17  C   UNL     1      62.512  33.963  59.811  1.00  0.00     0.053 C 
BRANCH  17  18
ATOM     18  C   UNL     1      63.875  33.773  60.405  1.00  0.00     0.041 C 
ATOM     19  O   UNL     1      64.683  32.953  59.895  1.00  0.00    -0.550 OA
ATOM     20  O   UNL     1      64.265  34.527  61.505  1.00  0.00    -0.550 OA
ENDBRANCH  17  18
ENDBRANCH  16  17
ENDBRANCH  15  16
ENDBRANCH  14  15
ENDBRANCH  13  14
ENDBRANCH  12  13
ENDBRANCH  11  12
ENDBRANCH   1  11
TORSDOF 15
ENDMDL
