MODEL 1
REMARK VINA RESULT:    -9.722      0.000      0.000
REMARK INTER + INTRA:         -16.271
REMARK INTER:                 -14.553
REMARK INTRA:                  -1.717
REMARK UNBOUND:                -1.717
REMARK SMILES C=C(CC[C@H](C(=O)[O-])[C@H]1[C@@H](O)C[C@]2(C)C3=C(CC[C@]12C)[C@@]1(C)CC[C@@H](OC(C)=O)C(C)(C)[C@H]1CC3)C(C)C
REMARK SMILES IDX 4 1 5 2 6 3 7 4 8 5 9 6 10 7 19 8 12 9 13 10 18 11 20 12
REMARK SMILES IDX 14 13 15 14 17 15 16 16 35 17 21 18 34 19 33 20 23 21 22 22
REMARK SMILES IDX 30 23 24 24 25 25 31 26 32 27 11 28 26 30 27 31 29 32 28 33
REMARK SMILES IDX 3 34 2 35 1 36 36 37 37 38 38 39
REMARK H PARENT 11 29
REMARK Flexibility Score: inf
ROOT
ATOM      1  C   UNL     1     120.362 145.237 155.359  1.00  0.00     0.014 C 
ENDROOT
BRANCH   1   2
ATOM      2  C   UNL     1     119.780 146.639 155.681  1.00  0.00     0.042 C 
BRANCH   2   3
ATOM      3  C   UNL     1     119.782 146.828 157.181  1.00  0.00     0.045 C 
ATOM      4  O   UNL     1     119.332 145.927 157.942  1.00  0.00    -0.550 OA
ATOM      5  O   UNL     1     120.289 147.997 157.733  1.00  0.00    -0.550 OA
ENDBRANCH   2   3
BRANCH   2   6
ATOM      6  C   UNL     1     118.338 146.835 155.085  1.00  0.00     0.033 C 
ATOM      7  C   UNL     1     117.582 148.028 155.686  1.00  0.00     0.119 C 
ATOM      8  C   UNL     1     118.163 146.972 153.510  1.00  0.00    -0.017 C 
ATOM      9  C   UNL     1     116.457 148.301 154.704  1.00  0.00     0.043 C 
ATOM     10  C   UNL     1     117.049 148.098 153.295  1.00  0.00    -0.003 C 
ATOM     11  C   UNL     1     117.645 145.613 152.962  1.00  0.00     0.012 C 
ATOM     12  C   UNL     1     119.498 147.320 152.777  1.00  0.00     0.013 C 
ATOM     13  C   UNL     1     117.626 149.464 152.808  1.00  0.00     0.017 C 
ATOM     14  C   UNL     1     115.918 147.720 152.306  1.00  0.00    -0.064 C 
ATOM     15  C   UNL     1     117.169 145.722 151.522  1.00  0.00     0.032 C 
ATOM     16  C   UNL     1     116.041 146.724 151.385  1.00  0.00    -0.064 C 
ATOM     17  C   UNL     1     114.678 148.579 152.233  1.00  0.00     0.032 C 
ATOM     18  C   UNL     1     114.918 146.486 150.335  1.00  0.00    -0.008 C 
ATOM     19  C   UNL     1     114.522 149.058 150.801  1.00  0.00     0.009 C 
ATOM     20  C   UNL     1     114.292 147.868 149.807  1.00  0.00     0.009 C 
ATOM     21  C   UNL     1     113.873 145.541 151.029  1.00  0.00     0.015 C 
ATOM     22  C   UNL     1     115.537 145.765 149.095  1.00  0.00     0.016 C 
ATOM     23  C   UNL     1     112.827 147.760 149.135  1.00  0.00     0.005 C 
ATOM     24  C   UNL     1     112.405 145.878 150.778  1.00  0.00     0.047 C 
ATOM     25  C   UNL     1     112.198 146.342 149.342  1.00  0.00     0.182 C 
ATOM     26  C   UNL     1     111.829 148.840 149.657  1.00  0.00     0.015 C 
ATOM     27  C   UNL     1     112.937 147.995 147.604  1.00  0.00     0.015 C 
BRANCH   7  28
ATOM     28  O   UNL     1     118.423 149.149 155.795  1.00  0.00    -0.393 OA
ATOM     29  H   UNL     1     117.904 149.846 156.274  1.00  0.00     0.210 HD
ENDBRANCH   7  28
BRANCH  25  30
ATOM     30  O   UNL     1     110.803 146.343 149.021  1.00  0.00    -0.462 OA
BRANCH  30  31
ATOM     31  C   UNL     1     109.857 145.531 149.656  1.00  0.00     0.302 C 
ATOM     32  O   UNL     1     109.040 146.016 150.487  1.00  0.00    -0.253 OA
ATOM     33  C   UNL     1     109.783 144.084 149.307  1.00  0.00     0.139 C 
ENDBRANCH  30  31
ENDBRANCH  25  30
ENDBRANCH   2   6
ENDBRANCH   1   2
BRANCH   1  34
ATOM     34  C   UNL     1     121.711 145.287 154.615  1.00  0.00     0.031 C 
BRANCH  34  35
ATOM     35  C   UNL     1     121.697 144.522 153.303  1.00  0.00    -0.075 C 
ATOM     36  C   UNL     1     121.028 143.356 153.222  1.00  0.00     0.008 C 
BRANCH  35  37
ATOM     37  C   UNL     1     122.526 145.024 152.127  1.00  0.00     0.008 C 
ATOM     38  C   UNL     1     123.129 146.413 152.386  1.00  0.00     0.012 C 
ATOM     39  C   UNL     1     121.695 145.026 150.838  1.00  0.00     0.012 C 
ENDBRANCH  35  37
ENDBRANCH  34  35
ENDBRANCH   1  34
TORSDOF 9
ENDMDL
MODEL 2
REMARK VINA RESULT:    -9.667      1.173      1.857
REMARK INTER + INTRA:         -16.189
REMARK INTER:                 -14.953
REMARK INTRA:                  -1.236
REMARK UNBOUND:                -1.717
REMARK SMILES C=C(CC[C@H](C(=O)[O-])[C@H]1[C@@H](O)C[C@]2(C)C3=C(CC[C@]12C)[C@@]1(C)CC[C@@H](OC(C)=O)C(C)(C)[C@H]1CC3)C(C)C
REMARK SMILES IDX 4 1 5 2 6 3 7 4 8 5 9 6 10 7 19 8 12 9 13 10 18 11 20 12
REMARK SMILES IDX 14 13 15 14 17 15 16 16 35 17 21 18 34 19 33 20 23 21 22 22
REMARK SMILES IDX 30 23 24 24 25 25 31 26 32 27 11 28 26 30 27 31 29 32 28 33
REMARK SMILES IDX 3 34 2 35 1 36 36 37 37 38 38 39
REMARK H PARENT 11 29
REMARK Flexibility Score: inf
ROOT
ATOM      1  C   UNL     1     120.235 145.195 155.147  1.00  0.00     0.014 C 
ENDROOT
BRANCH   1   2
ATOM      2  C   UNL     1     119.748 146.611 155.549  1.00  0.00     0.042 C 
BRANCH   2   3
ATOM      3  C   UNL     1     119.756 146.713 157.057  1.00  0.00     0.045 C 
ATOM      4  O   UNL     1     119.323 145.764 157.767  1.00  0.00    -0.550 OA
ATOM      5  O   UNL     1     120.252 147.855 157.674  1.00  0.00    -0.550 OA
ENDBRANCH   2   3
BRANCH   2   6
ATOM      6  C   UNL     1     118.325 146.938 154.965  1.00  0.00     0.033 C 
ATOM      7  C   UNL     1     117.754 148.277 155.453  1.00  0.00     0.119 C 
ATOM      8  C   UNL     1     118.114 146.937 153.389  1.00  0.00    -0.017 C 
ATOM      9  C   UNL     1     116.641 148.597 154.471  1.00  0.00     0.043 C 
ATOM     10  C   UNL     1     117.152 148.175 153.080  1.00  0.00    -0.003 C 
ATOM     11  C   UNL     1     117.404 145.611 152.998  1.00  0.00     0.012 C 
ATOM     12  C   UNL     1     119.457 147.025 152.596  1.00  0.00     0.013 C 
ATOM     13  C   UNL     1     117.886 149.394 152.439  1.00  0.00     0.017 C 
ATOM     14  C   UNL     1     115.947 147.853 152.159  1.00  0.00    -0.064 C 
ATOM     15  C   UNL     1     116.896 145.636 151.565  1.00  0.00     0.032 C 
ATOM     16  C   UNL     1     115.906 146.762 151.346  1.00  0.00    -0.064 C 
ATOM     17  C   UNL     1     114.829 148.860 152.022  1.00  0.00     0.032 C 
ATOM     18  C   UNL     1     114.726 146.572 150.351  1.00  0.00    -0.008 C 
ATOM     19  C   UNL     1     114.689 149.207 150.551  1.00  0.00     0.009 C 
ATOM     20  C   UNL     1     114.270 147.964 149.693  1.00  0.00     0.009 C 
ATOM     21  C   UNL     1     113.591 145.851 151.162  1.00  0.00     0.015 C 
ATOM     22  C   UNL     1     115.202 145.651 149.181  1.00  0.00     0.016 C 
ATOM     23  C   UNL     1     112.781 147.986 149.067  1.00  0.00     0.005 C 
ATOM     24  C   UNL     1     112.172 146.355 150.907  1.00  0.00     0.047 C 
ATOM     25  C   UNL     1     111.979 146.695 149.435  1.00  0.00     0.182 C 
ATOM     26  C   UNL     1     111.952 149.238 149.492  1.00  0.00     0.015 C 
ATOM     27  C   UNL     1     112.868 148.047 147.518  1.00  0.00     0.015 C 
BRANCH   7  28
ATOM     28  O   UNL     1     118.738 149.280 155.426  1.00  0.00    -0.393 OA
ATOM     29  H   UNL     1     119.420 149.026 156.100  1.00  0.00     0.210 HD
ENDBRANCH   7  28
BRANCH  25  30
ATOM     30  O   UNL     1     110.585 146.850 149.144  1.00  0.00    -0.462 OA
BRANCH  30  31
ATOM     31  C   UNL     1     109.581 146.046 149.694  1.00  0.00     0.302 C 
ATOM     32  O   UNL     1     108.681 146.543 150.428  1.00  0.00    -0.253 OA
ATOM     33  C   UNL     1     109.545 144.593 149.364  1.00  0.00     0.139 C 
ENDBRANCH  30  31
ENDBRANCH  25  30
ENDBRANCH   2   6
ENDBRANCH   1   2
BRANCH   1  34
ATOM     34  C   UNL     1     121.751 145.119 154.879  1.00  0.00     0.031 C 
BRANCH  34  35
ATOM     35  C   UNL     1     122.532 144.513 156.032  1.00  0.00    -0.075 C 
ATOM     36  C   UNL     1     122.490 143.182 156.234  1.00  0.00     0.008 C 
BRANCH  35  37
ATOM     37  C   UNL     1     123.265 145.423 157.010  1.00  0.00     0.008 C 
ATOM     38  C   UNL     1     124.786 145.408 156.796  1.00  0.00     0.012 C 
ATOM     39  C   UNL     1     122.918 145.056 158.458  1.00  0.00     0.012 C 
ENDBRANCH  35  37
ENDBRANCH  34  35
ENDBRANCH   1  34
TORSDOF 9
ENDMDL
MODEL 3
REMARK VINA RESULT:    -9.440      3.260      9.066
REMARK INTER + INTRA:         -15.848
REMARK INTER:                 -14.192
REMARK INTRA:                  -1.655
REMARK UNBOUND:                -1.717
REMARK SMILES C=C(CC[C@H](C(=O)[O-])[C@H]1[C@@H](O)C[C@]2(C)C3=C(CC[C@]12C)[C@@]1(C)CC[C@@H](OC(C)=O)C(C)(C)[C@H]1CC3)C(C)C
REMARK SMILES IDX 4 1 5 2 6 3 7 4 8 5 9 6 10 7 19 8 12 9 13 10 18 11 20 12
REMARK SMILES IDX 14 13 15 14 17 15 16 16 35 17 21 18 34 19 33 20 23 21 22 22
REMARK SMILES IDX 30 23 24 24 25 25 31 26 32 27 11 28 26 30 27 31 29 32 28 33
REMARK SMILES IDX 3 34 2 35 1 36 36 37 37 38 38 39
REMARK H PARENT 11 29
REMARK Flexibility Score: inf
ROOT
ATOM      1  C   UNL     1     116.457 148.925 154.542  1.00  0.00     0.014 C 
ENDROOT
BRANCH   1   2
ATOM      2  C   UNL     1     116.890 147.574 155.168  1.00  0.00     0.042 C 
BRANCH   2   3
ATOM      3  C   UNL     1     116.756 147.676 156.671  1.00  0.00     0.045 C 
ATOM      4  O   UNL     1     117.243 148.660 157.293  1.00  0.00    -0.550 OA
ATOM      5  O   UNL     1     116.087 146.685 157.377  1.00  0.00    -0.550 OA
ENDBRANCH   2   3
BRANCH   2   6
ATOM      6  C   UNL     1     118.351 147.168 154.753  1.00  0.00     0.033 C 
ATOM      7  C   UNL     1     118.934 146.026 155.596  1.00  0.00     0.119 C 
ATOM      8  C   UNL     1     118.646 146.772 153.241  1.00  0.00    -0.017 C 
ATOM      9  C   UNL     1     120.107 145.510 154.782  1.00  0.00     0.043 C 
ATOM     10  C   UNL     1     119.659 145.538 153.307  1.00  0.00    -0.003 C 
ATOM     11  C   UNL     1     119.338 147.981 152.552  1.00  0.00     0.012 C 
ATOM     12  C   UNL     1     117.351 146.426 152.440  1.00  0.00     0.013 C 
ATOM     13  C   UNL     1     118.997 144.166 152.973  1.00  0.00     0.017 C 
ATOM     14  C   UNL     1     120.902 145.662 152.389  1.00  0.00    -0.064 C 
ATOM     15  C   UNL     1     119.922 147.609 151.198  1.00  0.00     0.032 C 
ATOM     16  C   UNL     1     120.955 146.508 151.324  1.00  0.00    -0.064 C 
ATOM     17  C   UNL     1     122.055 144.702 152.568  1.00  0.00     0.032 C 
ATOM     18  C   UNL     1     122.181 146.484 150.366  1.00  0.00    -0.008 C 
ATOM     19  C   UNL     1     122.284 143.994 151.246  1.00  0.00     0.009 C 
ATOM     20  C   UNL     1     122.713 144.991 150.113  1.00  0.00     0.009 C 
ATOM     21  C   UNL     1     123.250 147.437 151.013  1.00  0.00     0.015 C 
ATOM     22  C   UNL     1     121.742 147.051 148.978  1.00  0.00     0.016 C 
ATOM     23  C   UNL     1     124.233 144.870 149.581  1.00  0.00     0.005 C 
ATOM     24  C   UNL     1     124.694 146.944 150.961  1.00  0.00     0.047 C 
ATOM     25  C   UNL     1     124.976 146.245 149.637  1.00  0.00     0.182 C 
ATOM     26  C   UNL     1     125.074 143.806 150.354  1.00  0.00     0.015 C 
ATOM     27  C   UNL     1     124.231 144.408 148.099  1.00  0.00     0.015 C 
BRANCH   7  28
ATOM     28  O   UNL     1     117.982 145.009 155.787  1.00  0.00    -0.393 OA
ATOM     29  H   UNL     1     118.468 144.236 156.175  1.00  0.00     0.210 HD
ENDBRANCH   7  28
BRANCH  25  30
ATOM     30  O   UNL     1     126.387 146.079 149.459  1.00  0.00    -0.462 OA
BRANCH  30  31
ATOM     31  C   UNL     1     127.328 147.081 149.719  1.00  0.00     0.302 C 
ATOM     32  O   UNL     1     128.124 146.987 150.694  1.00  0.00    -0.253 OA
ATOM     33  C   UNL     1     127.425 148.250 148.798  1.00  0.00     0.139 C 
ENDBRANCH  30  31
ENDBRANCH  25  30
ENDBRANCH   2   6
ENDBRANCH   1   2
BRANCH   1  34
ATOM     34  C   UNL     1     115.106 148.855 153.801  1.00  0.00     0.031 C 
BRANCH  34  35
ATOM     35  C   UNL     1     115.240 149.027 152.298  1.00  0.00    -0.075 C 
ATOM     36  C   UNL     1     116.162 149.879 151.807  1.00  0.00     0.008 C 
BRANCH  35  37
ATOM     37  C   UNL     1     114.265 148.320 151.366  1.00  0.00     0.008 C 
ATOM     38  C   UNL     1     113.461 147.223 152.082  1.00  0.00     0.012 C 
ATOM     39  C   UNL     1     114.996 147.747 150.146  1.00  0.00     0.012 C 
ENDBRANCH  35  37
ENDBRANCH  34  35
ENDBRANCH   1  34
TORSDOF 9
ENDMDL
MODEL 4
REMARK VINA RESULT:    -9.345      5.422      9.514
REMARK INTER + INTRA:         -15.705
REMARK INTER:                 -14.915
REMARK INTRA:                  -0.791
REMARK UNBOUND:                -1.717
REMARK SMILES C=C(CC[C@H](C(=O)[O-])[C@H]1[C@@H](O)C[C@]2(C)C3=C(CC[C@]12C)[C@@]1(C)CC[C@@H](OC(C)=O)C(C)(C)[C@H]1CC3)C(C)C
REMARK SMILES IDX 4 1 5 2 6 3 7 4 8 5 9 6 10 7 19 8 12 9 13 10 18 11 20 12
REMARK SMILES IDX 14 13 15 14 17 15 16 16 35 17 21 18 34 19 33 20 23 21 22 22
REMARK SMILES IDX 30 23 24 24 25 25 31 26 32 27 11 28 26 30 27 31 29 32 28 33
REMARK SMILES IDX 3 34 2 35 1 36 36 37 37 38 38 39
REMARK H PARENT 11 29
REMARK Flexibility Score: inf
ROOT
ATOM      1  C   UNL     1     123.299 144.062 151.131  1.00  0.00     0.014 C 
ENDROOT
BRANCH   1   2
ATOM      2  C   UNL     1     122.076 144.980 150.874  1.00  0.00     0.042 C 
BRANCH   2   3
ATOM      3  C   UNL     1     122.399 145.899 149.717  1.00  0.00     0.045 C 
ATOM      4  O   UNL     1     123.583 146.286 149.516  1.00  0.00    -0.550 OA
ATOM      5  O   UNL     1     121.389 146.316 148.859  1.00  0.00    -0.550 OA
ENDBRANCH   2   3
BRANCH   2   6
ATOM      6  C   UNL     1     121.668 145.799 152.153  1.00  0.00     0.033 C 
ATOM      7  C   UNL     1     120.460 146.719 151.933  1.00  0.00     0.119 C 
ATOM      8  C   UNL     1     121.368 145.022 153.508  1.00  0.00    -0.017 C 
ATOM      9  C   UNL     1     119.976 147.054 153.333  1.00  0.00     0.043 C 
ATOM     10  C   UNL     1     120.112 145.762 154.162  1.00  0.00    -0.003 C 
ATOM     11  C   UNL     1     122.606 145.174 154.435  1.00  0.00     0.012 C 
ATOM     12  C   UNL     1     121.104 143.498 153.289  1.00  0.00     0.013 C 
ATOM     13  C   UNL     1     118.779 144.960 154.037  1.00  0.00     0.017 C 
ATOM     14  C   UNL     1     120.271 146.120 155.661  1.00  0.00    -0.064 C 
ATOM     15  C   UNL     1     122.314 144.721 155.857  1.00  0.00     0.032 C 
ATOM     16  C   UNL     1     121.185 145.522 156.474  1.00  0.00    -0.064 C 
ATOM     17  C   UNL     1     119.278 147.056 156.310  1.00  0.00     0.032 C 
ATOM     18  C   UNL     1     121.200 145.834 157.998  1.00  0.00    -0.008 C 
ATOM     19  C   UNL     1     118.655 146.333 157.490  1.00  0.00     0.009 C 
ATOM     20  C   UNL     1     119.716 145.986 158.591  1.00  0.00     0.009 C 
ATOM     21  C   UNL     1     122.085 147.121 158.164  1.00  0.00     0.015 C 
ATOM     22  C   UNL     1     121.869 144.636 158.746  1.00  0.00     0.016 C 
ATOM     23  C   UNL     1     119.600 146.791 159.987  1.00  0.00     0.005 C 
ATOM     24  C   UNL     1     121.567 148.157 159.159  1.00  0.00     0.047 C 
ATOM     25  C   UNL     1     120.952 147.474 160.375  1.00  0.00     0.182 C 
ATOM     26  C   UNL     1     118.469 147.866 159.985  1.00  0.00     0.015 C 
ATOM     27  C   UNL     1     119.239 145.803 161.129  1.00  0.00     0.015 C 
BRANCH   7  28
ATOM     28  O   UNL     1     119.453 146.059 151.209  1.00  0.00    -0.393 OA
ATOM     29  H   UNL     1     118.933 146.762 150.740  1.00  0.00     0.210 HD
ENDBRANCH   7  28
BRANCH  25  30
ATOM     30  O   UNL     1     120.769 148.422 161.432  1.00  0.00    -0.462 OA
BRANCH  30  31
ATOM     31  C   UNL     1     121.340 149.699 161.441  1.00  0.00     0.302 C 
ATOM     32  O   UNL     1     122.433 149.917 162.034  1.00  0.00    -0.253 OA
ATOM     33  C   UNL     1     120.672 150.803 160.694  1.00  0.00     0.139 C 
ENDBRANCH  30  31
ENDBRANCH  25  30
ENDBRANCH   2   6
ENDBRANCH   1   2
BRANCH   1  34
ATOM     34  C   UNL     1     123.414 142.895 150.130  1.00  0.00     0.031 C 
BRANCH  34  35
ATOM     35  C   UNL     1     124.771 142.818 149.455  1.00  0.00    -0.075 C 
ATOM     36  C   UNL     1     125.887 143.020 150.183  1.00  0.00     0.008 C 
BRANCH  35  37
ATOM     37  C   UNL     1     124.855 142.618 147.947  1.00  0.00     0.008 C 
ATOM     38  C   UNL     1     124.958 143.949 147.185  1.00  0.00     0.012 C 
ATOM     39  C   UNL     1     123.666 141.794 147.440  1.00  0.00     0.012 C 
ENDBRANCH  35  37
ENDBRANCH  34  35
ENDBRANCH   1  34
TORSDOF 9
ENDMDL
MODEL 5
REMARK VINA RESULT:    -9.305      2.314     10.067
REMARK INTER + INTRA:         -15.646
REMARK INTER:                 -14.638
REMARK INTRA:                  -1.008
REMARK UNBOUND:                -1.717
REMARK SMILES C=C(CC[C@H](C(=O)[O-])[C@H]1[C@@H](O)C[C@]2(C)C3=C(CC[C@]12C)[C@@]1(C)CC[C@@H](OC(C)=O)C(C)(C)[C@H]1CC3)C(C)C
REMARK SMILES IDX 4 1 5 2 6 3 7 4 8 5 9 6 10 7 19 8 12 9 13 10 18 11 20 12
REMARK SMILES IDX 14 13 15 14 17 15 16 16 35 17 21 18 34 19 33 20 23 21 22 22
REMARK SMILES IDX 30 23 24 24 25 25 31 26 32 27 11 28 26 30 27 31 29 32 28 33
REMARK SMILES IDX 3 34 2 35 1 36 36 37 37 38 38 39
REMARK H PARENT 11 29
REMARK Flexibility Score: inf
ROOT
ATOM      1  C   UNL     1     110.732 150.114 149.383  1.00  0.00     0.014 C 
ENDROOT
BRANCH   1   2
ATOM      2  C   UNL     1     110.799 148.577 149.193  1.00  0.00     0.042 C 
BRANCH   2   3
ATOM      3  C   UNL     1     109.412 148.007 149.393  1.00  0.00     0.045 C 
ATOM      4  O   UNL     1     108.837 148.097 150.513  1.00  0.00    -0.550 OA
ATOM      5  O   UNL     1     108.757 147.386 148.338  1.00  0.00    -0.550 OA
ENDBRANCH   2   3
BRANCH   2   6
ATOM      6  C   UNL     1     111.836 147.902 150.164  1.00  0.00     0.033 C 
ATOM      7  C   UNL     1     111.699 146.376 150.245  1.00  0.00     0.119 C 
ATOM      8  C   UNL     1     113.388 148.177 149.953  1.00  0.00    -0.017 C 
ATOM      9  C   UNL     1     113.011 145.906 150.845  1.00  0.00     0.043 C 
ATOM     10  C   UNL     1     114.115 146.779 150.218  1.00  0.00    -0.003 C 
ATOM     11  C   UNL     1     113.843 149.214 151.017  1.00  0.00     0.012 C 
ATOM     12  C   UNL     1     113.716 148.751 148.537  1.00  0.00     0.013 C 
ATOM     13  C   UNL     1     114.613 146.076 148.917  1.00  0.00     0.017 C 
ATOM     14  C   UNL     1     115.332 146.846 151.175  1.00  0.00    -0.064 C 
ATOM     15  C   UNL     1     115.358 149.329 151.092  1.00  0.00     0.032 C 
ATOM     16  C   UNL     1     115.997 148.002 151.450  1.00  0.00    -0.064 C 
ATOM     17  C   UNL     1     115.923 145.565 151.714  1.00  0.00     0.032 C 
ATOM     18  C   UNL     1     117.291 147.975 152.314  1.00  0.00    -0.008 C 
ATOM     19  C   UNL     1     117.389 145.525 151.326  1.00  0.00     0.009 C 
ATOM     20  C   UNL     1     118.201 146.695 151.984  1.00  0.00     0.009 C 
ATOM     21  C   UNL     1     116.811 148.045 153.808  1.00  0.00     0.015 C 
ATOM     22  C   UNL     1     118.144 149.239 151.975  1.00  0.00     0.016 C 
ATOM     23  C   UNL     1     119.268 146.282 153.125  1.00  0.00     0.005 C 
ATOM     24  C   UNL     1     117.556 147.138 154.785  1.00  0.00     0.047 C 
ATOM     25  C   UNL     1     119.041 147.088 154.447  1.00  0.00     0.182 C 
ATOM     26  C   UNL     1     119.261 144.757 153.452  1.00  0.00     0.015 C 
ATOM     27  C   UNL     1     120.706 146.601 152.634  1.00  0.00     0.015 C 
BRANCH   7  28
ATOM     28  O   UNL     1     111.515 145.821 148.966  1.00  0.00    -0.393 OA
ATOM     29  H   UNL     1     111.763 146.526 148.314  1.00  0.00     0.210 HD
ENDBRANCH   7  28
BRANCH  25  30
ATOM     30  O   UNL     1     119.774 146.515 155.535  1.00  0.00    -0.462 OA
BRANCH  30  31
ATOM     31  C   UNL     1     119.572 146.857 156.876  1.00  0.00     0.302 C 
ATOM     32  O   UNL     1     119.827 148.021 157.294  1.00  0.00    -0.253 OA
ATOM     33  C   UNL     1     119.000 145.847 157.811  1.00  0.00     0.139 C 
ENDBRANCH  30  31
ENDBRANCH  25  30
ENDBRANCH   2   6
ENDBRANCH   1   2
BRANCH   1  34
ATOM     34  C   UNL     1     109.607 150.786 148.571  1.00  0.00     0.031 C 
BRANCH  34  35
ATOM     35  C   UNL     1     108.850 151.841 149.358  1.00  0.00    -0.075 C 
ATOM     36  C   UNL     1     108.240 151.498 150.510  1.00  0.00     0.008 C 
BRANCH  35  37
ATOM     37  C   UNL     1     108.696 153.245 148.788  1.00  0.00     0.008 C 
ATOM     38  C   UNL     1     107.877 153.264 147.488  1.00  0.00     0.012 C 
ATOM     39  C   UNL     1     110.068 153.897 148.573  1.00  0.00     0.012 C 
ENDBRANCH  35  37
ENDBRANCH  34  35
ENDBRANCH   1  34
TORSDOF 9
ENDMDL
MODEL 6
REMARK VINA RESULT:    -8.926      3.064      9.271
REMARK INTER + INTRA:         -15.078
REMARK INTER:                 -14.100
REMARK INTRA:                  -0.978
REMARK UNBOUND:                -1.717
REMARK SMILES C=C(CC[C@H](C(=O)[O-])[C@H]1[C@@H](O)C[C@]2(C)C3=C(CC[C@]12C)[C@@]1(C)CC[C@@H](OC(C)=O)C(C)(C)[C@H]1CC3)C(C)C
REMARK SMILES IDX 4 1 5 2 6 3 7 4 8 5 9 6 10 7 19 8 12 9 13 10 18 11 20 12
REMARK SMILES IDX 14 13 15 14 17 15 16 16 35 17 21 18 34 19 33 20 23 21 22 22
REMARK SMILES IDX 30 23 24 24 25 25 31 26 32 27 11 28 26 30 27 31 29 32 28 33
REMARK SMILES IDX 3 34 2 35 1 36 36 37 37 38 38 39
REMARK H PARENT 11 29
REMARK Flexibility Score: inf
ROOT
ATOM      1  C   UNL     1     113.420 148.624 150.108  1.00  0.00     0.014 C 
ENDROOT
BRANCH   1   2
ATOM      2  C   UNL     1     114.614 147.638 150.020  1.00  0.00     0.042 C 
BRANCH   2   3
ATOM      3  C   UNL     1     114.201 146.457 149.171  1.00  0.00     0.045 C 
ATOM      4  O   UNL     1     115.057 145.825 148.492  1.00  0.00    -0.550 OA
ATOM      5  O   UNL     1     112.872 146.055 149.139  1.00  0.00    -0.550 OA
ENDBRANCH   2   3
BRANCH   2   6
ATOM      6  C   UNL     1     115.106 147.172 151.439  1.00  0.00     0.033 C 
ATOM      7  C   UNL     1     116.330 146.247 151.392  1.00  0.00     0.119 C 
ATOM      8  C   UNL     1     115.447 148.269 152.540  1.00  0.00    -0.017 C 
ATOM      9  C   UNL     1     116.889 146.282 152.803  1.00  0.00     0.043 C 
ATOM     10  C   UNL     1     116.754 147.737 153.290  1.00  0.00    -0.003 C 
ATOM     11  C   UNL     1     114.260 148.333 153.541  1.00  0.00     0.012 C 
ATOM     12  C   UNL     1     115.655 149.694 151.935  1.00  0.00     0.013 C 
ATOM     13  C   UNL     1     118.055 148.505 152.898  1.00  0.00     0.017 C 
ATOM     14  C   UNL     1     116.677 147.763 154.837  1.00  0.00    -0.064 C 
ATOM     15  C   UNL     1     114.605 149.133 154.787  1.00  0.00     0.032 C 
ATOM     16  C   UNL     1     115.786 148.530 155.523  1.00  0.00    -0.064 C 
ATOM     17  C   UNL     1     117.728 147.037 155.644  1.00  0.00     0.032 C 
ATOM     18  C   UNL     1     115.852 148.610 157.075  1.00  0.00    -0.008 C 
ATOM     19  C   UNL     1     118.384 148.043 156.572  1.00  0.00     0.009 C 
ATOM     20  C   UNL     1     117.366 148.637 157.607  1.00  0.00     0.009 C 
ATOM     21  C   UNL     1     115.015 147.391 157.604  1.00  0.00     0.015 C 
ATOM     22  C   UNL     1     115.185 149.945 157.536  1.00  0.00     0.016 C 
ATOM     23  C   UNL     1     117.573 148.209 159.151  1.00  0.00     0.005 C 
ATOM     24  C   UNL     1     115.610 146.646 158.797  1.00  0.00     0.047 C 
ATOM     25  C   UNL     1     116.261 147.622 159.769  1.00  0.00     0.182 C 
ATOM     26  C   UNL     1     118.733 147.186 159.357  1.00  0.00     0.015 C 
ATOM     27  C   UNL     1     117.958 149.457 159.990  1.00  0.00     0.015 C 
BRANCH   7  28
ATOM     28  O   UNL     1     117.281 146.722 150.473  1.00  0.00    -0.393 OA
ATOM     29  H   UNL     1     117.449 145.984 149.832  1.00  0.00     0.210 HD
ENDBRANCH   7  28
BRANCH  25  30
ATOM     30  O   UNL     1     116.523 146.972 161.018  1.00  0.00    -0.462 OA
BRANCH  30  31
ATOM     31  C   UNL     1     115.852 145.824 161.454  1.00  0.00     0.302 C 
ATOM     32  O   UNL     1     116.376 144.682 161.333  1.00  0.00    -0.253 OA
ATOM     33  C   UNL     1     114.523 145.961 162.117  1.00  0.00     0.139 C 
ENDBRANCH  30  31
ENDBRANCH  25  30
ENDBRANCH   2   6
ENDBRANCH   1   2
BRANCH   1  34
ATOM     34  C   UNL     1     113.439 149.712 149.016  1.00  0.00     0.031 C 
BRANCH  34  35
ATOM     35  C   UNL     1     112.075 149.963 148.400  1.00  0.00    -0.075 C 
ATOM     36  C   UNL     1     111.192 150.754 149.041  1.00  0.00     0.008 C 
BRANCH  35  37
ATOM     37  C   UNL     1     111.677 149.237 147.121  1.00  0.00     0.008 C 
ATOM     38  C   UNL     1     110.675 148.102 147.378  1.00  0.00     0.012 C 
ATOM     39  C   UNL     1     112.917 148.709 146.388  1.00  0.00     0.012 C 
ENDBRANCH  35  37
ENDBRANCH  34  35
ENDBRANCH   1  34
TORSDOF 9
ENDMDL
MODEL 7
REMARK VINA RESULT:    -8.907      2.472      9.746
REMARK INTER + INTRA:         -15.051
REMARK INTER:                 -14.019
REMARK INTRA:                  -1.031
REMARK UNBOUND:                -1.717
REMARK SMILES C=C(CC[C@H](C(=O)[O-])[C@H]1[C@@H](O)C[C@]2(C)C3=C(CC[C@]12C)[C@@]1(C)CC[C@@H](OC(C)=O)C(C)(C)[C@H]1CC3)C(C)C
REMARK SMILES IDX 4 1 5 2 6 3 7 4 8 5 9 6 10 7 19 8 12 9 13 10 18 11 20 12
REMARK SMILES IDX 14 13 15 14 17 15 16 16 35 17 21 18 34 19 33 20 23 21 22 22
REMARK SMILES IDX 30 23 24 24 25 25 31 26 32 27 11 28 26 30 27 31 29 32 28 33
REMARK SMILES IDX 3 34 2 35 1 36 36 37 37 38 38 39
REMARK H PARENT 11 29
REMARK Flexibility Score: inf
ROOT
ATOM      1  C   UNL     1     112.050 148.237 150.343  1.00  0.00     0.014 C 
ENDROOT
BRANCH   1   2
ATOM      2  C   UNL     1     113.329 147.533 149.819  1.00  0.00     0.042 C 
BRANCH   2   3
ATOM      3  C   UNL     1     112.917 146.440 148.858  1.00  0.00     0.045 C 
ATOM      4  O   UNL     1     112.075 145.566 149.204  1.00  0.00    -0.550 OA
ATOM      5  O   UNL     1     113.459 146.397 147.581  1.00  0.00    -0.550 OA
ENDBRANCH   2   3
BRANCH   2   6
ATOM      6  C   UNL     1     114.213 146.960 150.986  1.00  0.00     0.033 C 
ATOM      7  C   UNL     1     115.252 145.930 150.521  1.00  0.00     0.119 C 
ATOM      8  C   UNL     1     115.008 147.970 151.923  1.00  0.00    -0.017 C 
ATOM      9  C   UNL     1     116.248 145.850 151.664  1.00  0.00     0.043 C 
ATOM     10  C   UNL     1     116.429 147.288 152.186  1.00  0.00    -0.003 C 
ATOM     11  C   UNL     1     114.232 148.097 153.263  1.00  0.00     0.012 C 
ATOM     12  C   UNL     1     115.147 149.396 151.300  1.00  0.00     0.013 C 
ATOM     13  C   UNL     1     117.598 147.951 151.392  1.00  0.00     0.017 C 
ATOM     14  C   UNL     1     116.872 147.250 153.670  1.00  0.00    -0.064 C 
ATOM     15  C   UNL     1     115.050 148.804 154.333  1.00  0.00     0.032 C 
ATOM     16  C   UNL     1     116.340 148.064 154.624  1.00  0.00    -0.064 C 
ATOM     17  C   UNL     1     118.052 146.396 154.071  1.00  0.00     0.032 C 
ATOM     18  C   UNL     1     116.925 148.066 156.066  1.00  0.00    -0.008 C 
ATOM     19  C   UNL     1     119.077 147.294 154.739  1.00  0.00     0.009 C 
ATOM     20  C   UNL     1     118.524 147.930 156.062  1.00  0.00     0.009 C 
ATOM     21  C   UNL     1     116.191 146.905 156.829  1.00  0.00     0.015 C 
ATOM     22  C   UNL     1     116.587 149.435 156.740  1.00  0.00     0.016 C 
ATOM     23  C   UNL     1     119.186 147.416 157.443  1.00  0.00     0.005 C 
ATOM     24  C   UNL     1     117.070 146.056 157.745  1.00  0.00     0.047 C 
ATOM     25  C   UNL     1     118.101 146.924 158.456  1.00  0.00     0.182 C 
ATOM     26  C   UNL     1     120.240 146.284 157.236  1.00  0.00     0.015 C 
ATOM     27  C   UNL     1     119.952 148.584 158.120  1.00  0.00     0.015 C 
BRANCH   7  28
ATOM     28  O   UNL     1     115.888 146.358 149.343  1.00  0.00    -0.393 OA
ATOM     29  H   UNL     1     115.837 145.602 148.703  1.00  0.00     0.210 HD
ENDBRANCH   7  28
BRANCH  25  30
ATOM     30  O   UNL     1     118.694 146.197 159.538  1.00  0.00    -0.462 OA
BRANCH  30  31
ATOM     31  C   UNL     1     118.345 146.377 160.881  1.00  0.00     0.302 C 
ATOM     32  O   UNL     1     118.857 147.306 161.565  1.00  0.00    -0.253 OA
ATOM     33  C   UNL     1     117.317 145.489 161.494  1.00  0.00     0.139 C 
ENDBRANCH  30  31
ENDBRANCH  25  30
ENDBRANCH   2   6
ENDBRANCH   1   2
BRANCH   1  34
ATOM     34  C   UNL     1     111.204 148.885 149.229  1.00  0.00     0.031 C 
BRANCH  34  35
ATOM     35  C   UNL     1     109.933 149.536 149.746  1.00  0.00    -0.075 C 
ATOM     36  C   UNL     1     109.096 148.827 150.529  1.00  0.00     0.008 C 
BRANCH  35  37
ATOM     37  C   UNL     1     109.565 150.942 149.291  1.00  0.00     0.008 C 
ATOM     38  C   UNL     1     110.796 151.847 149.129  1.00  0.00     0.012 C 
ATOM     39  C   UNL     1     108.550 151.575 150.251  1.00  0.00     0.012 C 
ENDBRANCH  35  37
ENDBRANCH  34  35
ENDBRANCH   1  34
TORSDOF 9
ENDMDL
MODEL 8
REMARK VINA RESULT:    -8.905      4.200      7.991
REMARK INTER + INTRA:         -15.047
REMARK INTER:                 -14.056
REMARK INTRA:                  -0.992
REMARK UNBOUND:                -1.717
REMARK SMILES C=C(CC[C@H](C(=O)[O-])[C@H]1[C@@H](O)C[C@]2(C)C3=C(CC[C@]12C)[C@@]1(C)CC[C@@H](OC(C)=O)C(C)(C)[C@H]1CC3)C(C)C
REMARK SMILES IDX 4 1 5 2 6 3 7 4 8 5 9 6 10 7 19 8 12 9 13 10 18 11 20 12
REMARK SMILES IDX 14 13 15 14 17 15 16 16 35 17 21 18 34 19 33 20 23 21 22 22
REMARK SMILES IDX 30 23 24 24 25 25 31 26 32 27 11 28 26 30 27 31 29 32 28 33
REMARK SMILES IDX 3 34 2 35 1 36 36 37 37 38 38 39
REMARK H PARENT 11 29
REMARK Flexibility Score: inf
ROOT
ATOM      1  C   UNL     1     115.206 147.177 157.917  1.00  0.00     0.014 C 
ENDROOT
BRANCH   1   2
ATOM      2  C   UNL     1     115.671 148.290 156.942  1.00  0.00     0.042 C 
BRANCH   2   3
ATOM      3  C   UNL     1     114.480 149.155 156.596  1.00  0.00     0.045 C 
ATOM      4  O   UNL     1     114.494 150.393 156.839  1.00  0.00    -0.550 OA
ATOM      5  O   UNL     1     113.361 148.589 155.997  1.00  0.00    -0.550 OA
ENDBRANCH   2   3
BRANCH   2   6
ATOM      6  C   UNL     1     116.343 147.704 155.647  1.00  0.00     0.033 C 
ATOM      7  C   UNL     1     115.809 148.318 154.346  1.00  0.00     0.119 C 
ATOM      8  C   UNL     1     117.927 147.738 155.512  1.00  0.00    -0.017 C 
ATOM      9  C   UNL     1     116.852 147.965 153.301  1.00  0.00     0.043 C 
ATOM     10  C   UNL     1     118.224 148.113 153.987  1.00  0.00    -0.003 C 
ATOM     11  C   UNL     1     118.468 146.314 155.816  1.00  0.00     0.012 C 
ATOM     12  C   UNL     1     118.600 148.740 156.504  1.00  0.00     0.013 C 
ATOM     13  C   UNL     1     118.714 149.581 153.787  1.00  0.00     0.017 C 
ATOM     14  C   UNL     1     119.260 147.203 153.279  1.00  0.00    -0.064 C 
ATOM     15  C   UNL     1     119.933 146.164 155.433  1.00  0.00     0.032 C 
ATOM     16  C   UNL     1     120.149 146.426 153.956  1.00  0.00    -0.064 C 
ATOM     17  C   UNL     1     119.414 147.283 151.779  1.00  0.00     0.032 C 
ATOM     18  C   UNL     1     121.248 145.640 153.185  1.00  0.00    -0.008 C 
ATOM     19  C   UNL     1     120.863 147.618 151.474  1.00  0.00     0.009 C 
ATOM     20  C   UNL     1     121.839 146.490 151.958  1.00  0.00     0.009 C 
ATOM     21  C   UNL     1     120.585 144.283 152.756  1.00  0.00     0.015 C 
ATOM     22  C   UNL     1     122.438 145.360 154.158  1.00  0.00     0.016 C 
ATOM     23  C   UNL     1     122.581 145.633 150.806  1.00  0.00     0.005 C 
ATOM     24  C   UNL     1     120.917 143.800 151.345  1.00  0.00     0.047 C 
ATOM     25  C   UNL     1     122.373 144.096 151.005  1.00  0.00     0.182 C 
ATOM     26  C   UNL     1     122.135 146.025 149.363  1.00  0.00     0.015 C 
ATOM     27  C   UNL     1     124.109 145.901 150.861  1.00  0.00     0.015 C 
BRANCH   7  28
ATOM     28  O   UNL     1     115.683 149.713 154.465  1.00  0.00    -0.393 OA
ATOM     29  H   UNL     1     115.172 150.021 153.673  1.00  0.00     0.210 HD
ENDBRANCH   7  28
BRANCH  25  30
ATOM     30  O   UNL     1     122.763 143.366 149.837  1.00  0.00    -0.462 OA
BRANCH  30  31
ATOM     31  C   UNL     1     124.029 142.796 149.662  1.00  0.00     0.302 C 
ATOM     32  O   UNL     1     124.689 142.366 150.649  1.00  0.00    -0.253 OA
ATOM     33  C   UNL     1     124.581 142.648 148.285  1.00  0.00     0.139 C 
ENDBRANCH  30  31
ENDBRANCH  25  30
ENDBRANCH   2   6
ENDBRANCH   1   2
BRANCH   1  34
ATOM     34  C   UNL     1     116.262 146.807 158.977  1.00  0.00     0.031 C 
BRANCH  34  35
ATOM     35  C   UNL     1     116.682 145.349 158.919  1.00  0.00    -0.075 C 
ATOM     36  C   UNL     1     116.088 144.523 158.036  1.00  0.00     0.008 C 
BRANCH  35  37
ATOM     37  C   UNL     1     117.690 144.812 159.926  1.00  0.00     0.008 C 
ATOM     38  C   UNL     1     117.509 145.429 161.322  1.00  0.00     0.012 C 
ATOM     39  C   UNL     1     119.124 145.018 159.424  1.00  0.00     0.012 C 
ENDBRANCH  35  37
ENDBRANCH  34  35
ENDBRANCH   1  34
TORSDOF 9
ENDMDL
MODEL 9
REMARK VINA RESULT:    -8.836      4.935      7.903
REMARK INTER + INTRA:         -14.944
REMARK INTER:                 -14.209
REMARK INTRA:                  -0.735
REMARK UNBOUND:                -1.717
REMARK SMILES C=C(CC[C@H](C(=O)[O-])[C@H]1[C@@H](O)C[C@]2(C)C3=C(CC[C@]12C)[C@@]1(C)CC[C@@H](OC(C)=O)C(C)(C)[C@H]1CC3)C(C)C
REMARK SMILES IDX 4 1 5 2 6 3 7 4 8 5 9 6 10 7 19 8 12 9 13 10 18 11 20 12
REMARK SMILES IDX 14 13 15 14 17 15 16 16 35 17 21 18 34 19 33 20 23 21 22 22
REMARK SMILES IDX 30 23 24 24 25 25 31 26 32 27 11 28 26 30 27 31 29 32 28 33
REMARK SMILES IDX 3 34 2 35 1 36 36 37 37 38 38 39
REMARK H PARENT 11 29
REMARK Flexibility Score: inf
ROOT
ATOM      1  C   UNL     1     125.198 145.549 151.469  1.00  0.00     0.014 C 
ENDROOT
BRANCH   1   2
ATOM      2  C   UNL     1     123.774 145.461 150.862  1.00  0.00     0.042 C 
BRANCH   2   3
ATOM      3  C   UNL     1     123.842 145.883 149.412  1.00  0.00     0.045 C 
ATOM      4  O   UNL     1     124.333 147.001 149.091  1.00  0.00    -0.550 OA
ATOM      5  O   UNL     1     123.369 145.035 148.419  1.00  0.00    -0.550 OA
ENDBRANCH   2   3
BRANCH   2   6
ATOM      6  C   UNL     1     122.734 146.331 151.659  1.00  0.00     0.033 C 
ATOM      7  C   UNL     1     121.833 147.188 150.759  1.00  0.00     0.119 C 
ATOM      8  C   UNL     1     121.751 145.616 152.685  1.00  0.00    -0.017 C 
ATOM      9  C   UNL     1     120.665 147.577 151.648  1.00  0.00     0.043 C 
ATOM     10  C   UNL     1     120.337 146.339 152.504  1.00  0.00    -0.003 C 
ATOM     11  C   UNL     1     122.287 145.868 154.122  1.00  0.00     0.012 C 
ATOM     12  C   UNL     1     121.655 144.073 152.462  1.00  0.00     0.013 C 
ATOM     13  C   UNL     1     119.289 145.477 151.733  1.00  0.00     0.017 C 
ATOM     14  C   UNL     1     119.656 146.783 153.823  1.00  0.00    -0.064 C 
ATOM     15  C   UNL     1     121.273 145.481 155.187  1.00  0.00     0.032 C 
ATOM     16  C   UNL     1     119.986 146.268 155.039  1.00  0.00    -0.064 C 
ATOM     17  C   UNL     1     118.465 147.711 153.767  1.00  0.00     0.032 C 
ATOM     18  C   UNL     1     119.171 146.662 156.304  1.00  0.00    -0.008 C 
ATOM     19  C   UNL     1     117.305 147.028 154.468  1.00  0.00     0.009 C 
ATOM     20  C   UNL     1     117.601 146.784 155.989  1.00  0.00     0.009 C 
ATOM     21  C   UNL     1     119.817 147.991 156.835  1.00  0.00     0.015 C 
ATOM     22  C   UNL     1     119.332 145.534 157.374  1.00  0.00     0.016 C 
ATOM     23  C   UNL     1     116.743 147.658 157.042  1.00  0.00     0.005 C 
ATOM     24  C   UNL     1     118.837 149.057 157.320  1.00  0.00     0.047 C 
ATOM     25  C   UNL     1     117.665 148.415 158.053  1.00  0.00     0.182 C 
ATOM     26  C   UNL     1     115.788 148.685 156.356  1.00  0.00     0.015 C 
ATOM     27  C   UNL     1     115.825 146.719 157.871  1.00  0.00     0.015 C 
BRANCH   7  28
ATOM     28  O   UNL     1     121.383 146.449 149.652  1.00  0.00    -0.393 OA
ATOM     29  H   UNL     1     122.188 146.051 149.230  1.00  0.00     0.210 HD
ENDBRANCH   7  28
BRANCH  25  30
ATOM     30  O   UNL     1     116.933 149.411 158.776  1.00  0.00    -0.462 OA
BRANCH  30  31
ATOM     31  C   UNL     1     116.604 149.304 160.132  1.00  0.00     0.302 C 
ATOM     32  O   UNL     1     117.473 148.971 160.986  1.00  0.00    -0.253 OA
ATOM     33  C   UNL     1     115.222 149.639 160.579  1.00  0.00     0.139 C 
ENDBRANCH  30  31
ENDBRANCH  25  30
ENDBRANCH   2   6
ENDBRANCH   1   2
BRANCH   1  34
ATOM     34  C   UNL     1     125.399 146.766 152.394  1.00  0.00     0.031 C 
BRANCH  34  35
ATOM     35  C   UNL     1     126.744 147.445 152.205  1.00  0.00    -0.075 C 
ATOM     36  C   UNL     1     127.679 147.346 153.170  1.00  0.00     0.008 C 
BRANCH  35  37
ATOM     37  C   UNL     1     126.985 148.317 150.979  1.00  0.00     0.008 C 
ATOM     38  C   UNL     1     127.745 147.573 149.871  1.00  0.00     0.012 C 
ATOM     39  C   UNL     1     127.717 149.608 151.366  1.00  0.00     0.012 C 
ENDBRANCH  35  37
ENDBRANCH  34  35
ENDBRANCH   1  34
TORSDOF 9
ENDMDL
