MODEL 1
REMARK VINA RESULT:    -5.528      0.000      0.000
REMARK INTER + INTRA:          -5.851
REMARK INTER:                  -5.851
REMARK INTRA:                   0.000
REMARK UNBOUND:                 0.000
REMARK SMILES Cc1cc(O)c(C)c(C)c1O
REMARK SMILES IDX 1 1 2 2 3 3 4 4 6 5 8 6 10 7 9 8 7 9 11 10 5 12
REMARK H PARENT 11 11 5 13
REMARK Flexibility Score: inf
ROOT
ATOM      1  C   UNL     1     -11.436  -3.348  -9.629  1.00  0.00     0.048 C 
ATOM      2  C   UNL     1     -11.168  -4.264  -8.467  1.00  0.00    -0.005 A 
ATOM      3  C   UNL     1     -10.067  -5.124  -8.496  1.00  0.00     0.053 A 
ATOM      4  C   UNL     1      -9.783  -5.960  -7.414  1.00  0.00     0.119 A 
ATOM      5  C   UNL     1     -10.611  -5.951  -6.272  1.00  0.00    -0.003 A 
ATOM      6  C   UNL     1     -11.760  -5.112  -6.249  1.00  0.00    -0.002 A 
ATOM      7  C   UNL     1     -12.008  -4.241  -7.340  1.00  0.00     0.121 A 
ATOM      8  C   UNL     1     -12.712  -5.107  -5.071  1.00  0.00     0.049 C 
ATOM      9  C   UNL     1     -10.273  -6.848  -5.102  1.00  0.00     0.049 C 
ENDROOT
BRANCH   7  10
ATOM     10  O   UNL     1     -13.077  -3.337  -7.331  1.00  0.00    -0.507 OA
ATOM     11  H   UNL     1     -13.502  -2.977  -6.487  1.00  0.00     0.293 HD
ENDBRANCH   7  10
BRANCH   4  12
ATOM     12  O   UNL     1      -8.671  -6.803  -7.476  1.00  0.00    -0.508 OA
ATOM     13  H   UNL     1      -7.744  -6.450  -7.682  1.00  0.00     0.293 HD
ENDBRANCH   4  12
TORSDOF 2
ENDMDL
MODEL 2
REMARK VINA RESULT:    -5.411      1.238      3.063
REMARK INTER + INTRA:          -5.727
REMARK INTER:                  -5.727
REMARK INTRA:                   0.000
REMARK UNBOUND:                 0.000
REMARK SMILES Cc1cc(O)c(C)c(C)c1O
REMARK SMILES IDX 1 1 2 2 3 3 4 4 6 5 8 6 10 7 9 8 7 9 11 10 5 12
REMARK H PARENT 11 11 5 13
REMARK Flexibility Score: inf
ROOT
ATOM      1  C   UNL     1     -10.737  -4.448 -10.219  1.00  0.00     0.048 C 
ATOM      2  C   UNL     1     -10.783  -4.536  -8.718  1.00  0.00    -0.005 A 
ATOM      3  C   UNL     1     -11.429  -3.541  -7.980  1.00  0.00     0.053 A 
ATOM      4  C   UNL     1     -11.510  -3.620  -6.588  1.00  0.00     0.119 A 
ATOM      5  C   UNL     1     -10.933  -4.710  -5.904  1.00  0.00    -0.003 A 
ATOM      6  C   UNL     1     -10.233  -5.707  -6.640  1.00  0.00    -0.002 A 
ATOM      7  C   UNL     1     -10.198  -5.629  -8.055  1.00  0.00     0.121 A 
ATOM      8  C   UNL     1      -9.548  -6.866  -5.948  1.00  0.00     0.049 C 
ATOM      9  C   UNL     1     -11.050  -4.788  -4.398  1.00  0.00     0.049 C 
ENDROOT
BRANCH   7  10
ATOM     10  O   UNL     1      -9.595  -6.627  -8.831  1.00  0.00    -0.507 OA
ATOM     11  H   UNL     1      -9.926  -6.907  -9.744  1.00  0.00     0.293 HD
ENDBRANCH   7  10
BRANCH   4  12
ATOM     12  O   UNL     1     -12.168  -2.610  -5.885  1.00  0.00    -0.508 OA
ATOM     13  H   UNL     1     -11.760  -2.176  -5.064  1.00  0.00     0.293 HD
ENDBRANCH   4  12
TORSDOF 2
ENDMDL
MODEL 3
REMARK VINA RESULT:    -4.833      1.304      4.276
REMARK INTER + INTRA:          -5.116
REMARK INTER:                  -5.116
REMARK INTRA:                   0.000
REMARK UNBOUND:                 0.000
REMARK SMILES Cc1cc(O)c(C)c(C)c1O
REMARK SMILES IDX 1 1 2 2 3 3 4 4 6 5 8 6 10 7 9 8 7 9 11 10 5 12
REMARK H PARENT 11 11 5 13
REMARK Flexibility Score: inf
ROOT
ATOM      1  C   UNL     1      -9.061  -7.747  -5.073  1.00  0.00     0.048 C 
ATOM      2  C   UNL     1     -10.000  -6.699  -5.605  1.00  0.00    -0.005 A 
ATOM      3  C   UNL     1     -11.024  -6.203  -4.793  1.00  0.00     0.053 A 
ATOM      4  C   UNL     1     -11.886  -5.208  -5.258  1.00  0.00     0.119 A 
ATOM      5  C   UNL     1     -11.738  -4.690  -6.562  1.00  0.00    -0.003 A 
ATOM      6  C   UNL     1     -10.728  -5.219  -7.413  1.00  0.00    -0.002 A 
ATOM      7  C   UNL     1      -9.837  -6.199  -6.908  1.00  0.00     0.121 A 
ATOM      8  C   UNL     1     -10.564  -4.738  -8.839  1.00  0.00     0.049 C 
ATOM      9  C   UNL     1     -12.669  -3.597  -7.037  1.00  0.00     0.049 C 
ENDROOT
BRANCH   7  10
ATOM     10  O   UNL     1      -8.775  -6.691  -7.677  1.00  0.00    -0.507 OA
ATOM     11  H   UNL     1      -8.616  -6.440  -8.643  1.00  0.00     0.293 HD
ENDBRANCH   7  10
BRANCH   4  12
ATOM     12  O   UNL     1     -12.895  -4.732  -4.417  1.00  0.00    -0.508 OA
ATOM     13  H   UNL     1     -12.685  -4.234  -3.560  1.00  0.00     0.293 HD
ENDBRANCH   4  12
TORSDOF 2
ENDMDL
MODEL 4
REMARK VINA RESULT:    -4.505      6.330      7.749
REMARK INTER + INTRA:          -4.768
REMARK INTER:                  -4.768
REMARK INTRA:                   0.000
REMARK UNBOUND:                 0.000
REMARK SMILES Cc1cc(O)c(C)c(C)c1O
REMARK SMILES IDX 1 1 2 2 3 3 4 4 6 5 8 6 10 7 9 8 7 9 11 10 5 12
REMARK H PARENT 11 11 5 13
REMARK Flexibility Score: inf
ROOT
ATOM      1  C   UNL     1      -4.776 -10.931  -6.630  1.00  0.00     0.048 C 
ATOM      2  C   UNL     1      -6.225 -10.933  -6.229  1.00  0.00    -0.005 A 
ATOM      3  C   UNL     1      -6.697  -9.992  -5.310  1.00  0.00     0.053 A 
ATOM      4  C   UNL     1      -8.046  -9.958  -4.949  1.00  0.00     0.119 A 
ATOM      5  C   UNL     1      -8.955 -10.881  -5.506  1.00  0.00    -0.003 A 
ATOM      6  C   UNL     1      -8.478 -11.872  -6.409  1.00  0.00    -0.002 A 
ATOM      7  C   UNL     1      -7.114 -11.864  -6.794  1.00  0.00     0.121 A 
ATOM      8  C   UNL     1      -9.402 -12.921  -6.991  1.00  0.00     0.049 C 
ATOM      9  C   UNL     1     -10.414 -10.813  -5.118  1.00  0.00     0.049 C 
ENDROOT
BRANCH   7  10
ATOM     10  O   UNL     1      -6.613 -12.765  -7.742  1.00  0.00    -0.507 OA
ATOM     11  H   UNL     1      -5.910 -12.527  -8.428  1.00  0.00     0.293 HD
ENDBRANCH   7  10
BRANCH   4  12
ATOM     12  O   UNL     1      -8.482  -9.000  -4.031  1.00  0.00    -0.508 OA
ATOM     13  H   UNL     1      -7.905  -8.705  -3.252  1.00  0.00     0.293 HD
ENDBRANCH   4  12
TORSDOF 2
ENDMDL
MODEL 5
REMARK VINA RESULT:    -4.495      6.286      8.031
REMARK INTER + INTRA:          -4.758
REMARK INTER:                  -4.758
REMARK INTRA:                   0.000
REMARK UNBOUND:                 0.000
REMARK SMILES Cc1cc(O)c(C)c(C)c1O
REMARK SMILES IDX 1 1 2 2 3 3 4 4 6 5 8 6 10 7 9 8 7 9 11 10 5 12
REMARK H PARENT 11 11 5 13
REMARK Flexibility Score: inf
ROOT
ATOM      1  C   UNL     1      -8.513  -9.483  -4.759  1.00  0.00     0.048 C 
ATOM      2  C   UNL     1      -7.631 -10.337  -5.627  1.00  0.00    -0.005 A 
ATOM      3  C   UNL     1      -6.296  -9.979  -5.830  1.00  0.00     0.053 A 
ATOM      4  C   UNL     1      -5.452 -10.776  -6.608  1.00  0.00     0.119 A 
ATOM      5  C   UNL     1      -5.940 -11.956  -7.206  1.00  0.00    -0.003 A 
ATOM      6  C   UNL     1      -7.310 -12.307  -7.042  1.00  0.00    -0.002 A 
ATOM      7  C   UNL     1      -8.139 -11.508  -6.216  1.00  0.00     0.121 A 
ATOM      8  C   UNL     1      -7.896 -13.533  -7.710  1.00  0.00     0.049 C 
ATOM      9  C   UNL     1      -5.004 -12.815  -8.025  1.00  0.00     0.049 C 
ENDROOT
BRANCH   7  10
ATOM     10  O   UNL     1      -9.470 -11.855  -5.956  1.00  0.00    -0.507 OA
ATOM     11  H   UNL     1     -10.176 -11.955  -6.673  1.00  0.00     0.293 HD
ENDBRANCH   7  10
BRANCH   4  12
ATOM     12  O   UNL     1      -4.122 -10.389  -6.785  1.00  0.00    -0.508 OA
ATOM     13  H   UNL     1      -3.696  -9.664  -6.219  1.00  0.00     0.293 HD
ENDBRANCH   4  12
TORSDOF 2
ENDMDL
MODEL 6
REMARK VINA RESULT:    -4.389      1.909      3.429
REMARK INTER + INTRA:          -4.646
REMARK INTER:                  -4.646
REMARK INTRA:                   0.000
REMARK UNBOUND:                 0.000
REMARK SMILES Cc1cc(O)c(C)c(C)c1O
REMARK SMILES IDX 1 1 2 2 3 3 4 4 6 5 8 6 10 7 9 8 7 9 11 10 5 12
REMARK H PARENT 11 11 5 13
REMARK Flexibility Score: inf
ROOT
ATOM      1  C   UNL     1      -9.322  -7.259  -5.822  1.00  0.00     0.048 C 
ATOM      2  C   UNL     1      -9.927  -6.181  -6.678  1.00  0.00    -0.005 A 
ATOM      3  C   UNL     1      -9.877  -6.286  -8.071  1.00  0.00     0.053 A 
ATOM      4  C   UNL     1     -10.461  -5.311  -8.883  1.00  0.00     0.119 A 
ATOM      5  C   UNL     1     -11.107  -4.198  -8.306  1.00  0.00    -0.003 A 
ATOM      6  C   UNL     1     -11.125  -4.058  -6.890  1.00  0.00    -0.002 A 
ATOM      7  C   UNL     1     -10.564  -5.079  -6.083  1.00  0.00     0.121 A 
ATOM      8  C   UNL     1     -11.756  -2.854  -6.223  1.00  0.00     0.049 C 
ATOM      9  C   UNL     1     -11.751  -3.166  -9.203  1.00  0.00     0.049 C 
ENDROOT
BRANCH   7  10
ATOM     10  O   UNL     1     -10.629  -5.029  -4.685  1.00  0.00    -0.507 OA
ATOM     11  H   UNL     1     -11.293  -5.556  -4.133  1.00  0.00     0.293 HD
ENDBRANCH   7  10
BRANCH   4  12
ATOM     12  O   UNL     1     -10.396  -5.452 -10.271  1.00  0.00    -0.508 OA
ATOM     13  H   UNL     1     -11.115  -5.080 -10.880  1.00  0.00     0.293 HD
ENDBRANCH   4  12
TORSDOF 2
ENDMDL
MODEL 7
REMARK VINA RESULT:    -4.286      1.367      4.044
REMARK INTER + INTRA:          -4.537
REMARK INTER:                  -4.537
REMARK INTRA:                   0.000
REMARK UNBOUND:                 0.000
REMARK SMILES Cc1cc(O)c(C)c(C)c1O
REMARK SMILES IDX 1 1 2 2 3 3 4 4 6 5 8 6 10 7 9 8 7 9 11 10 5 12
REMARK H PARENT 11 11 5 13
REMARK Flexibility Score: inf
ROOT
ATOM      1  C   UNL     1     -12.610  -5.139  -4.024  1.00  0.00     0.048 C 
ATOM      2  C   UNL     1     -12.014  -5.020  -5.400  1.00  0.00    -0.005 A 
ATOM      3  C   UNL     1     -12.583  -4.148  -6.333  1.00  0.00     0.053 A 
ATOM      4  C   UNL     1     -12.025  -4.000  -7.605  1.00  0.00     0.119 A 
ATOM      5  C   UNL     1     -10.878  -4.735  -7.969  1.00  0.00    -0.003 A 
ATOM      6  C   UNL     1     -10.317  -5.658  -7.043  1.00  0.00    -0.002 A 
ATOM      7  C   UNL     1     -10.873  -5.764  -5.743  1.00  0.00     0.121 A 
ATOM      8  C   UNL     1      -9.121  -6.512  -7.405  1.00  0.00     0.049 C 
ATOM      9  C   UNL     1     -10.279  -4.543  -9.344  1.00  0.00     0.049 C 
ENDROOT
BRANCH   7  10
ATOM     10  O   UNL     1     -10.308  -6.595  -4.769  1.00  0.00    -0.507 OA
ATOM     11  H   UNL     1     -10.689  -6.713  -3.840  1.00  0.00     0.293 HD
ENDBRANCH   7  10
BRANCH   4  12
ATOM     12  O   UNL     1     -12.617  -3.116  -8.510  1.00  0.00    -0.508 OA
ATOM     13  H   UNL     1     -13.465  -2.608  -8.284  1.00  0.00     0.293 HD
ENDBRANCH   4  12
TORSDOF 2
ENDMDL
MODEL 8
REMARK VINA RESULT:    -4.206      6.711      8.077
REMARK INTER + INTRA:          -4.452
REMARK INTER:                  -4.452
REMARK INTRA:                   0.000
REMARK UNBOUND:                 0.000
REMARK SMILES Cc1cc(O)c(C)c(C)c1O
REMARK SMILES IDX 1 1 2 2 3 3 4 4 6 5 8 6 10 7 9 8 7 9 11 10 5 12
REMARK H PARENT 11 11 5 13
REMARK Flexibility Score: inf
ROOT
ATOM      1  C   UNL     1     -10.987 -12.747  -6.193  1.00  0.00     0.048 C 
ATOM      2  C   UNL     1      -9.613 -12.136  -6.197  1.00  0.00    -0.005 A 
ATOM      3  C   UNL     1      -9.323 -11.066  -5.347  1.00  0.00     0.053 A 
ATOM      4  C   UNL     1      -8.044 -10.505  -5.314  1.00  0.00     0.119 A 
ATOM      5  C   UNL     1      -7.023 -11.011  -6.145  1.00  0.00    -0.003 A 
ATOM      6  C   UNL     1      -7.319 -12.071  -7.047  1.00  0.00    -0.002 A 
ATOM      7  C   UNL     1      -8.611 -12.654  -7.037  1.00  0.00     0.121 A 
ATOM      8  C   UNL     1      -6.274 -12.611  -8.001  1.00  0.00     0.049 C 
ATOM      9  C   UNL     1      -5.641 -10.403  -6.078  1.00  0.00     0.049 C 
ENDROOT
BRANCH   7  10
ATOM     10  O   UNL     1      -8.928 -13.752  -7.845  1.00  0.00    -0.507 OA
ATOM     11  H   UNL     1      -9.852 -13.931  -8.215  1.00  0.00     0.293 HD
ENDBRANCH   7  10
BRANCH   4  12
ATOM     12  O   UNL     1      -7.789  -9.440  -4.448  1.00  0.00    -0.508 OA
ATOM     13  H   UNL     1      -8.450  -9.165  -3.729  1.00  0.00     0.293 HD
ENDBRANCH   4  12
TORSDOF 2
ENDMDL
MODEL 9
REMARK VINA RESULT:    -4.185      1.464      3.262
REMARK INTER + INTRA:          -4.429
REMARK INTER:                  -4.429
REMARK INTRA:                   0.000
REMARK UNBOUND:                 0.000
REMARK SMILES Cc1cc(O)c(C)c(C)c1O
REMARK SMILES IDX 1 1 2 2 3 3 4 4 6 5 8 6 10 7 9 8 7 9 11 10 5 12
REMARK H PARENT 11 11 5 13
REMARK Flexibility Score: inf
ROOT
ATOM      1  C   UNL     1     -12.632  -4.742  -3.833  1.00  0.00     0.048 C 
ATOM      2  C   UNL     1     -12.059  -5.110  -5.174  1.00  0.00    -0.005 A 
ATOM      3  C   UNL     1     -11.800  -6.449  -5.479  1.00  0.00     0.053 A 
ATOM      4  C   UNL     1     -11.298  -6.814  -6.730  1.00  0.00     0.119 A 
ATOM      5  C   UNL     1     -11.038  -5.830  -7.706  1.00  0.00    -0.003 A 
ATOM      6  C   UNL     1     -11.255  -4.460  -7.392  1.00  0.00    -0.002 A 
ATOM      7  C   UNL     1     -11.804  -4.113  -6.132  1.00  0.00     0.121 A 
ATOM      8  C   UNL     1     -10.939  -3.361  -8.385  1.00  0.00     0.049 C 
ATOM      9  C   UNL     1     -10.514  -6.249  -9.061  1.00  0.00     0.049 C 
ENDROOT
BRANCH   7  10
ATOM     10  O   UNL     1     -12.114  -2.788  -5.805  1.00  0.00    -0.507 OA
ATOM     11  H   UNL     1     -11.854  -2.347  -4.933  1.00  0.00     0.293 HD
ENDBRANCH   7  10
BRANCH   4  12
ATOM     12  O   UNL     1     -11.056  -8.162  -7.000  1.00  0.00    -0.508 OA
ATOM     13  H   UNL     1     -10.854  -8.492  -7.937  1.00  0.00     0.293 HD
ENDBRANCH   4  12
TORSDOF 2
ENDMDL
