MODEL 1
REMARK VINA RESULT:     8.213      0.000      0.000
REMARK INTER + INTRA:          13.657
REMARK INTER:                  13.975
REMARK INTRA:                  -0.318
REMARK UNBOUND:                -0.318
REMARK SMILES CCCCCCCCCCCCCC(=O)[O-]
REMARK SMILES IDX 8 1 9 2 10 3 11 4 12 5 13 6 14 7 15 8 16 9 7 10 6 11 5 12
REMARK SMILES IDX 4 13 3 14 2 15 1 16
REMARK H PARENT
REMARK Flexibility Score: inf
ROOT
ATOM      1  C   UNL     1     -11.967  19.053 -14.927  1.00  0.00     0.000 C 
ENDROOT
BRANCH   1   2
ATOM      2  C   UNL     1     -10.693  19.334 -15.734  1.00  0.00     0.000 C 
BRANCH   2   3
ATOM      3  C   UNL     1     -11.025  20.029 -17.063  1.00  0.00     0.000 C 
BRANCH   3   4
ATOM      4  C   UNL     1     -11.476  19.047 -18.159  1.00  0.00     0.000 C 
BRANCH   4   5
ATOM      5  C   UNL     1     -11.839  19.696 -19.510  1.00  0.00     0.006 C 
BRANCH   5   6
ATOM      6  C   UNL     1     -13.259  19.382 -20.008  1.00  0.00     0.053 C 
BRANCH   6   7
ATOM      7  C   UNL     1     -13.696  20.321 -21.089  1.00  0.00     0.041 C 
ATOM      8  O   UNL     1     -14.484  21.267 -20.827  1.00  0.00    -0.550 OA
ATOM      9  O   UNL     1     -13.259  20.131 -22.395  1.00  0.00    -0.550 OA
ENDBRANCH   6   7
ENDBRANCH   5   6
ENDBRANCH   4   5
ENDBRANCH   3   4
ENDBRANCH   2   3
ENDBRANCH   1   2
BRANCH   1  10
ATOM     10  C   UNL     1     -11.795  19.480 -13.462  1.00  0.00     0.000 C 
BRANCH  10  11
ATOM     11  C   UNL     1     -13.105  19.395 -12.661  1.00  0.00    -0.000 C 
BRANCH  11  12
ATOM     12  C   UNL     1     -12.954  18.576 -11.366  1.00  0.00    -0.000 C 
BRANCH  12  13
ATOM     13  C   UNL     1     -13.468  19.330 -10.129  1.00  0.00    -0.000 C 
BRANCH  13  14
ATOM     14  C   UNL     1     -12.748  18.915  -8.837  1.00  0.00    -0.000 C 
BRANCH  14  15
ATOM     15  C   UNL     1     -12.945  19.964  -7.738  1.00  0.00    -0.003 C 
ATOM     16  C   UNL     1     -12.104  21.209  -8.006  1.00  0.00     0.004 C 
ENDBRANCH  14  15
ENDBRANCH  13  14
ENDBRANCH  12  13
ENDBRANCH  11  12
ENDBRANCH  10  11
ENDBRANCH   1  10
TORSDOF 12
ENDMDL
MODEL 2
REMARK VINA RESULT:     8.459      4.906      9.790
REMARK INTER + INTRA:          14.075
REMARK INTER:                  14.461
REMARK INTRA:                  -0.386
REMARK UNBOUND:                -0.318
REMARK SMILES CCCCCCCCCCCCCC(=O)[O-]
REMARK SMILES IDX 8 1 9 2 10 3 11 4 12 5 13 6 14 7 15 8 16 9 7 10 6 11 5 12
REMARK SMILES IDX 4 13 3 14 2 15 1 16
REMARK H PARENT
REMARK Flexibility Score: inf
ROOT
ATOM      1  C   UNL     1     -13.254  18.084 -15.935  1.00  0.00     0.000 C 
ENDROOT
BRANCH   1   2
ATOM      2  C   UNL     1     -13.477  18.882 -14.645  1.00  0.00     0.000 C 
BRANCH   2   3
ATOM      3  C   UNL     1     -12.138  19.267 -13.997  1.00  0.00     0.000 C 
BRANCH   3   4
ATOM      4  C   UNL     1     -12.291  19.743 -12.541  1.00  0.00     0.000 C 
BRANCH   4   5
ATOM      5  C   UNL     1     -12.983  18.739 -11.595  1.00  0.00     0.006 C 
BRANCH   5   6
ATOM      6  C   UNL     1     -13.630  19.375 -10.354  1.00  0.00     0.053 C 
BRANCH   6   7
ATOM      7  C   UNL     1     -12.894  19.029  -9.097  1.00  0.00     0.041 C 
ATOM      8  O   UNL     1     -12.461  17.861  -8.918  1.00  0.00    -0.550 OA
ATOM      9  O   UNL     1     -12.717  19.988  -8.107  1.00  0.00    -0.550 OA
ENDBRANCH   6   7
ENDBRANCH   5   6
ENDBRANCH   4   5
ENDBRANCH   3   4
ENDBRANCH   2   3
ENDBRANCH   1   2
BRANCH   1  10
ATOM     10  C   UNL     1     -14.564  17.935 -16.723  1.00  0.00     0.000 C 
BRANCH  10  11
ATOM     11  C   UNL     1     -14.340  17.873 -18.243  1.00  0.00    -0.000 C 
BRANCH  11  12
ATOM     12  C   UNL     1     -14.610  19.222 -18.935  1.00  0.00    -0.000 C 
BRANCH  12  13
ATOM     13  C   UNL     1     -13.682  19.463 -20.137  1.00  0.00    -0.000 C 
BRANCH  13  14
ATOM     14  C   UNL     1     -14.118  20.662 -20.993  1.00  0.00    -0.000 C 
BRANCH  14  15
ATOM     15  C   UNL     1     -13.973  20.351 -22.486  1.00  0.00    -0.003 C 
ATOM     16  C   UNL     1     -12.505  20.307 -22.902  1.00  0.00     0.004 C 
ENDBRANCH  14  15
ENDBRANCH  13  14
ENDBRANCH  12  13
ENDBRANCH  11  12
ENDBRANCH  10  11
ENDBRANCH   1  10
TORSDOF 12
ENDMDL
MODEL 3
REMARK VINA RESULT:     8.485     17.685     19.699
REMARK INTER + INTRA:          14.119
REMARK INTER:                  14.168
REMARK INTRA:                  -0.049
REMARK UNBOUND:                -0.318
REMARK SMILES CCCCCCCCCCCCCC(=O)[O-]
REMARK SMILES IDX 8 1 9 2 10 3 11 4 12 5 13 6 14 7 15 8 16 9 7 10 6 11 5 12
REMARK SMILES IDX 4 13 3 14 2 15 1 16
REMARK H PARENT
REMARK Flexibility Score: inf
ROOT
ATOM      1  C   UNL     1     -18.404   6.704  -4.199  1.00  0.00     0.000 C 
ENDROOT
BRANCH   1   2
ATOM      2  C   UNL     1     -18.216   8.074  -3.536  1.00  0.00     0.000 C 
BRANCH   2   3
ATOM      3  C   UNL     1     -16.788   8.229  -2.990  1.00  0.00     0.000 C 
BRANCH   3   4
ATOM      4  C   UNL     1     -15.765   7.344  -3.724  1.00  0.00     0.000 C 
BRANCH   4   5
ATOM      5  C   UNL     1     -14.555   6.902  -2.875  1.00  0.00     0.006 C 
BRANCH   5   6
ATOM      6  C   UNL     1     -13.372   7.884  -2.891  1.00  0.00     0.053 C 
BRANCH   6   7
ATOM      7  C   UNL     1     -12.075   7.197  -3.186  1.00  0.00     0.041 C 
ATOM      8  O   UNL     1     -11.000   7.850  -3.192  1.00  0.00    -0.550 OA
ATOM      9  O   UNL     1     -12.059   5.841  -3.489  1.00  0.00    -0.550 OA
ENDBRANCH   6   7
ENDBRANCH   5   6
ENDBRANCH   4   5
ENDBRANCH   3   4
ENDBRANCH   2   3
ENDBRANCH   1   2
BRANCH   1  10
ATOM     10  C   UNL     1     -19.103   5.723  -3.246  1.00  0.00     0.000 C 
BRANCH  10  11
ATOM     11  C   UNL     1     -18.303   4.426  -3.037  1.00  0.00    -0.000 C 
BRANCH  11  12
ATOM     12  C   UNL     1     -19.191   3.169  -3.084  1.00  0.00    -0.000 C 
BRANCH  12  13
ATOM     13  C   UNL     1     -20.680   3.492  -2.875  1.00  0.00    -0.000 C 
BRANCH  13  14
ATOM     14  C   UNL     1     -21.502   3.364  -4.166  1.00  0.00    -0.000 C 
BRANCH  14  15
ATOM     15  C   UNL     1     -21.672   4.727  -4.846  1.00  0.00    -0.003 C 
ATOM     16  C   UNL     1     -21.937   5.826  -3.821  1.00  0.00     0.004 C 
ENDBRANCH  14  15
ENDBRANCH  13  14
ENDBRANCH  12  13
ENDBRANCH  11  12
ENDBRANCH  10  11
ENDBRANCH   1  10
TORSDOF 12
ENDMDL
MODEL 4
REMARK VINA RESULT:     8.580      4.816      9.885
REMARK INTER + INTRA:          14.280
REMARK INTER:                  14.555
REMARK INTRA:                  -0.275
REMARK UNBOUND:                -0.318
REMARK SMILES CCCCCCCCCCCCCC(=O)[O-]
REMARK SMILES IDX 8 1 9 2 10 3 11 4 12 5 13 6 14 7 15 8 16 9 7 10 6 11 5 12
REMARK SMILES IDX 4 13 3 14 2 15 1 16
REMARK H PARENT
REMARK Flexibility Score: inf
ROOT
ATOM      1  C   UNL     1     -11.241  18.929 -15.886  1.00  0.00     0.000 C 
ENDROOT
BRANCH   1   2
ATOM      2  C   UNL     1     -11.541  19.839 -14.689  1.00  0.00     0.000 C 
BRANCH   2   3
ATOM      3  C   UNL     1     -12.614  19.219 -13.781  1.00  0.00     0.000 C 
BRANCH   3   4
ATOM      4  C   UNL     1     -12.399  19.542 -12.291  1.00  0.00     0.000 C 
BRANCH   4   5
ATOM      5  C   UNL     1     -13.191  18.654 -11.309  1.00  0.00     0.006 C 
BRANCH   5   6
ATOM      6  C   UNL     1     -13.743  19.396 -10.081  1.00  0.00     0.053 C 
BRANCH   6   7
ATOM      7  C   UNL     1     -12.935  19.121  -8.850  1.00  0.00     0.041 C 
ATOM      8  O   UNL     1     -12.715  20.041  -8.020  1.00  0.00    -0.550 OA
ATOM      9  O   UNL     1     -12.396  17.859  -8.638  1.00  0.00    -0.550 OA
ENDBRANCH   6   7
ENDBRANCH   5   6
ENDBRANCH   4   5
ENDBRANCH   3   4
ENDBRANCH   2   3
ENDBRANCH   1   2
BRANCH   1  10
ATOM     10  C   UNL     1     -11.122  19.746 -17.182  1.00  0.00     0.000 C 
BRANCH  10  11
ATOM     11  C   UNL     1     -11.638  18.985 -18.414  1.00  0.00    -0.000 C 
BRANCH  11  12
ATOM     12  C   UNL     1     -11.919  19.915 -19.608  1.00  0.00    -0.000 C 
BRANCH  12  13
ATOM     13  C   UNL     1     -13.190  19.520 -20.378  1.00  0.00    -0.000 C 
BRANCH  13  14
ATOM     14  C   UNL     1     -13.914  20.728 -20.991  1.00  0.00    -0.000 C 
BRANCH  14  15
ATOM     15  C   UNL     1     -13.927  20.640 -22.520  1.00  0.00    -0.003 C 
ATOM     16  C   UNL     1     -12.535  20.339 -23.069  1.00  0.00     0.004 C 
ENDBRANCH  14  15
ENDBRANCH  13  14
ENDBRANCH  12  13
ENDBRANCH  11  12
ENDBRANCH  10  11
ENDBRANCH   1  10
TORSDOF 12
ENDMDL
MODEL 5
REMARK VINA RESULT:     8.594      1.440      1.748
REMARK INTER + INTRA:          14.305
REMARK INTER:                  14.708
REMARK INTRA:                  -0.403
REMARK UNBOUND:                -0.318
REMARK SMILES CCCCCCCCCCCCCC(=O)[O-]
REMARK SMILES IDX 8 1 9 2 10 3 11 4 12 5 13 6 14 7 15 8 16 9 7 10 6 11 5 12
REMARK SMILES IDX 4 13 3 14 2 15 1 16
REMARK H PARENT
REMARK Flexibility Score: inf
ROOT
ATOM      1  C   UNL     1     -13.522  18.751 -14.760  1.00  0.00     0.000 C 
ENDROOT
BRANCH   1   2
ATOM      2  C   UNL     1     -13.341  17.934 -16.046  1.00  0.00     0.000 C 
BRANCH   2   3
ATOM      3  C   UNL     1     -14.575  18.054 -16.952  1.00  0.00     0.000 C 
BRANCH   3   4
ATOM      4  C   UNL     1     -14.226  18.012 -18.451  1.00  0.00     0.000 C 
BRANCH   4   5
ATOM      5  C   UNL     1     -14.464  19.331 -19.215  1.00  0.00     0.006 C 
BRANCH   5   6
ATOM      6  C   UNL     1     -13.626  19.487 -20.494  1.00  0.00     0.053 C 
BRANCH   6   7
ATOM      7  C   UNL     1     -14.110  20.618 -21.348  1.00  0.00     0.041 C 
ATOM      8  O   UNL     1     -15.161  21.237 -21.041  1.00  0.00    -0.550 OA
ATOM      9  O   UNL     1     -13.418  20.965 -22.501  1.00  0.00    -0.550 OA
ENDBRANCH   6   7
ENDBRANCH   5   6
ENDBRANCH   4   5
ENDBRANCH   3   4
ENDBRANCH   2   3
ENDBRANCH   1   2
BRANCH   1  10
ATOM     10  C   UNL     1     -12.164  19.199 -14.199  1.00  0.00     0.000 C 
BRANCH  10  11
ATOM     11  C   UNL     1     -12.269  19.769 -12.775  1.00  0.00    -0.000 C 
BRANCH  11  12
ATOM     12  C   UNL     1     -13.011  18.824 -11.812  1.00  0.00    -0.000 C 
BRANCH  12  13
ATOM     13  C   UNL     1     -13.323  19.486 -10.460  1.00  0.00    -0.000 C 
BRANCH  13  14
ATOM     14  C   UNL     1     -12.891  18.625  -9.263  1.00  0.00    -0.000 C 
BRANCH  14  15
ATOM     15  C   UNL     1     -13.038  19.400  -7.950  1.00  0.00    -0.003 C 
ATOM     16  C   UNL     1     -12.432  20.797  -8.061  1.00  0.00     0.004 C 
ENDBRANCH  14  15
ENDBRANCH  13  14
ENDBRANCH  12  13
ENDBRANCH  11  12
ENDBRANCH  10  11
ENDBRANCH   1  10
TORSDOF 12
ENDMDL
MODEL 6
REMARK VINA RESULT:     8.951      2.943      3.731
REMARK INTER + INTRA:          14.912
REMARK INTER:                  15.289
REMARK INTRA:                  -0.377
REMARK UNBOUND:                -0.318
REMARK SMILES CCCCCCCCCCCCCC(=O)[O-]
REMARK SMILES IDX 8 1 9 2 10 3 11 4 12 5 13 6 14 7 15 8 16 9 7 10 6 11 5 12
REMARK SMILES IDX 4 13 3 14 2 15 1 16
REMARK H PARENT
REMARK Flexibility Score: inf
ROOT
ATOM      1  C   UNL     1     -12.720  18.549 -12.043  1.00  0.00     0.000 C 
ENDROOT
BRANCH   1   2
ATOM      2  C   UNL     1     -12.875  19.801 -12.915  1.00  0.00     0.000 C 
BRANCH   2   3
ATOM      3  C   UNL     1     -11.638  20.011 -13.801  1.00  0.00     0.000 C 
BRANCH   3   4
ATOM      4  C   UNL     1     -11.629  19.104 -15.044  1.00  0.00     0.000 C 
BRANCH   4   5
ATOM      5  C   UNL     1     -12.910  18.270 -15.254  1.00  0.00     0.006 C 
BRANCH   5   6
ATOM      6  C   UNL     1     -13.198  17.901 -16.718  1.00  0.00     0.053 C 
BRANCH   6   7
ATOM      7  C   UNL     1     -14.614  17.455 -16.917  1.00  0.00     0.041 C 
ATOM      8  O   UNL     1     -15.561  18.114 -16.414  1.00  0.00    -0.550 OA
ATOM      9  O   UNL     1     -14.885  16.294 -17.629  1.00  0.00    -0.550 OA
ENDBRANCH   6   7
ENDBRANCH   5   6
ENDBRANCH   4   5
ENDBRANCH   3   4
ENDBRANCH   2   3
ENDBRANCH   1   2
BRANCH   1  10
ATOM     10  C   UNL     1     -13.238  18.803 -10.619  1.00  0.00     0.000 C 
BRANCH  10  11
ATOM     11  C   UNL     1     -12.750  17.749  -9.612  1.00  0.00    -0.000 C 
BRANCH  11  12
ATOM     12  C   UNL     1     -12.626  18.309  -8.183  1.00  0.00    -0.000 C 
BRANCH  12  13
ATOM     13  C   UNL     1     -13.473  19.574  -7.971  1.00  0.00    -0.000 C 
BRANCH  13  14
ATOM     14  C   UNL     1     -13.032  20.385  -6.743  1.00  0.00    -0.000 C 
BRANCH  14  15
ATOM     15  C   UNL     1     -11.949  21.402  -7.118  1.00  0.00    -0.003 C 
ATOM     16  C   UNL     1     -11.916  21.645  -8.624  1.00  0.00     0.004 C 
ENDBRANCH  14  15
ENDBRANCH  13  14
ENDBRANCH  12  13
ENDBRANCH  11  12
ENDBRANCH  10  11
ENDBRANCH   1  10
TORSDOF 12
ENDMDL
MODEL 7
REMARK VINA RESULT:     9.231     12.829     15.588
REMARK INTER + INTRA:          15.388
REMARK INTER:                  15.518
REMARK INTRA:                  -0.130
REMARK UNBOUND:                -0.318
REMARK SMILES CCCCCCCCCCCCCC(=O)[O-]
REMARK SMILES IDX 8 1 9 2 10 3 11 4 12 5 13 6 14 7 15 8 16 9 7 10 6 11 5 12
REMARK SMILES IDX 4 13 3 14 2 15 1 16
REMARK H PARENT
REMARK Flexibility Score: inf
ROOT
ATOM      1  C   UNL     1      -7.381   7.118 -19.355  1.00  0.00     0.000 C 
ENDROOT
BRANCH   1   2
ATOM      2  C   UNL     1      -7.555   7.899 -18.046  1.00  0.00     0.000 C 
BRANCH   2   3
ATOM      3  C   UNL     1      -8.168   9.283 -18.308  1.00  0.00     0.000 C 
BRANCH   3   4
ATOM      4  C   UNL     1      -7.976  10.257 -17.132  1.00  0.00     0.000 C 
BRANCH   4   5
ATOM      5  C   UNL     1      -7.256  11.575 -17.486  1.00  0.00     0.006 C 
BRANCH   5   6
ATOM      6  C   UNL     1      -6.155  11.986 -16.496  1.00  0.00     0.053 C 
BRANCH   6   7
ATOM      7  C   UNL     1      -5.548  13.309 -16.848  1.00  0.00     0.041 C 
ATOM      8  O   UNL     1      -6.201  14.145 -17.526  1.00  0.00    -0.550 OA
ATOM      9  O   UNL     1      -4.248  13.605 -16.458  1.00  0.00    -0.550 OA
ENDBRANCH   6   7
ENDBRANCH   5   6
ENDBRANCH   4   5
ENDBRANCH   3   4
ENDBRANCH   2   3
ENDBRANCH   1   2
BRANCH   1  10
ATOM     10  C   UNL     1      -7.463   5.605 -19.107  1.00  0.00     0.000 C 
BRANCH  10  11
ATOM     11  C   UNL     1      -8.467   4.904 -20.036  1.00  0.00    -0.000 C 
BRANCH  11  12
ATOM     12  C   UNL     1      -7.889   3.629 -20.678  1.00  0.00    -0.000 C 
BRANCH  12  13
ATOM     13  C   UNL     1      -6.880   3.938 -21.796  1.00  0.00    -0.000 C 
BRANCH  13  14
ATOM     14  C   UNL     1      -7.559   4.303 -23.125  1.00  0.00    -0.000 C 
BRANCH  14  15
ATOM     15  C   UNL     1      -9.072   4.073 -23.049  1.00  0.00    -0.003 C 
ATOM     16  C   UNL     1      -9.836   5.392 -23.125  1.00  0.00     0.004 C 
ENDBRANCH  14  15
ENDBRANCH  13  14
ENDBRANCH  12  13
ENDBRANCH  11  12
ENDBRANCH  10  11
ENDBRANCH   1  10
TORSDOF 12
ENDMDL
MODEL 8
REMARK VINA RESULT:     9.597     12.952     14.587
REMARK INTER + INTRA:          16.012
REMARK INTER:                  16.172
REMARK INTRA:                  -0.160
REMARK UNBOUND:                -0.318
REMARK SMILES CCCCCCCCCCCCCC(=O)[O-]
REMARK SMILES IDX 8 1 9 2 10 3 11 4 12 5 13 6 14 7 15 8 16 9 7 10 6 11 5 12
REMARK SMILES IDX 4 13 3 14 2 15 1 16
REMARK H PARENT
REMARK Flexibility Score: inf
ROOT
ATOM      1  C   UNL     1      -7.848   7.689 -18.338  1.00  0.00     0.000 C 
ENDROOT
BRANCH   1   2
ATOM      2  C   UNL     1      -7.765   6.813 -19.594  1.00  0.00     0.000 C 
BRANCH   2   3
ATOM      3  C   UNL     1      -8.231   5.380 -19.298  1.00  0.00     0.000 C 
BRANCH   3   4
ATOM      4  C   UNL     1      -7.918   4.398 -20.441  1.00  0.00     0.000 C 
BRANCH   4   5
ATOM      5  C   UNL     1      -8.941   4.393 -21.596  1.00  0.00     0.006 C 
BRANCH   5   6
ATOM      6  C   UNL     1      -8.354   4.015 -22.966  1.00  0.00     0.053 C 
BRANCH   6   7
ATOM      7  C   UNL     1      -6.858   3.967 -22.942  1.00  0.00     0.041 C 
ATOM      8  O   UNL     1      -6.263   2.879 -22.725  1.00  0.00    -0.550 OA
ATOM      9  O   UNL     1      -6.120   5.130 -23.124  1.00  0.00    -0.550 OA
ENDBRANCH   6   7
ENDBRANCH   5   6
ENDBRANCH   4   5
ENDBRANCH   3   4
ENDBRANCH   2   3
ENDBRANCH   1   2
BRANCH   1  10
ATOM     10  C   UNL     1      -8.254   9.126 -18.696  1.00  0.00     0.000 C 
BRANCH  10  11
ATOM     11  C   UNL     1      -7.907  10.136 -17.590  1.00  0.00    -0.000 C 
BRANCH  11  12
ATOM     12  C   UNL     1      -7.063  11.315 -18.108  1.00  0.00    -0.000 C 
BRANCH  12  13
ATOM     13  C   UNL     1      -6.499  12.181 -16.970  1.00  0.00    -0.000 C 
BRANCH  13  14
ATOM     14  C   UNL     1      -5.586  13.307 -17.477  1.00  0.00    -0.000 C 
BRANCH  14  15
ATOM     15  C   UNL     1      -4.283  13.360 -16.672  1.00  0.00    -0.003 C 
ATOM     16  C   UNL     1      -4.170  14.664 -15.888  1.00  0.00     0.004 C 
ENDBRANCH  14  15
ENDBRANCH  13  14
ENDBRANCH  12  13
ENDBRANCH  11  12
ENDBRANCH  10  11
ENDBRANCH   1  10
TORSDOF 12
ENDMDL
MODEL 9
REMARK VINA RESULT:    10.979     12.434     14.146
REMARK INTER + INTRA:          18.363
REMARK INTER:                  18.824
REMARK INTRA:                  -0.461
REMARK UNBOUND:                -0.318
REMARK SMILES CCCCCCCCCCCCCC(=O)[O-]
REMARK SMILES IDX 8 1 9 2 10 3 11 4 12 5 13 6 14 7 15 8 16 9 7 10 6 11 5 12
REMARK SMILES IDX 4 13 3 14 2 15 1 16
REMARK H PARENT
REMARK Flexibility Score: inf
ROOT
ATOM      1  C   UNL     1      -7.672   7.936 -19.265  1.00  0.00     0.000 C 
ENDROOT
BRANCH   1   2
ATOM      2  C   UNL     1      -7.628   6.550 -18.609  1.00  0.00     0.000 C 
BRANCH   2   3
ATOM      3  C   UNL     1      -7.153   5.484 -19.607  1.00  0.00     0.000 C 
BRANCH   3   4
ATOM      4  C   UNL     1      -8.297   4.593 -20.125  1.00  0.00     0.000 C 
BRANCH   4   5
ATOM      5  C   UNL     1      -7.925   3.673 -21.306  1.00  0.00     0.006 C 
BRANCH   5   6
ATOM      6  C   UNL     1      -7.787   4.394 -22.657  1.00  0.00     0.053 C 
BRANCH   6   7
ATOM      7  C   UNL     1      -8.986   5.235 -22.970  1.00  0.00     0.041 C 
ATOM      8  O   UNL     1     -10.113   4.697 -23.125  1.00  0.00    -0.550 OA
ATOM      9  O   UNL     1      -8.851   6.609 -23.125  1.00  0.00    -0.550 OA
ENDBRANCH   6   7
ENDBRANCH   5   6
ENDBRANCH   4   5
ENDBRANCH   3   4
ENDBRANCH   2   3
ENDBRANCH   1   2
BRANCH   1  10
ATOM     10  C   UNL     1      -8.245   8.984 -18.299  1.00  0.00     0.000 C 
BRANCH  10  11
ATOM     11  C   UNL     1      -7.912  10.425 -18.719  1.00  0.00    -0.000 C 
BRANCH  11  12
ATOM     12  C   UNL     1      -6.769  11.033 -17.887  1.00  0.00    -0.000 C 
BRANCH  12  13
ATOM     13  C   UNL     1      -6.317  12.403 -18.420  1.00  0.00    -0.000 C 
BRANCH  13  14
ATOM     14  C   UNL     1      -6.077  13.427 -17.300  1.00  0.00    -0.000 C 
BRANCH  14  15
ATOM     15  C   UNL     1      -4.729  13.183 -16.614  1.00  0.00    -0.003 C 
ATOM     16  C   UNL     1      -4.054  14.498 -16.237  1.00  0.00     0.004 C 
ENDBRANCH  14  15
ENDBRANCH  13  14
ENDBRANCH  12  13
ENDBRANCH  11  12
ENDBRANCH  10  11
ENDBRANCH   1  10
TORSDOF 12
ENDMDL
