MODEL 1
REMARK VINA RESULT:    -4.138      0.000      0.000
REMARK INTER + INTRA:          -8.280
REMARK INTER:                  -7.041
REMARK INTRA:                  -1.239
REMARK UNBOUND:                -1.239
REMARK SMILES CCCCCCCCCCCCCC(=O)[O-]
REMARK SMILES IDX 8 1 9 2 10 3 11 4 12 5 13 6 14 7 15 8 16 9 7 10 6 11 5 12
REMARK SMILES IDX 4 13 3 14 2 15 1 16
REMARK H PARENT
REMARK Flexibility Score: inf
ROOT
ATOM      1  C   UNL     1      24.126   5.456   8.474  1.00  0.00     0.000 C 
ENDROOT
BRANCH   1   2
ATOM      2  C   UNL     1      24.425   6.718   9.299  1.00  0.00     0.000 C 
BRANCH   2   3
ATOM      3  C   UNL     1      23.328   7.022  10.335  1.00  0.00     0.000 C 
BRANCH   3   4
ATOM      4  C   UNL     1      23.839   6.917  11.781  1.00  0.00     0.000 C 
BRANCH   4   5
ATOM      5  C   UNL     1      22.851   6.190  12.709  1.00  0.00     0.006 C 
BRANCH   5   6
ATOM      6  C   UNL     1      21.415   6.230  12.172  1.00  0.00     0.053 C 
BRANCH   6   7
ATOM      7  C   UNL     1      20.611   7.321  12.812  1.00  0.00     0.041 C 
ATOM      8  O   UNL     1      20.142   8.255  12.111  1.00  0.00    -0.550 OA
ATOM      9  O   UNL     1      20.412   7.325  14.186  1.00  0.00    -0.550 OA
ENDBRANCH   6   7
ENDBRANCH   5   6
ENDBRANCH   4   5
ENDBRANCH   3   4
ENDBRANCH   2   3
ENDBRANCH   1   2
BRANCH   1  10
ATOM     10  C   UNL     1      23.170   4.492   9.198  1.00  0.00     0.000 C 
BRANCH  10  11
ATOM     11  C   UNL     1      21.940   4.131   8.348  1.00  0.00    -0.000 C 
BRANCH  11  12
ATOM     12  C   UNL     1      20.630   4.675   8.938  1.00  0.00    -0.000 C 
BRANCH  12  13
ATOM     13  C   UNL     1      19.422   4.199   8.121  1.00  0.00    -0.000 C 
BRANCH  13  14
ATOM     14  C   UNL     1      18.348   5.290   8.040  1.00  0.00    -0.000 C 
BRANCH  14  15
ATOM     15  C   UNL     1      18.687   6.467   8.964  1.00  0.00    -0.003 C 
ATOM     16  C   UNL     1      17.780   7.663   8.690  1.00  0.00     0.004 C 
ENDBRANCH  14  15
ENDBRANCH  13  14
ENDBRANCH  12  13
ENDBRANCH  11  12
ENDBRANCH  10  11
ENDBRANCH   1  10
TORSDOF 12
ENDMDL
MODEL 2
REMARK VINA RESULT:    -4.042      6.743      9.414
REMARK INTER + INTRA:          -8.116
REMARK INTER:                  -6.474
REMARK INTRA:                  -1.643
REMARK UNBOUND:                -1.239
REMARK SMILES CCCCCCCCCCCCCC(=O)[O-]
REMARK SMILES IDX 8 1 9 2 10 3 11 4 12 5 13 6 14 7 15 8 16 9 7 10 6 11 5 12
REMARK SMILES IDX 4 13 3 14 2 15 1 16
REMARK H PARENT
REMARK Flexibility Score: inf
ROOT
ATOM      1  C   UNL     1      25.777   1.322  18.696  1.00  0.00     0.000 C 
ENDROOT
BRANCH   1   2
ATOM      2  C   UNL     1      26.755   2.508  18.664  1.00  0.00     0.000 C 
BRANCH   2   3
ATOM      3  C   UNL     1      26.141   3.764  18.021  1.00  0.00     0.000 C 
BRANCH   3   4
ATOM      4  C   UNL     1      25.776   3.550  16.543  1.00  0.00     0.000 C 
BRANCH   4   5
ATOM      5  C   UNL     1      26.404   4.606  15.617  1.00  0.00     0.006 C 
BRANCH   5   6
ATOM      6  C   UNL     1      25.361   5.282  14.718  1.00  0.00     0.053 C 
BRANCH   6   7
ATOM      7  C   UNL     1      25.632   6.747  14.556  1.00  0.00     0.041 C 
ATOM      8  O   UNL     1      26.147   7.181  13.492  1.00  0.00    -0.550 OA
ATOM      9  O   UNL     1      25.350   7.626  15.593  1.00  0.00    -0.550 OA
ENDBRANCH   6   7
ENDBRANCH   5   6
ENDBRANCH   4   5
ENDBRANCH   3   4
ENDBRANCH   2   3
ENDBRANCH   1   2
BRANCH   1  10
ATOM     10  C   UNL     1      25.132   1.128  20.080  1.00  0.00     0.000 C 
BRANCH  10  11
ATOM     11  C   UNL     1      23.935   2.066  20.310  1.00  0.00    -0.000 C 
BRANCH  11  12
ATOM     12  C   UNL     1      22.961   2.088  19.123  1.00  0.00    -0.000 C 
BRANCH  12  13
ATOM     13  C   UNL     1      22.488   3.517  18.829  1.00  0.00    -0.000 C 
BRANCH  13  14
ATOM     14  C   UNL     1      23.077   4.510  19.838  1.00  0.00    -0.000 C 
BRANCH  14  15
ATOM     15  C   UNL     1      23.089   5.933  19.267  1.00  0.00    -0.003 C 
ATOM     16  C   UNL     1      23.123   5.915  17.742  1.00  0.00     0.004 C 
ENDBRANCH  14  15
ENDBRANCH  13  14
ENDBRANCH  12  13
ENDBRANCH  11  12
ENDBRANCH  10  11
ENDBRANCH   1  10
TORSDOF 12
ENDMDL
MODEL 3
REMARK VINA RESULT:    -4.036      6.774     10.053
REMARK INTER + INTRA:          -8.106
REMARK INTER:                  -6.793
REMARK INTRA:                  -1.312
REMARK UNBOUND:                -1.239
REMARK SMILES CCCCCCCCCCCCCC(=O)[O-]
REMARK SMILES IDX 8 1 9 2 10 3 11 4 12 5 13 6 14 7 15 8 16 9 7 10 6 11 5 12
REMARK SMILES IDX 4 13 3 14 2 15 1 16
REMARK H PARENT
REMARK Flexibility Score: inf
ROOT
ATOM      1  C   UNL     1      24.513   4.226  17.342  1.00  0.00     0.000 C 
ENDROOT
BRANCH   1   2
ATOM      2  C   UNL     1      24.181   4.867  15.984  1.00  0.00     0.000 C 
BRANCH   2   3
ATOM      3  C   UNL     1      24.176   6.405  16.042  1.00  0.00     0.000 C 
BRANCH   3   4
ATOM      4  C   UNL     1      25.203   7.034  15.087  1.00  0.00     0.000 C 
BRANCH   4   5
ATOM      5  C   UNL     1      26.604   6.413  15.229  1.00  0.00     0.006 C 
BRANCH   5   6
ATOM      6  C   UNL     1      27.057   5.705  13.946  1.00  0.00     0.053 C 
BRANCH   6   7
ATOM      7  C   UNL     1      27.200   6.662  12.802  1.00  0.00     0.041 C 
ATOM      8  O   UNL     1      28.065   7.575  12.846  1.00  0.00    -0.550 OA
ATOM      9  O   UNL     1      26.352   6.569  11.706  1.00  0.00    -0.550 OA
ENDBRANCH   6   7
ENDBRANCH   5   6
ENDBRANCH   4   5
ENDBRANCH   3   4
ENDBRANCH   2   3
ENDBRANCH   1   2
BRANCH   1  10
ATOM     10  C   UNL     1      25.853   3.471  17.325  1.00  0.00     0.000 C 
BRANCH  10  11
ATOM     11  C   UNL     1      26.528   3.434  18.707  1.00  0.00    -0.000 C 
BRANCH  11  12
ATOM     12  C   UNL     1      28.043   3.677  18.634  1.00  0.00    -0.000 C 
BRANCH  12  13
ATOM     13  C   UNL     1      28.476   4.016  17.203  1.00  0.00    -0.000 C 
BRANCH  13  14
ATOM     14  C   UNL     1      29.543   5.117  17.196  1.00  0.00    -0.000 C 
BRANCH  14  15
ATOM     15  C   UNL     1      29.795   5.647  18.613  1.00  0.00    -0.003 C 
ATOM     16  C   UNL     1      31.264   5.503  19.002  1.00  0.00     0.004 C 
ENDBRANCH  14  15
ENDBRANCH  13  14
ENDBRANCH  12  13
ENDBRANCH  11  12
ENDBRANCH  10  11
ENDBRANCH   1  10
TORSDOF 12
ENDMDL
MODEL 4
REMARK VINA RESULT:    -4.027      2.986      4.696
REMARK INTER + INTRA:          -8.090
REMARK INTER:                  -6.077
REMARK INTRA:                  -2.013
REMARK UNBOUND:                -1.239
REMARK SMILES CCCCCCCCCCCCCC(=O)[O-]
REMARK SMILES IDX 8 1 9 2 10 3 11 4 12 5 13 6 14 7 15 8 16 9 7 10 6 11 5 12
REMARK SMILES IDX 4 13 3 14 2 15 1 16
REMARK H PARENT
REMARK Flexibility Score: inf
ROOT
ATOM      1  C   UNL     1      21.896   3.322  10.758  1.00  0.00     0.000 C 
ENDROOT
BRANCH   1   2
ATOM      2  C   UNL     1      21.252   3.817  12.063  1.00  0.00     0.000 C 
BRANCH   2   3
ATOM      3  C   UNL     1      22.287   4.075  13.173  1.00  0.00     0.000 C 
BRANCH   3   4
ATOM      4  C   UNL     1      23.731   4.047  12.649  1.00  0.00     0.000 C 
BRANCH   4   5
ATOM      5  C   UNL     1      24.692   4.887  13.508  1.00  0.00     0.006 C 
BRANCH   5   6
ATOM      6  C   UNL     1      26.046   5.103  12.820  1.00  0.00     0.053 C 
BRANCH   6   7
ATOM      7  C   UNL     1      26.451   6.546  12.828  1.00  0.00     0.041 C 
ATOM      8  O   UNL     1      25.964   7.335  13.680  1.00  0.00    -0.550 OA
ATOM      9  O   UNL     1      27.336   7.026  11.871  1.00  0.00    -0.550 OA
ENDBRANCH   6   7
ENDBRANCH   5   6
ENDBRANCH   4   5
ENDBRANCH   3   4
ENDBRANCH   2   3
ENDBRANCH   1   2
BRANCH   1  10
ATOM     10  C   UNL     1      21.126   3.786   9.509  1.00  0.00     0.000 C 
BRANCH  10  11
ATOM     11  C   UNL     1      22.059   4.157   8.344  1.00  0.00    -0.000 C 
BRANCH  11  12
ATOM     12  C   UNL     1      23.537   4.210   8.760  1.00  0.00    -0.000 C 
BRANCH  12  13
ATOM     13  C   UNL     1      24.142   5.587   8.460  1.00  0.00    -0.000 C 
BRANCH  13  14
ATOM     14  C   UNL     1      24.336   6.395   9.749  1.00  0.00    -0.000 C 
BRANCH  14  15
ATOM     15  C   UNL     1      23.188   7.393   9.950  1.00  0.00    -0.003 C 
ATOM     16  C   UNL     1      22.651   7.335  11.378  1.00  0.00     0.004 C 
ENDBRANCH  14  15
ENDBRANCH  13  14
ENDBRANCH  12  13
ENDBRANCH  11  12
ENDBRANCH  10  11
ENDBRANCH   1  10
TORSDOF 12
ENDMDL
MODEL 5
REMARK VINA RESULT:    -4.023      1.462      4.601
REMARK INTER + INTRA:          -8.085
REMARK INTER:                  -6.823
REMARK INTRA:                  -1.262
REMARK UNBOUND:                -1.239
REMARK SMILES CCCCCCCCCCCCCC(=O)[O-]
REMARK SMILES IDX 8 1 9 2 10 3 11 4 12 5 13 6 14 7 15 8 16 9 7 10 6 11 5 12
REMARK SMILES IDX 4 13 3 14 2 15 1 16
REMARK H PARENT
REMARK Flexibility Score: inf
ROOT
ATOM      1  C   UNL     1      23.312   4.424   8.946  1.00  0.00     0.000 C 
ENDROOT
BRANCH   1   2
ATOM      2  C   UNL     1      21.987   4.164   8.210  1.00  0.00     0.000 C 
BRANCH   2   3
ATOM      3  C   UNL     1      20.757   4.452   9.088  1.00  0.00     0.000 C 
BRANCH   3   4
ATOM      4  C   UNL     1      19.491   4.718   8.259  1.00  0.00     0.000 C 
BRANCH   4   5
ATOM      5  C   UNL     1      18.534   5.715   8.936  1.00  0.00     0.006 C 
BRANCH   5   6
ATOM      6  C   UNL     1      19.246   7.008   9.355  1.00  0.00     0.053 C 
BRANCH   6   7
ATOM      7  C   UNL     1      18.275   8.120   9.610  1.00  0.00     0.041 C 
ATOM      8  O   UNL     1      17.362   8.366   8.780  1.00  0.00    -0.550 OA
ATOM      9  O   UNL     1      18.403   8.908  10.747  1.00  0.00    -0.550 OA
ENDBRANCH   6   7
ENDBRANCH   5   6
ENDBRANCH   4   5
ENDBRANCH   3   4
ENDBRANCH   2   3
ENDBRANCH   1   2
BRANCH   1  10
ATOM     10  C   UNL     1      24.118   5.575   8.318  1.00  0.00     0.000 C 
BRANCH  10  11
ATOM     11  C   UNL     1      24.466   6.675   9.335  1.00  0.00    -0.000 C 
BRANCH  11  12
ATOM     12  C   UNL     1      24.683   6.127  10.753  1.00  0.00    -0.000 C 
BRANCH  12  13
ATOM     13  C   UNL     1      23.917   6.962  11.787  1.00  0.00    -0.000 C 
BRANCH  13  14
ATOM     14  C   UNL     1      22.617   7.516  11.192  1.00  0.00    -0.000 C 
BRANCH  14  15
ATOM     15  C   UNL     1      21.438   7.300  12.149  1.00  0.00    -0.003 C 
ATOM     16  C   UNL     1      21.915   6.780  13.503  1.00  0.00     0.004 C 
ENDBRANCH  14  15
ENDBRANCH  13  14
ENDBRANCH  12  13
ENDBRANCH  11  12
ENDBRANCH  10  11
ENDBRANCH   1  10
TORSDOF 12
ENDMDL
MODEL 6
REMARK VINA RESULT:    -4.003      6.881      9.826
REMARK INTER + INTRA:          -8.049
REMARK INTER:                  -6.421
REMARK INTRA:                  -1.629
REMARK UNBOUND:                -1.239
REMARK SMILES CCCCCCCCCCCCCC(=O)[O-]
REMARK SMILES IDX 8 1 9 2 10 3 11 4 12 5 13 6 14 7 15 8 16 9 7 10 6 11 5 12
REMARK SMILES IDX 4 13 3 14 2 15 1 16
REMARK H PARENT
REMARK Flexibility Score: inf
ROOT
ATOM      1  C   UNL     1      23.076   4.703  19.177  1.00  0.00     0.000 C 
ENDROOT
BRANCH   1   2
ATOM      2  C   UNL     1      22.547   4.148  17.844  1.00  0.00     0.000 C 
BRANCH   2   3
ATOM      3  C   UNL     1      23.009   4.978  16.633  1.00  0.00     0.000 C 
BRANCH   3   4
ATOM      4  C   UNL     1      23.152   6.472  16.963  1.00  0.00     0.000 C 
BRANCH   4   5
ATOM      5  C   UNL     1      24.199   7.178  16.085  1.00  0.00     0.006 C 
BRANCH   5   6
ATOM      6  C   UNL     1      24.926   6.201  15.151  1.00  0.00     0.053 C 
BRANCH   6   7
ATOM      7  C   UNL     1      26.220   6.768  14.651  1.00  0.00     0.041 C 
ATOM      8  O   UNL     1      27.219   6.833  15.414  1.00  0.00    -0.550 OA
ATOM      9  O   UNL     1      26.311   7.258  13.355  1.00  0.00    -0.550 OA
ENDBRANCH   6   7
ENDBRANCH   5   6
ENDBRANCH   4   5
ENDBRANCH   3   4
ENDBRANCH   2   3
ENDBRANCH   1   2
BRANCH   1  10
ATOM     10  C   UNL     1      22.571   3.902  20.390  1.00  0.00     0.000 C 
BRANCH  10  11
ATOM     11  C   UNL     1      23.583   2.845  20.862  1.00  0.00    -0.000 C 
BRANCH  11  12
ATOM     12  C   UNL     1      23.212   1.424  20.411  1.00  0.00    -0.000 C 
BRANCH  12  13
ATOM     13  C   UNL     1      24.030   1.008  19.183  1.00  0.00    -0.000 C 
BRANCH  13  14
ATOM     14  C   UNL     1      25.427   1.640  19.212  1.00  0.00    -0.000 C 
BRANCH  14  15
ATOM     15  C   UNL     1      25.737   2.351  17.889  1.00  0.00    -0.003 C 
ATOM     16  C   UNL     1      26.488   3.658  18.128  1.00  0.00     0.004 C 
ENDBRANCH  14  15
ENDBRANCH  13  14
ENDBRANCH  12  13
ENDBRANCH  11  12
ENDBRANCH  10  11
ENDBRANCH   1  10
TORSDOF 12
ENDMDL
MODEL 7
REMARK VINA RESULT:    -3.975     11.401     13.160
REMARK INTER + INTRA:          -8.002
REMARK INTER:                  -6.471
REMARK INTRA:                  -1.532
REMARK UNBOUND:                -1.239
REMARK SMILES CCCCCCCCCCCCCC(=O)[O-]
REMARK SMILES IDX 8 1 9 2 10 3 11 4 12 5 13 6 14 7 15 8 16 9 7 10 6 11 5 12
REMARK SMILES IDX 4 13 3 14 2 15 1 16
REMARK H PARENT
REMARK Flexibility Score: inf
ROOT
ATOM      1  C   UNL     1      28.490  -1.278   7.772  1.00  0.00     0.000 C 
ENDROOT
BRANCH   1   2
ATOM      2  C   UNL     1      29.223  -2.485   8.378  1.00  0.00     0.000 C 
BRANCH   2   3
ATOM      3  C   UNL     1      29.465  -3.606   7.352  1.00  0.00     0.000 C 
BRANCH   3   4
ATOM      4  C   UNL     1      28.611  -3.440   6.086  1.00  0.00     0.000 C 
BRANCH   4   5
ATOM      5  C   UNL     1      29.456  -3.371   4.802  1.00  0.00     0.006 C 
BRANCH   5   6
ATOM      6  C   UNL     1      30.937  -3.101   5.098  1.00  0.00     0.053 C 
BRANCH   6   7
ATOM      7  C   UNL     1      31.715  -2.831   3.846  1.00  0.00     0.041 C 
ATOM      8  O   UNL     1      32.638  -3.611   3.494  1.00  0.00    -0.550 OA
ATOM      9  O   UNL     1      31.444  -1.699   3.089  1.00  0.00    -0.550 OA
ENDBRANCH   6   7
ENDBRANCH   5   6
ENDBRANCH   4   5
ENDBRANCH   3   4
ENDBRANCH   2   3
ENDBRANCH   1   2
BRANCH   1  10
ATOM     10  C   UNL     1      29.352  -0.003   7.773  1.00  0.00     0.000 C 
BRANCH  10  11
ATOM     11  C   UNL     1      29.944   0.312   6.389  1.00  0.00    -0.000 C 
BRANCH  11  12
ATOM     12  C   UNL     1      28.896   0.246   5.267  1.00  0.00    -0.000 C 
BRANCH  12  13
ATOM     13  C   UNL     1      29.371   1.015   4.028  1.00  0.00    -0.000 C 
BRANCH  13  14
ATOM     14  C   UNL     1      30.080   2.315   4.426  1.00  0.00    -0.000 C 
BRANCH  14  15
ATOM     15  C   UNL     1      29.511   3.511   3.653  1.00  0.00    -0.003 C 
ATOM     16  C   UNL     1      28.204   3.145   2.955  1.00  0.00     0.004 C 
ENDBRANCH  14  15
ENDBRANCH  13  14
ENDBRANCH  12  13
ENDBRANCH  11  12
ENDBRANCH  10  11
ENDBRANCH   1  10
TORSDOF 12
ENDMDL
MODEL 8
REMARK VINA RESULT:    -3.951      1.589      4.930
REMARK INTER + INTRA:          -7.962
REMARK INTER:                  -6.747
REMARK INTRA:                  -1.214
REMARK UNBOUND:                -1.239
REMARK SMILES CCCCCCCCCCCCCC(=O)[O-]
REMARK SMILES IDX 8 1 9 2 10 3 11 4 12 5 13 6 14 7 15 8 16 9 7 10 6 11 5 12
REMARK SMILES IDX 4 13 3 14 2 15 1 16
REMARK H PARENT
REMARK Flexibility Score: inf
ROOT
ATOM      1  C   UNL     1      17.694   5.728   8.124  1.00  0.00     0.000 C 
ENDROOT
BRANCH   1   2
ATOM      2  C   UNL     1      17.698   7.134   7.502  1.00  0.00     0.000 C 
BRANCH   2   3
ATOM      3  C   UNL     1      17.212   8.216   8.483  1.00  0.00     0.000 C 
BRANCH   3   4
ATOM      4  C   UNL     1      16.720   7.626   9.814  1.00  0.00     0.000 C 
BRANCH   4   5
ATOM      5  C   UNL     1      17.480   8.186  11.029  1.00  0.00     0.006 C 
BRANCH   5   6
ATOM      6  C   UNL     1      18.530   7.201  11.559  1.00  0.00     0.053 C 
BRANCH   6   7
ATOM      7  C   UNL     1      19.924   7.660  11.258  1.00  0.00     0.041 C 
ATOM      8  O   UNL     1      20.319   7.745  10.066  1.00  0.00    -0.550 OA
ATOM      9  O   UNL     1      20.799   7.957  12.295  1.00  0.00    -0.550 OA
ENDBRANCH   6   7
ENDBRANCH   5   6
ENDBRANCH   4   5
ENDBRANCH   3   4
ENDBRANCH   2   3
ENDBRANCH   1   2
BRANCH   1  10
ATOM     10  C   UNL     1      18.982   4.944   7.816  1.00  0.00     0.000 C 
BRANCH  10  11
ATOM     11  C   UNL     1      19.757   4.558   9.087  1.00  0.00    -0.000 C 
BRANCH  11  12
ATOM     12  C   UNL     1      21.229   4.219   8.805  1.00  0.00    -0.000 C 
BRANCH  12  13
ATOM     13  C   UNL     1      22.140   4.786   9.901  1.00  0.00    -0.000 C 
BRANCH  13  14
ATOM     14  C   UNL     1      23.617   4.549   9.564  1.00  0.00    -0.000 C 
BRANCH  14  15
ATOM     15  C   UNL     1      24.091   5.505   8.462  1.00  0.00    -0.003 C 
ATOM     16  C   UNL     1      24.557   6.834   9.048  1.00  0.00     0.004 C 
ENDBRANCH  14  15
ENDBRANCH  13  14
ENDBRANCH  12  13
ENDBRANCH  11  12
ENDBRANCH  10  11
ENDBRANCH   1  10
TORSDOF 12
ENDMDL
MODEL 9
REMARK VINA RESULT:    -3.899     10.515     12.565
REMARK INTER + INTRA:          -7.874
REMARK INTER:                  -5.761
REMARK INTRA:                  -2.113
REMARK UNBOUND:                -1.239
REMARK SMILES CCCCCCCCCCCCCC(=O)[O-]
REMARK SMILES IDX 8 1 9 2 10 3 11 4 12 5 13 6 14 7 15 8 16 9 7 10 6 11 5 12
REMARK SMILES IDX 4 13 3 14 2 15 1 16
REMARK H PARENT
REMARK Flexibility Score: inf
ROOT
ATOM      1  C   UNL     1      31.798  -2.280   7.493  1.00  0.00     0.000 C 
ENDROOT
BRANCH   1   2
ATOM      2  C   UNL     1      30.961  -1.193   8.185  1.00  0.00     0.000 C 
BRANCH   2   3
ATOM      3  C   UNL     1      29.836  -0.650   7.286  1.00  0.00     0.000 C 
BRANCH   3   4
ATOM      4  C   UNL     1      28.440  -0.879   7.887  1.00  0.00     0.000 C 
BRANCH   4   5
ATOM      5  C   UNL     1      28.477  -1.727   9.171  1.00  0.00     0.006 C 
BRANCH   5   6
ATOM      6  C   UNL     1      27.540  -2.939   9.091  1.00  0.00     0.053 C 
BRANCH   6   7
ATOM      7  C   UNL     1      26.417  -2.840  10.079  1.00  0.00     0.041 C 
ATOM      8  O   UNL     1      25.246  -2.602   9.684  1.00  0.00    -0.550 OA
ATOM      9  O   UNL     1      26.672  -2.974  11.438  1.00  0.00    -0.550 OA
ENDBRANCH   6   7
ENDBRANCH   5   6
ENDBRANCH   4   5
ENDBRANCH   3   4
ENDBRANCH   2   3
ENDBRANCH   1   2
BRANCH   1  10
ATOM     10  C   UNL     1      31.509  -3.687   8.045  1.00  0.00     0.000 C 
BRANCH  10  11
ATOM     11  C   UNL     1      31.081  -4.676   6.947  1.00  0.00    -0.000 C 
BRANCH  11  12
ATOM     12  C   UNL     1      29.560  -4.891   6.902  1.00  0.00    -0.000 C 
BRANCH  12  13
ATOM     13  C   UNL     1      28.910  -3.982   5.852  1.00  0.00    -0.000 C 
BRANCH  13  14
ATOM     14  C   UNL     1      29.743  -3.944   4.565  1.00  0.00    -0.000 C 
BRANCH  14  15
ATOM     15  C   UNL     1      29.986  -2.500   4.109  1.00  0.00    -0.003 C 
ATOM     16  C   UNL     1      31.448  -2.279   3.731  1.00  0.00     0.004 C 
ENDBRANCH  14  15
ENDBRANCH  13  14
ENDBRANCH  12  13
ENDBRANCH  11  12
ENDBRANCH  10  11
ENDBRANCH   1  10
TORSDOF 12
ENDMDL
