MODEL 1
REMARK VINA RESULT:    -5.901      0.000      0.000
REMARK INTER + INTRA:          -7.537
REMARK INTER:                  -7.281
REMARK INTRA:                  -0.256
REMARK UNBOUND:                -0.256
REMARK SMILES O=c1c(O)c(-c2cc(O)c(O)c(O)c2)oc2cc(O)cc(O)c12
REMARK SMILES IDX 5 1 3 2 2 3 1 4 23 5 21 6 20 7 18 8 17 9 16 10 15 11 6 12
REMARK SMILES IDX 7 13 8 14 14 15 10 16 12 17 9 18 11 20 13 22 4 24 22 26
REMARK SMILES IDX 19 28
REMARK H PARENT 9 19 11 21 13 23 4 25 22 27 19 29
REMARK Flexibility Score: inf
ROOT
ATOM      1  C   UNL     1      50.520  13.789  26.593  1.00  0.00     0.180 A 
ATOM      2  C   UNL     1      49.298  13.978  27.261  1.00  0.00     0.208 A 
ATOM      3  C   UNL     1      48.236  14.589  26.578  1.00  0.00     0.238 A 
ATOM      4  O   UNL     1      47.123  14.688  27.158  1.00  0.00    -0.285 OA
ATOM      5  C   UNL     1      48.424  15.052  25.253  1.00  0.00     0.111 A 
ATOM      6  C   UNL     1      47.429  15.726  24.479  1.00  0.00     0.134 A 
ATOM      7  C   UNL     1      47.695  16.044  23.141  1.00  0.00     0.093 A 
ATOM      8  C   UNL     1      48.935  15.774  22.569  1.00  0.00     0.123 A 
ATOM      9  C   UNL     1      49.933  15.165  23.331  1.00  0.00     0.094 A 
ATOM     10  C   UNL     1      49.687  14.800  24.657  1.00  0.00     0.146 A 
ATOM     11  O   UNL     1      50.656  14.204  25.340  1.00  0.00    -0.452 OA
ENDROOT
BRANCH   1  12
ATOM     12  C   UNL     1      51.681  13.139  27.243  1.00  0.00     0.029 A 
ATOM     13  C   UNL     1      52.803  13.881  27.648  1.00  0.00     0.062 A 
ATOM     14  C   UNL     1      53.883  13.250  28.283  1.00  0.00     0.162 A 
ATOM     15  C   UNL     1      51.638  11.763  27.514  1.00  0.00     0.062 A 
ATOM     16  C   UNL     1      53.841  11.868  28.529  1.00  0.00     0.200 A 
ATOM     17  C   UNL     1      52.711  11.125  28.145  1.00  0.00     0.162 A 
BRANCH  14  18
ATOM     18  O   UNL     1      54.995  13.996  28.675  1.00  0.00    -0.504 OA
ATOM     19  H   UNL     1      55.920  13.798  28.313  1.00  0.00     0.293 HD
ENDBRANCH  14  18
BRANCH  16  20
ATOM     20  O   UNL     1      54.908  11.223  29.155  1.00  0.00    -0.502 OA
ATOM     21  H   UNL     1      54.853  10.258  29.460  1.00  0.00     0.293 HD
ENDBRANCH  16  20
BRANCH  17  22
ATOM     22  O   UNL     1      52.635   9.753  28.383  1.00  0.00    -0.504 OA
ATOM     23  H   UNL     1      53.325   9.104  28.022  1.00  0.00     0.293 HD
ENDBRANCH  17  22
ENDBRANCH   1  12
BRANCH   2  24
ATOM     24  O   UNL     1      49.157  13.582  28.595  1.00  0.00    -0.502 OA
ATOM     25  H   UNL     1      49.728  12.856  29.010  1.00  0.00     0.293 HD
ENDBRANCH   2  24
BRANCH   6  26
ATOM     26  O   UNL     1      46.185  16.125  24.978  1.00  0.00    -0.507 OA
ATOM     27  H   UNL     1      45.395  15.513  25.113  1.00  0.00     0.293 HD
ENDBRANCH   6  26
BRANCH   8  28
ATOM     28  O   UNL     1      49.170  16.120  21.239  1.00  0.00    -0.508 OA
ATOM     29  H   UNL     1      48.886  17.019  20.867  1.00  0.00     0.293 HD
ENDBRANCH   8  28
TORSDOF 7
ENDMDL
MODEL 2
REMARK VINA RESULT:    -5.712      2.507      4.271
REMARK INTER + INTRA:          -7.303
REMARK INTER:                  -7.630
REMARK INTRA:                   0.327
REMARK UNBOUND:                -0.256
REMARK SMILES O=c1c(O)c(-c2cc(O)c(O)c(O)c2)oc2cc(O)cc(O)c12
REMARK SMILES IDX 5 1 3 2 2 3 1 4 23 5 21 6 20 7 18 8 17 9 16 10 15 11 6 12
REMARK SMILES IDX 7 13 8 14 14 15 10 16 12 17 9 18 11 20 13 22 4 24 22 26
REMARK SMILES IDX 19 28
REMARK H PARENT 9 19 11 21 13 23 4 25 22 27 19 29
REMARK Flexibility Score: inf
ROOT
ATOM      1  C   UNL     1      52.226  14.284  26.644  1.00  0.00     0.180 A 
ATOM      2  C   UNL     1      51.816  14.181  25.304  1.00  0.00     0.208 A 
ATOM      3  C   UNL     1      50.456  13.975  25.022  1.00  0.00     0.238 A 
ATOM      4  O   UNL     1      50.086  13.958  23.819  1.00  0.00    -0.285 OA
ATOM      5  C   UNL     1      49.532  13.821  26.083  1.00  0.00     0.111 A 
ATOM      6  C   UNL     1      48.136  13.563  25.915  1.00  0.00     0.134 A 
ATOM      7  C   UNL     1      47.300  13.535  27.037  1.00  0.00     0.093 A 
ATOM      8  C   UNL     1      47.813  13.689  28.323  1.00  0.00     0.123 A 
ATOM      9  C   UNL     1      49.182  13.886  28.504  1.00  0.00     0.094 A 
ATOM     10  C   UNL     1      50.039  13.958  27.403  1.00  0.00     0.146 A 
ATOM     11  O   UNL     1      51.331  14.168  27.617  1.00  0.00    -0.452 OA
ENDROOT
BRANCH   1  12
ATOM     12  C   UNL     1      53.639  14.515  27.020  1.00  0.00     0.029 A 
ATOM     13  C   UNL     1      54.560  15.058  26.108  1.00  0.00     0.062 A 
ATOM     14  C   UNL     1      55.889  15.293  26.491  1.00  0.00     0.162 A 
ATOM     15  C   UNL     1      54.058  14.241  28.331  1.00  0.00     0.062 A 
ATOM     16  C   UNL     1      56.304  14.992  27.799  1.00  0.00     0.200 A 
ATOM     17  C   UNL     1      55.382  14.469  28.721  1.00  0.00     0.162 A 
BRANCH  14  18
ATOM     18  O   UNL     1      56.795  15.826  25.575  1.00  0.00    -0.504 OA
ATOM     19  H   UNL     1      57.780  15.919  25.795  1.00  0.00     0.293 HD
ENDBRANCH  14  18
BRANCH  16  20
ATOM     20  O   UNL     1      57.624  15.214  28.196  1.00  0.00    -0.502 OA
ATOM     21  H   UNL     1      58.356  15.441  27.533  1.00  0.00     0.293 HD
ENDBRANCH  16  20
BRANCH  17  22
ATOM     22  O   UNL     1      55.760  14.169  30.029  1.00  0.00    -0.504 OA
ATOM     23  H   UNL     1      55.478  13.311  30.488  1.00  0.00     0.293 HD
ENDBRANCH  17  22
ENDBRANCH   1  12
BRANCH   2  24
ATOM     24  O   UNL     1      52.756  14.260  24.272  1.00  0.00    -0.502 OA
ATOM     25  H   UNL     1      53.637  14.747  24.376  1.00  0.00     0.293 HD
ENDBRANCH   2  24
BRANCH   6  26
ATOM     26  O   UNL     1      47.530  13.307  24.681  1.00  0.00    -0.507 OA
ATOM     27  H   UNL     1      47.657  12.466  24.139  1.00  0.00     0.293 HD
ENDBRANCH   6  26
BRANCH   8  28
ATOM     28  O   UNL     1      46.952  13.638  29.419  1.00  0.00    -0.508 OA
ATOM     29  H   UNL     1      46.016  13.258  29.340  1.00  0.00     0.293 HD
ENDBRANCH   8  28
TORSDOF 7
ENDMDL
MODEL 3
REMARK VINA RESULT:    -5.558      2.624      7.664
REMARK INTER + INTRA:          -7.114
REMARK INTER:                  -7.577
REMARK INTRA:                   0.463
REMARK UNBOUND:                -0.256
REMARK SMILES O=c1c(O)c(-c2cc(O)c(O)c(O)c2)oc2cc(O)cc(O)c12
REMARK SMILES IDX 5 1 3 2 2 3 1 4 23 5 21 6 20 7 18 8 17 9 16 10 15 11 6 12
REMARK SMILES IDX 7 13 8 14 14 15 10 16 12 17 9 18 11 20 13 22 4 24 22 26
REMARK SMILES IDX 19 28
REMARK H PARENT 9 19 11 21 13 23 4 25 22 27 19 29
REMARK Flexibility Score: inf
ROOT
ATOM      1  C   UNL     1      52.443  15.001  24.794  1.00  0.00     0.180 A 
ATOM      2  C   UNL     1      53.525  15.571  24.101  1.00  0.00     0.208 A 
ATOM      3  C   UNL     1      54.765  15.681  24.747  1.00  0.00     0.238 A 
ATOM      4  O   UNL     1      55.747  16.124  24.096  1.00  0.00    -0.285 OA
ATOM      5  C   UNL     1      54.897  15.269  26.096  1.00  0.00     0.111 A 
ATOM      6  C   UNL     1      56.097  15.376  26.864  1.00  0.00     0.134 A 
ATOM      7  C   UNL     1      56.138  14.838  28.157  1.00  0.00     0.093 A 
ATOM      8  C   UNL     1      55.010  14.257  28.732  1.00  0.00     0.123 A 
ATOM      9  C   UNL     1      53.817  14.197  28.011  1.00  0.00     0.094 A 
ATOM     10  C   UNL     1      53.753  14.690  26.705  1.00  0.00     0.146 A 
ATOM     11  O   UNL     1      52.606  14.594  26.046  1.00  0.00    -0.452 OA
ENDROOT
BRANCH   1  12
ATOM     12  C   UNL     1      51.108  14.838  24.174  1.00  0.00     0.029 A 
ATOM     13  C   UNL     1      50.116  14.042  24.770  1.00  0.00     0.062 A 
ATOM     14  C   UNL     1      48.850  13.920  24.180  1.00  0.00     0.162 A 
ATOM     15  C   UNL     1      50.805  15.539  22.996  1.00  0.00     0.062 A 
ATOM     16  C   UNL     1      48.564  14.606  22.988  1.00  0.00     0.200 A 
ATOM     17  C   UNL     1      49.546  15.420  22.399  1.00  0.00     0.162 A 
BRANCH  14  18
ATOM     18  O   UNL     1      47.875  13.122  24.778  1.00  0.00    -0.504 OA
ATOM     19  H   UNL     1      47.778  12.140  24.547  1.00  0.00     0.293 HD
ENDBRANCH  14  18
BRANCH  16  20
ATOM     20  O   UNL     1      47.311  14.492  22.384  1.00  0.00    -0.502 OA
ATOM     21  H   UNL     1      46.524  14.055  22.850  1.00  0.00     0.293 HD
ENDBRANCH  16  20
BRANCH  17  22
ATOM     22  O   UNL     1      49.290  16.122  21.221  1.00  0.00    -0.504 OA
ATOM     23  H   UNL     1      48.425  16.009  20.704  1.00  0.00     0.293 HD
ENDBRANCH  17  22
ENDBRANCH   1  12
BRANCH   2  24
ATOM     24  O   UNL     1      53.355  16.042  22.795  1.00  0.00    -0.502 OA
ATOM     25  H   UNL     1      52.447  16.089  22.348  1.00  0.00     0.293 HD
ENDBRANCH   2  24
BRANCH   6  26
ATOM     26  O   UNL     1      57.258  16.015  26.420  1.00  0.00    -0.507 OA
ATOM     27  H   UNL     1      57.927  15.617  25.779  1.00  0.00     0.293 HD
ENDBRANCH   6  26
BRANCH   8  28
ATOM     28  O   UNL     1      55.082  13.747  30.027  1.00  0.00    -0.508 OA
ATOM     29  H   UNL     1      54.869  12.777  30.228  1.00  0.00     0.293 HD
ENDBRANCH   8  28
TORSDOF 7
ENDMDL
MODEL 4
REMARK VINA RESULT:    -5.551      2.187      3.097
REMARK INTER + INTRA:          -7.106
REMARK INTER:                  -7.607
REMARK INTRA:                   0.501
REMARK UNBOUND:                -0.256
REMARK SMILES O=c1c(O)c(-c2cc(O)c(O)c(O)c2)oc2cc(O)cc(O)c12
REMARK SMILES IDX 5 1 3 2 2 3 1 4 23 5 21 6 20 7 18 8 17 9 16 10 15 11 6 12
REMARK SMILES IDX 7 13 8 14 14 15 10 16 12 17 9 18 11 20 13 22 4 24 22 26
REMARK SMILES IDX 19 28
REMARK H PARENT 9 19 11 21 13 23 4 25 22 27 19 29
REMARK Flexibility Score: inf
ROOT
ATOM      1  C   UNL     1      52.512  14.654  26.019  1.00  0.00     0.180 A 
ATOM      2  C   UNL     1      51.537  14.009  26.799  1.00  0.00     0.208 A 
ATOM      3  C   UNL     1      50.238  13.871  26.287  1.00  0.00     0.238 A 
ATOM      4  O   UNL     1      49.390  13.227  26.959  1.00  0.00    -0.285 OA
ATOM      5  C   UNL     1      49.914  14.426  25.026  1.00  0.00     0.111 A 
ATOM      6  C   UNL     1      48.617  14.385  24.428  1.00  0.00     0.134 A 
ATOM      7  C   UNL     1      48.440  14.875  23.128  1.00  0.00     0.093 A 
ATOM      8  C   UNL     1      49.493  15.462  22.430  1.00  0.00     0.123 A 
ATOM      9  C   UNL     1      50.751  15.558  23.025  1.00  0.00     0.094 A 
ATOM     10  C   UNL     1      50.970  15.044  24.305  1.00  0.00     0.146 A 
ATOM     11  O   UNL     1      52.187  15.135  24.826  1.00  0.00    -0.452 OA
ENDROOT
BRANCH   1  12
ATOM     12  C   UNL     1      53.907  14.824  26.485  1.00  0.00     0.029 A 
ATOM     13  C   UNL     1      54.905  15.332  25.637  1.00  0.00     0.062 A 
ATOM     14  C   UNL     1      56.216  15.509  26.104  1.00  0.00     0.162 A 
ATOM     15  C   UNL     1      54.230  14.528  27.818  1.00  0.00     0.062 A 
ATOM     16  C   UNL     1      56.535  15.186  27.434  1.00  0.00     0.200 A 
ATOM     17  C   UNL     1      55.535  14.698  28.292  1.00  0.00     0.162 A 
BRANCH  14  18
ATOM     18  O   UNL     1      57.200  16.008  25.251  1.00  0.00    -0.504 OA
ATOM     19  H   UNL     1      58.090  15.539  25.137  1.00  0.00     0.293 HD
ENDBRANCH  14  18
BRANCH  16  20
ATOM     20  O   UNL     1      57.834  15.351  27.914  1.00  0.00    -0.502 OA
ATOM     21  H   UNL     1      58.031  15.818  28.792  1.00  0.00     0.293 HD
ENDBRANCH  16  20
BRANCH  17  22
ATOM     22  O   UNL     1      55.817  14.378  29.620  1.00  0.00    -0.504 OA
ATOM     23  H   UNL     1      55.196  13.805  30.179  1.00  0.00     0.293 HD
ENDBRANCH  17  22
ENDBRANCH   1  12
BRANCH   2  24
ATOM     24  O   UNL     1      51.857  13.534  28.074  1.00  0.00    -0.502 OA
ATOM     25  H   UNL     1      52.677  13.846  28.581  1.00  0.00     0.293 HD
ENDBRANCH   2  24
BRANCH   6  26
ATOM     26  O   UNL     1      47.473  13.900  25.070  1.00  0.00    -0.507 OA
ATOM     27  H   UNL     1      47.473  13.201  25.797  1.00  0.00     0.293 HD
ENDBRANCH   6  26
BRANCH   8  28
ATOM     28  O   UNL     1      49.276  15.956  21.144  1.00  0.00    -0.508 OA
ATOM     29  H   UNL     1      50.014  15.967  20.450  1.00  0.00     0.293 HD
ENDBRANCH   8  28
TORSDOF 7
ENDMDL
MODEL 5
REMARK VINA RESULT:    -5.539      2.498      4.333
REMARK INTER + INTRA:          -7.091
REMARK INTER:                  -7.472
REMARK INTRA:                   0.381
REMARK UNBOUND:                -0.256
REMARK SMILES O=c1c(O)c(-c2cc(O)c(O)c(O)c2)oc2cc(O)cc(O)c12
REMARK SMILES IDX 5 1 3 2 2 3 1 4 23 5 21 6 20 7 18 8 17 9 16 10 15 11 6 12
REMARK SMILES IDX 7 13 8 14 14 15 10 16 12 17 9 18 11 20 13 22 4 24 22 26
REMARK SMILES IDX 19 28
REMARK H PARENT 9 19 11 21 13 23 4 25 22 27 19 29
REMARK Flexibility Score: inf
ROOT
ATOM      1  C   UNL     1      52.161  14.273  26.592  1.00  0.00     0.180 A 
ATOM      2  C   UNL     1      51.807  14.090  25.244  1.00  0.00     0.208 A 
ATOM      3  C   UNL     1      50.461  13.871  24.917  1.00  0.00     0.238 A 
ATOM      4  O   UNL     1      50.142  13.782  23.702  1.00  0.00    -0.285 OA
ATOM      5  C   UNL     1      49.491  13.782  25.945  1.00  0.00     0.111 A 
ATOM      6  C   UNL     1      48.103  13.518  25.733  1.00  0.00     0.134 A 
ATOM      7  C   UNL     1      47.219  13.559  26.818  1.00  0.00     0.093 A 
ATOM      8  C   UNL     1      47.677  13.788  28.113  1.00  0.00     0.123 A 
ATOM      9  C   UNL     1      49.038  13.993  28.340  1.00  0.00     0.094 A 
ATOM     10  C   UNL     1      49.941  13.997  27.274  1.00  0.00     0.146 A 
ATOM     11  O   UNL     1      51.224  14.217  27.531  1.00  0.00    -0.452 OA
ENDROOT
BRANCH   1  12
ATOM     12  C   UNL     1      53.558  14.524  27.013  1.00  0.00     0.029 A 
ATOM     13  C   UNL     1      54.002  14.200  28.306  1.00  0.00     0.062 A 
ATOM     14  C   UNL     1      55.336  14.423  28.678  1.00  0.00     0.162 A 
ATOM     15  C   UNL     1      54.475  15.043  26.086  1.00  0.00     0.062 A 
ATOM     16  C   UNL     1      56.241  14.965  27.750  1.00  0.00     0.200 A 
ATOM     17  C   UNL     1      55.806  15.271  26.449  1.00  0.00     0.162 A 
BRANCH  14  18
ATOM     18  O   UNL     1      55.764  14.104  29.966  1.00  0.00    -0.504 OA
ATOM     19  H   UNL     1      55.400  13.299  30.462  1.00  0.00     0.293 HD
ENDBRANCH  14  18
BRANCH  16  20
ATOM     20  O   UNL     1      57.570  15.199  28.104  1.00  0.00    -0.502 OA
ATOM     21  H   UNL     1      57.837  15.938  28.745  1.00  0.00     0.293 HD
ENDBRANCH  16  20
BRANCH  17  22
ATOM     22  O   UNL     1      56.682  15.801  25.502  1.00  0.00    -0.504 OA
ATOM     23  H   UNL     1      56.577  15.619  24.510  1.00  0.00     0.293 HD
ENDBRANCH  17  22
ENDBRANCH   1  12
BRANCH   2  24
ATOM     24  O   UNL     1      52.791  14.106  24.251  1.00  0.00    -0.502 OA
ATOM     25  H   UNL     1      53.773  14.242  24.459  1.00  0.00     0.293 HD
ENDBRANCH   2  24
BRANCH   6  26
ATOM     26  O   UNL     1      47.549  13.189  24.491  1.00  0.00    -0.507 OA
ATOM     27  H   UNL     1      46.632  13.468  24.176  1.00  0.00     0.293 HD
ENDBRANCH   6  26
BRANCH   8  28
ATOM     28  O   UNL     1      46.771  13.804  29.171  1.00  0.00    -0.508 OA
ATOM     29  H   UNL     1      45.805  13.523  29.047  1.00  0.00     0.293 HD
ENDBRANCH   8  28
TORSDOF 7
ENDMDL
MODEL 6
REMARK VINA RESULT:    -5.462      1.217      2.929
REMARK INTER + INTRA:          -6.996
REMARK INTER:                  -6.675
REMARK INTRA:                  -0.321
REMARK UNBOUND:                -0.256
REMARK SMILES O=c1c(O)c(-c2cc(O)c(O)c(O)c2)oc2cc(O)cc(O)c12
REMARK SMILES IDX 5 1 3 2 2 3 1 4 23 5 21 6 20 7 18 8 17 9 16 10 15 11 6 12
REMARK SMILES IDX 7 13 8 14 14 15 10 16 12 17 9 18 11 20 13 22 4 24 22 26
REMARK SMILES IDX 19 28
REMARK H PARENT 9 19 11 21 13 23 4 25 22 27 19 29
REMARK Flexibility Score: inf
ROOT
ATOM      1  C   UNL     1      51.518  14.198  25.608  1.00  0.00     0.180 A 
ATOM      2  C   UNL     1      52.034  14.503  24.337  1.00  0.00     0.208 A 
ATOM      3  C   UNL     1      51.188  15.086  23.381  1.00  0.00     0.238 A 
ATOM      4  O   UNL     1      51.675  15.425  22.271  1.00  0.00    -0.285 OA
ATOM      5  C   UNL     1      49.823  15.307  23.688  1.00  0.00     0.111 A 
ATOM      6  C   UNL     1      48.863  15.851  22.781  1.00  0.00     0.134 A 
ATOM      7  C   UNL     1      47.565  16.124  23.231  1.00  0.00     0.093 A 
ATOM      8  C   UNL     1      47.173  15.814  24.531  1.00  0.00     0.123 A 
ATOM      9  C   UNL     1      48.087  15.231  25.410  1.00  0.00     0.094 A 
ATOM     10  C   UNL     1      49.400  14.982  25.004  1.00  0.00     0.146 A 
ATOM     11  O   UNL     1      50.243  14.447  25.878  1.00  0.00    -0.452 OA
ENDROOT
BRANCH   1  12
ATOM     12  C   UNL     1      52.353  13.596  26.672  1.00  0.00     0.029 A 
ATOM     13  C   UNL     1      53.282  14.361  27.396  1.00  0.00     0.062 A 
ATOM     14  C   UNL     1      54.045  13.777  28.417  1.00  0.00     0.162 A 
ATOM     15  C   UNL     1      52.173  12.244  27.007  1.00  0.00     0.062 A 
ATOM     16  C   UNL     1      53.875  12.418  28.729  1.00  0.00     0.200 A 
ATOM     17  C   UNL     1      52.932  11.653  28.022  1.00  0.00     0.162 A 
BRANCH  14  18
ATOM     18  O   UNL     1      54.969  14.546  29.125  1.00  0.00    -0.504 OA
ATOM     19  H   UNL     1      54.728  14.992  30.002  1.00  0.00     0.293 HD
ENDBRANCH  14  18
BRANCH  16  20
ATOM     20  O   UNL     1      54.630  11.819  29.739  1.00  0.00    -0.502 OA
ATOM     21  H   UNL     1      55.148  12.362  30.420  1.00  0.00     0.293 HD
ENDBRANCH  16  20
BRANCH  17  22
ATOM     22  O   UNL     1      52.733  10.304  28.314  1.00  0.00    -0.504 OA
ATOM     23  H   UNL     1      52.064   9.736  27.807  1.00  0.00     0.293 HD
ENDBRANCH  17  22
ENDBRANCH   1  12
BRANCH   2  24
ATOM     24  O   UNL     1      53.365  14.207  24.027  1.00  0.00    -0.502 OA
ATOM     25  H   UNL     1      53.670  13.275  23.774  1.00  0.00     0.293 HD
ENDBRANCH   2  24
BRANCH   6  26
ATOM     26  O   UNL     1      49.123  16.118  21.433  1.00  0.00    -0.507 OA
ATOM     27  H   UNL     1      49.759  16.825  21.096  1.00  0.00     0.293 HD
ENDBRANCH   6  26
BRANCH   8  28
ATOM     28  O   UNL     1      45.868  16.083  24.939  1.00  0.00    -0.508 OA
ATOM     29  H   UNL     1      45.206  16.546  24.327  1.00  0.00     0.293 HD
ENDBRANCH   8  28
TORSDOF 7
ENDMDL
MODEL 7
REMARK VINA RESULT:    -5.459      2.167      3.255
REMARK INTER + INTRA:          -6.992
REMARK INTER:                  -7.425
REMARK INTRA:                   0.433
REMARK UNBOUND:                -0.256
REMARK SMILES O=c1c(O)c(-c2cc(O)c(O)c(O)c2)oc2cc(O)cc(O)c12
REMARK SMILES IDX 5 1 3 2 2 3 1 4 23 5 21 6 20 7 18 8 17 9 16 10 15 11 6 12
REMARK SMILES IDX 7 13 8 14 14 15 10 16 12 17 9 18 11 20 13 22 4 24 22 26
REMARK SMILES IDX 19 28
REMARK H PARENT 9 19 11 21 13 23 4 25 22 27 19 29
REMARK Flexibility Score: inf
ROOT
ATOM      1  C   UNL     1      52.468  14.659  26.083  1.00  0.00     0.180 A 
ATOM      2  C   UNL     1      51.491  14.002  26.849  1.00  0.00     0.208 A 
ATOM      3  C   UNL     1      50.200  13.849  26.320  1.00  0.00     0.238 A 
ATOM      4  O   UNL     1      49.351  13.194  26.981  1.00  0.00    -0.285 OA
ATOM      5  C   UNL     1      49.887  14.401  25.054  1.00  0.00     0.111 A 
ATOM      6  C   UNL     1      48.598  14.344  24.440  1.00  0.00     0.134 A 
ATOM      7  C   UNL     1      48.433  14.833  23.138  1.00  0.00     0.093 A 
ATOM      8  C   UNL     1      49.487  15.433  22.454  1.00  0.00     0.123 A 
ATOM      9  C   UNL     1      50.737  15.543  23.065  1.00  0.00     0.094 A 
ATOM     10  C   UNL     1      50.945  15.032  24.348  1.00  0.00     0.146 A 
ATOM     11  O   UNL     1      52.153  15.137  24.885  1.00  0.00    -0.452 OA
ENDROOT
BRANCH   1  12
ATOM     12  C   UNL     1      53.855  14.846  26.567  1.00  0.00     0.029 A 
ATOM     13  C   UNL     1      54.226  14.504  27.877  1.00  0.00     0.062 A 
ATOM     14  C   UNL     1      55.550  14.666  28.309  1.00  0.00     0.162 A 
ATOM     15  C   UNL     1      54.835  15.322  25.682  1.00  0.00     0.062 A 
ATOM     16  C   UNL     1      56.519  15.166  27.423  1.00  0.00     0.200 A 
ATOM     17  C   UNL     1      56.158  15.490  26.105  1.00  0.00     0.162 A 
BRANCH  14  18
ATOM     18  O   UNL     1      55.905  14.329  29.615  1.00  0.00    -0.504 OA
ATOM     19  H   UNL     1      55.504  14.805  30.414  1.00  0.00     0.293 HD
ENDBRANCH  14  18
BRANCH  16  20
ATOM     20  O   UNL     1      57.841  15.339  27.837  1.00  0.00    -0.502 OA
ATOM     21  H   UNL     1      58.610  14.835  27.412  1.00  0.00     0.293 HD
ENDBRANCH  16  20
BRANCH  17  22
ATOM     22  O   UNL     1      57.098  15.979  25.199  1.00  0.00    -0.504 OA
ATOM     23  H   UNL     1      56.873  16.142  24.224  1.00  0.00     0.293 HD
ENDBRANCH  17  22
ENDBRANCH   1  12
BRANCH   2  24
ATOM     24  O   UNL     1      51.800  13.530  28.129  1.00  0.00    -0.502 OA
ATOM     25  H   UNL     1      51.787  14.128  28.946  1.00  0.00     0.293 HD
ENDBRANCH   2  24
BRANCH   6  26
ATOM     26  O   UNL     1      47.452  13.845  25.067  1.00  0.00    -0.507 OA
ATOM     27  H   UNL     1      46.855  13.125  24.689  1.00  0.00     0.293 HD
ENDBRANCH   6  26
BRANCH   8  28
ATOM     28  O   UNL     1      49.282  15.924  21.166  1.00  0.00    -0.508 OA
ATOM     29  H   UNL     1      48.518  16.555  20.955  1.00  0.00     0.293 HD
ENDBRANCH   8  28
TORSDOF 7
ENDMDL
MODEL 8
REMARK VINA RESULT:    -5.070      1.789      6.994
REMARK INTER + INTRA:          -6.511
REMARK INTER:                  -6.484
REMARK INTRA:                  -0.027
REMARK UNBOUND:                -0.256
REMARK SMILES O=c1c(O)c(-c2cc(O)c(O)c(O)c2)oc2cc(O)cc(O)c12
REMARK SMILES IDX 5 1 3 2 2 3 1 4 23 5 21 6 20 7 18 8 17 9 16 10 15 11 6 12
REMARK SMILES IDX 7 13 8 14 14 15 10 16 12 17 9 18 11 20 13 22 4 24 22 26
REMARK SMILES IDX 19 28
REMARK H PARENT 9 19 11 21 13 23 4 25 22 27 19 29
REMARK Flexibility Score: inf
ROOT
ATOM      1  C   UNL     1      51.329  14.563  25.749  1.00  0.00     0.180 A 
ATOM      2  C   UNL     1      51.213  13.542  26.707  1.00  0.00     0.208 A 
ATOM      3  C   UNL     1      52.334  13.204  27.482  1.00  0.00     0.238 A 
ATOM      4  O   UNL     1      52.203  12.340  28.388  1.00  0.00    -0.285 OA
ATOM      5  C   UNL     1      53.571  13.854  27.253  1.00  0.00     0.111 A 
ATOM      6  C   UNL     1      54.784  13.562  27.948  1.00  0.00     0.134 A 
ATOM      7  C   UNL     1      55.921  14.343  27.711  1.00  0.00     0.093 A 
ATOM      8  C   UNL     1      55.910  15.362  26.760  1.00  0.00     0.123 A 
ATOM      9  C   UNL     1      54.747  15.621  26.036  1.00  0.00     0.094 A 
ATOM     10  C   UNL     1      53.584  14.885  26.276  1.00  0.00     0.146 A 
ATOM     11  O   UNL     1      52.493  15.178  25.580  1.00  0.00    -0.452 OA
ENDROOT
BRANCH   1  12
ATOM     12  C   UNL     1      50.188  14.985  24.905  1.00  0.00     0.029 A 
ATOM     13  C   UNL     1      50.284  15.011  23.504  1.00  0.00     0.062 A 
ATOM     14  C   UNL     1      49.183  15.390  22.721  1.00  0.00     0.162 A 
ATOM     15  C   UNL     1      48.965  15.310  25.512  1.00  0.00     0.062 A 
ATOM     16  C   UNL     1      47.971  15.738  23.339  1.00  0.00     0.200 A 
ATOM     17  C   UNL     1      47.863  15.693  24.740  1.00  0.00     0.162 A 
BRANCH  14  18
ATOM     18  O   UNL     1      49.293  15.419  21.331  1.00  0.00    -0.504 OA
ATOM     19  H   UNL     1      50.022  14.911  20.846  1.00  0.00     0.293 HD
ENDBRANCH  14  18
BRANCH  16  20
ATOM     20  O   UNL     1      46.867  16.122  22.576  1.00  0.00    -0.502 OA
ATOM     21  H   UNL     1      46.244  16.868  22.865  1.00  0.00     0.293 HD
ENDBRANCH  16  20
BRANCH  17  22
ATOM     22  O   UNL     1      46.670  16.022  25.383  1.00  0.00    -0.504 OA
ATOM     23  H   UNL     1      46.254  16.943  25.306  1.00  0.00     0.293 HD
ENDBRANCH  17  22
ENDBRANCH   1  12
BRANCH   2  24
ATOM     24  O   UNL     1      50.003  12.859  26.866  1.00  0.00    -0.502 OA
ATOM     25  H   UNL     1      49.663  12.559  27.771  1.00  0.00     0.293 HD
ENDBRANCH   2  24
BRANCH   6  26
ATOM     26  O   UNL     1      54.932  12.509  28.856  1.00  0.00    -0.507 OA
ATOM     27  H   UNL     1      54.784  11.535  28.640  1.00  0.00     0.293 HD
ENDBRANCH   6  26
BRANCH   8  28
ATOM     28  O   UNL     1      57.066  16.108  26.538  1.00  0.00    -0.508 OA
ATOM     29  H   UNL     1      57.510  16.633  27.282  1.00  0.00     0.293 HD
ENDBRANCH   8  28
TORSDOF 7
ENDMDL
MODEL 9
REMARK VINA RESULT:    -5.014      2.746      6.395
REMARK INTER + INTRA:          -6.442
REMARK INTER:                  -6.794
REMARK INTRA:                   0.352
REMARK UNBOUND:                -0.256
REMARK SMILES O=c1c(O)c(-c2cc(O)c(O)c(O)c2)oc2cc(O)cc(O)c12
REMARK SMILES IDX 5 1 3 2 2 3 1 4 23 5 21 6 20 7 18 8 17 9 16 10 15 11 6 12
REMARK SMILES IDX 7 13 8 14 14 15 10 16 12 17 9 18 11 20 13 22 4 24 22 26
REMARK SMILES IDX 19 28
REMARK H PARENT 9 19 11 21 13 23 4 25 22 27 19 29
REMARK Flexibility Score: inf
ROOT
ATOM      1  C   UNL     1      51.249  14.560  26.380  1.00  0.00     0.180 A 
ATOM      2  C   UNL     1      51.364  14.893  25.020  1.00  0.00     0.208 A 
ATOM      3  C   UNL     1      52.632  15.186  24.495  1.00  0.00     0.238 A 
ATOM      4  O   UNL     1      52.737  15.410  23.261  1.00  0.00    -0.285 OA
ATOM      5  C   UNL     1      53.763  15.195  25.348  1.00  0.00     0.111 A 
ATOM      6  C   UNL     1      55.091  15.520  24.933  1.00  0.00     0.134 A 
ATOM      7  C   UNL     1      56.148  15.392  25.842  1.00  0.00     0.093 A 
ATOM      8  C   UNL     1      55.921  15.014  27.163  1.00  0.00     0.123 A 
ATOM      9  C   UNL     1      54.621  14.747  27.594  1.00  0.00     0.094 A 
ATOM     10  C   UNL     1      53.549  14.828  26.703  1.00  0.00     0.146 A 
ATOM     11  O   UNL     1      52.332  14.544  27.147  1.00  0.00    -0.452 OA
ENDROOT
BRANCH   1  12
ATOM     12  C   UNL     1      49.948  14.225  27.002  1.00  0.00     0.029 A 
ATOM     13  C   UNL     1      48.836  13.862  26.224  1.00  0.00     0.062 A 
ATOM     14  C   UNL     1      47.619  13.525  26.834  1.00  0.00     0.162 A 
ATOM     15  C   UNL     1      49.835  14.214  28.401  1.00  0.00     0.062 A 
ATOM     16  C   UNL     1      47.509  13.540  28.234  1.00  0.00     0.200 A 
ATOM     17  C   UNL     1      48.625  13.882  29.018  1.00  0.00     0.162 A 
BRANCH  14  18
ATOM     18  O   UNL     1      46.520  13.173  26.051  1.00  0.00    -0.504 OA
ATOM     19  H   UNL     1      46.622  12.611  25.214  1.00  0.00     0.293 HD
ENDBRANCH  14  18
BRANCH  16  20
ATOM     20  O   UNL     1      46.304  13.212  28.858  1.00  0.00    -0.502 OA
ATOM     21  H   UNL     1      45.410  13.535  28.507  1.00  0.00     0.293 HD
ENDBRANCH  16  20
BRANCH  17  22
ATOM     22  O   UNL     1      48.551  13.896  30.410  1.00  0.00    -0.504 OA
ATOM     23  H   UNL     1      48.078  14.636  30.917  1.00  0.00     0.293 HD
ENDBRANCH  17  22
ENDBRANCH   1  12
BRANCH   2  24
ATOM     24  O   UNL     1      50.225  14.953  24.211  1.00  0.00    -0.502 OA
ATOM     25  H   UNL     1      49.427  15.535  24.438  1.00  0.00     0.293 HD
ENDBRANCH   2  24
BRANCH   6  26
ATOM     26  O   UNL     1      55.420  15.994  23.659  1.00  0.00    -0.507 OA
ATOM     27  H   UNL     1      55.903  15.460  22.952  1.00  0.00     0.293 HD
ENDBRANCH   6  26
BRANCH   8  28
ATOM     28  O   UNL     1      56.996  14.914  28.045  1.00  0.00    -0.508 OA
ATOM     29  H   UNL     1      57.953  15.005  27.727  1.00  0.00     0.293 HD
ENDBRANCH   8  28
TORSDOF 7
ENDMDL
