MODEL 1
REMARK VINA RESULT:    -3.401      0.000      0.000
REMARK INTER + INTRA:          -5.893
REMARK INTER:                  -4.991
REMARK INTRA:                  -0.902
REMARK UNBOUND:                -0.902
REMARK SMILES O=C([O-])CCCCCCCC(=O)[O-]
REMARK SMILES IDX 7 1 6 2 5 3 4 4 2 5 1 6 3 7 8 8 9 9 10 10 11 11 12 12 13 13
REMARK H PARENT
REMARK Flexibility Score: inf
ROOT
ATOM      1  C   UNL     1     196.852 193.795 200.948  1.00  0.00     0.000 C 
ENDROOT
BRANCH   1   2
ATOM      2  C   UNL     1     195.758 193.096 201.770  1.00  0.00     0.000 C 
BRANCH   2   3
ATOM      3  C   UNL     1     194.910 192.123 200.931  1.00  0.00     0.006 C 
BRANCH   3   4
ATOM      4  C   UNL     1     195.415 191.920 199.493  1.00  0.00     0.053 C 
BRANCH   4   5
ATOM      5  C   UNL     1     194.402 191.229 198.633  1.00  0.00     0.041 C 
ATOM      6  O   UNL     1     193.227 191.672 198.559  1.00  0.00    -0.550 OA
ATOM      7  O   UNL     1     194.767 190.117 197.885  1.00  0.00    -0.550 OA
ENDBRANCH   4   5
ENDBRANCH   3   4
ENDBRANCH   2   3
ENDBRANCH   1   2
BRANCH   1   8
ATOM      8  C   UNL     1     196.874 195.303 201.236  1.00  0.00     0.000 C 
BRANCH   8   9
ATOM      9  C   UNL     1     195.583 196.010 200.792  1.00  0.00     0.006 C 
BRANCH   9  10
ATOM     10  C   UNL     1     195.354 195.926 199.277  1.00  0.00     0.053 C 
BRANCH  10  11
ATOM     11  C   UNL     1     194.022 195.312 198.984  1.00  0.00     0.041 C 
ATOM     12  O   UNL     1     193.740 194.937 197.816  1.00  0.00    -0.550 OA
ATOM     13  O   UNL     1     193.110 195.109 200.011  1.00  0.00    -0.550 OA
ENDBRANCH  10  11
ENDBRANCH   9  10
ENDBRANCH   8   9
ENDBRANCH   1   8
TORSDOF 8
ENDMDL
MODEL 2
REMARK VINA RESULT:    -3.384     12.301     14.167
REMARK INTER + INTRA:          -5.868
REMARK INTER:                  -5.330
REMARK INTRA:                  -0.538
REMARK UNBOUND:                -0.902
REMARK SMILES O=C([O-])CCCCCCCC(=O)[O-]
REMARK SMILES IDX 7 1 6 2 5 3 4 4 2 5 1 6 3 7 8 8 9 9 10 10 11 11 12 12 13 13
REMARK H PARENT
REMARK Flexibility Score: inf
ROOT
ATOM      1  C   UNL     1     183.863 184.859 199.353  1.00  0.00     0.000 C 
ENDROOT
BRANCH   1   2
ATOM      2  C   UNL     1     184.570 183.833 198.453  1.00  0.00     0.000 C 
BRANCH   2   3
ATOM      3  C   UNL     1     184.195 182.379 198.796  1.00  0.00     0.006 C 
BRANCH   3   4
ATOM      4  C   UNL     1     184.024 182.107 200.299  1.00  0.00     0.053 C 
BRANCH   4   5
ATOM      5  C   UNL     1     182.655 181.594 200.625  1.00  0.00     0.041 C 
ATOM      6  O   UNL     1     181.635 182.189 200.189  1.00  0.00    -0.550 OA
ATOM      7  O   UNL     1     182.507 180.439 201.382  1.00  0.00    -0.550 OA
ENDBRANCH   4   5
ENDBRANCH   3   4
ENDBRANCH   2   3
ENDBRANCH   1   2
BRANCH   1   8
ATOM      8  C   UNL     1     184.860 185.898 199.887  1.00  0.00     0.000 C 
BRANCH   8   9
ATOM      9  C   UNL     1     184.391 187.343 199.654  1.00  0.00     0.006 C 
BRANCH   9  10
ATOM     10  C   UNL     1     184.348 187.719 198.167  1.00  0.00     0.053 C 
BRANCH  10  11
ATOM     11  C   UNL     1     185.704 187.569 197.552  1.00  0.00     0.041 C 
ATOM     12  O   UNL     1     185.884 186.759 196.606  1.00  0.00    -0.550 OA
ATOM     13  O   UNL     1     186.758 188.359 197.993  1.00  0.00    -0.550 OA
ENDBRANCH  10  11
ENDBRANCH   9  10
ENDBRANCH   8   9
ENDBRANCH   1   8
TORSDOF 8
ENDMDL
MODEL 3
REMARK VINA RESULT:    -3.339     11.263     13.644
REMARK INTER + INTRA:          -5.803
REMARK INTER:                  -5.212
REMARK INTRA:                  -0.591
REMARK UNBOUND:                -0.902
REMARK SMILES O=C([O-])CCCCCCCC(=O)[O-]
REMARK SMILES IDX 7 1 6 2 5 3 4 4 2 5 1 6 3 7 8 8 9 9 10 10 11 11 12 12 13 13
REMARK H PARENT
REMARK Flexibility Score: inf
ROOT
ATOM      1  C   UNL     1     183.307 186.324 200.549  1.00  0.00     0.000 C 
ENDROOT
BRANCH   1   2
ATOM      2  C   UNL     1     183.032 186.961 199.179  1.00  0.00     0.000 C 
BRANCH   2   3
ATOM      3  C   UNL     1     183.725 188.324 199.003  1.00  0.00     0.006 C 
BRANCH   3   4
ATOM      4  C   UNL     1     185.219 188.326 199.365  1.00  0.00     0.053 C 
BRANCH   4   5
ATOM      5  C   UNL     1     186.093 188.341 198.149  1.00  0.00     0.041 C 
ATOM      6  O   UNL     1     186.930 189.266 197.982  1.00  0.00    -0.550 OA
ATOM      7  O   UNL     1     186.006 187.315 197.217  1.00  0.00    -0.550 OA
ENDBRANCH   4   5
ENDBRANCH   3   4
ENDBRANCH   2   3
ENDBRANCH   1   2
BRANCH   1   8
ATOM      8  C   UNL     1     182.839 184.861 200.577  1.00  0.00     0.000 C 
BRANCH   8   9
ATOM      9  C   UNL     1     183.958 183.888 200.983  1.00  0.00     0.006 C 
BRANCH   9  10
ATOM     10  C   UNL     1     185.153 183.927 200.022  1.00  0.00     0.053 C 
BRANCH  10  11
ATOM     11  C   UNL     1     184.743 183.457 198.662  1.00  0.00     0.041 C 
ATOM     12  O   UNL     1     184.997 184.158 197.647  1.00  0.00    -0.550 OA
ATOM     13  O   UNL     1     184.123 182.224 198.510  1.00  0.00    -0.550 OA
ENDBRANCH  10  11
ENDBRANCH   9  10
ENDBRANCH   8   9
ENDBRANCH   1   8
TORSDOF 8
ENDMDL
MODEL 4
REMARK VINA RESULT:    -3.339     14.439     16.809
REMARK INTER + INTRA:          -5.802
REMARK INTER:                  -5.269
REMARK INTRA:                  -0.533
REMARK UNBOUND:                -0.902
REMARK SMILES O=C([O-])CCCCCCCC(=O)[O-]
REMARK SMILES IDX 7 1 6 2 5 3 4 4 2 5 1 6 3 7 8 8 9 9 10 10 11 11 12 12 13 13
REMARK H PARENT
REMARK Flexibility Score: inf
ROOT
ATOM      1  C   UNL     1     184.021 182.403 200.557  1.00  0.00     0.000 C 
ENDROOT
BRANCH   1   2
ATOM      2  C   UNL     1     182.860 183.319 200.141  1.00  0.00     0.000 C 
BRANCH   2   3
ATOM      3  C   UNL     1     183.237 184.811 200.168  1.00  0.00     0.006 C 
BRANCH   3   4
ATOM      4  C   UNL     1     184.720 185.095 199.880  1.00  0.00     0.053 C 
BRANCH   4   5
ATOM      5  C   UNL     1     184.973 185.343 198.425  1.00  0.00     0.041 C 
ATOM      6  O   UNL     1     184.976 184.384 197.610  1.00  0.00    -0.550 OA
ATOM      7  O   UNL     1     185.170 186.639 197.964  1.00  0.00    -0.550 OA
ENDBRANCH   4   5
ENDBRANCH   3   4
ENDBRANCH   2   3
ENDBRANCH   1   2
BRANCH   1   8
ATOM      8  C   UNL     1     183.710 181.695 201.884  1.00  0.00     0.000 C 
BRANCH   8   9
ATOM      9  C   UNL     1     182.274 181.152 201.944  1.00  0.00     0.006 C 
BRANCH   9  10
ATOM     10  C   UNL     1     182.123 179.800 201.234  1.00  0.00     0.053 C 
BRANCH  10  11
ATOM     11  C   UNL     1     180.964 179.835 200.288  1.00  0.00     0.041 C 
ATOM     12  O   UNL     1     179.874 179.288 200.602  1.00  0.00    -0.550 OA
ATOM     13  O   UNL     1     181.072 180.512 199.081  1.00  0.00    -0.550 OA
ENDBRANCH  10  11
ENDBRANCH   9  10
ENDBRANCH   8   9
ENDBRANCH   1   8
TORSDOF 8
ENDMDL
MODEL 5
REMARK VINA RESULT:    -3.331     12.455     14.946
REMARK INTER + INTRA:          -5.791
REMARK INTER:                  -5.263
REMARK INTRA:                  -0.528
REMARK UNBOUND:                -0.902
REMARK SMILES O=C([O-])CCCCCCCC(=O)[O-]
REMARK SMILES IDX 7 1 6 2 5 3 4 4 2 5 1 6 3 7 8 8 9 9 10 10 11 11 12 12 13 13
REMARK H PARENT
REMARK Flexibility Score: inf
ROOT
ATOM      1  C   UNL     1     184.527 184.342 198.394  1.00  0.00     0.000 C 
ENDROOT
BRANCH   1   2
ATOM      2  C   UNL     1     183.758 185.219 199.394  1.00  0.00     0.000 C 
BRANCH   2   3
ATOM      3  C   UNL     1     184.182 186.698 199.342  1.00  0.00     0.006 C 
BRANCH   3   4
ATOM      4  C   UNL     1     185.224 187.020 198.258  1.00  0.00     0.053 C 
BRANCH   4   5
ATOM      5  C   UNL     1     186.385 187.792 198.806  1.00  0.00     0.041 C 
ATOM      6  O   UNL     1     186.766 187.607 199.991  1.00  0.00    -0.550 OA
ATOM      7  O   UNL     1     187.068 188.690 197.995  1.00  0.00    -0.550 OA
ENDBRANCH   4   5
ENDBRANCH   3   4
ENDBRANCH   2   3
ENDBRANCH   1   2
BRANCH   1   8
ATOM      8  C   UNL     1     184.482 182.865 198.813  1.00  0.00     0.000 C 
BRANCH   8   9
ATOM      9  C   UNL     1     184.131 182.682 200.299  1.00  0.00     0.006 C 
BRANCH   9  10
ATOM     10  C   UNL     1     183.227 181.467 200.548  1.00  0.00     0.053 C 
BRANCH  10  11
ATOM     11  C   UNL     1     181.852 181.725 200.019  1.00  0.00     0.041 C 
ATOM     12  O   UNL     1     181.245 182.785 200.323  1.00  0.00    -0.550 OA
ATOM     13  O   UNL     1     181.258 180.816 199.153  1.00  0.00    -0.550 OA
ENDBRANCH  10  11
ENDBRANCH   9  10
ENDBRANCH   8   9
ENDBRANCH   1   8
TORSDOF 8
ENDMDL
MODEL 6
REMARK VINA RESULT:    -3.326     13.015     14.933
REMARK INTER + INTRA:          -5.784
REMARK INTER:                  -5.087
REMARK INTRA:                  -0.697
REMARK UNBOUND:                -0.902
REMARK SMILES O=C([O-])CCCCCCCC(=O)[O-]
REMARK SMILES IDX 7 1 6 2 5 3 4 4 2 5 1 6 3 7 8 8 9 9 10 10 11 11 12 12 13 13
REMARK H PARENT
REMARK Flexibility Score: inf
ROOT
ATOM      1  C   UNL     1     184.360 183.744 198.746  1.00  0.00     0.000 C 
ENDROOT
BRANCH   1   2
ATOM      2  C   UNL     1     184.090 182.264 199.059  1.00  0.00     0.000 C 
BRANCH   2   3
ATOM      3  C   UNL     1     184.010 181.977 200.569  1.00  0.00     0.006 C 
BRANCH   3   4
ATOM      4  C   UNL     1     182.703 181.303 201.017  1.00  0.00     0.053 C 
BRANCH   4   5
ATOM      5  C   UNL     1     181.520 182.207 200.859  1.00  0.00     0.041 C 
ATOM      6  O   UNL     1     181.365 183.189 201.631  1.00  0.00    -0.550 OA
ATOM      7  O   UNL     1     180.607 181.986 199.835  1.00  0.00    -0.550 OA
ENDBRANCH   4   5
ENDBRANCH   3   4
ENDBRANCH   2   3
ENDBRANCH   1   2
BRANCH   1   8
ATOM      8  C   UNL     1     184.505 184.559 200.040  1.00  0.00     0.000 C 
BRANCH   8   9
ATOM      9  C   UNL     1     183.453 185.673 200.158  1.00  0.00     0.006 C 
BRANCH   9  10
ATOM     10  C   UNL     1     183.619 186.760 199.088  1.00  0.00     0.053 C 
BRANCH  10  11
ATOM     11  C   UNL     1     184.967 187.399 199.198  1.00  0.00     0.041 C 
ATOM     12  O   UNL     1     185.278 188.046 200.232  1.00  0.00    -0.550 OA
ATOM     13  O   UNL     1     185.898 187.239 198.181  1.00  0.00    -0.550 OA
ENDBRANCH  10  11
ENDBRANCH   9  10
ENDBRANCH   8   9
ENDBRANCH   1   8
TORSDOF 8
ENDMDL
MODEL 7
REMARK VINA RESULT:    -3.317      1.783      4.690
REMARK INTER + INTRA:          -5.770
REMARK INTER:                  -4.909
REMARK INTRA:                  -0.861
REMARK UNBOUND:                -0.902
REMARK SMILES O=C([O-])CCCCCCCC(=O)[O-]
REMARK SMILES IDX 7 1 6 2 5 3 4 4 2 5 1 6 3 7 8 8 9 9 10 10 11 11 12 12 13 13
REMARK H PARENT
REMARK Flexibility Score: inf
ROOT
ATOM      1  C   UNL     1     196.038 191.588 199.459  1.00  0.00     0.000 C 
ENDROOT
BRANCH   1   2
ATOM      2  C   UNL     1     195.247 191.907 200.737  1.00  0.00     0.000 C 
BRANCH   2   3
ATOM      3  C   UNL     1     194.292 193.102 200.566  1.00  0.00     0.006 C 
BRANCH   3   4
ATOM      4  C   UNL     1     194.290 193.715 199.156  1.00  0.00     0.053 C 
BRANCH   4   5
ATOM      5  C   UNL     1     194.809 195.120 199.152  1.00  0.00     0.041 C 
ATOM      6  O   UNL     1     194.303 195.979 198.385  1.00  0.00    -0.550 OA
ATOM      7  O   UNL     1     195.828 195.488 200.022  1.00  0.00    -0.550 OA
ENDBRANCH   4   5
ENDBRANCH   3   4
ENDBRANCH   2   3
ENDBRANCH   1   2
BRANCH   1   8
ATOM      8  C   UNL     1     195.812 190.132 199.025  1.00  0.00     0.000 C 
BRANCH   8   9
ATOM      9  C   UNL     1     194.582 189.499 199.695  1.00  0.00     0.006 C 
BRANCH   9  10
ATOM     10  C   UNL     1     193.459 189.188 198.697  1.00  0.00     0.053 C 
BRANCH  10  11
ATOM     11  C   UNL     1     192.621 190.404 198.459  1.00  0.00     0.041 C 
ATOM     12  O   UNL     1     191.806 190.792 199.337  1.00  0.00    -0.550 OA
ATOM     13  O   UNL     1     192.774 191.137 197.290  1.00  0.00    -0.550 OA
ENDBRANCH  10  11
ENDBRANCH   9  10
ENDBRANCH   8   9
ENDBRANCH   1   8
TORSDOF 8
ENDMDL
MODEL 8
REMARK VINA RESULT:    -3.308     14.009     15.822
REMARK INTER + INTRA:          -5.757
REMARK INTER:                  -4.969
REMARK INTRA:                  -0.788
REMARK UNBOUND:                -0.902
REMARK SMILES O=C([O-])CCCCCCCC(=O)[O-]
REMARK SMILES IDX 7 1 6 2 5 3 4 4 2 5 1 6 3 7 8 8 9 9 10 10 11 11 12 12 13 13
REMARK H PARENT
REMARK Flexibility Score: inf
ROOT
ATOM      1  C   UNL     1     180.882 185.974 202.111  1.00  0.00     0.000 C 
ENDROOT
BRANCH   1   2
ATOM      2  C   UNL     1     180.363 184.537 201.949  1.00  0.00     0.000 C 
BRANCH   2   3
ATOM      3  C   UNL     1     181.490 183.488 201.976  1.00  0.00     0.006 C 
BRANCH   3   4
ATOM      4  C   UNL     1     181.655 182.703 200.665  1.00  0.00     0.053 C 
BRANCH   4   5
ATOM      5  C   UNL     1     182.562 181.522 200.826  1.00  0.00     0.041 C 
ATOM      6  O   UNL     1     182.146 180.477 201.390  1.00  0.00    -0.550 OA
ATOM      7  O   UNL     1     183.856 181.565 200.323  1.00  0.00    -0.550 OA
ENDBRANCH   4   5
ENDBRANCH   3   4
ENDBRANCH   2   3
ENDBRANCH   1   2
BRANCH   1   8
ATOM      8  C   UNL     1     181.222 186.590 200.745  1.00  0.00     0.000 C 
BRANCH   8   9
ATOM      9  C   UNL     1     182.730 186.833 200.565  1.00  0.00     0.006 C 
BRANCH   9  10
ATOM     10  C   UNL     1     183.255 186.317 199.218  1.00  0.00     0.053 C 
BRANCH  10  11
ATOM     11  C   UNL     1     184.119 185.113 199.423  1.00  0.00     0.041 C 
ATOM     12  O   UNL     1     184.531 184.818 200.575  1.00  0.00    -0.550 OA
ATOM     13  O   UNL     1     184.431 184.290 198.349  1.00  0.00    -0.550 OA
ENDBRANCH  10  11
ENDBRANCH   9  10
ENDBRANCH   8   9
ENDBRANCH   1   8
TORSDOF 8
ENDMDL
MODEL 9
REMARK VINA RESULT:    -3.299      3.172      4.692
REMARK INTER + INTRA:          -5.744
REMARK INTER:                  -4.966
REMARK INTRA:                  -0.779
REMARK UNBOUND:                -0.902
REMARK SMILES O=C([O-])CCCCCCCC(=O)[O-]
REMARK SMILES IDX 7 1 6 2 5 3 4 4 2 5 1 6 3 7 8 8 9 9 10 10 11 11 12 12 13 13
REMARK H PARENT
REMARK Flexibility Score: inf
ROOT
ATOM      1  C   UNL     1     195.751 191.589 199.714  1.00  0.00     0.000 C 
ENDROOT
BRANCH   1   2
ATOM      2  C   UNL     1     196.197 190.275 199.055  1.00  0.00     0.000 C 
BRANCH   2   3
ATOM      3  C   UNL     1     195.531 189.036 199.682  1.00  0.00     0.006 C 
BRANCH   3   4
ATOM      4  C   UNL     1     194.892 188.077 198.664  1.00  0.00     0.053 C 
BRANCH   4   5
ATOM      5  C   UNL     1     195.785 186.917 198.348  1.00  0.00     0.041 C 
ATOM      6  O   UNL     1     196.156 186.136 199.262  1.00  0.00    -0.550 OA
ATOM      7  O   UNL     1     196.177 186.678 197.036  1.00  0.00    -0.550 OA
ENDBRANCH   4   5
ENDBRANCH   3   4
ENDBRANCH   2   3
ENDBRANCH   1   2
BRANCH   1   8
ATOM      8  C   UNL     1     194.558 191.354 200.652  1.00  0.00     0.000 C 
BRANCH   8   9
ATOM      9  C   UNL     1     193.249 191.943 200.104  1.00  0.00     0.006 C 
BRANCH   9  10
ATOM     10  C   UNL     1     192.189 190.870 199.822  1.00  0.00     0.053 C 
BRANCH  10  11
ATOM     11  C   UNL     1     192.188 190.509 198.370  1.00  0.00     0.041 C 
ATOM     12  O   UNL     1     192.886 191.165 197.554  1.00  0.00    -0.550 OA
ATOM     13  O   UNL     1     191.454 189.417 197.925  1.00  0.00    -0.550 OA
ENDBRANCH  10  11
ENDBRANCH   9  10
ENDBRANCH   8   9
ENDBRANCH   1   8
TORSDOF 8
ENDMDL
