MODEL 1
REMARK VINA RESULT:    -1.216      0.000      0.000
REMARK INTER + INTRA:          -2.130
REMARK INTER:                  -1.926
REMARK INTRA:                  -0.203
REMARK UNBOUND:                -0.203
REMARK SMILES CCCCCCCCCCCC(=O)[O-]
REMARK SMILES IDX 7 1 8 2 9 3 10 4 11 5 12 6 13 7 14 8 6 9 5 10 4 11 3 12 2 13
REMARK SMILES IDX 1 14
REMARK H PARENT
REMARK Flexibility Score: inf
ROOT
ATOM      1  C   UNL     1      32.553  21.935  27.837  1.00  0.00     0.000 C 
ENDROOT
BRANCH   1   2
ATOM      2  C   UNL     1      31.247  21.163  27.590  1.00  0.00     0.000 C 
BRANCH   2   3
ATOM      3  C   UNL     1      30.025  21.855  28.218  1.00  0.00     0.000 C 
BRANCH   3   4
ATOM      4  C   UNL     1      30.101  23.392  28.131  1.00  0.00     0.006 C 
BRANCH   4   5
ATOM      5  C   UNL     1      29.591  24.125  29.381  1.00  0.00     0.053 C 
BRANCH   5   6
ATOM      6  C   UNL     1      30.551  24.019  30.526  1.00  0.00     0.041 C 
ATOM      7  O   UNL     1      30.124  23.925  31.706  1.00  0.00    -0.550 OA
ATOM      8  O   UNL     1      31.920  24.058  30.290  1.00  0.00    -0.550 OA
ENDBRANCH   5   6
ENDBRANCH   4   5
ENDBRANCH   3   4
ENDBRANCH   2   3
ENDBRANCH   1   2
BRANCH   1   9
ATOM      9  C   UNL     1      32.732  23.123  26.879  1.00  0.00     0.000 C 
BRANCH   9  10
ATOM     10  C   UNL     1      33.759  24.120  27.428  1.00  0.00    -0.000 C 
BRANCH  10  11
ATOM     11  C   UNL     1      34.649  23.465  28.493  1.00  0.00    -0.000 C 
BRANCH  11  12
ATOM     12  C   UNL     1      36.071  24.035  28.449  1.00  0.00    -0.000 C 
BRANCH  12  13
ATOM     13  C   UNL     1      37.108  22.950  28.759  1.00  0.00    -0.003 C 
ATOM     14  C   UNL     1      37.015  21.797  27.763  1.00  0.00     0.004 C 
ENDBRANCH  12  13
ENDBRANCH  11  12
ENDBRANCH  10  11
ENDBRANCH   9  10
ENDBRANCH   1   9
TORSDOF 10
ENDMDL
