MODEL 1
REMARK VINA RESULT:    -6.937      0.000      0.000
REMARK INTER + INTRA:          -7.608
REMARK INTER:                  -7.342
REMARK INTRA:                  -0.265
REMARK UNBOUND:                -0.265
REMARK SMILES O=c1cc(-c2ccccc2)oc2ccccc12
REMARK SMILES IDX 4 1 3 2 2 3 1 4 17 5 16 6 15 7 14 8 13 9 12 10 11 11 5 12
REMARK SMILES IDX 8 13 7 14 9 15 6 16 10 17
REMARK H PARENT
REMARK Flexibility Score: inf
ROOT
ATOM      1  C   UNL     1     -20.336  -3.355  19.703  1.00  0.00     0.138 A 
ATOM      2  C   UNL     1     -19.844  -4.677  19.725  1.00  0.00     0.100 A 
ATOM      3  C   UNL     1     -19.219  -5.199  18.591  1.00  0.00     0.193 A 
ATOM      4  O   UNL     1     -18.779  -6.381  18.611  1.00  0.00    -0.289 OA
ATOM      5  C   UNL     1     -19.090  -4.402  17.446  1.00  0.00     0.065 A 
ATOM      6  C   UNL     1     -18.471  -4.867  16.270  1.00  0.00     0.016 A 
ATOM      7  C   UNL     1     -18.368  -4.028  15.156  1.00  0.00     0.001 A 
ATOM      8  C   UNL     1     -18.879  -2.727  15.203  1.00  0.00     0.004 A 
ATOM      9  C   UNL     1     -19.495  -2.258  16.367  1.00  0.00     0.048 A 
ATOM     10  C   UNL     1     -19.603  -3.088  17.488  1.00  0.00     0.138 A 
ATOM     11  O   UNL     1     -20.191  -2.632  18.590  1.00  0.00    -0.456 OA
ENDROOT
BRANCH   1  12
ATOM     12  C   UNL     1     -21.016  -2.719  20.872  1.00  0.00     0.017 A 
ATOM     13  C   UNL     1     -22.302  -1.605  23.125  1.00  0.00     0.000 A 
ATOM     14  C   UNL     1     -21.986  -2.963  23.101  1.00  0.00     0.001 A 
ATOM     15  C   UNL     1     -21.982  -0.798  22.034  1.00  0.00     0.001 A 
ATOM     16  C   UNL     1     -21.349  -3.517  21.987  1.00  0.00     0.012 A 
ATOM     17  C   UNL     1     -21.344  -1.344  20.914  1.00  0.00     0.012 A 
ENDBRANCH   1  12
TORSDOF 1
ENDMDL
MODEL 2
REMARK VINA RESULT:    -6.759      1.170      2.666
REMARK INTER + INTRA:          -7.420
REMARK INTER:                  -7.153
REMARK INTRA:                  -0.266
REMARK UNBOUND:                -0.265
REMARK SMILES O=c1cc(-c2ccccc2)oc2ccccc12
REMARK SMILES IDX 4 1 3 2 2 3 1 4 17 5 16 6 15 7 14 8 13 9 12 10 11 11 5 12
REMARK SMILES IDX 8 13 7 14 9 15 6 16 10 17
REMARK H PARENT
REMARK Flexibility Score: inf
ROOT
ATOM      1  C   UNL     1     -20.238  -3.303  19.391  1.00  0.00     0.138 A 
ATOM      2  C   UNL     1     -20.015  -2.452  18.288  1.00  0.00     0.100 A 
ATOM      3  C   UNL     1     -19.399  -2.958  17.141  1.00  0.00     0.193 A 
ATOM      4  O   UNL     1     -19.200  -2.197  16.155  1.00  0.00    -0.289 OA
ATOM      5  C   UNL     1     -19.009  -4.304  17.104  1.00  0.00     0.065 A 
ATOM      6  C   UNL     1     -18.383  -4.876  15.980  1.00  0.00     0.016 A 
ATOM      7  C   UNL     1     -18.016  -6.225  15.996  1.00  0.00     0.001 A 
ATOM      8  C   UNL     1     -18.267  -7.010  17.125  1.00  0.00     0.004 A 
ATOM      9  C   UNL     1     -18.888  -6.449  18.245  1.00  0.00     0.048 A 
ATOM     10  C   UNL     1     -19.261  -5.101  18.240  1.00  0.00     0.138 A 
ATOM     11  O   UNL     1     -19.851  -4.578  19.311  1.00  0.00    -0.456 OA
ENDROOT
BRANCH   1  12
ATOM     12  C   UNL     1     -20.892  -2.844  20.655  1.00  0.00     0.017 A 
ATOM     13  C   UNL     1     -22.131  -1.886  23.004  1.00  0.00     0.000 A 
ATOM     14  C   UNL     1     -21.876  -1.017  21.944  1.00  0.00     0.001 A 
ATOM     15  C   UNL     1     -21.772  -3.230  22.902  1.00  0.00     0.001 A 
ATOM     16  C   UNL     1     -21.263  -1.489  20.780  1.00  0.00     0.012 A 
ATOM     17  C   UNL     1     -21.158  -3.711  21.740  1.00  0.00     0.012 A 
ENDBRANCH   1  12
TORSDOF 1
ENDMDL
MODEL 3
REMARK VINA RESULT:    -6.469      2.112      6.143
REMARK INTER + INTRA:          -7.113
REMARK INTER:                  -6.886
REMARK INTRA:                  -0.227
REMARK UNBOUND:                -0.265
REMARK SMILES O=c1cc(-c2ccccc2)oc2ccccc12
REMARK SMILES IDX 4 1 3 2 2 3 1 4 17 5 16 6 15 7 14 8 13 9 12 10 11 11 5 12
REMARK SMILES IDX 8 13 7 14 9 15 6 16 10 17
REMARK H PARENT
REMARK Flexibility Score: inf
ROOT
ATOM      1  C   UNL     1     -19.054  -4.044  17.213  1.00  0.00     0.138 A 
ATOM      2  C   UNL     1     -18.741  -4.009  18.588  1.00  0.00     0.100 A 
ATOM      3  C   UNL     1     -19.528  -3.248  19.455  1.00  0.00     0.193 A 
ATOM      4  O   UNL     1     -19.249  -3.217  20.684  1.00  0.00    -0.289 OA
ATOM      5  C   UNL     1     -20.618  -2.529  18.945  1.00  0.00     0.065 A 
ATOM      6  C   UNL     1     -21.450  -1.742  19.763  1.00  0.00     0.016 A 
ATOM      7  C   UNL     1     -22.525  -1.045  19.202  1.00  0.00     0.001 A 
ATOM      8  C   UNL     1     -22.776  -1.125  17.829  1.00  0.00     0.004 A 
ATOM      9  C   UNL     1     -21.954  -1.904  17.009  1.00  0.00     0.048 A 
ATOM     10  C   UNL     1     -20.876  -2.606  17.560  1.00  0.00     0.138 A 
ATOM     11  O   UNL     1     -20.100  -3.344  16.771  1.00  0.00    -0.456 OA
ENDROOT
BRANCH   1  12
ATOM     12  C   UNL     1     -18.264  -4.834  16.218  1.00  0.00     0.017 A 
ATOM     13  C   UNL     1     -16.741  -6.239  14.302  1.00  0.00     0.000 A 
ATOM     14  C   UNL     1     -16.725  -4.845  14.320  1.00  0.00     0.001 A 
ATOM     15  C   UNL     1     -17.511  -6.938  15.231  1.00  0.00     0.001 A 
ATOM     16  C   UNL     1     -17.479  -4.147  15.268  1.00  0.00     0.012 A 
ATOM     17  C   UNL     1     -18.268  -6.247  16.183  1.00  0.00     0.012 A 
ENDBRANCH   1  12
TORSDOF 1
ENDMDL
MODEL 4
REMARK VINA RESULT:    -6.444      2.396      4.043
REMARK INTER + INTRA:          -7.087
REMARK INTER:                  -6.859
REMARK INTRA:                  -0.227
REMARK UNBOUND:                -0.265
REMARK SMILES O=c1cc(-c2ccccc2)oc2ccccc12
REMARK SMILES IDX 4 1 3 2 2 3 1 4 17 5 16 6 15 7 14 8 13 9 12 10 11 11 5 12
REMARK SMILES IDX 8 13 7 14 9 15 6 16 10 17
REMARK H PARENT
REMARK Flexibility Score: inf
ROOT
ATOM      1  C   UNL     1     -18.749  -3.964  16.868  1.00  0.00     0.138 A 
ATOM      2  C   UNL     1     -18.036  -3.179  15.937  1.00  0.00     0.100 A 
ATOM      3  C   UNL     1     -17.293  -3.805  14.934  1.00  0.00     0.193 A 
ATOM      4  O   UNL     1     -16.656  -3.103  14.102  1.00  0.00    -0.289 OA
ATOM      5  C   UNL     1     -17.265  -5.205  14.868  1.00  0.00     0.065 A 
ATOM      6  C   UNL     1     -16.536  -5.898  13.884  1.00  0.00     0.016 A 
ATOM      7  C   UNL     1     -16.543  -7.296  13.863  1.00  0.00     0.001 A 
ATOM      8  C   UNL     1     -17.272  -8.011  14.819  1.00  0.00     0.004 A 
ATOM      9  C   UNL     1     -17.999  -7.330  15.799  1.00  0.00     0.048 A 
ATOM     10  C   UNL     1     -17.999  -5.931  15.830  1.00  0.00     0.138 A 
ATOM     11  O   UNL     1     -18.694  -5.294  16.767  1.00  0.00    -0.456 OA
ENDROOT
BRANCH   1  12
ATOM     12  C   UNL     1     -19.570  -3.375  17.971  1.00  0.00     0.017 A 
ATOM     13  C   UNL     1     -21.052  -2.297  20.117  1.00  0.00     0.000 A 
ATOM     14  C   UNL     1     -19.865  -2.985  20.365  1.00  0.00     0.001 A 
ATOM     15  C   UNL     1     -21.506  -2.142  18.808  1.00  0.00     0.001 A 
ATOM     16  C   UNL     1     -19.129  -3.520  19.303  1.00  0.00     0.012 A 
ATOM     17  C   UNL     1     -20.775  -2.673  17.740  1.00  0.00     0.012 A 
ENDBRANCH   1  12
TORSDOF 1
ENDMDL
MODEL 5
REMARK VINA RESULT:    -6.441      4.156      6.081
REMARK INTER + INTRA:          -7.083
REMARK INTER:                  -6.817
REMARK INTRA:                  -0.266
REMARK UNBOUND:                -0.265
REMARK SMILES O=c1cc(-c2ccccc2)oc2ccccc12
REMARK SMILES IDX 4 1 3 2 2 3 1 4 17 5 16 6 15 7 14 8 13 9 12 10 11 11 5 12
REMARK SMILES IDX 8 13 7 14 9 15 6 16 10 17
REMARK H PARENT
REMARK Flexibility Score: inf
ROOT
ATOM      1  C   UNL     1     -22.457  -0.843  18.348  1.00  0.00     0.138 A 
ATOM      2  C   UNL     1     -22.646  -0.988  16.957  1.00  0.00     0.100 A 
ATOM      3  C   UNL     1     -23.229   0.052  16.229  1.00  0.00     0.193 A 
ATOM      4  O   UNL     1     -23.398  -0.077  14.986  1.00  0.00    -0.289 OA
ATOM      5  C   UNL     1     -23.617   1.225  16.891  1.00  0.00     0.065 A 
ATOM      6  C   UNL     1     -24.209   2.309  16.218  1.00  0.00     0.016 A 
ATOM      7  C   UNL     1     -24.577   3.457  16.928  1.00  0.00     0.001 A 
ATOM      8  C   UNL     1     -24.360   3.531  18.307  1.00  0.00     0.004 A 
ATOM      9  C   UNL     1     -23.773   2.458  18.983  1.00  0.00     0.048 A 
ATOM     10  C   UNL     1     -23.400   1.305  18.283  1.00  0.00     0.138 A 
ATOM     11  O   UNL     1     -22.842   0.291  18.936  1.00  0.00    -0.456 OA
ENDROOT
BRANCH   1  12
ATOM     12  C   UNL     1     -21.841  -1.906  19.201  1.00  0.00     0.017 A 
ATOM     13  C   UNL     1     -20.661  -3.964  20.730  1.00  0.00     0.000 A 
ATOM     14  C   UNL     1     -20.734  -4.079  19.342  1.00  0.00     0.001 A 
ATOM     15  C   UNL     1     -21.173  -2.831  21.361  1.00  0.00     0.001 A 
ATOM     16  C   UNL     1     -21.318  -3.061  18.583  1.00  0.00     0.012 A 
ATOM     17  C   UNL     1     -21.758  -1.807  20.608  1.00  0.00     0.012 A 
ENDBRANCH   1  12
TORSDOF 1
ENDMDL
MODEL 6
REMARK VINA RESULT:    -6.441      2.211      5.744
REMARK INTER + INTRA:          -7.083
REMARK INTER:                  -6.834
REMARK INTRA:                  -0.249
REMARK UNBOUND:                -0.265
REMARK SMILES O=c1cc(-c2ccccc2)oc2ccccc12
REMARK SMILES IDX 4 1 3 2 2 3 1 4 17 5 16 6 15 7 14 8 13 9 12 10 11 11 5 12
REMARK SMILES IDX 8 13 7 14 9 15 6 16 10 17
REMARK H PARENT
REMARK Flexibility Score: inf
ROOT
ATOM      1  C   UNL     1     -21.496  -2.167  18.131  1.00  0.00     0.138 A 
ATOM      2  C   UNL     1     -20.967  -3.469  18.255  1.00  0.00     0.100 A 
ATOM      3  C   UNL     1     -20.807  -4.030  19.524  1.00  0.00     0.193 A 
ATOM      4  O   UNL     1     -20.335  -5.194  19.634  1.00  0.00    -0.289 OA
ATOM      5  C   UNL     1     -21.173  -3.290  20.656  1.00  0.00     0.065 A 
ATOM      6  C   UNL     1     -21.037  -3.796  21.963  1.00  0.00     0.016 A 
ATOM      7  C   UNL     1     -21.419  -3.014  23.058  1.00  0.00     0.001 A 
ATOM      8  C   UNL     1     -21.936  -1.730  22.861  1.00  0.00     0.004 A 
ATOM      9  C   UNL     1     -22.074  -1.221  21.567  1.00  0.00     0.048 A 
ATOM     10  C   UNL     1     -21.696  -1.993  20.464  1.00  0.00     0.138 A 
ATOM     11  O   UNL     1     -21.831  -1.499  19.237  1.00  0.00    -0.456 OA
ENDROOT
BRANCH   1  12
ATOM     12  C   UNL     1     -21.701  -1.493  16.812  1.00  0.00     0.017 A 
ATOM     13  C   UNL     1     -22.172  -0.185  14.355  1.00  0.00     0.000 A 
ATOM     14  C   UNL     1     -23.096  -0.075  15.394  1.00  0.00     0.001 A 
ATOM     15  C   UNL     1     -21.015  -0.943  14.532  1.00  0.00     0.001 A 
ATOM     16  C   UNL     1     -22.865  -0.721  16.611  1.00  0.00     0.012 A 
ATOM     17  C   UNL     1     -20.776  -1.593  15.748  1.00  0.00     0.012 A 
ENDBRANCH   1  12
TORSDOF 1
ENDMDL
MODEL 7
REMARK VINA RESULT:    -6.385      1.405      2.754
REMARK INTER + INTRA:          -7.024
REMARK INTER:                  -6.778
REMARK INTRA:                  -0.245
REMARK UNBOUND:                -0.265
REMARK SMILES O=c1cc(-c2ccccc2)oc2ccccc12
REMARK SMILES IDX 4 1 3 2 2 3 1 4 17 5 16 6 15 7 14 8 13 9 12 10 11 11 5 12
REMARK SMILES IDX 8 13 7 14 9 15 6 16 10 17
REMARK H PARENT
REMARK Flexibility Score: inf
ROOT
ATOM      1  C   UNL     1     -20.844  -2.409  18.945  1.00  0.00     0.138 A 
ATOM      2  C   UNL     1     -21.645  -1.780  17.968  1.00  0.00     0.100 A 
ATOM      3  C   UNL     1     -21.234  -1.783  16.634  1.00  0.00     0.193 A 
ATOM      4  O   UNL     1     -21.950  -1.221  15.762  1.00  0.00    -0.289 OA
ATOM      5  C   UNL     1     -20.031  -2.411  16.284  1.00  0.00     0.065 A 
ATOM      6  C   UNL     1     -19.560  -2.451  14.958  1.00  0.00     0.016 A 
ATOM      7  C   UNL     1     -18.353  -3.092  14.663  1.00  0.00     0.001 A 
ATOM      8  C   UNL     1     -17.609  -3.695  15.682  1.00  0.00     0.004 A 
ATOM      9  C   UNL     1     -18.070  -3.661  17.001  1.00  0.00     0.048 A 
ATOM     10  C   UNL     1     -19.277  -3.022  17.308  1.00  0.00     0.138 A 
ATOM     11  O   UNL     1     -19.706  -2.995  18.566  1.00  0.00    -0.456 OA
ENDROOT
BRANCH   1  12
ATOM     12  C   UNL     1     -21.209  -2.452  20.394  1.00  0.00     0.017 A 
ATOM     13  C   UNL     1     -21.924  -2.440  23.125  1.00  0.00     0.000 A 
ATOM     14  C   UNL     1     -22.051  -1.278  22.364  1.00  0.00     0.001 A 
ATOM     15  C   UNL     1     -21.443  -3.608  22.535  1.00  0.00     0.001 A 
ATOM     16  C   UNL     1     -21.698  -1.282  21.012  1.00  0.00     0.012 A 
ATOM     17  C   UNL     1     -21.088  -3.620  21.181  1.00  0.00     0.012 A 
ENDBRANCH   1  12
TORSDOF 1
ENDMDL
MODEL 8
REMARK VINA RESULT:    -6.177      2.517      4.018
REMARK INTER + INTRA:          -6.804
REMARK INTER:                  -6.583
REMARK INTRA:                  -0.221
REMARK UNBOUND:                -0.265
REMARK SMILES O=c1cc(-c2ccccc2)oc2ccccc12
REMARK SMILES IDX 4 1 3 2 2 3 1 4 17 5 16 6 15 7 14 8 13 9 12 10 11 11 5 12
REMARK SMILES IDX 8 13 7 14 9 15 6 16 10 17
REMARK H PARENT
REMARK Flexibility Score: inf
ROOT
ATOM      1  C   UNL     1     -18.308  -4.055  16.504  1.00  0.00     0.138 A 
ATOM      2  C   UNL     1     -18.402  -5.384  16.039  1.00  0.00     0.100 A 
ATOM      3  C   UNL     1     -17.577  -5.809  14.996  1.00  0.00     0.193 A 
ATOM      4  O   UNL     1     -17.662  -6.997  14.581  1.00  0.00    -0.289 OA
ATOM      5  C   UNL     1     -16.668  -4.909  14.424  1.00  0.00     0.065 A 
ATOM      6  C   UNL     1     -15.809  -5.273  13.370  1.00  0.00     0.016 A 
ATOM      7  C   UNL     1     -14.920  -4.335  12.837  1.00  0.00     0.001 A 
ATOM      8  C   UNL     1     -14.881  -3.033  13.346  1.00  0.00     0.004 A 
ATOM      9  C   UNL     1     -15.730  -2.664  14.393  1.00  0.00     0.048 A 
ATOM     10  C   UNL     1     -16.624  -3.594  14.935  1.00  0.00     0.138 A 
ATOM     11  O   UNL     1     -17.427  -3.232  15.930  1.00  0.00    -0.456 OA
ENDROOT
BRANCH   1  12
ATOM     12  C   UNL     1     -19.152  -3.518  17.616  1.00  0.00     0.017 A 
ATOM     13  C   UNL     1     -20.680  -2.541  19.779  1.00  0.00     0.000 A 
ATOM     14  C   UNL     1     -19.486  -3.221  20.017  1.00  0.00     0.001 A 
ATOM     15  C   UNL     1     -21.117  -2.345  18.469  1.00  0.00     0.001 A 
ATOM     16  C   UNL     1     -18.727  -3.706  18.948  1.00  0.00     0.012 A 
ATOM     17  C   UNL     1     -20.364  -2.826  17.393  1.00  0.00     0.012 A 
ENDBRANCH   1  12
TORSDOF 1
ENDMDL
MODEL 9
REMARK VINA RESULT:    -6.135     15.051     16.249
REMARK INTER + INTRA:          -6.759
REMARK INTER:                  -6.508
REMARK INTRA:                  -0.252
REMARK UNBOUND:                -0.265
REMARK SMILES O=c1cc(-c2ccccc2)oc2ccccc12
REMARK SMILES IDX 4 1 3 2 2 3 1 4 17 5 16 6 15 7 14 8 13 9 12 10 11 11 5 12
REMARK SMILES IDX 8 13 7 14 9 15 6 16 10 17
REMARK H PARENT
REMARK Flexibility Score: inf
ROOT
ATOM      1  C   UNL     1      -7.656  -6.076   9.961  1.00  0.00     0.138 A 
ATOM      2  C   UNL     1      -8.478  -6.901   9.165  1.00  0.00     0.100 A 
ATOM      3  C   UNL     1      -8.758  -6.529   7.848  1.00  0.00     0.193 A 
ATOM      4  O   UNL     1      -9.492  -7.267   7.136  1.00  0.00    -0.289 OA
ATOM      5  C   UNL     1      -8.218  -5.342   7.337  1.00  0.00     0.065 A 
ATOM      6  C   UNL     1      -8.461  -4.909   6.020  1.00  0.00     0.016 A 
ATOM      7  C   UNL     1      -7.896  -3.715   5.560  1.00  0.00     0.001 A 
ATOM      8  C   UNL     1      -7.091  -2.946   6.405  1.00  0.00     0.004 A 
ATOM      9  C   UNL     1      -6.845  -3.369   7.715  1.00  0.00     0.048 A 
ATOM     10  C   UNL     1      -7.404  -4.562   8.186  1.00  0.00     0.138 A 
ATOM     11  O   UNL     1      -7.163  -4.954   9.433  1.00  0.00    -0.456 OA
ENDROOT
BRANCH   1  12
ATOM     12  C   UNL     1      -7.306  -6.400  11.379  1.00  0.00     0.017 A 
ATOM     13  C   UNL     1      -6.651  -6.916  14.076  1.00  0.00     0.000 A 
ATOM     14  C   UNL     1      -6.875  -5.607  13.649  1.00  0.00     0.001 A 
ATOM     15  C   UNL     1      -6.752  -7.969  13.168  1.00  0.00     0.001 A 
ATOM     16  C   UNL     1      -7.200  -5.349  12.314  1.00  0.00     0.012 A 
ATOM     17  C   UNL     1      -7.076  -7.720  11.830  1.00  0.00     0.012 A 
ENDBRANCH   1  12
TORSDOF 1
ENDMDL
