MODEL 1
REMARK VINA RESULT:    -3.439      0.000      0.000
REMARK INTER + INTRA:          -3.540
REMARK INTER:                  -3.540
REMARK INTRA:                   0.000
REMARK UNBOUND:                 0.000
REMARK SMILES Nc1ncnc2nc[nH]c12
REMARK SMILES IDX 8 1 7 2 6 3 5 4 4 5 3 6 2 7 10 8 9 9 1 11
REMARK H PARENT 9 10 1 12 1 13
REMARK Flexibility Score: inf
ROOT
ATOM      1  C   UNL     1     -44.406  27.204  -4.671  1.00  0.00     0.199 A 
ATOM      2  N   UNL     1     -43.747  28.389  -4.547  1.00  0.00    -0.217 NA
ATOM      3  C   UNL     1     -43.814  28.615  -3.224  1.00  0.00     0.182 A 
ATOM      4  N   UNL     1     -43.305  29.680  -2.560  1.00  0.00    -0.215 NA
ATOM      5  C   UNL     1     -43.474  29.736  -1.203  1.00  0.00     0.226 A 
ATOM      6  N   UNL     1     -44.144  28.738  -0.544  1.00  0.00    -0.217 NA
ATOM      7  C   UNL     1     -44.659  27.662  -1.213  1.00  0.00     0.152 A 
ATOM      8  C   UNL     1     -44.478  27.619  -2.592  1.00  0.00     0.127 A 
ATOM      9  N   UNL     1     -44.865  26.709  -3.493  1.00  0.00    -0.340 N 
ATOM     10  H   UNL     1     -45.394  25.822  -3.340  1.00  0.00     0.168 HD
ENDROOT
BRANCH   7  11
ATOM     11  N   UNL     1     -45.351  26.634  -0.504  1.00  0.00    -0.382 N 
ATOM     12  H   UNL     1     -44.822  25.826  -0.107  1.00  0.00     0.158 HD
ATOM     13  H   UNL     1     -46.386  26.668  -0.370  1.00  0.00     0.158 HD
ENDBRANCH   7  11
TORSDOF 1
ENDMDL
MODEL 2
REMARK VINA RESULT:    -3.405      2.590      4.253
REMARK INTER + INTRA:          -3.505
REMARK INTER:                  -3.505
REMARK INTRA:                   0.000
REMARK UNBOUND:                 0.000
REMARK SMILES Nc1ncnc2nc[nH]c12
REMARK SMILES IDX 8 1 7 2 6 3 5 4 4 5 3 6 2 7 10 8 9 9 1 11
REMARK H PARENT 9 10 1 12 1 13
REMARK Flexibility Score: inf
ROOT
ATOM      1  C   UNL     1     -42.158  29.184   1.026  1.00  0.00     0.199 A 
ATOM      2  N   UNL     1     -43.230  29.524   1.792  1.00  0.00    -0.217 NA
ATOM      3  C   UNL     1     -44.218  28.803   1.237  1.00  0.00     0.182 A 
ATOM      4  N   UNL     1     -45.515  28.776   1.626  1.00  0.00    -0.215 NA
ATOM      5  C   UNL     1     -46.380  27.974   0.932  1.00  0.00     0.226 A 
ATOM      6  N   UNL     1     -45.937  27.225  -0.127  1.00  0.00    -0.217 NA
ATOM      7  C   UNL     1     -44.629  27.252  -0.521  1.00  0.00     0.152 A 
ATOM      8  C   UNL     1     -43.761  28.072   0.194  1.00  0.00     0.127 A 
ATOM      9  N   UNL     1     -42.451  28.298   0.041  1.00  0.00    -0.340 N 
ATOM     10  H   UNL     1     -41.796  27.893  -0.666  1.00  0.00     0.168 HD
ENDROOT
BRANCH   7  11
ATOM     11  N   UNL     1     -44.190  26.462  -1.627  1.00  0.00    -0.382 N 
ATOM     12  H   UNL     1     -43.691  26.911  -2.425  1.00  0.00     0.158 HD
ATOM     13  H   UNL     1     -44.359  25.432  -1.660  1.00  0.00     0.158 HD
ENDBRANCH   7  11
TORSDOF 1
ENDMDL
MODEL 3
REMARK VINA RESULT:    -3.366      1.977      2.683
REMARK INTER + INTRA:          -3.464
REMARK INTER:                  -3.464
REMARK INTRA:                   0.000
REMARK UNBOUND:                 0.000
REMARK SMILES Nc1ncnc2nc[nH]c12
REMARK SMILES IDX 8 1 7 2 6 3 5 4 4 5 3 6 2 7 10 8 9 9 1 11
REMARK H PARENT 9 10 1 12 1 13
REMARK Flexibility Score: inf
ROOT
ATOM      1  C   UNL     1     -44.308  27.166  -2.032  1.00  0.00     0.199 A 
ATOM      2  N   UNL     1     -43.426  28.191  -1.882  1.00  0.00    -0.217 NA
ATOM      3  C   UNL     1     -43.457  28.402  -0.555  1.00  0.00     0.182 A 
ATOM      4  N   UNL     1     -42.751  29.332   0.132  1.00  0.00    -0.215 NA
ATOM      5  C   UNL     1     -42.917  29.396   1.488  1.00  0.00     0.226 A 
ATOM      6  N   UNL     1     -43.779  28.540   2.125  1.00  0.00    -0.217 NA
ATOM      7  C   UNL     1     -44.493  27.602   1.433  1.00  0.00     0.152 A 
ATOM      8  C   UNL     1     -44.313  27.548   0.054  1.00  0.00     0.127 A 
ATOM      9  N   UNL     1     -44.866  26.750  -0.867  1.00  0.00    -0.340 N 
ATOM     10  H   UNL     1     -45.564  25.985  -0.733  1.00  0.00     0.168 HD
ENDROOT
BRANCH   7  11
ATOM     11  N   UNL     1     -45.383  26.720   2.118  1.00  0.00    -0.382 N 
ATOM     12  H   UNL     1     -45.948  27.070   2.923  1.00  0.00     0.158 HD
ATOM     13  H   UNL     1     -45.487  25.721   1.832  1.00  0.00     0.158 HD
ENDBRANCH   7  11
TORSDOF 1
ENDMDL
MODEL 4
REMARK VINA RESULT:    -3.341      1.374      2.453
REMARK INTER + INTRA:          -3.439
REMARK INTER:                  -3.439
REMARK INTRA:                   0.000
REMARK UNBOUND:                 0.000
REMARK SMILES Nc1ncnc2nc[nH]c12
REMARK SMILES IDX 8 1 7 2 6 3 5 4 4 5 3 6 2 7 10 8 9 9 1 11
REMARK H PARENT 9 10 1 12 1 13
REMARK Flexibility Score: inf
ROOT
ATOM      1  C   UNL     1     -43.368  28.974  -3.908  1.00  0.00     0.199 A 
ATOM      2  N   UNL     1     -44.619  28.448  -3.804  1.00  0.00    -0.217 NA
ATOM      3  C   UNL     1     -44.692  28.140  -2.499  1.00  0.00     0.182 A 
ATOM      4  N   UNL     1     -45.745  27.578  -1.858  1.00  0.00    -0.215 NA
ATOM      5  C   UNL     1     -45.631  27.338  -0.516  1.00  0.00     0.226 A 
ATOM      6  N   UNL     1     -44.478  27.658   0.153  1.00  0.00    -0.217 NA
ATOM      7  C   UNL     1     -43.414  28.225  -0.492  1.00  0.00     0.152 A 
ATOM      8  C   UNL     1     -43.545  28.464  -1.857  1.00  0.00     0.127 A 
ATOM      9  N   UNL     1     -42.687  28.997  -2.734  1.00  0.00    -0.340 N 
ATOM     10  H   UNL     1     -41.719  29.352  -2.568  1.00  0.00     0.168 HD
ENDROOT
BRANCH   7  11
ATOM     11  N   UNL     1     -42.224  28.551   0.226  1.00  0.00    -0.382 N 
ATOM     12  H   UNL     1     -42.128  28.281   1.230  1.00  0.00     0.158 HD
ATOM     13  H   UNL     1     -41.434  29.060  -0.231  1.00  0.00     0.158 HD
ENDBRANCH   7  11
TORSDOF 1
ENDMDL
MODEL 5
REMARK VINA RESULT:    -3.323      2.717      4.992
REMARK INTER + INTRA:          -3.420
REMARK INTER:                  -3.420
REMARK INTRA:                   0.000
REMARK UNBOUND:                 0.000
REMARK SMILES Nc1ncnc2nc[nH]c12
REMARK SMILES IDX 8 1 7 2 6 3 5 4 4 5 3 6 2 7 10 8 9 9 1 11
REMARK H PARENT 9 10 1 12 1 13
REMARK Flexibility Score: inf
ROOT
ATOM      1  C   UNL     1     -45.998  27.857  -3.800  1.00  0.00     0.199 A 
ATOM      2  N   UNL     1     -44.708  27.459  -3.970  1.00  0.00    -0.217 NA
ATOM      3  C   UNL     1     -44.555  27.550  -5.302  1.00  0.00     0.182 A 
ATOM      4  N   UNL     1     -43.436  27.261  -6.008  1.00  0.00    -0.215 NA
ATOM      5  C   UNL     1     -43.472  27.417  -7.367  1.00  0.00     0.226 A 
ATOM      6  N   UNL     1     -44.616  27.851  -7.987  1.00  0.00    -0.217 NA
ATOM      7  C   UNL     1     -45.746  28.141  -7.276  1.00  0.00     0.152 A 
ATOM      8  C   UNL     1     -45.693  27.979  -5.895  1.00  0.00     0.127 A 
ATOM      9  N   UNL     1     -46.627  28.182  -4.958  1.00  0.00    -0.340 N 
ATOM     10  H   UNL     1     -47.610  28.513  -5.076  1.00  0.00     0.168 HD
ENDROOT
BRANCH   7  11
ATOM     11  N   UNL     1     -46.924  28.593  -7.944  1.00  0.00    -0.382 N 
ATOM     12  H   UNL     1     -46.916  29.498  -8.464  1.00  0.00     0.158 HD
ATOM     13  H   UNL     1     -47.807  28.035  -7.928  1.00  0.00     0.158 HD
ENDBRANCH   7  11
TORSDOF 1
ENDMDL
MODEL 6
REMARK VINA RESULT:    -3.289      1.384      3.041
REMARK INTER + INTRA:          -3.385
REMARK INTER:                  -3.385
REMARK INTRA:                   0.000
REMARK UNBOUND:                 0.000
REMARK SMILES Nc1ncnc2nc[nH]c12
REMARK SMILES IDX 8 1 7 2 6 3 5 4 4 5 3 6 2 7 10 8 9 9 1 11
REMARK H PARENT 9 10 1 12 1 13
REMARK Flexibility Score: inf
ROOT
ATOM      1  C   UNL     1     -43.751  27.499   0.553  1.00  0.00     0.199 A 
ATOM      2  N   UNL     1     -42.921  28.103  -0.340  1.00  0.00    -0.217 NA
ATOM      3  C   UNL     1     -43.675  28.136  -1.452  1.00  0.00     0.182 A 
ATOM      4  N   UNL     1     -43.316  28.643  -2.656  1.00  0.00    -0.215 NA
ATOM      5  C   UNL     1     -44.226  28.586  -3.676  1.00  0.00     0.226 A 
ATOM      6  N   UNL     1     -45.462  28.028  -3.476  1.00  0.00    -0.217 NA
ATOM      7  C   UNL     1     -45.825  27.516  -2.262  1.00  0.00     0.152 A 
ATOM      8  C   UNL     1     -44.890  27.582  -1.233  1.00  0.00     0.127 A 
ATOM      9  N   UNL     1     -44.962  27.169   0.037  1.00  0.00    -0.340 N 
ATOM     10  H   UNL     1     -45.756  26.701   0.528  1.00  0.00     0.168 HD
ENDROOT
BRANCH   7  11
ATOM     11  N   UNL     1     -47.119  26.941  -2.077  1.00  0.00    -0.382 N 
ATOM     12  H   UNL     1     -47.759  27.318  -1.344  1.00  0.00     0.158 HD
ATOM     13  H   UNL     1     -47.448  26.142  -2.665  1.00  0.00     0.158 HD
ENDBRANCH   7  11
TORSDOF 1
ENDMDL
MODEL 7
REMARK VINA RESULT:    -3.177      1.246      3.651
REMARK INTER + INTRA:          -3.270
REMARK INTER:                  -3.270
REMARK INTRA:                   0.000
REMARK UNBOUND:                 0.000
REMARK SMILES Nc1ncnc2nc[nH]c12
REMARK SMILES IDX 8 1 7 2 6 3 5 4 4 5 3 6 2 7 10 8 9 9 1 11
REMARK H PARENT 9 10 1 12 1 13
REMARK Flexibility Score: inf
ROOT
ATOM      1  C   UNL     1     -43.377  27.583  -0.185  1.00  0.00     0.199 A 
ATOM      2  N   UNL     1     -44.523  27.084  -0.725  1.00  0.00    -0.217 NA
ATOM      3  C   UNL     1     -44.564  27.697  -1.920  1.00  0.00     0.182 A 
ATOM      4  N   UNL     1     -45.519  27.551  -2.870  1.00  0.00    -0.215 NA
ATOM      5  C   UNL     1     -45.388  28.264  -4.031  1.00  0.00     0.226 A 
ATOM      6  N   UNL     1     -44.318  29.100  -4.217  1.00  0.00    -0.217 NA
ATOM      7  C   UNL     1     -43.354  29.249  -3.259  1.00  0.00     0.152 A 
ATOM      8  C   UNL     1     -43.500  28.517  -2.085  1.00  0.00     0.127 A 
ATOM      9  N   UNL     1     -42.729  28.461  -0.992  1.00  0.00    -0.340 N 
ATOM     10  H   UNL     1     -41.838  28.967  -0.794  1.00  0.00     0.168 HD
ENDROOT
BRANCH   7  11
ATOM     11  N   UNL     1     -42.247  30.125  -3.477  1.00  0.00    -0.382 N 
ATOM     12  H   UNL     1     -41.787  30.596  -2.668  1.00  0.00     0.158 HD
ATOM     13  H   UNL     1     -41.881  30.310  -4.438  1.00  0.00     0.158 HD
ENDBRANCH   7  11
TORSDOF 1
ENDMDL
MODEL 8
REMARK VINA RESULT:    -3.157      1.652      2.854
REMARK INTER + INTRA:          -3.250
REMARK INTER:                  -3.250
REMARK INTRA:                   0.000
REMARK UNBOUND:                 0.000
REMARK SMILES Nc1ncnc2nc[nH]c12
REMARK SMILES IDX 8 1 7 2 6 3 5 4 4 5 3 6 2 7 10 8 9 9 1 11
REMARK H PARENT 9 10 1 12 1 13
REMARK Flexibility Score: inf
ROOT
ATOM      1  C   UNL     1     -45.251  27.762  -3.284  1.00  0.00     0.199 A 
ATOM      2  N   UNL     1     -46.327  27.535  -2.482  1.00  0.00    -0.217 NA
ATOM      3  C   UNL     1     -45.785  27.600  -1.254  1.00  0.00     0.182 A 
ATOM      4  N   UNL     1     -46.433  27.441  -0.075  1.00  0.00    -0.215 NA
ATOM      5  C   UNL     1     -45.707  27.544   1.080  1.00  0.00     0.226 A 
ATOM      6  N   UNL     1     -44.360  27.799   1.034  1.00  0.00    -0.217 NA
ATOM      7  C   UNL     1     -43.705  27.959  -0.155  1.00  0.00     0.152 A 
ATOM      8  C   UNL     1     -44.457  27.853  -1.320  1.00  0.00     0.127 A 
ATOM      9  N   UNL     1     -44.094  27.960  -2.604  1.00  0.00    -0.340 N 
ATOM     10  H   UNL     1     -43.148  28.151  -3.002  1.00  0.00     0.168 HD
ENDROOT
BRANCH   7  11
ATOM     11  N   UNL     1     -42.302  28.225  -0.176  1.00  0.00    -0.382 N 
ATOM     12  H   UNL     1     -41.895  28.935   0.472  1.00  0.00     0.158 HD
ATOM     13  H   UNL     1     -41.662  27.722  -0.831  1.00  0.00     0.158 HD
ENDBRANCH   7  11
TORSDOF 1
ENDMDL
MODEL 9
REMARK VINA RESULT:    -3.149      1.485      3.760
REMARK INTER + INTRA:          -3.241
REMARK INTER:                  -3.241
REMARK INTRA:                   0.000
REMARK UNBOUND:                 0.000
REMARK SMILES Nc1ncnc2nc[nH]c12
REMARK SMILES IDX 8 1 7 2 6 3 5 4 4 5 3 6 2 7 10 8 9 9 1 11
REMARK H PARENT 9 10 1 12 1 13
REMARK Flexibility Score: inf
ROOT
ATOM      1  C   UNL     1     -42.661  28.263   0.211  1.00  0.00     0.199 A 
ATOM      2  N   UNL     1     -43.835  27.965   0.832  1.00  0.00    -0.217 NA
ATOM      3  C   UNL     1     -44.673  27.804  -0.205  1.00  0.00     0.182 A 
ATOM      4  N   UNL     1     -45.990  27.493  -0.139  1.00  0.00    -0.215 NA
ATOM      5  C   UNL     1     -46.684  27.370  -1.312  1.00  0.00     0.226 A 
ATOM      6  N   UNL     1     -46.055  27.561  -2.516  1.00  0.00    -0.217 NA
ATOM      7  C   UNL     1     -44.727  27.875  -2.584  1.00  0.00     0.152 A 
ATOM      8  C   UNL     1     -44.034  27.995  -1.383  1.00  0.00     0.127 A 
ATOM      9  N   UNL     1     -42.751  28.289  -1.143  1.00  0.00    -0.340 N 
ATOM     10  H   UNL     1     -41.988  28.491  -1.827  1.00  0.00     0.168 HD
ENDROOT
BRANCH   7  11
ATOM     11  N   UNL     1     -44.094  28.067  -3.850  1.00  0.00    -0.382 N 
ATOM     12  H   UNL     1     -43.981  27.263  -4.505  1.00  0.00     0.158 HD
ATOM     13  H   UNL     1     -43.735  29.003  -4.142  1.00  0.00     0.158 HD
ENDBRANCH   7  11
TORSDOF 1
ENDMDL
