MODEL 1
REMARK VINA RESULT:    -4.405      0.000      0.000
REMARK INTER + INTRA:          -7.290
REMARK INTER:                  -6.465
REMARK INTRA:                  -0.825
REMARK UNBOUND:                -0.825
REMARK SMILES O=C([O-])CCCCCCCC(=O)[O-]
REMARK SMILES IDX 7 1 6 2 5 3 4 4 2 5 1 6 3 7 8 8 9 9 10 10 11 11 12 12 13 13
REMARK H PARENT
REMARK Flexibility Score: inf
ROOT
ATOM      1  C   UNL     1     158.837 162.141 150.018  1.00  0.00     0.000 C 
ENDROOT
BRANCH   1   2
ATOM      2  C   UNL     1     160.052 162.665 149.236  1.00  0.00     0.000 C 
BRANCH   2   3
ATOM      3  C   UNL     1     160.568 161.652 148.199  1.00  0.00     0.006 C 
BRANCH   3   4
ATOM      4  C   UNL     1     159.486 160.645 147.787  1.00  0.00     0.053 C 
BRANCH   4   5
ATOM      5  C   UNL     1     160.017 159.244 147.754  1.00  0.00     0.041 C 
ATOM      6  O   UNL     1     161.171 158.993 148.188  1.00  0.00    -0.550 OA
ATOM      7  O   UNL     1     159.247 158.222 147.212  1.00  0.00    -0.550 OA
ENDBRANCH   4   5
ENDBRANCH   3   4
ENDBRANCH   2   3
ENDBRANCH   1   2
BRANCH   1   8
ATOM      8  C   UNL     1     159.020 162.258 151.542  1.00  0.00     0.000 C 
BRANCH   8   9
ATOM      9  C   UNL     1     158.977 160.894 152.248  1.00  0.00     0.006 C 
BRANCH   9  10
ATOM     10  C   UNL     1     160.170 160.003 151.880  1.00  0.00     0.053 C 
BRANCH  10  11
ATOM     11  C   UNL     1     159.695 158.676 151.377  1.00  0.00     0.041 C 
ATOM     12  O   UNL     1     160.426 157.657 151.489  1.00  0.00    -0.550 OA
ATOM     13  O   UNL     1     158.424 158.554 150.828  1.00  0.00    -0.550 OA
ENDBRANCH  10  11
ENDBRANCH   9  10
ENDBRANCH   8   9
ENDBRANCH   1   8
TORSDOF 8
ENDMDL
MODEL 2
REMARK VINA RESULT:    -4.340      1.645      2.390
REMARK INTER + INTRA:          -7.195
REMARK INTER:                  -6.312
REMARK INTRA:                  -0.883
REMARK UNBOUND:                -0.825
REMARK SMILES O=C([O-])CCCCCCCC(=O)[O-]
REMARK SMILES IDX 7 1 6 2 5 3 4 4 2 5 1 6 3 7 8 8 9 9 10 10 11 11 12 12 13 13
REMARK H PARENT
REMARK Flexibility Score: inf
ROOT
ATOM      1  C   UNL     1     159.621 161.339 151.132  1.00  0.00     0.000 C 
ENDROOT
BRANCH   1   2
ATOM      2  C   UNL     1     160.764 161.949 150.305  1.00  0.00     0.000 C 
BRANCH   2   3
ATOM      3  C   UNL     1     161.176 161.058 149.121  1.00  0.00     0.006 C 
BRANCH   3   4
ATOM      4  C   UNL     1     160.411 161.410 147.838  1.00  0.00     0.053 C 
BRANCH   4   5
ATOM      5  C   UNL     1     159.359 160.392 147.524  1.00  0.00     0.041 C 
ATOM      6  O   UNL     1     158.230 160.454 148.077  1.00  0.00    -0.550 OA
ATOM      7  O   UNL     1     159.637 159.353 146.643  1.00  0.00    -0.550 OA
ENDBRANCH   4   5
ENDBRANCH   3   4
ENDBRANCH   2   3
ENDBRANCH   1   2
BRANCH   1   8
ATOM      8  C   UNL     1     159.946 159.920 151.632  1.00  0.00     0.000 C 
BRANCH   8   9
ATOM      9  C   UNL     1     158.937 158.873 151.135  1.00  0.00     0.006 C 
BRANCH   9  10
ATOM     10  C   UNL     1     159.579 157.830 150.211  1.00  0.00     0.053 C 
BRANCH  10  11
ATOM     11  C   UNL     1     158.537 157.178 149.358  1.00  0.00     0.041 C 
ATOM     12  O   UNL     1     157.320 157.457 149.519  1.00  0.00    -0.550 OA
ATOM     13  O   UNL     1     158.913 156.297 148.351  1.00  0.00    -0.550 OA
ENDBRANCH  10  11
ENDBRANCH   9  10
ENDBRANCH   8   9
ENDBRANCH   1   8
TORSDOF 8
ENDMDL
MODEL 3
REMARK VINA RESULT:    -4.312      2.200      4.897
REMARK INTER + INTRA:          -7.154
REMARK INTER:                  -6.350
REMARK INTRA:                  -0.804
REMARK UNBOUND:                -0.825
REMARK SMILES O=C([O-])CCCCCCCC(=O)[O-]
REMARK SMILES IDX 7 1 6 2 5 3 4 4 2 5 1 6 3 7 8 8 9 9 10 10 11 11 12 12 13 13
REMARK H PARENT
REMARK Flexibility Score: inf
ROOT
ATOM      1  C   UNL     1     160.640 157.416 150.028  1.00  0.00     0.000 C 
ENDROOT
BRANCH   1   2
ATOM      2  C   UNL     1     160.386 158.030 151.414  1.00  0.00     0.000 C 
BRANCH   2   3
ATOM      3  C   UNL     1     159.361 159.177 151.371  1.00  0.00     0.006 C 
BRANCH   3   4
ATOM      4  C   UNL     1     160.030 160.555 151.472  1.00  0.00     0.053 C 
BRANCH   4   5
ATOM      5  C   UNL     1     159.028 161.641 151.718  1.00  0.00     0.041 C 
ATOM      6  O   UNL     1     158.544 161.808 152.868  1.00  0.00    -0.550 OA
ATOM      7  O   UNL     1     158.605 162.446 150.668  1.00  0.00    -0.550 OA
ENDBRANCH   4   5
ENDBRANCH   3   4
ENDBRANCH   2   3
ENDBRANCH   1   2
BRANCH   1   8
ATOM      8  C   UNL     1     159.336 157.086 149.280  1.00  0.00     0.000 C 
BRANCH   8   9
ATOM      9  C   UNL     1     159.223 157.825 147.938  1.00  0.00     0.006 C 
BRANCH   9  10
ATOM     10  C   UNL     1     160.302 158.902 147.766  1.00  0.00     0.053 C 
BRANCH  10  11
ATOM     11  C   UNL     1     159.690 160.267 147.819  1.00  0.00     0.041 C 
ATOM     12  O   UNL     1     158.452 160.399 148.002  1.00  0.00    -0.550 OA
ATOM     13  O   UNL     1     160.496 161.394 147.716  1.00  0.00    -0.550 OA
ENDBRANCH  10  11
ENDBRANCH   9  10
ENDBRANCH   8   9
ENDBRANCH   1   8
TORSDOF 8
ENDMDL
MODEL 4
REMARK VINA RESULT:    -4.306      1.374      3.895
REMARK INTER + INTRA:          -7.145
REMARK INTER:                  -6.336
REMARK INTRA:                  -0.809
REMARK UNBOUND:                -0.825
REMARK SMILES O=C([O-])CCCCCCCC(=O)[O-]
REMARK SMILES IDX 7 1 6 2 5 3 4 4 2 5 1 6 3 7 8 8 9 9 10 10 11 11 12 12 13 13
REMARK H PARENT
REMARK Flexibility Score: inf
ROOT
ATOM      1  C   UNL     1     160.260 161.966 149.066  1.00  0.00     0.000 C 
ENDROOT
BRANCH   1   2
ATOM      2  C   UNL     1     159.002 161.613 149.876  1.00  0.00     0.000 C 
BRANCH   2   3
ATOM      3  C   UNL     1     159.335 160.953 151.225  1.00  0.00     0.006 C 
BRANCH   3   4
ATOM      4  C   UNL     1     160.508 159.969 151.114  1.00  0.00     0.053 C 
BRANCH   4   5
ATOM      5  C   UNL     1     160.328 158.788 152.017  1.00  0.00     0.041 C 
ATOM      6  O   UNL     1     160.319 157.622 151.543  1.00  0.00    -0.550 OA
ATOM      7  O   UNL     1     160.135 158.978 153.380  1.00  0.00    -0.550 OA
ENDBRANCH   4   5
ENDBRANCH   3   4
ENDBRANCH   2   3
ENDBRANCH   1   2
BRANCH   1   8
ATOM      8  C   UNL     1     160.340 161.197 147.735  1.00  0.00     0.000 C 
BRANCH   8   9
ATOM      9  C   UNL     1     159.147 160.252 147.526  1.00  0.00     0.006 C 
BRANCH   9  10
ATOM     10  C   UNL     1     159.578 158.791 147.347  1.00  0.00     0.053 C 
BRANCH  10  11
ATOM     11  C   UNL     1     158.852 157.910 148.315  1.00  0.00     0.041 C 
ATOM     12  O   UNL     1     157.987 158.398 149.089  1.00  0.00    -0.550 OA
ATOM     13  O   UNL     1     159.094 156.543 148.328  1.00  0.00    -0.550 OA
ENDBRANCH  10  11
ENDBRANCH   9  10
ENDBRANCH   8   9
ENDBRANCH   1   8
TORSDOF 8
ENDMDL
MODEL 5
REMARK VINA RESULT:    -4.285      2.172      3.662
REMARK INTER + INTRA:          -7.115
REMARK INTER:                  -6.291
REMARK INTRA:                  -0.824
REMARK UNBOUND:                -0.825
REMARK SMILES O=C([O-])CCCCCCCC(=O)[O-]
REMARK SMILES IDX 7 1 6 2 5 3 4 4 2 5 1 6 3 7 8 8 9 9 10 10 11 11 12 12 13 13
REMARK H PARENT
REMARK Flexibility Score: inf
ROOT
ATOM      1  C   UNL     1     160.715 157.485 150.241  1.00  0.00     0.000 C 
ENDROOT
BRANCH   1   2
ATOM      2  C   UNL     1     159.471 156.971 149.500  1.00  0.00     0.000 C 
BRANCH   2   3
ATOM      3  C   UNL     1     159.239 157.695 148.163  1.00  0.00     0.006 C 
BRANCH   3   4
ATOM      4  C   UNL     1     160.258 158.817 147.928  1.00  0.00     0.053 C 
BRANCH   4   5
ATOM      5  C   UNL     1     159.591 160.150 147.781  1.00  0.00     0.041 C 
ATOM      6  O   UNL     1     158.378 160.290 148.088  1.00  0.00    -0.550 OA
ATOM      7  O   UNL     1     160.301 161.231 147.272  1.00  0.00    -0.550 OA
ENDBRANCH   4   5
ENDBRANCH   3   4
ENDBRANCH   2   3
ENDBRANCH   1   2
BRANCH   1   8
ATOM      8  C   UNL     1     160.384 158.044 151.636  1.00  0.00     0.000 C 
BRANCH   8   9
ATOM      9  C   UNL     1     159.436 159.252 151.578  1.00  0.00     0.006 C 
BRANCH   9  10
ATOM     10  C   UNL     1     160.179 160.572 151.329  1.00  0.00     0.053 C 
BRANCH  10  11
ATOM     11  C   UNL     1     159.245 161.732 151.478  1.00  0.00     0.041 C 
ATOM     12  O   UNL     1     159.090 162.546 150.530  1.00  0.00    -0.550 OA
ATOM     13  O   UNL     1     158.509 161.887 152.646  1.00  0.00    -0.550 OA
ENDBRANCH  10  11
ENDBRANCH   9  10
ENDBRANCH   8   9
ENDBRANCH   1   8
TORSDOF 8
ENDMDL
MODEL 6
REMARK VINA RESULT:    -4.282      1.328      1.970
REMARK INTER + INTRA:          -7.109
REMARK INTER:                  -6.296
REMARK INTRA:                  -0.813
REMARK UNBOUND:                -0.825
REMARK SMILES O=C([O-])CCCCCCCC(=O)[O-]
REMARK SMILES IDX 7 1 6 2 5 3 4 4 2 5 1 6 3 7 8 8 9 9 10 10 11 11 12 12 13 13
REMARK H PARENT
REMARK Flexibility Score: inf
ROOT
ATOM      1  C   UNL     1     160.294 162.068 149.026  1.00  0.00     0.000 C 
ENDROOT
BRANCH   1   2
ATOM      2  C   UNL     1     160.343 161.265 147.716  1.00  0.00     0.000 C 
BRANCH   2   3
ATOM      3  C   UNL     1     159.153 160.301 147.570  1.00  0.00     0.006 C 
BRANCH   3   4
ATOM      4  C   UNL     1     159.605 158.845 147.397  1.00  0.00     0.053 C 
BRANCH   4   5
ATOM      5  C   UNL     1     158.867 157.923 148.319  1.00  0.00     0.041 C 
ATOM      6  O   UNL     1     159.072 156.682 148.272  1.00  0.00    -0.550 OA
ATOM      7  O   UNL     1     157.927 158.433 149.206  1.00  0.00    -0.550 OA
ENDBRANCH   4   5
ENDBRANCH   3   4
ENDBRANCH   2   3
ENDBRANCH   1   2
BRANCH   1   8
ATOM      8  C   UNL     1     159.115 161.658 149.927  1.00  0.00     0.000 C 
BRANCH   8   9
ATOM      9  C   UNL     1     159.574 161.069 151.269  1.00  0.00     0.006 C 
BRANCH   9  10
ATOM     10  C   UNL     1     160.614 159.954 151.098  1.00  0.00     0.053 C 
BRANCH  10  11
ATOM     11  C   UNL     1     160.313 158.814 152.020  1.00  0.00     0.041 C 
ATOM     12  O   UNL     1     159.955 159.036 153.206  1.00  0.00    -0.550 OA
ATOM     13  O   UNL     1     160.380 157.507 151.555  1.00  0.00    -0.550 OA
ENDBRANCH  10  11
ENDBRANCH   9  10
ENDBRANCH   8   9
ENDBRANCH   1   8
TORSDOF 8
ENDMDL
MODEL 7
REMARK VINA RESULT:    -4.255      1.442      3.624
REMARK INTER + INTRA:          -7.070
REMARK INTER:                  -6.155
REMARK INTRA:                  -0.915
REMARK UNBOUND:                -0.825
REMARK SMILES O=C([O-])CCCCCCCC(=O)[O-]
REMARK SMILES IDX 7 1 6 2 5 3 4 4 2 5 1 6 3 7 8 8 9 9 10 10 11 11 12 12 13 13
REMARK H PARENT
REMARK Flexibility Score: inf
ROOT
ATOM      1  C   UNL     1     159.491 161.110 151.319  1.00  0.00     0.000 C 
ENDROOT
BRANCH   1   2
ATOM      2  C   UNL     1     160.444 159.924 151.536  1.00  0.00     0.000 C 
BRANCH   2   3
ATOM      3  C   UNL     1     159.767 158.567 151.276  1.00  0.00     0.006 C 
BRANCH   3   4
ATOM      4  C   UNL     1     158.453 158.716 150.498  1.00  0.00     0.053 C 
BRANCH   4   5
ATOM      5  C   UNL     1     158.095 157.457 149.770  1.00  0.00     0.041 C 
ATOM      6  O   UNL     1     156.915 157.021 149.799  1.00  0.00    -0.550 OA
ATOM      7  O   UNL     1     159.074 156.748 149.085  1.00  0.00    -0.550 OA
ENDBRANCH   4   5
ENDBRANCH   3   4
ENDBRANCH   2   3
ENDBRANCH   1   2
BRANCH   1   8
ATOM      8  C   UNL     1     160.060 162.154 150.342  1.00  0.00     0.000 C 
BRANCH   8   9
ATOM      9  C   UNL     1     161.027 161.540 149.318  1.00  0.00     0.006 C 
BRANCH   9  10
ATOM     10  C   UNL     1     160.368 161.305 147.953  1.00  0.00     0.053 C 
BRANCH  10  11
ATOM     11  C   UNL     1     160.396 159.850 147.603  1.00  0.00     0.041 C 
ATOM     12  O   UNL     1     161.217 159.080 148.166  1.00  0.00    -0.550 OA
ATOM     13  O   UNL     1     159.483 159.336 146.692  1.00  0.00    -0.550 OA
ENDBRANCH  10  11
ENDBRANCH   9  10
ENDBRANCH   8   9
ENDBRANCH   1   8
TORSDOF 8
ENDMDL
MODEL 8
REMARK VINA RESULT:    -4.254      2.034      4.234
REMARK INTER + INTRA:          -7.069
REMARK INTER:                  -6.146
REMARK INTRA:                  -0.923
REMARK UNBOUND:                -0.825
REMARK SMILES O=C([O-])CCCCCCCC(=O)[O-]
REMARK SMILES IDX 7 1 6 2 5 3 4 4 2 5 1 6 3 7 8 8 9 9 10 10 11 11 12 12 13 13
REMARK H PARENT
REMARK Flexibility Score: inf
ROOT
ATOM      1  C   UNL     1     160.351 158.370 151.817  1.00  0.00     0.000 C 
ENDROOT
BRANCH   1   2
ATOM      2  C   UNL     1     159.201 159.381 151.682  1.00  0.00     0.000 C 
BRANCH   2   3
ATOM      3  C   UNL     1     159.691 160.780 151.270  1.00  0.00     0.006 C 
BRANCH   3   4
ATOM      4  C   UNL     1     161.155 160.769 150.811  1.00  0.00     0.053 C 
BRANCH   4   5
ATOM      5  C   UNL     1     161.445 161.885 149.854  1.00  0.00     0.041 C 
ATOM      6  O   UNL     1     160.567 162.260 149.034  1.00  0.00    -0.550 OA
ATOM      7  O   UNL     1     162.697 162.487 149.847  1.00  0.00    -0.550 OA
ENDBRANCH   4   5
ENDBRANCH   3   4
ENDBRANCH   2   3
ENDBRANCH   1   2
BRANCH   1   8
ATOM      8  C   UNL     1     160.267 157.237 150.779  1.00  0.00     0.000 C 
BRANCH   8   9
ATOM      9  C   UNL     1     158.937 157.238 150.010  1.00  0.00     0.006 C 
BRANCH   9  10
ATOM     10  C   UNL     1     159.136 157.301 148.490  1.00  0.00     0.053 C 
BRANCH  10  11
ATOM     11  C   UNL     1     159.529 158.683 148.071  1.00  0.00     0.041 C 
ATOM     12  O   UNL     1     158.681 159.613 148.081  1.00  0.00    -0.550 OA
ATOM     13  O   UNL     1     160.845 158.955 147.718  1.00  0.00    -0.550 OA
ENDBRANCH  10  11
ENDBRANCH   9  10
ENDBRANCH   8   9
ENDBRANCH   1   8
TORSDOF 8
ENDMDL
MODEL 9
REMARK VINA RESULT:    -4.251      2.143      4.883
REMARK INTER + INTRA:          -7.064
REMARK INTER:                  -6.202
REMARK INTRA:                  -0.862
REMARK UNBOUND:                -0.825
REMARK SMILES O=C([O-])CCCCCCCC(=O)[O-]
REMARK SMILES IDX 7 1 6 2 5 3 4 4 2 5 1 6 3 7 8 8 9 9 10 10 11 11 12 12 13 13
REMARK H PARENT
REMARK Flexibility Score: inf
ROOT
ATOM      1  C   UNL     1     158.968 157.713 149.080  1.00  0.00     0.000 C 
ENDROOT
BRANCH   1   2
ATOM      2  C   UNL     1     160.255 157.575 149.909  1.00  0.00     0.000 C 
BRANCH   2   3
ATOM      3  C   UNL     1     160.233 158.441 151.181  1.00  0.00     0.006 C 
BRANCH   3   4
ATOM      4  C   UNL     1     158.997 159.348 151.242  1.00  0.00     0.053 C 
BRANCH   4   5
ATOM      5  C   UNL     1     159.246 160.569 152.074  1.00  0.00     0.041 C 
ATOM      6  O   UNL     1     159.072 161.716 151.586  1.00  0.00    -0.550 OA
ATOM      7  O   UNL     1     159.704 160.438 153.380  1.00  0.00    -0.550 OA
ENDBRANCH   4   5
ENDBRANCH   3   4
ENDBRANCH   2   3
ENDBRANCH   1   2
BRANCH   1   8
ATOM      8  C   UNL     1     159.238 158.211 147.649  1.00  0.00     0.000 C 
BRANCH   8   9
ATOM      9  C   UNL     1     160.360 159.259 147.590  1.00  0.00     0.006 C 
BRANCH   9  10
ATOM     10  C   UNL     1     159.828 160.696 147.653  1.00  0.00     0.053 C 
BRANCH  10  11
ATOM     11  C   UNL     1     160.741 161.556 148.470  1.00  0.00     0.041 C 
ATOM     12  O   UNL     1     161.604 161.029 149.220  1.00  0.00    -0.550 OA
ATOM     13  O   UNL     1     160.672 162.939 148.366  1.00  0.00    -0.550 OA
ENDBRANCH  10  11
ENDBRANCH   9  10
ENDBRANCH   8   9
ENDBRANCH   1   8
TORSDOF 8
ENDMDL
