MODEL 1
REMARK VINA RESULT:    -3.055      0.000      0.000
REMARK INTER + INTRA:          -3.482
REMARK INTER:                  -3.412
REMARK INTRA:                  -0.070
REMARK UNBOUND:                -0.070
REMARK SMILES CCCC(=O)[O-]
REMARK SMILES IDX 3 1 4 2 5 3 6 4 2 5 1 6
REMARK H PARENT
REMARK Flexibility Score: inf
ROOT
ATOM      1  C   UNL     1      16.178 -38.125  27.444  1.00  0.00     0.052 C 
ENDROOT
BRANCH   1   2
ATOM      2  C   UNL     1      17.118 -37.449  26.496  1.00  0.00     0.041 C 
ATOM      3  O   UNL     1      16.904 -36.264  26.131  1.00  0.00    -0.550 OA
ATOM      4  O   UNL     1      18.255 -38.111  26.054  1.00  0.00    -0.550 OA
ENDBRANCH   1   2
BRANCH   1   5
ATOM      5  C   UNL     1      16.180 -37.412  28.799  1.00  0.00     0.003 C 
ATOM      6  C   UNL     1      17.493 -37.645  29.542  1.00  0.00     0.004 C 
ENDBRANCH   1   5
TORSDOF 2
ENDMDL
MODEL 2
REMARK VINA RESULT:    -3.014     10.377     11.013
REMARK INTER + INTRA:          -3.437
REMARK INTER:                  -3.398
REMARK INTRA:                  -0.038
REMARK UNBOUND:                -0.070
REMARK SMILES CCCC(=O)[O-]
REMARK SMILES IDX 3 1 4 2 5 3 6 4 2 5 1 6
REMARK H PARENT
REMARK Flexibility Score: inf
ROOT
ATOM      1  C   UNL     1      12.799 -28.972  24.128  1.00  0.00     0.052 C 
ENDROOT
BRANCH   1   2
ATOM      2  C   UNL     1      11.867 -29.081  22.963  1.00  0.00     0.041 C 
ATOM      3  O   UNL     1      11.043 -28.161  22.724  1.00  0.00    -0.550 OA
ATOM      4  O   UNL     1      11.942 -30.177  22.113  1.00  0.00    -0.550 OA
ENDBRANCH   1   2
BRANCH   1   5
ATOM      5  C   UNL     1      12.497 -27.710  24.940  1.00  0.00     0.003 C 
ATOM      6  C   UNL     1      13.589 -26.659  24.751  1.00  0.00     0.004 C 
ENDBRANCH   1   5
TORSDOF 2
ENDMDL
MODEL 3
REMARK VINA RESULT:    -2.963     14.070     14.922
REMARK INTER + INTRA:          -3.380
REMARK INTER:                  -3.341
REMARK INTRA:                  -0.039
REMARK UNBOUND:                -0.070
REMARK SMILES CCCC(=O)[O-]
REMARK SMILES IDX 3 1 4 2 5 3 6 4 2 5 1 6
REMARK H PARENT
REMARK Flexibility Score: inf
ROOT
ATOM      1  C   UNL     1      21.982 -25.225  20.620  1.00  0.00     0.052 C 
ENDROOT
BRANCH   1   2
ATOM      2  C   UNL     1      23.054 -25.512  19.616  1.00  0.00     0.041 C 
ATOM      3  O   UNL     1      23.607 -24.568  18.995  1.00  0.00    -0.550 OA
ATOM      4  O   UNL     1      23.474 -26.818  19.403  1.00  0.00    -0.550 OA
ENDBRANCH   1   2
BRANCH   1   5
ATOM      5  C   UNL     1      20.615 -25.658  20.082  1.00  0.00     0.003 C 
ATOM      6  C   UNL     1      20.151 -26.957  20.738  1.00  0.00     0.004 C 
ENDBRANCH   1   5
TORSDOF 2
ENDMDL
MODEL 4
REMARK VINA RESULT:    -2.920      9.591     10.238
REMARK INTER + INTRA:          -3.332
REMARK INTER:                  -3.320
REMARK INTRA:                  -0.012
REMARK UNBOUND:                -0.070
REMARK SMILES CCCC(=O)[O-]
REMARK SMILES IDX 3 1 4 2 5 3 6 4 2 5 1 6
REMARK H PARENT
REMARK Flexibility Score: inf
ROOT
ATOM      1  C   UNL     1      12.949 -29.676  23.551  1.00  0.00     0.052 C 
ENDROOT
BRANCH   1   2
ATOM      2  C   UNL     1      12.386 -30.387  22.362  1.00  0.00     0.041 C 
ATOM      3  O   UNL     1      11.220 -30.130  21.964  1.00  0.00    -0.550 OA
ATOM      4  O   UNL     1      13.167 -31.298  21.663  1.00  0.00    -0.550 OA
ENDBRANCH   1   2
BRANCH   1   5
ATOM      5  C   UNL     1      12.012 -28.548  23.994  1.00  0.00     0.003 C 
ATOM      6  C   UNL     1      12.714 -27.599  24.963  1.00  0.00     0.004 C 
ENDBRANCH   1   5
TORSDOF 2
ENDMDL
MODEL 5
REMARK VINA RESULT:    -2.905      9.212      9.943
REMARK INTER + INTRA:          -3.315
REMARK INTER:                  -3.304
REMARK INTRA:                  -0.010
REMARK UNBOUND:                -0.070
REMARK SMILES CCCC(=O)[O-]
REMARK SMILES IDX 3 1 4 2 5 3 6 4 2 5 1 6
REMARK H PARENT
REMARK Flexibility Score: inf
ROOT
ATOM      1  C   UNL     1      13.129 -29.882  23.882  1.00  0.00     0.052 C 
ENDROOT
BRANCH   1   2
ATOM      2  C   UNL     1      12.782 -30.724  22.695  1.00  0.00     0.041 C 
ATOM      3  O   UNL     1      13.525 -31.681  22.359  1.00  0.00    -0.550 OA
ATOM      4  O   UNL     1      11.611 -30.480  21.989  1.00  0.00    -0.550 OA
ENDBRANCH   1   2
BRANCH   1   5
ATOM      5  C   UNL     1      12.163 -28.700  24.001  1.00  0.00     0.003 C 
ATOM      6  C   UNL     1      12.710 -27.635  24.949  1.00  0.00     0.004 C 
ENDBRANCH   1   5
TORSDOF 2
ENDMDL
MODEL 6
REMARK VINA RESULT:    -2.890     14.977     15.863
REMARK INTER + INTRA:          -3.298
REMARK INTER:                  -3.262
REMARK INTRA:                  -0.036
REMARK UNBOUND:                -0.070
REMARK SMILES CCCC(=O)[O-]
REMARK SMILES IDX 3 1 4 2 5 3 6 4 2 5 1 6
REMARK H PARENT
REMARK Flexibility Score: inf
ROOT
ATOM      1  C   UNL     1      23.039 -25.408  19.565  1.00  0.00     0.052 C 
ENDROOT
BRANCH   1   2
ATOM      2  C   UNL     1      23.665 -24.234  20.250  1.00  0.00     0.041 C 
ATOM      3  O   UNL     1      24.487 -23.507  19.635  1.00  0.00    -0.550 OA
ATOM      4  O   UNL     1      23.301 -23.914  21.552  1.00  0.00    -0.550 OA
ENDBRANCH   1   2
BRANCH   1   5
ATOM      5  C   UNL     1      22.023 -26.087  20.488  1.00  0.00     0.003 C 
ATOM      6  C   UNL     1      20.595 -25.699  20.114  1.00  0.00     0.004 C 
ENDBRANCH   1   5
TORSDOF 2
ENDMDL
MODEL 7
REMARK VINA RESULT:    -2.890      9.265      9.645
REMARK INTER + INTRA:          -3.298
REMARK INTER:                  -3.268
REMARK INTRA:                  -0.030
REMARK UNBOUND:                -0.070
REMARK SMILES CCCC(=O)[O-]
REMARK SMILES IDX 3 1 4 2 5 3 6 4 2 5 1 6
REMARK H PARENT
REMARK Flexibility Score: inf
ROOT
ATOM      1  C   UNL     1      12.470 -30.642  22.335  1.00  0.00     0.052 C 
ENDROOT
BRANCH   1   2
ATOM      2  C   UNL     1      13.431 -30.972  21.237  1.00  0.00     0.041 C 
ATOM      3  O   UNL     1      13.179 -31.908  20.435  1.00  0.00    -0.550 OA
ATOM      4  O   UNL     1      14.583 -30.214  21.072  1.00  0.00    -0.550 OA
ENDBRANCH   1   2
BRANCH   1   5
ATOM      5  C   UNL     1      13.224 -30.279  23.616  1.00  0.00     0.003 C 
ATOM      6  C   UNL     1      12.710 -28.966  24.204  1.00  0.00     0.004 C 
ENDBRANCH   1   5
TORSDOF 2
ENDMDL
MODEL 8
REMARK VINA RESULT:    -2.889     10.337     10.920
REMARK INTER + INTRA:          -3.297
REMARK INTER:                  -3.283
REMARK INTRA:                  -0.014
REMARK UNBOUND:                -0.070
REMARK SMILES CCCC(=O)[O-]
REMARK SMILES IDX 3 1 4 2 5 3 6 4 2 5 1 6
REMARK H PARENT
REMARK Flexibility Score: inf
ROOT
ATOM      1  C   UNL     1      12.777 -29.477  23.615  1.00  0.00     0.052 C 
ENDROOT
BRANCH   1   2
ATOM      2  C   UNL     1      12.249 -28.168  24.111  1.00  0.00     0.041 C 
ATOM      3  O   UNL     1      11.330 -27.578  23.487  1.00  0.00    -0.550 OA
ATOM      4  O   UNL     1      12.739 -27.624  25.291  1.00  0.00    -0.550 OA
ENDBRANCH   1   2
BRANCH   1   5
ATOM      5  C   UNL     1      11.983 -29.944  22.391  1.00  0.00     0.003 C 
ATOM      6  C   UNL     1      12.769 -30.979  21.588  1.00  0.00     0.004 C 
ENDBRANCH   1   5
TORSDOF 2
ENDMDL
MODEL 9
REMARK VINA RESULT:    -2.878      9.718     10.525
REMARK INTER + INTRA:          -3.285
REMARK INTER:                  -3.253
REMARK INTRA:                  -0.032
REMARK UNBOUND:                -0.070
REMARK SMILES CCCC(=O)[O-]
REMARK SMILES IDX 3 1 4 2 5 3 6 4 2 5 1 6
REMARK H PARENT
REMARK Flexibility Score: inf
ROOT
ATOM      1  C   UNL     1      12.576 -29.016  24.105  1.00  0.00     0.052 C 
ENDROOT
BRANCH   1   2
ATOM      2  C   UNL     1      11.503 -28.692  23.114  1.00  0.00     0.041 C 
ATOM      3  O   UNL     1      10.977 -27.549  23.101  1.00  0.00    -0.550 OA
ATOM      4  O   UNL     1      11.119 -29.638  22.172  1.00  0.00    -0.550 OA
ENDBRANCH   1   2
BRANCH   1   5
ATOM      5  C   UNL     1      13.710 -29.795  23.431  1.00  0.00     0.003 C 
ATOM      6  C   UNL     1      13.731 -31.249  23.896  1.00  0.00     0.004 C 
ENDBRANCH   1   5
TORSDOF 2
ENDMDL
