MODEL 1
REMARK VINA RESULT:    -3.428      0.000      0.000
REMARK INTER + INTRA:          -4.583
REMARK INTER:                  -4.330
REMARK INTRA:                  -0.253
REMARK UNBOUND:                -0.253
REMARK SMILES CSCC[C@@H]([NH3+])C(=O)[O-]
REMARK SMILES IDX 4 1 5 2 6 3 7 7 8 8 9 9 3 10 2 11 1 12
REMARK H PARENT 6 4 6 5 6 6
REMARK Flexibility Score: inf
ROOT
ATOM      1  C   UNL     1      26.825  14.685  -3.934  1.00  0.00     0.082 C 
ENDROOT
BRANCH   1   2
ATOM      2  C   UNL     1      25.919  13.435  -4.020  1.00  0.00     0.228 C 
BRANCH   2   3
ATOM      3  N   UNL     1      25.823  12.784  -2.709  1.00  0.00    -0.350 N 
ATOM      4  H   UNL     1      26.184  11.804  -2.771  1.00  0.00     0.345 HD
ATOM      5  H   UNL     1      26.408  13.302  -2.013  1.00  0.00     0.345 HD
ATOM      6  H   UNL     1      24.832  12.765  -2.375  1.00  0.00     0.345 HD
ENDBRANCH   2   3
BRANCH   2   7
ATOM      7  C   UNL     1      24.541  13.799  -4.513  1.00  0.00     0.099 C 
ATOM      8  O   UNL     1      24.265  14.996  -4.792  1.00  0.00    -0.544 OA
ATOM      9  O   UNL     1      23.567  12.819  -4.658  1.00  0.00    -0.544 OA
ENDBRANCH   2   7
ENDBRANCH   1   2
BRANCH   1  10
ATOM     10  C   UNL     1      27.036  15.190  -2.499  1.00  0.00     0.076 C 
BRANCH  10  11
ATOM     11  S   UNL     1      26.407  16.896  -2.303  1.00  0.00    -0.165 SA
ATOM     12  C   UNL     1      24.847  16.387  -1.515  1.00  0.00     0.085 C 
ENDBRANCH  10  11
ENDBRANCH   1  10
TORSDOF 5
ENDMDL
MODEL 2
REMARK VINA RESULT:    -3.309      1.387      1.843
REMARK INTER + INTRA:          -4.432
REMARK INTER:                  -4.202
REMARK INTRA:                  -0.230
REMARK UNBOUND:                -0.253
REMARK SMILES CSCC[C@@H]([NH3+])C(=O)[O-]
REMARK SMILES IDX 4 1 5 2 6 3 7 7 8 8 9 9 3 10 2 11 1 12
REMARK H PARENT 6 4 6 5 6 6
REMARK Flexibility Score: inf
ROOT
ATOM      1  C   UNL     1      25.891  14.699  -2.473  1.00  0.00     0.082 C 
ENDROOT
BRANCH   1   2
ATOM      2  C   UNL     1      25.780  13.561  -3.513  1.00  0.00     0.228 C 
BRANCH   2   3
ATOM      3  N   UNL     1      25.675  12.262  -2.839  1.00  0.00    -0.350 N 
ATOM      4  H   UNL     1      26.577  12.038  -2.358  1.00  0.00     0.345 HD
ATOM      5  H   UNL     1      24.921  12.299  -2.115  1.00  0.00     0.345 HD
ATOM      6  H   UNL     1      25.454  11.505  -3.526  1.00  0.00     0.345 HD
ENDBRANCH   2   3
BRANCH   2   7
ATOM      7  C   UNL     1      24.589  13.767  -4.415  1.00  0.00     0.099 C 
ATOM      8  O   UNL     1      24.406  14.880  -4.976  1.00  0.00    -0.544 OA
ATOM      9  O   UNL     1      23.684  12.735  -4.629  1.00  0.00    -0.544 OA
ENDBRANCH   2   7
ENDBRANCH   1   2
BRANCH   1  10
ATOM     10  C   UNL     1      27.281  15.350  -2.424  1.00  0.00     0.076 C 
BRANCH  10  11
ATOM     11  S   UNL     1      28.168  15.128  -4.007  1.00  0.00    -0.165 SA
ATOM     12  C   UNL     1      27.498  16.643  -4.764  1.00  0.00     0.085 C 
ENDBRANCH  10  11
ENDBRANCH   1  10
TORSDOF 5
ENDMDL
MODEL 3
REMARK VINA RESULT:    -3.295      1.464      2.390
REMARK INTER + INTRA:          -4.415
REMARK INTER:                  -4.265
REMARK INTRA:                  -0.151
REMARK UNBOUND:                -0.253
REMARK SMILES CSCC[C@@H]([NH3+])C(=O)[O-]
REMARK SMILES IDX 4 1 5 2 6 3 7 7 8 8 9 9 3 10 2 11 1 12
REMARK H PARENT 6 4 6 5 6 6
REMARK Flexibility Score: inf
ROOT
ATOM      1  C   UNL     1      26.071  14.785  -2.124  1.00  0.00     0.082 C 
ENDROOT
BRANCH   1   2
ATOM      2  C   UNL     1      25.862  13.839  -3.328  1.00  0.00     0.228 C 
BRANCH   2   3
ATOM      3  N   UNL     1      25.755  12.448  -2.872  1.00  0.00    -0.350 N 
ATOM      4  H   UNL     1      24.768  12.117  -2.971  1.00  0.00     0.345 HD
ATOM      5  H   UNL     1      26.365  11.835  -3.462  1.00  0.00     0.345 HD
ATOM      6  H   UNL     1      26.049  12.363  -1.872  1.00  0.00     0.345 HD
ENDBRANCH   2   3
BRANCH   2   7
ATOM      7  C   UNL     1      24.627  14.219  -4.107  1.00  0.00     0.099 C 
ATOM      8  O   UNL     1      23.838  13.327  -4.515  1.00  0.00    -0.544 OA
ATOM      9  O   UNL     1      24.356  15.553  -4.383  1.00  0.00    -0.544 OA
ENDBRANCH   2   7
ENDBRANCH   1   2
BRANCH   1  10
ATOM     10  C   UNL     1      27.165  15.838  -2.354  1.00  0.00     0.076 C 
BRANCH  10  11
ATOM     11  S   UNL     1      28.319  15.310  -3.671  1.00  0.00    -0.165 SA
ATOM     12  C   UNL     1      29.786  15.320  -2.592  1.00  0.00     0.085 C 
ENDBRANCH  10  11
ENDBRANCH   1  10
TORSDOF 5
ENDMDL
MODEL 4
REMARK VINA RESULT:    -3.017      2.429      3.456
REMARK INTER + INTRA:          -4.063
REMARK INTER:                  -3.953
REMARK INTRA:                  -0.111
REMARK UNBOUND:                -0.253
REMARK SMILES CSCC[C@@H]([NH3+])C(=O)[O-]
REMARK SMILES IDX 4 1 5 2 6 3 7 7 8 8 9 9 3 10 2 11 1 12
REMARK H PARENT 6 4 6 5 6 6
REMARK Flexibility Score: inf
ROOT
ATOM      1  C   UNL     1      27.554  15.589  -2.438  1.00  0.00     0.082 C 
ENDROOT
BRANCH   1   2
ATOM      2  C   UNL     1      26.163  14.970  -2.707  1.00  0.00     0.228 C 
BRANCH   2   3
ATOM      3  N   UNL     1      25.997  13.734  -1.932  1.00  0.00    -0.350 N 
ATOM      4  H   UNL     1      26.583  12.973  -2.345  1.00  0.00     0.345 HD
ATOM      5  H   UNL     1      26.313  13.890  -0.946  1.00  0.00     0.345 HD
ATOM      6  H   UNL     1      24.995  13.433  -1.925  1.00  0.00     0.345 HD
ENDBRANCH   2   3
BRANCH   2   7
ATOM      7  C   UNL     1      25.063  15.941  -2.364  1.00  0.00     0.099 C 
ATOM      8  O   UNL     1      25.128  16.623  -1.307  1.00  0.00    -0.544 OA
ATOM      9  O   UNL     1      23.968  16.088  -3.207  1.00  0.00    -0.544 OA
ENDBRANCH   2   7
ENDBRANCH   1   2
BRANCH   1  10
ATOM     10  C   UNL     1      28.361  15.859  -3.716  1.00  0.00     0.076 C 
BRANCH  10  11
ATOM     11  S   UNL     1      28.242  14.454  -4.879  1.00  0.00    -0.165 SA
ATOM     12  C   UNL     1      29.863  13.756  -4.434  1.00  0.00     0.085 C 
ENDBRANCH  10  11
ENDBRANCH   1  10
TORSDOF 5
ENDMDL
MODEL 5
REMARK VINA RESULT:    -2.983      2.039      2.621
REMARK INTER + INTRA:          -4.020
REMARK INTER:                  -3.780
REMARK INTRA:                  -0.241
REMARK UNBOUND:                -0.253
REMARK SMILES CSCC[C@@H]([NH3+])C(=O)[O-]
REMARK SMILES IDX 4 1 5 2 6 3 7 7 8 8 9 9 3 10 2 11 1 12
REMARK H PARENT 6 4 6 5 6 6
REMARK Flexibility Score: inf
ROOT
ATOM      1  C   UNL     1      26.351  14.345  -4.893  1.00  0.00     0.082 C 
ENDROOT
BRANCH   1   2
ATOM      2  C   UNL     1      25.342  14.071  -3.753  1.00  0.00     0.228 C 
BRANCH   2   3
ATOM      3  N   UNL     1      25.904  13.112  -2.795  1.00  0.00    -0.350 N 
ATOM      4  H   UNL     1      26.948  13.115  -2.860  1.00  0.00     0.345 HD
ATOM      5  H   UNL     1      25.637  13.388  -1.822  1.00  0.00     0.345 HD
ATOM      6  H   UNL     1      25.549  12.146  -2.986  1.00  0.00     0.345 HD
ENDBRANCH   2   3
BRANCH   2   7
ATOM      7  C   UNL     1      24.970  15.347  -3.042  1.00  0.00     0.099 C 
ATOM      8  O   UNL     1      24.372  16.265  -3.664  1.00  0.00    -0.544 OA
ATOM      9  O   UNL     1      25.287  15.521  -1.701  1.00  0.00    -0.544 OA
ENDBRANCH   2   7
ENDBRANCH   1   2
BRANCH   1  10
ATOM     10  C   UNL     1      27.814  14.134  -4.479  1.00  0.00     0.076 C 
BRANCH  10  11
ATOM     11  S   UNL     1      28.705  15.727  -4.375  1.00  0.00    -0.165 SA
ATOM     12  C   UNL     1      28.713  15.773  -2.555  1.00  0.00     0.085 C 
ENDBRANCH  10  11
ENDBRANCH   1  10
TORSDOF 5
ENDMDL
MODEL 6
REMARK VINA RESULT:    -2.875     21.652     22.280
REMARK INTER + INTRA:          -3.885
REMARK INTER:                  -3.790
REMARK INTRA:                  -0.095
REMARK UNBOUND:                -0.253
REMARK SMILES CSCC[C@@H]([NH3+])C(=O)[O-]
REMARK SMILES IDX 4 1 5 2 6 3 7 7 8 8 9 9 3 10 2 11 1 12
REMARK H PARENT 6 4 6 5 6 6
REMARK Flexibility Score: inf
ROOT
ATOM      1  C   UNL     1      13.371  -0.492   7.814  1.00  0.00     0.082 C 
ENDROOT
BRANCH   1   2
ATOM      2  C   UNL     1      14.354   0.676   8.054  1.00  0.00     0.228 C 
BRANCH   2   3
ATOM      3  N   UNL     1      14.532   1.454   6.823  1.00  0.00    -0.350 N 
ATOM      4  H   UNL     1      14.438   0.828   5.990  1.00  0.00     0.345 HD
ATOM      5  H   UNL     1      13.791   2.191   6.760  1.00  0.00     0.345 HD
ATOM      6  H   UNL     1      15.472   1.913   6.806  1.00  0.00     0.345 HD
ENDBRANCH   2   3
BRANCH   2   7
ATOM      7  C   UNL     1      13.866   1.575   9.162  1.00  0.00     0.099 C 
ATOM      8  O   UNL     1      14.399   2.702   9.343  1.00  0.00    -0.544 OA
ATOM      9  O   UNL     1      12.831   1.165   9.993  1.00  0.00    -0.544 OA
ENDBRANCH   2   7
ENDBRANCH   1   2
BRANCH   1  10
ATOM     10  C   UNL     1      12.596  -0.379   6.494  1.00  0.00     0.076 C 
BRANCH  10  11
ATOM     11  S   UNL     1      11.931  -2.002   5.978  1.00  0.00    -0.165 SA
ATOM     12  C   UNL     1      12.739  -2.925   7.323  1.00  0.00     0.085 C 
ENDBRANCH  10  11
ENDBRANCH   1  10
TORSDOF 5
ENDMDL
MODEL 7
REMARK VINA RESULT:    -2.812     21.672     22.313
REMARK INTER + INTRA:          -3.804
REMARK INTER:                  -3.711
REMARK INTRA:                  -0.093
REMARK UNBOUND:                -0.253
REMARK SMILES CSCC[C@@H]([NH3+])C(=O)[O-]
REMARK SMILES IDX 4 1 5 2 6 3 7 7 8 8 9 9 3 10 2 11 1 12
REMARK H PARENT 6 4 6 5 6 6
REMARK Flexibility Score: inf
ROOT
ATOM      1  C   UNL     1      13.353  -0.490   7.897  1.00  0.00     0.082 C 
ENDROOT
BRANCH   1   2
ATOM      2  C   UNL     1      14.355   0.678   8.036  1.00  0.00     0.228 C 
BRANCH   2   3
ATOM      3  N   UNL     1      14.509   1.375   6.754  1.00  0.00    -0.350 N 
ATOM      4  H   UNL     1      14.013   2.295   6.787  1.00  0.00     0.345 HD
ATOM      5  H   UNL     1      15.522   1.557   6.569  1.00  0.00     0.345 HD
ATOM      6  H   UNL     1      14.117   0.801   5.971  1.00  0.00     0.345 HD
ENDBRANCH   2   3
BRANCH   2   7
ATOM      7  C   UNL     1      13.908   1.652   9.098  1.00  0.00     0.099 C 
ATOM      8  O   UNL     1      12.979   1.340   9.889  1.00  0.00    -0.544 OA
ATOM      9  O   UNL     1      14.512   2.898   9.206  1.00  0.00    -0.544 OA
ENDBRANCH   2   7
ENDBRANCH   1   2
BRANCH   1  10
ATOM     10  C   UNL     1      12.598  -0.493   6.560  1.00  0.00     0.076 C 
BRANCH  10  11
ATOM     11  S   UNL     1      11.875  -2.136   6.215  1.00  0.00    -0.165 SA
ATOM     12  C   UNL     1      12.530  -2.906   7.729  1.00  0.00     0.085 C 
ENDBRANCH  10  11
ENDBRANCH   1  10
TORSDOF 5
ENDMDL
MODEL 8
REMARK VINA RESULT:    -2.745      2.122      2.755
REMARK INTER + INTRA:          -3.720
REMARK INTER:                  -3.480
REMARK INTRA:                  -0.241
REMARK UNBOUND:                -0.253
REMARK SMILES CSCC[C@@H]([NH3+])C(=O)[O-]
REMARK SMILES IDX 4 1 5 2 6 3 7 7 8 8 9 9 3 10 2 11 1 12
REMARK H PARENT 6 4 6 5 6 6
REMARK Flexibility Score: inf
ROOT
ATOM      1  C   UNL     1      26.157  14.856  -2.179  1.00  0.00     0.082 C 
ENDROOT
BRANCH   1   2
ATOM      2  C   UNL     1      25.192  14.549  -3.348  1.00  0.00     0.228 C 
BRANCH   2   3
ATOM      3  N   UNL     1      25.034  15.732  -4.202  1.00  0.00    -0.350 N 
ATOM      4  H   UNL     1      25.184  15.471  -5.203  1.00  0.00     0.345 HD
ATOM      5  H   UNL     1      24.063  16.109  -4.106  1.00  0.00     0.345 HD
ATOM      6  H   UNL     1      25.718  16.477  -3.934  1.00  0.00     0.345 HD
ENDBRANCH   2   3
BRANCH   2   7
ATOM      7  C   UNL     1      25.690  13.387  -4.169  1.00  0.00     0.099 C 
ATOM      8  O   UNL     1      25.094  12.279  -4.122  1.00  0.00    -0.544 OA
ATOM      9  O   UNL     1      26.811  13.529  -4.978  1.00  0.00    -0.544 OA
ENDBRANCH   2   7
ENDBRANCH   1   2
BRANCH   1  10
ATOM     10  C   UNL     1      26.898  16.192  -2.332  1.00  0.00     0.076 C 
BRANCH  10  11
ATOM     11  S   UNL     1      28.686  15.926  -2.602  1.00  0.00    -0.165 SA
ATOM     12  C   UNL     1      28.661  16.502  -4.329  1.00  0.00     0.085 C 
ENDBRANCH  10  11
ENDBRANCH   1  10
TORSDOF 5
ENDMDL
MODEL 9
REMARK VINA RESULT:    -2.581      3.649      4.322
REMARK INTER + INTRA:          -3.513
REMARK INTER:                  -3.364
REMARK INTRA:                  -0.149
REMARK UNBOUND:                -0.253
REMARK SMILES CSCC[C@@H]([NH3+])C(=O)[O-]
REMARK SMILES IDX 4 1 5 2 6 3 7 7 8 8 9 9 3 10 2 11 1 12
REMARK H PARENT 6 4 6 5 6 6
REMARK Flexibility Score: inf
ROOT
ATOM      1  C   UNL     1      27.353  14.118  -4.730  1.00  0.00     0.082 C 
ENDROOT
BRANCH   1   2
ATOM      2  C   UNL     1      28.260  15.010  -3.852  1.00  0.00     0.228 C 
BRANCH   2   3
ATOM      3  N   UNL     1      27.849  14.926  -2.446  1.00  0.00    -0.350 N 
ATOM      4  H   UNL     1      28.208  15.757  -1.920  1.00  0.00     0.345 HD
ATOM      5  H   UNL     1      26.804  14.927  -2.382  1.00  0.00     0.345 HD
ATOM      6  H   UNL     1      28.217  14.053  -2.003  1.00  0.00     0.345 HD
ENDBRANCH   2   3
BRANCH   2   7
ATOM      7  C   UNL     1      29.707  14.610  -3.987  1.00  0.00     0.099 C 
ATOM      8  O   UNL     1      30.013  13.410  -4.215  1.00  0.00    -0.544 OA
ATOM      9  O   UNL     1      30.712  15.560  -3.857  1.00  0.00    -0.544 OA
ENDBRANCH   2   7
ENDBRANCH   1   2
BRANCH   1  10
ATOM     10  C   UNL     1      26.169  13.509  -3.966  1.00  0.00     0.076 C 
BRANCH  10  11
ATOM     11  S   UNL     1      24.576  14.090  -4.648  1.00  0.00    -0.165 SA
ATOM     12  C   UNL     1      24.448  15.518  -3.526  1.00  0.00     0.085 C 
ENDBRANCH  10  11
ENDBRANCH   1  10
TORSDOF 5
ENDMDL
