MODEL 1
REMARK VINA RESULT:    -4.875      0.000      0.000
REMARK INTER + INTRA:          -5.160
REMARK INTER:                  -5.160
REMARK INTRA:                   0.000
REMARK UNBOUND:                 0.000
REMARK SMILES Cc1cc(O)c(C)c(C)c1O
REMARK SMILES IDX 1 1 2 2 3 3 4 4 6 5 8 6 10 7 9 8 7 9 11 10 5 12
REMARK H PARENT 11 11 5 13
REMARK Flexibility Score: inf
ROOT
ATOM      1  C   UNL     1      18.816 -38.370  28.401  1.00  0.00     0.048 C 
ATOM      2  C   UNL     1      18.650 -39.645  27.620  1.00  0.00    -0.005 A 
ATOM      3  C   UNL     1      18.585 -40.863  28.306  1.00  0.00     0.053 A 
ATOM      4  C   UNL     1      18.443 -42.069  27.622  1.00  0.00     0.119 A 
ATOM      5  C   UNL     1      18.386 -42.082  26.209  1.00  0.00    -0.003 A 
ATOM      6  C   UNL     1      18.387 -40.847  25.504  1.00  0.00    -0.002 A 
ATOM      7  C   UNL     1      18.546 -39.634  26.213  1.00  0.00     0.121 A 
ATOM      8  C   UNL     1      18.246 -40.814  23.998  1.00  0.00     0.049 C 
ATOM      9  C   UNL     1      18.294 -43.409  25.486  1.00  0.00     0.049 C 
ENDROOT
BRANCH   7  10
ATOM     10  O   UNL     1      18.599 -38.430  25.501  1.00  0.00    -0.507 OA
ATOM     11  H   UNL     1      17.852 -37.747  25.501  1.00  0.00     0.293 HD
ENDBRANCH   7  10
BRANCH   4  12
ATOM     12  O   UNL     1      18.355 -43.238  28.383  1.00  0.00    -0.508 OA
ATOM     13  H   UNL     1      19.018 -43.999  28.321  1.00  0.00     0.293 HD
ENDBRANCH   4  12
TORSDOF 2
ENDMDL
MODEL 2
REMARK VINA RESULT:    -4.831      5.129      6.937
REMARK INTER + INTRA:          -5.114
REMARK INTER:                  -5.114
REMARK INTRA:                   0.000
REMARK UNBOUND:                 0.000
REMARK SMILES Cc1cc(O)c(C)c(C)c1O
REMARK SMILES IDX 1 1 2 2 3 3 4 4 6 5 8 6 10 7 9 8 7 9 11 10 5 12
REMARK H PARENT 11 11 5 13
REMARK Flexibility Score: inf
ROOT
ATOM      1  C   UNL     1      17.424 -45.263  27.452  1.00  0.00     0.048 C 
ATOM      2  C   UNL     1      16.823 -45.183  28.830  1.00  0.00    -0.005 A 
ATOM      3  C   UNL     1      15.440 -45.333  28.981  1.00  0.00     0.053 A 
ATOM      4  C   UNL     1      14.839 -45.256  30.236  1.00  0.00     0.119 A 
ATOM      5  C   UNL     1      15.623 -45.000  31.384  1.00  0.00    -0.003 A 
ATOM      6  C   UNL     1      17.037 -44.909  31.253  1.00  0.00    -0.002 A 
ATOM      7  C   UNL     1      17.627 -44.975  29.969  1.00  0.00     0.121 A 
ATOM      8  C   UNL     1      17.918 -44.716  32.467  1.00  0.00     0.049 C 
ATOM      9  C   UNL     1      14.941 -44.858  32.728  1.00  0.00     0.049 C 
ENDROOT
BRANCH   7  10
ATOM     10  O   UNL     1      19.014 -44.831  29.849  1.00  0.00    -0.507 OA
ATOM     11  H   UNL     1      19.496 -44.787  28.960  1.00  0.00     0.293 HD
ENDBRANCH   7  10
BRANCH   4  12
ATOM     12  O   UNL     1      13.456 -45.447  30.304  1.00  0.00    -0.508 OA
ATOM     13  H   UNL     1      12.958 -46.139  29.760  1.00  0.00     0.293 HD
ENDBRANCH   4  12
TORSDOF 2
ENDMDL
MODEL 3
REMARK VINA RESULT:    -4.763      0.490      3.188
REMARK INTER + INTRA:          -5.041
REMARK INTER:                  -5.041
REMARK INTRA:                   0.000
REMARK UNBOUND:                 0.000
REMARK SMILES Cc1cc(O)c(C)c(C)c1O
REMARK SMILES IDX 1 1 2 2 3 3 4 4 6 5 8 6 10 7 9 8 7 9 11 10 5 12
REMARK H PARENT 11 11 5 13
REMARK Flexibility Score: inf
ROOT
ATOM      1  C   UNL     1      18.563 -40.657  29.712  1.00  0.00     0.048 C 
ATOM      2  C   UNL     1      18.520 -40.763  28.211  1.00  0.00    -0.005 A 
ATOM      3  C   UNL     1      18.587 -39.596  27.442  1.00  0.00     0.053 A 
ATOM      4  C   UNL     1      18.539 -39.647  26.050  1.00  0.00     0.119 A 
ATOM      5  C   UNL     1      18.399 -40.888  25.389  1.00  0.00    -0.003 A 
ATOM      6  C   UNL     1      18.394 -42.086  26.156  1.00  0.00    -0.002 A 
ATOM      7  C   UNL     1      18.429 -42.015  27.568  1.00  0.00     0.121 A 
ATOM      8  C   UNL     1      18.327 -43.438  25.481  1.00  0.00     0.049 C 
ATOM      9  C   UNL     1      18.288 -40.912  23.879  1.00  0.00     0.049 C 
ENDROOT
BRANCH   7  10
ATOM     10  O   UNL     1      18.370 -43.199  28.311  1.00  0.00    -0.507 OA
ATOM     11  H   UNL     1      18.659 -44.100  27.951  1.00  0.00     0.293 HD
ENDBRANCH   7  10
BRANCH   4  12
ATOM     12  O   UNL     1      18.643 -38.438  25.355  1.00  0.00    -0.508 OA
ATOM     13  H   UNL     1      18.606 -38.366  24.347  1.00  0.00     0.293 HD
ENDBRANCH   4  12
TORSDOF 2
ENDMDL
MODEL 4
REMARK VINA RESULT:    -4.722      3.860      5.528
REMARK INTER + INTRA:          -4.998
REMARK INTER:                  -4.998
REMARK INTRA:                   0.000
REMARK UNBOUND:                 0.000
REMARK SMILES Cc1cc(O)c(C)c(C)c1O
REMARK SMILES IDX 1 1 2 2 3 3 4 4 6 5 8 6 10 7 9 8 7 9 11 10 5 12
REMARK H PARENT 11 11 5 13
REMARK Flexibility Score: inf
ROOT
ATOM      1  C   UNL     1      18.981 -40.199  29.210  1.00  0.00     0.048 C 
ATOM      2  C   UNL     1      18.920 -41.403  30.110  1.00  0.00    -0.005 A 
ATOM      3  C   UNL     1      19.776 -42.483  29.866  1.00  0.00     0.053 A 
ATOM      4  C   UNL     1      19.745 -43.623  30.667  1.00  0.00     0.119 A 
ATOM      5  C   UNL     1      18.824 -43.715  31.735  1.00  0.00    -0.003 A 
ATOM      6  C   UNL     1      17.993 -42.600  32.034  1.00  0.00    -0.002 A 
ATOM      7  C   UNL     1      18.028 -41.457  31.201  1.00  0.00     0.121 A 
ATOM      8  C   UNL     1      17.052 -42.629  33.218  1.00  0.00     0.049 C 
ATOM      9  C   UNL     1      18.767 -44.988  32.553  1.00  0.00     0.049 C 
ENDROOT
BRANCH   7  10
ATOM     10  O   UNL     1      17.166 -40.389  31.474  1.00  0.00    -0.507 OA
ATOM     11  H   UNL     1      16.159 -40.445  31.382  1.00  0.00     0.293 HD
ENDBRANCH   7  10
BRANCH   4  12
ATOM     12  O   UNL     1      20.654 -44.643  30.375  1.00  0.00    -0.508 OA
ATOM     13  H   UNL     1      20.387 -45.538  29.987  1.00  0.00     0.293 HD
ENDBRANCH   4  12
TORSDOF 2
ENDMDL
MODEL 5
REMARK VINA RESULT:    -4.669      0.476      4.406
REMARK INTER + INTRA:          -4.942
REMARK INTER:                  -4.942
REMARK INTRA:                   0.000
REMARK UNBOUND:                 0.000
REMARK SMILES Cc1cc(O)c(C)c(C)c1O
REMARK SMILES IDX 1 1 2 2 3 3 4 4 6 5 8 6 10 7 9 8 7 9 11 10 5 12
REMARK H PARENT 11 11 5 13
REMARK Flexibility Score: inf
ROOT
ATOM      1  C   UNL     1      18.274 -43.317  25.458  1.00  0.00     0.048 C 
ATOM      2  C   UNL     1      18.387 -42.035  26.238  1.00  0.00    -0.005 A 
ATOM      3  C   UNL     1      18.443 -40.818  25.549  1.00  0.00     0.053 A 
ATOM      4  C   UNL     1      18.558 -39.608  26.231  1.00  0.00     0.119 A 
ATOM      5  C   UNL     1      18.646 -39.593  27.642  1.00  0.00    -0.003 A 
ATOM      6  C   UNL     1      18.526 -40.817  28.357  1.00  0.00    -0.002 A 
ATOM      7  C   UNL     1      18.424 -42.037  27.648  1.00  0.00     0.121 A 
ATOM      8  C   UNL     1      18.533 -40.835  29.870  1.00  0.00     0.049 C 
ATOM      9  C   UNL     1      18.833 -38.272  28.356  1.00  0.00     0.049 C 
ENDROOT
BRANCH   7  10
ATOM     10  O   UNL     1      18.361 -43.238  28.364  1.00  0.00    -0.507 OA
ATOM     11  H   UNL     1      18.066 -44.116  27.956  1.00  0.00     0.293 HD
ENDBRANCH   7  10
BRANCH   4  12
ATOM     12  O   UNL     1      18.576 -38.436  25.469  1.00  0.00    -0.508 OA
ATOM     13  H   UNL     1      19.106 -38.331  24.614  1.00  0.00     0.293 HD
ENDBRANCH   4  12
TORSDOF 2
ENDMDL
MODEL 6
REMARK VINA RESULT:    -4.615      5.669      6.746
REMARK INTER + INTRA:          -4.885
REMARK INTER:                  -4.885
REMARK INTRA:                   0.000
REMARK UNBOUND:                 0.000
REMARK SMILES Cc1cc(O)c(C)c(C)c1O
REMARK SMILES IDX 1 1 2 2 3 3 4 4 6 5 8 6 10 7 9 8 7 9 11 10 5 12
REMARK H PARENT 11 11 5 13
REMARK Flexibility Score: inf
ROOT
ATOM      1  C   UNL     1      19.318 -44.774  32.319  1.00  0.00     0.048 C 
ATOM      2  C   UNL     1      17.895 -44.788  31.827  1.00  0.00    -0.005 A 
ATOM      3  C   UNL     1      16.854 -44.593  32.741  1.00  0.00     0.053 A 
ATOM      4  C   UNL     1      15.522 -44.609  32.330  1.00  0.00     0.119 A 
ATOM      5  C   UNL     1      15.200 -44.848  30.975  1.00  0.00    -0.003 A 
ATOM      6  C   UNL     1      16.250 -44.984  30.025  1.00  0.00    -0.002 A 
ATOM      7  C   UNL     1      17.595 -44.980  30.462  1.00  0.00     0.121 A 
ATOM      8  C   UNL     1      15.947 -45.160  28.554  1.00  0.00     0.049 C 
ATOM      9  C   UNL     1      13.744 -44.922  30.564  1.00  0.00     0.049 C 
ENDROOT
BRANCH   7  10
ATOM     10  O   UNL     1      18.617 -45.169  29.524  1.00  0.00    -0.507 OA
ATOM     11  H   UNL     1      18.568 -45.847  28.774  1.00  0.00     0.293 HD
ENDBRANCH   7  10
BRANCH   4  12
ATOM     12  O   UNL     1      14.544 -44.375  33.300  1.00  0.00    -0.508 OA
ATOM     13  H   UNL     1      14.718 -43.879  34.164  1.00  0.00     0.293 HD
ENDBRANCH   4  12
TORSDOF 2
ENDMDL
MODEL 7
REMARK VINA RESULT:    -4.609      0.489      3.034
REMARK INTER + INTRA:          -4.878
REMARK INTER:                  -4.878
REMARK INTRA:                   0.000
REMARK UNBOUND:                 0.000
REMARK SMILES Cc1cc(O)c(C)c(C)c1O
REMARK SMILES IDX 1 1 2 2 3 3 4 4 6 5 8 6 10 7 9 8 7 9 11 10 5 12
REMARK H PARENT 11 11 5 13
REMARK Flexibility Score: inf
ROOT
ATOM      1  C   UNL     1      18.256 -40.874  24.024  1.00  0.00     0.048 C 
ATOM      2  C   UNL     1      18.385 -40.821  25.523  1.00  0.00    -0.005 A 
ATOM      3  C   UNL     1      18.324 -42.012  26.256  1.00  0.00     0.053 A 
ATOM      4  C   UNL     1      18.429 -42.008  27.646  1.00  0.00     0.119 A 
ATOM      5  C   UNL     1      18.577 -40.788  28.344  1.00  0.00    -0.003 A 
ATOM      6  C   UNL     1      18.704 -39.578  27.607  1.00  0.00    -0.002 A 
ATOM      7  C   UNL     1      18.581 -39.599  26.198  1.00  0.00     0.121 A 
ATOM      8  C   UNL     1      18.945 -38.262  28.313  1.00  0.00     0.049 C 
ATOM      9  C   UNL     1      18.626 -40.804  29.857  1.00  0.00     0.049 C 
ENDROOT
BRANCH   7  10
ATOM     10  O   UNL     1      18.655 -38.394  25.490  1.00  0.00    -0.507 OA
ATOM     11  H   UNL     1      18.120 -37.570  25.733  1.00  0.00     0.293 HD
ENDBRANCH   7  10
BRANCH   4  12
ATOM     12  O   UNL     1      18.389 -43.243  28.300  1.00  0.00    -0.508 OA
ATOM     13  H   UNL     1      17.542 -43.654  28.671  1.00  0.00     0.293 HD
ENDBRANCH   4  12
TORSDOF 2
ENDMDL
MODEL 8
REMARK VINA RESULT:    -4.553      6.232      6.955
REMARK INTER + INTRA:          -4.820
REMARK INTER:                  -4.820
REMARK INTRA:                   0.000
REMARK UNBOUND:                 0.000
REMARK SMILES Cc1cc(O)c(C)c(C)c1O
REMARK SMILES IDX 1 1 2 2 3 3 4 4 6 5 8 6 10 7 9 8 7 9 11 10 5 12
REMARK H PARENT 11 11 5 13
REMARK Flexibility Score: inf
ROOT
ATOM      1  C   UNL     1      18.939 -42.888  33.493  1.00  0.00     0.048 C 
ATOM      2  C   UNL     1      17.841 -43.501  32.665  1.00  0.00    -0.005 A 
ATOM      3  C   UNL     1      18.179 -44.314  31.578  1.00  0.00     0.053 A 
ATOM      4  C   UNL     1      17.196 -44.894  30.778  1.00  0.00     0.119 A 
ATOM      5  C   UNL     1      15.829 -44.647  31.042  1.00  0.00    -0.003 A 
ATOM      6  C   UNL     1      15.471 -43.874  32.181  1.00  0.00    -0.002 A 
ATOM      7  C   UNL     1      16.483 -43.283  32.973  1.00  0.00     0.121 A 
ATOM      8  C   UNL     1      14.019 -43.655  32.544  1.00  0.00     0.049 C 
ATOM      9  C   UNL     1      14.781 -45.237  30.123  1.00  0.00     0.049 C 
ENDROOT
BRANCH   7  10
ATOM     10  O   UNL     1      16.115 -42.480  34.060  1.00  0.00    -0.507 OA
ATOM     11  H   UNL     1      15.975 -42.838  34.996  1.00  0.00     0.293 HD
ENDBRANCH   7  10
BRANCH   4  12
ATOM     12  O   UNL     1      17.617 -45.718  29.731  1.00  0.00    -0.508 OA
ATOM     13  H   UNL     1      16.984 -46.217  29.120  1.00  0.00     0.293 HD
ENDBRANCH   4  12
TORSDOF 2
ENDMDL
MODEL 9
REMARK VINA RESULT:    -4.482      5.861      6.911
REMARK INTER + INTRA:          -4.745
REMARK INTER:                  -4.745
REMARK INTRA:                   0.000
REMARK UNBOUND:                 0.000
REMARK SMILES Cc1cc(O)c(C)c(C)c1O
REMARK SMILES IDX 1 1 2 2 3 3 4 4 6 5 8 6 10 7 9 8 7 9 11 10 5 12
REMARK H PARENT 11 11 5 13
REMARK Flexibility Score: inf
ROOT
ATOM      1  C   UNL     1      15.065 -45.484  29.206  1.00  0.00     0.048 C 
ATOM      2  C   UNL     1      15.903 -44.828  30.270  1.00  0.00    -0.005 A 
ATOM      3  C   UNL     1      15.269 -44.162  31.324  1.00  0.00     0.053 A 
ATOM      4  C   UNL     1      16.006 -43.531  32.326  1.00  0.00     0.119 A 
ATOM      5  C   UNL     1      17.419 -43.537  32.279  1.00  0.00    -0.003 A 
ATOM      6  C   UNL     1      18.075 -44.264  31.248  1.00  0.00    -0.002 A 
ATOM      7  C   UNL     1      17.312 -44.885  30.232  1.00  0.00     0.121 A 
ATOM      8  C   UNL     1      19.585 -44.362  31.208  1.00  0.00     0.049 C 
ATOM      9  C   UNL     1      18.196 -42.793  33.343  1.00  0.00     0.049 C 
ENDROOT
BRANCH   7  10
ATOM     10  O   UNL     1      17.973 -45.552  29.194  1.00  0.00    -0.507 OA
ATOM     11  H   UNL     1      18.171 -45.130  28.295  1.00  0.00     0.293 HD
ENDBRANCH   7  10
BRANCH   4  12
ATOM     12  O   UNL     1      15.296 -42.914  33.360  1.00  0.00    -0.508 OA
ATOM     13  H   UNL     1      15.152 -41.915  33.423  1.00  0.00     0.293 HD
ENDBRANCH   4  12
TORSDOF 2
ENDMDL
