MODEL 1
REMARK VINA RESULT:    -4.380      0.000      0.000
REMARK INTER + INTRA:          -6.328
REMARK INTER:                  -5.917
REMARK INTRA:                  -0.411
REMARK UNBOUND:                -0.411
REMARK SMILES O=C[C@H](O)[C@@H](O)[C@H](O)CO
REMARK SMILES IDX 7 1 9 2 10 3 5 5 3 6 2 7 1 8 4 9 6 11 8 13
REMARK H PARENT 10 4 4 10 6 12 8 14
REMARK Flexibility Score: inf
ROOT
ATOM      1  C   UNL     1      57.197  24.058  17.219  1.00  0.00     0.171 C 
ENDROOT
BRANCH   1   2
ATOM      2  C   UNL     1      55.710  24.181  16.838  1.00  0.00     0.190 C 
BRANCH   2   3
ATOM      3  O   UNL     1      54.976  23.113  17.372  1.00  0.00    -0.394 OA
ATOM      4  H   UNL     1      55.435  22.844  18.211  1.00  0.00     0.210 HD
ENDBRANCH   2   3
ENDBRANCH   1   2
BRANCH   1   5
ATOM      5  C   UNL     1      57.721  22.608  17.034  1.00  0.00     0.181 C 
BRANCH   5   6
ATOM      6  C   UNL     1      57.803  22.184  15.541  1.00  0.00     0.209 C 
BRANCH   6   7
ATOM      7  C   UNL     1      57.034  20.917  15.266  1.00  0.00     0.258 C 
ATOM      8  O   UNL     1      55.935  20.733  15.763  1.00  0.00    -0.300 OA
ENDBRANCH   6   7
BRANCH   6   9
ATOM      9  O   UNL     1      59.140  22.033  15.136  1.00  0.00    -0.383 OA
ATOM     10  H   UNL     1      59.713  22.493  15.806  1.00  0.00     0.211 HD
ENDBRANCH   6   9
ENDBRANCH   5   6
BRANCH   5  11
ATOM     11  O   UNL     1      58.965  22.436  17.671  1.00  0.00    -0.387 OA
ATOM     12  H   UNL     1      59.588  22.022  17.019  1.00  0.00     0.211 HD
ENDBRANCH   5  11
ENDBRANCH   1   5
BRANCH   1  13
ATOM     13  O   UNL     1      57.426  24.525  18.527  1.00  0.00    -0.388 OA
ATOM     14  H   UNL     1      57.850  23.793  19.045  1.00  0.00     0.211 HD
ENDBRANCH   1  13
TORSDOF 8
ENDMDL
MODEL 2
REMARK VINA RESULT:    -4.216      1.124      1.851
REMARK INTER + INTRA:          -6.106
REMARK INTER:                  -5.145
REMARK INTRA:                  -0.961
REMARK UNBOUND:                -0.411
REMARK SMILES O=C[C@H](O)[C@@H](O)[C@H](O)CO
REMARK SMILES IDX 7 1 9 2 10 3 5 5 3 6 2 7 1 8 4 9 6 11 8 13
REMARK H PARENT 10 4 4 10 6 12 8 14
REMARK Flexibility Score: inf
ROOT
ATOM      1  C   UNL     1      57.649  23.192  16.870  1.00  0.00     0.171 C 
ENDROOT
BRANCH   1   2
ATOM      2  C   UNL     1      56.866  24.213  17.717  1.00  0.00     0.190 C 
BRANCH   2   3
ATOM      3  O   UNL     1      55.876  23.568  18.472  1.00  0.00    -0.394 OA
ATOM      4  H   UNL     1      55.007  23.775  18.038  1.00  0.00     0.210 HD
ENDBRANCH   2   3
ENDBRANCH   1   2
BRANCH   1   5
ATOM      5  C   UNL     1      56.819  22.695  15.655  1.00  0.00     0.181 C 
BRANCH   5   6
ATOM      6  C   UNL     1      57.670  21.889  14.635  1.00  0.00     0.209 C 
BRANCH   6   7
ATOM      7  C   UNL     1      57.395  20.409  14.708  1.00  0.00     0.258 C 
ATOM      8  O   UNL     1      57.681  19.769  15.708  1.00  0.00    -0.300 OA
ENDBRANCH   6   7
BRANCH   6   9
ATOM      9  O   UNL     1      59.042  22.134  14.822  1.00  0.00    -0.383 OA
ATOM     10  H   UNL     1      59.312  21.699  15.675  1.00  0.00     0.211 HD
ENDBRANCH   6   9
ENDBRANCH   5   6
BRANCH   5  11
ATOM     11  O   UNL     1      55.705  21.945  16.079  1.00  0.00    -0.387 OA
ATOM     12  H   UNL     1      55.902  21.592  16.985  1.00  0.00     0.211 HD
ENDBRANCH   5  11
ENDBRANCH   1   5
BRANCH   1  13
ATOM     13  O   UNL     1      58.100  22.117  17.660  1.00  0.00    -0.388 OA
ATOM     14  H   UNL     1      57.343  21.490  17.786  1.00  0.00     0.211 HD
ENDBRANCH   1  13
TORSDOF 8
ENDMDL
MODEL 3
REMARK VINA RESULT:    -3.995      1.313      2.434
REMARK INTER + INTRA:          -5.807
REMARK INTER:                  -5.069
REMARK INTRA:                  -0.739
REMARK UNBOUND:                -0.411
REMARK SMILES O=C[C@H](O)[C@@H](O)[C@H](O)CO
REMARK SMILES IDX 7 1 9 2 10 3 5 5 3 6 2 7 1 8 4 9 6 11 8 13
REMARK H PARENT 10 4 4 10 6 12 8 14
REMARK Flexibility Score: inf
ROOT
ATOM      1  C   UNL     1      56.013  22.859  16.949  1.00  0.00     0.171 C 
ENDROOT
BRANCH   1   2
ATOM      2  C   UNL     1      56.337  24.008  17.923  1.00  0.00     0.190 C 
BRANCH   2   3
ATOM      3  O   UNL     1      57.688  23.971  18.294  1.00  0.00    -0.394 OA
ATOM      4  H   UNL     1      58.069  23.143  17.898  1.00  0.00     0.210 HD
ENDBRANCH   2   3
ENDBRANCH   1   2
BRANCH   1   5
ATOM      5  C   UNL     1      57.301  22.157  16.439  1.00  0.00     0.181 C 
BRANCH   5   6
ATOM      6  C   UNL     1      57.015  20.773  15.792  1.00  0.00     0.209 C 
BRANCH   6   7
ATOM      7  C   UNL     1      57.706  20.613  14.462  1.00  0.00     0.258 C 
ATOM      8  O   UNL     1      57.323  21.229  13.481  1.00  0.00    -0.300 OA
ENDBRANCH   6   7
BRANCH   6   9
ATOM      9  O   UNL     1      55.633  20.565  15.644  1.00  0.00    -0.383 OA
ATOM     10  H   UNL     1      55.468  20.285  14.705  1.00  0.00     0.211 HD
ENDBRANCH   6   9
ENDBRANCH   5   6
BRANCH   5  11
ATOM     11  O   UNL     1      58.008  22.988  15.548  1.00  0.00    -0.387 OA
ATOM     12  H   UNL     1      57.890  23.927  15.847  1.00  0.00     0.211 HD
ENDBRANCH   5  11
ENDBRANCH   1   5
BRANCH   1  13
ATOM     13  O   UNL     1      55.214  23.309  15.882  1.00  0.00    -0.388 OA
ATOM     14  H   UNL     1      55.379  24.280  15.763  1.00  0.00     0.211 HD
ENDBRANCH   1  13
TORSDOF 8
ENDMDL
MODEL 4
REMARK VINA RESULT:    -3.991      1.654      3.697
REMARK INTER + INTRA:          -5.803
REMARK INTER:                  -5.087
REMARK INTRA:                  -0.716
REMARK UNBOUND:                -0.411
REMARK SMILES O=C[C@H](O)[C@@H](O)[C@H](O)CO
REMARK SMILES IDX 7 1 9 2 10 3 5 5 3 6 2 7 1 8 4 9 6 11 8 13
REMARK H PARENT 10 4 4 10 6 12 8 14
REMARK Flexibility Score: inf
ROOT
ATOM      1  C   UNL     1      57.633  22.325  17.148  1.00  0.00     0.171 C 
ENDROOT
BRANCH   1   2
ATOM      2  C   UNL     1      58.759  21.312  16.865  1.00  0.00     0.190 C 
BRANCH   2   3
ATOM      3  O   UNL     1      59.999  21.834  17.260  1.00  0.00    -0.394 OA
ATOM      4  H   UNL     1      59.857  22.265  18.144  1.00  0.00     0.210 HD
ENDBRANCH   2   3
ENDBRANCH   1   2
BRANCH   1   5
ATOM      5  C   UNL     1      56.922  22.774  15.843  1.00  0.00     0.181 C 
BRANCH   5   6
ATOM      6  C   UNL     1      55.817  23.838  16.097  1.00  0.00     0.209 C 
BRANCH   6   7
ATOM      7  C   UNL     1      56.241  25.215  15.653  1.00  0.00     0.258 C 
ATOM      8  O   UNL     1      57.278  25.711  16.063  1.00  0.00    -0.300 OA
ENDBRANCH   6   7
BRANCH   6   9
ATOM      9  O   UNL     1      55.446  23.862  17.452  1.00  0.00    -0.383 OA
ATOM     10  H   UNL     1      54.942  23.027  17.642  1.00  0.00     0.211 HD
ENDBRANCH   6   9
ENDBRANCH   5   6
BRANCH   5  11
ATOM     11  O   UNL     1      57.855  23.240  14.896  1.00  0.00    -0.387 OA
ATOM     12  H   UNL     1      57.840  24.232  14.915  1.00  0.00     0.211 HD
ENDBRANCH   5  11
ENDBRANCH   1   5
BRANCH   1  13
ATOM     13  O   UNL     1      58.114  23.427  17.879  1.00  0.00    -0.388 OA
ATOM     14  H   UNL     1      59.098  23.336  17.960  1.00  0.00     0.211 HD
ENDBRANCH   1  13
TORSDOF 8
ENDMDL
MODEL 5
REMARK VINA RESULT:    -3.956      1.361      2.332
REMARK INTER + INTRA:          -5.755
REMARK INTER:                  -5.162
REMARK INTRA:                  -0.593
REMARK UNBOUND:                -0.411
REMARK SMILES O=C[C@H](O)[C@@H](O)[C@H](O)CO
REMARK SMILES IDX 7 1 9 2 10 3 5 5 3 6 2 7 1 8 4 9 6 11 8 13
REMARK H PARENT 10 4 4 10 6 12 8 14
REMARK Flexibility Score: inf
ROOT
ATOM      1  C   UNL     1      56.256  23.014  16.788  1.00  0.00     0.171 C 
ENDROOT
BRANCH   1   2
ATOM      2  C   UNL     1      56.247  24.196  17.776  1.00  0.00     0.190 C 
BRANCH   2   3
ATOM      3  O   UNL     1      57.497  24.325  18.398  1.00  0.00    -0.394 OA
ATOM      4  H   UNL     1      57.498  25.207  18.855  1.00  0.00     0.210 HD
ENDBRANCH   2   3
ENDBRANCH   1   2
BRANCH   1   5
ATOM      5  C   UNL     1      57.533  23.012  15.904  1.00  0.00     0.181 C 
BRANCH   5   6
ATOM      6  C   UNL     1      58.467  21.806  16.201  1.00  0.00     0.209 C 
BRANCH   6   7
ATOM      7  C   UNL     1      57.851  20.494  15.786  1.00  0.00     0.258 C 
ATOM      8  O   UNL     1      57.775  20.185  14.608  1.00  0.00    -0.300 OA
ENDBRANCH   6   7
BRANCH   6   9
ATOM      9  O   UNL     1      58.816  21.765  17.561  1.00  0.00    -0.383 OA
ATOM     10  H   UNL     1      59.749  22.097  17.645  1.00  0.00     0.211 HD
ENDBRANCH   6   9
ENDBRANCH   5   6
BRANCH   5  11
ATOM     11  O   UNL     1      57.199  23.061  14.537  1.00  0.00    -0.387 OA
ATOM     12  H   UNL     1      56.649  23.873  14.386  1.00  0.00     0.211 HD
ENDBRANCH   5  11
ENDBRANCH   1   5
BRANCH   1  13
ATOM     13  O   UNL     1      55.087  23.000  16.004  1.00  0.00    -0.388 OA
ATOM     14  H   UNL     1      55.356  23.049  15.051  1.00  0.00     0.211 HD
ENDBRANCH   1  13
TORSDOF 8
ENDMDL
MODEL 6
REMARK VINA RESULT:    -3.918      1.501      2.991
REMARK INTER + INTRA:          -5.704
REMARK INTER:                  -4.770
REMARK INTRA:                  -0.934
REMARK UNBOUND:                -0.411
REMARK SMILES O=C[C@H](O)[C@@H](O)[C@H](O)CO
REMARK SMILES IDX 7 1 9 2 10 3 5 5 3 6 2 7 1 8 4 9 6 11 8 13
REMARK H PARENT 10 4 4 10 6 12 8 14
REMARK Flexibility Score: inf
ROOT
ATOM      1  C   UNL     1      57.651  22.365  15.269  1.00  0.00     0.171 C 
ENDROOT
BRANCH   1   2
ATOM      2  C   UNL     1      57.390  23.039  16.629  1.00  0.00     0.190 C 
BRANCH   2   3
ATOM      3  O   UNL     1      57.946  22.280  17.668  1.00  0.00    -0.394 OA
ATOM      4  H   UNL     1      58.841  22.666  17.855  1.00  0.00     0.210 HD
ENDBRANCH   2   3
ENDBRANCH   1   2
BRANCH   1   5
ATOM      5  C   UNL     1      56.741  21.125  15.056  1.00  0.00     0.181 C 
BRANCH   5   6
ATOM      6  C   UNL     1      57.522  19.784  15.143  1.00  0.00     0.209 C 
BRANCH   6   7
ATOM      7  C   UNL     1      56.616  18.588  14.999  1.00  0.00     0.258 C 
ATOM      8  O   UNL     1      55.594  18.655  14.336  1.00  0.00    -0.300 OA
ENDBRANCH   6   7
BRANCH   6   9
ATOM      9  O   UNL     1      58.241  19.700  16.348  1.00  0.00    -0.383 OA
ATOM     10  H   UNL     1      57.766  19.059  16.940  1.00  0.00     0.211 HD
ENDBRANCH   6   9
ENDBRANCH   5   6
BRANCH   5  11
ATOM     11  O   UNL     1      55.661  21.133  15.959  1.00  0.00    -0.387 OA
ATOM     12  H   UNL     1      55.725  21.960  16.504  1.00  0.00     0.211 HD
ENDBRANCH   5  11
ENDBRANCH   1   5
BRANCH   1  13
ATOM     13  O   UNL     1      59.012  22.037  15.119  1.00  0.00    -0.388 OA
ATOM     14  H   UNL     1      59.541  22.870  15.217  1.00  0.00     0.211 HD
ENDBRANCH   1  13
TORSDOF 8
ENDMDL
MODEL 7
REMARK VINA RESULT:    -3.751     16.008     17.136
REMARK INTER + INTRA:          -5.478
REMARK INTER:                  -4.520
REMARK INTRA:                  -0.958
REMARK UNBOUND:                -0.411
REMARK SMILES O=C[C@H](O)[C@@H](O)[C@H](O)CO
REMARK SMILES IDX 7 1 9 2 10 3 5 5 3 6 2 7 1 8 4 9 6 11 8 13
REMARK H PARENT 10 4 4 10 6 12 8 14
REMARK Flexibility Score: inf
ROOT
ATOM      1  C   UNL     1      45.000  10.290  16.836  1.00  0.00     0.171 C 
ENDROOT
BRANCH   1   2
ATOM      2  C   UNL     1      45.002  10.907  15.424  1.00  0.00     0.190 C 
BRANCH   2   3
ATOM      3  O   UNL     1      46.302  11.279  15.054  1.00  0.00    -0.394 OA
ATOM      4  H   UNL     1      46.588  11.985  15.692  1.00  0.00     0.210 HD
ENDBRANCH   2   3
ENDBRANCH   1   2
BRANCH   1   5
ATOM      5  C   UNL     1      45.234  11.363  17.934  1.00  0.00     0.181 C 
BRANCH   5   6
ATOM      6  C   UNL     1      44.966  10.825  19.367  1.00  0.00     0.209 C 
BRANCH   6   7
ATOM      7  C   UNL     1      46.243  10.554  20.121  1.00  0.00     0.258 C 
ATOM      8  O   UNL     1      47.019   9.690  19.745  1.00  0.00    -0.300 OA
ENDBRANCH   6   7
BRANCH   6   9
ATOM      9  O   UNL     1      44.176   9.663  19.327  1.00  0.00    -0.383 OA
ATOM     10  H   UNL     1      43.449   9.815  18.667  1.00  0.00     0.211 HD
ENDBRANCH   6   9
ENDBRANCH   5   6
BRANCH   5  11
ATOM     11  O   UNL     1      46.530  11.906  17.838  1.00  0.00    -0.387 OA
ATOM     12  H   UNL     1      47.175  11.152  17.801  1.00  0.00     0.211 HD
ENDBRANCH   5  11
ENDBRANCH   1   5
BRANCH   1  13
ATOM     13  O   UNL     1      45.934   9.241  16.933  1.00  0.00    -0.388 OA
ATOM     14  H   UNL     1      45.488   8.473  17.373  1.00  0.00     0.211 HD
ENDBRANCH   1  13
TORSDOF 8
ENDMDL
MODEL 8
REMARK VINA RESULT:    -3.700      1.331      3.535
REMARK INTER + INTRA:          -5.409
REMARK INTER:                  -4.461
REMARK INTRA:                  -0.948
REMARK UNBOUND:                -0.411
REMARK SMILES O=C[C@H](O)[C@@H](O)[C@H](O)CO
REMARK SMILES IDX 7 1 9 2 10 3 5 5 3 6 2 7 1 8 4 9 6 11 8 13
REMARK H PARENT 10 4 4 10 6 12 8 14
REMARK Flexibility Score: inf
ROOT
ATOM      1  C   UNL     1      56.832  21.734  15.283  1.00  0.00     0.171 C 
ENDROOT
BRANCH   1   2
ATOM      2  C   UNL     1      57.533  20.454  14.790  1.00  0.00     0.190 C 
BRANCH   2   3
ATOM      3  O   UNL     1      57.750  19.571  15.857  1.00  0.00    -0.394 OA
ATOM      4  H   UNL     1      57.479  20.051  16.683  1.00  0.00     0.210 HD
ENDBRANCH   2   3
ENDBRANCH   1   2
BRANCH   1   5
ATOM      5  C   UNL     1      57.783  22.620  16.132  1.00  0.00     0.181 C 
BRANCH   5   6
ATOM      6  C   UNL     1      57.216  24.046  16.379  1.00  0.00     0.209 C 
BRANCH   6   7
ATOM      7  C   UNL     1      56.769  24.241  17.806  1.00  0.00     0.258 C 
ATOM      8  O   UNL     1      55.878  23.555  18.280  1.00  0.00    -0.300 OA
ENDBRANCH   6   7
BRANCH   6   9
ATOM      9  O   UNL     1      56.154  24.322  15.501  1.00  0.00    -0.383 OA
ATOM     10  H   UNL     1      55.334  24.447  16.048  1.00  0.00     0.211 HD
ENDBRANCH   6   9
ENDBRANCH   5   6
BRANCH   5  11
ATOM     11  O   UNL     1      58.103  21.992  17.352  1.00  0.00    -0.387 OA
ATOM     12  H   UNL     1      57.353  22.150  17.982  1.00  0.00     0.211 HD
ENDBRANCH   5  11
ENDBRANCH   1   5
BRANCH   1  13
ATOM     13  O   UNL     1      55.651  21.427  15.985  1.00  0.00    -0.388 OA
ATOM     14  H   UNL     1      54.894  21.476  15.346  1.00  0.00     0.211 HD
ENDBRANCH   1  13
TORSDOF 8
ENDMDL
MODEL 9
REMARK VINA RESULT:    -3.636      1.951      4.489
REMARK INTER + INTRA:          -5.323
REMARK INTER:                  -4.610
REMARK INTRA:                  -0.713
REMARK UNBOUND:                -0.411
REMARK SMILES O=C[C@H](O)[C@@H](O)[C@H](O)CO
REMARK SMILES IDX 7 1 9 2 10 3 5 5 3 6 2 7 1 8 4 9 6 11 8 13
REMARK H PARENT 10 4 4 10 6 12 8 14
REMARK Flexibility Score: inf
ROOT
ATOM      1  C   UNL     1      57.355  19.996  14.309  1.00  0.00     0.171 C 
ENDROOT
BRANCH   1   2
ATOM      2  C   UNL     1      58.096  19.398  13.098  1.00  0.00     0.190 C 
BRANCH   2   3
ATOM      3  O   UNL     1      57.381  18.314  12.571  1.00  0.00    -0.394 OA
ATOM      4  H   UNL     1      57.227  18.514  11.610  1.00  0.00     0.210 HD
ENDBRANCH   2   3
ENDBRANCH   1   2
BRANCH   1   5
ATOM      5  C   UNL     1      57.574  21.529  14.419  1.00  0.00     0.181 C 
BRANCH   5   6
ATOM      6  C   UNL     1      56.682  22.187  15.508  1.00  0.00     0.209 C 
BRANCH   6   7
ATOM      7  C   UNL     1      57.473  22.583  16.729  1.00  0.00     0.258 C 
ATOM      8  O   UNL     1      58.220  21.787  17.274  1.00  0.00    -0.300 OA
ENDBRANCH   6   7
BRANCH   6   9
ATOM      9  O   UNL     1      55.627  21.333  15.875  1.00  0.00    -0.383 OA
ATOM     10  H   UNL     1      55.452  21.468  16.844  1.00  0.00     0.211 HD
ENDBRANCH   6   9
ENDBRANCH   5   6
BRANCH   5  11
ATOM     11  O   UNL     1      58.932  21.829  14.639  1.00  0.00    -0.387 OA
ATOM     12  H   UNL     1      59.422  21.664  13.791  1.00  0.00     0.211 HD
ENDBRANCH   5  11
ENDBRANCH   1   5
BRANCH   1  13
ATOM     13  O   UNL     1      57.715  19.336  15.499  1.00  0.00    -0.388 OA
ATOM     14  H   UNL     1      57.978  20.024  16.163  1.00  0.00     0.211 HD
ENDBRANCH   1  13
TORSDOF 8
ENDMDL
