MODEL 1
REMARK VINA RESULT:    -4.243      0.000      0.000
REMARK INTER + INTRA:          -4.754
REMARK INTER:                  -4.739
REMARK INTRA:                  -0.015
REMARK UNBOUND:                -0.015
REMARK SMILES CCCC(=O)[O-]
REMARK SMILES IDX 3 1 4 2 5 3 6 4 2 5 1 6
REMARK H PARENT
REMARK Flexibility Score: inf
ROOT
ATOM      1  C   UNL     1       6.309   7.113  -7.129  1.00  0.00     0.052 C 
ENDROOT
BRANCH   1   2
ATOM      2  C   UNL     1       7.558   6.388  -6.728  1.00  0.00     0.041 C 
ATOM      3  O   UNL     1       8.266   6.822  -5.782  1.00  0.00    -0.550 OA
ATOM      4  O   UNL     1       7.920   5.215  -7.378  1.00  0.00    -0.550 OA
ENDBRANCH   1   2
BRANCH   1   5
ATOM      5  C   UNL     1       6.061   7.026  -8.641  1.00  0.00     0.003 C 
ATOM      6  C   UNL     1       6.051   8.401  -9.309  1.00  0.00     0.004 C 
ENDBRANCH   1   5
TORSDOF 2
ENDMDL
MODEL 2
REMARK VINA RESULT:    -3.811      1.372      1.599
REMARK INTER + INTRA:          -4.271
REMARK INTER:                  -4.235
REMARK INTRA:                  -0.036
REMARK UNBOUND:                -0.015
REMARK SMILES CCCC(=O)[O-]
REMARK SMILES IDX 3 1 4 2 5 3 6 4 2 5 1 6
REMARK H PARENT
REMARK Flexibility Score: inf
ROOT
ATOM      1  C   UNL     1       6.735   7.480  -8.870  1.00  0.00     0.052 C 
ENDROOT
BRANCH   1   2
ATOM      2  C   UNL     1       6.983   6.737  -7.592  1.00  0.00     0.041 C 
ATOM      3  O   UNL     1       6.051   6.582  -6.760  1.00  0.00    -0.550 OA
ATOM      4  O   UNL     1       8.233   6.189  -7.337  1.00  0.00    -0.550 OA
ENDBRANCH   1   2
BRANCH   1   5
ATOM      5  C   UNL     1       5.304   8.031  -8.940  1.00  0.00     0.003 C 
ATOM      6  C   UNL     1       5.265   9.557  -8.869  1.00  0.00     0.004 C 
ENDBRANCH   1   5
TORSDOF 2
ENDMDL
MODEL 3
REMARK VINA RESULT:    -3.224     16.500     17.275
REMARK INTER + INTRA:          -3.616
REMARK INTER:                  -3.603
REMARK INTRA:                  -0.012
REMARK UNBOUND:                -0.015
REMARK SMILES CCCC(=O)[O-]
REMARK SMILES IDX 3 1 4 2 5 3 6 4 2 5 1 6
REMARK H PARENT
REMARK Flexibility Score: inf
ROOT
ATOM      1  C   UNL     1       6.886   2.059   8.923  1.00  0.00     0.052 C 
ENDROOT
BRANCH   1   2
ATOM      2  C   UNL     1       5.626   2.814   8.628  1.00  0.00     0.041 C 
ATOM      3  O   UNL     1       5.261   3.754   9.381  1.00  0.00    -0.550 OA
ATOM      4  O   UNL     1       4.875   2.501   7.502  1.00  0.00    -0.550 OA
ENDBRANCH   1   2
BRANCH   1   5
ATOM      5  C   UNL     1       8.025   2.995   9.346  1.00  0.00     0.003 C 
ATOM      6  C   UNL     1       9.120   2.266  10.124  1.00  0.00     0.004 C 
ENDBRANCH   1   5
TORSDOF 2
ENDMDL
MODEL 4
REMARK VINA RESULT:    -2.664     19.630     20.658
REMARK INTER + INTRA:          -2.990
REMARK INTER:                  -2.932
REMARK INTRA:                  -0.058
REMARK UNBOUND:                -0.015
REMARK SMILES CCCC(=O)[O-]
REMARK SMILES IDX 3 1 4 2 5 3 6 4 2 5 1 6
REMARK H PARENT
REMARK Flexibility Score: inf
ROOT
ATOM      1  C   UNL     1       5.218  -8.207   7.192  1.00  0.00     0.052 C 
ENDROOT
BRANCH   1   2
ATOM      2  C   UNL     1       5.596  -7.954   5.764  1.00  0.00     0.041 C 
ATOM      3  O   UNL     1       5.522  -6.792   5.287  1.00  0.00    -0.550 OA
ATOM      4  O   UNL     1       6.062  -8.996   4.973  1.00  0.00    -0.550 OA
ENDBRANCH   1   2
BRANCH   1   5
ATOM      5  C   UNL     1       6.441  -8.546   8.054  1.00  0.00     0.003 C 
ATOM      6  C   UNL     1       7.334  -7.329   8.299  1.00  0.00     0.004 C 
ENDBRANCH   1   5
TORSDOF 2
ENDMDL
MODEL 5
REMARK VINA RESULT:    -2.660     19.999     20.979
REMARK INTER + INTRA:          -2.986
REMARK INTER:                  -2.980
REMARK INTRA:                  -0.006
REMARK UNBOUND:                -0.015
REMARK SMILES CCCC(=O)[O-]
REMARK SMILES IDX 3 1 4 2 5 3 6 4 2 5 1 6
REMARK H PARENT
REMARK Flexibility Score: inf
ROOT
ATOM      1  C   UNL     1       4.863  -8.452   6.947  1.00  0.00     0.052 C 
ENDROOT
BRANCH   1   2
ATOM      2  C   UNL     1       5.547  -8.058   5.673  1.00  0.00     0.041 C 
ATOM      3  O   UNL     1       5.567  -6.852   5.312  1.00  0.00    -0.550 OA
ATOM      4  O   UNL     1       6.189  -9.018   4.903  1.00  0.00    -0.550 OA
ENDBRANCH   1   2
BRANCH   1   5
ATOM      5  C   UNL     1       3.708  -9.430   6.694  1.00  0.00     0.003 C 
ATOM      6  C   UNL     1       3.138 -10.004   7.992  1.00  0.00     0.004 C 
ENDBRANCH   1   5
TORSDOF 2
ENDMDL
MODEL 6
REMARK VINA RESULT:    -2.641     14.637     15.111
REMARK INTER + INTRA:          -2.964
REMARK INTER:                  -2.956
REMARK INTRA:                  -0.008
REMARK UNBOUND:                -0.015
REMARK SMILES CCCC(=O)[O-]
REMARK SMILES IDX 3 1 4 2 5 3 6 4 2 5 1 6
REMARK H PARENT
REMARK Flexibility Score: inf
ROOT
ATOM      1  C   UNL     1      -7.822   8.043  -8.994  1.00  0.00     0.052 C 
ENDROOT
BRANCH   1   2
ATOM      2  C   UNL     1      -7.320   6.809  -9.679  1.00  0.00     0.041 C 
ATOM      3  O   UNL     1      -8.126   5.906 -10.027  1.00  0.00    -0.550 OA
ATOM      4  O   UNL     1      -5.968   6.672  -9.962  1.00  0.00    -0.550 OA
ENDBRANCH   1   2
BRANCH   1   5
ATOM      5  C   UNL     1      -8.846   7.710  -7.900  1.00  0.00     0.003 C 
ATOM      6  C   UNL     1      -8.650   8.558  -6.643  1.00  0.00     0.004 C 
ENDBRANCH   1   5
TORSDOF 2
ENDMDL
MODEL 7
REMARK VINA RESULT:    -2.575     15.689     15.956
REMARK INTER + INTRA:          -2.891
REMARK INTER:                  -2.854
REMARK INTRA:                  -0.037
REMARK UNBOUND:                -0.015
REMARK SMILES CCCC(=O)[O-]
REMARK SMILES IDX 3 1 4 2 5 3 6 4 2 5 1 6
REMARK H PARENT
REMARK Flexibility Score: inf
ROOT
ATOM      1  C   UNL     1      -9.543   7.809  -6.626  1.00  0.00     0.052 C 
ENDROOT
BRANCH   1   2
ATOM      2  C   UNL     1      -8.694   7.502  -7.822  1.00  0.00     0.041 C 
ATOM      3  O   UNL     1      -8.137   8.435  -8.458  1.00  0.00    -0.550 OA
ATOM      4  O   UNL     1      -8.493   6.185  -8.213  1.00  0.00    -0.550 OA
ENDBRANCH   1   2
BRANCH   1   5
ATOM      5  C   UNL     1      -8.735   7.744  -5.323  1.00  0.00     0.003 C 
ATOM      6  C   UNL     1      -8.364   9.132  -4.799  1.00  0.00     0.004 C 
ENDBRANCH   1   5
TORSDOF 2
ENDMDL
MODEL 8
REMARK VINA RESULT:    -2.559     15.597     15.880
REMARK INTER + INTRA:          -2.873
REMARK INTER:                  -2.826
REMARK INTRA:                  -0.047
REMARK UNBOUND:                -0.015
REMARK SMILES CCCC(=O)[O-]
REMARK SMILES IDX 3 1 4 2 5 3 6 4 2 5 1 6
REMARK H PARENT
REMARK Flexibility Score: inf
ROOT
ATOM      1  C   UNL     1      -9.527   8.333  -6.425  1.00  0.00     0.052 C 
ENDROOT
BRANCH   1   2
ATOM      2  C   UNL     1      -8.716   7.870  -5.253  1.00  0.00     0.041 C 
ATOM      3  O   UNL     1      -8.731   6.659  -4.911  1.00  0.00    -0.550 OA
ATOM      4  O   UNL     1      -7.918   8.772  -4.561  1.00  0.00    -0.550 OA
ENDBRANCH   1   2
BRANCH   1   5
ATOM      5  C   UNL     1      -8.654   8.564  -7.665  1.00  0.00     0.003 C 
ATOM      6  C   UNL     1      -8.375   7.270  -8.430  1.00  0.00     0.004 C 
ENDBRANCH   1   5
TORSDOF 2
ENDMDL
