MODEL 1
REMARK VINA RESULT:    -3.350      0.000      0.000
REMARK INTER + INTRA:          -4.499
REMARK INTER:                  -4.329
REMARK INTRA:                  -0.170
REMARK UNBOUND:                -0.170
REMARK SMILES C=CC(=O)CCCCC
REMARK SMILES IDX 6 1 7 2 8 3 9 4 5 5 3 6 4 7 2 8 1 9
REMARK H PARENT
REMARK Flexibility Score: inf
ROOT
ATOM      1  C   UNL     1     128.815 122.057  98.519  1.00  0.00     0.008 C 
ENDROOT
BRANCH   1   2
ATOM      2  C   UNL     1     128.898 123.518  98.986  1.00  0.00     0.000 C 
BRANCH   2   3
ATOM      3  C   UNL     1     128.871 124.480  97.793  1.00  0.00    -0.003 C 
ATOM      4  C   UNL     1     130.243 125.103  97.555  1.00  0.00     0.004 C 
ENDBRANCH   2   3
ENDBRANCH   1   2
BRANCH   1   5
ATOM      5  C   UNL     1     130.099 121.273  98.824  1.00  0.00     0.080 C 
BRANCH   5   6
ATOM      6  C   UNL     1     129.811 119.838  99.161  1.00  0.00     0.155 C 
ATOM      7  O   UNL     1     128.767 119.555  99.810  1.00  0.00    -0.295 OA
BRANCH   6   8
ATOM      8  C   UNL     1     130.757 118.776  98.762  1.00  0.00     0.039 C 
ATOM      9  C   UNL     1     131.985 119.042  98.324  1.00  0.00     0.012 C 
ENDBRANCH   6   8
ENDBRANCH   5   6
ENDBRANCH   1   5
TORSDOF 5
ENDMDL
MODEL 2
REMARK VINA RESULT:    -3.298      1.801      2.580
REMARK INTER + INTRA:          -4.433
REMARK INTER:                  -4.194
REMARK INTRA:                  -0.239
REMARK UNBOUND:                -0.170
REMARK SMILES C=CC(=O)CCCCC
REMARK SMILES IDX 6 1 7 2 8 3 9 4 5 5 3 6 4 7 2 8 1 9
REMARK H PARENT
REMARK Flexibility Score: inf
ROOT
ATOM      1  C   UNL     1     129.723 120.025  99.324  1.00  0.00     0.008 C 
ENDROOT
BRANCH   1   2
ATOM      2  C   UNL     1     129.113 121.200  98.545  1.00  0.00     0.000 C 
BRANCH   2   3
ATOM      3  C   UNL     1     129.910 122.488  98.778  1.00  0.00    -0.003 C 
ATOM      4  C   UNL     1     129.188 123.698  98.193  1.00  0.00     0.004 C 
ENDBRANCH   2   3
ENDBRANCH   1   2
BRANCH   1   5
ATOM      5  C   UNL     1     130.390 118.997  98.401  1.00  0.00     0.080 C 
BRANCH   5   6
ATOM      6  C   UNL     1     131.888 119.045  98.501  1.00  0.00     0.155 C 
ATOM      7  O   UNL     1     132.507 120.036  98.026  1.00  0.00    -0.295 OA
BRANCH   6   8
ATOM      8  C   UNL     1     132.628 117.928  99.123  1.00  0.00     0.039 C 
ATOM      9  C   UNL     1     132.064 117.096  99.996  1.00  0.00     0.012 C 
ENDBRANCH   6   8
ENDBRANCH   5   6
ENDBRANCH   1   5
TORSDOF 5
ENDMDL
MODEL 3
REMARK VINA RESULT:    -3.292      1.368      4.535
REMARK INTER + INTRA:          -4.425
REMARK INTER:                  -4.238
REMARK INTRA:                  -0.187
REMARK UNBOUND:                -0.170
REMARK SMILES C=CC(=O)CCCCC
REMARK SMILES IDX 6 1 7 2 8 3 9 4 5 5 3 6 4 7 2 8 1 9
REMARK H PARENT
REMARK Flexibility Score: inf
ROOT
ATOM      1  C   UNL     1     130.032 120.756  99.096  1.00  0.00     0.008 C 
ENDROOT
BRANCH   1   2
ATOM      2  C   UNL     1     130.217 119.331  98.552  1.00  0.00     0.000 C 
BRANCH   2   3
ATOM      3  C   UNL     1     131.702 118.964  98.464  1.00  0.00    -0.003 C 
ATOM      4  C   UNL     1     132.555 120.187  98.140  1.00  0.00     0.004 C 
ENDBRANCH   2   3
ENDBRANCH   1   2
BRANCH   1   5
ATOM      5  C   UNL     1     128.842 121.478  98.450  1.00  0.00     0.080 C 
BRANCH   5   6
ATOM      6  C   UNL     1     128.575 122.806  99.098  1.00  0.00     0.155 C 
ATOM      7  O   UNL     1     127.660 122.897  99.961  1.00  0.00    -0.295 OA
BRANCH   6   8
ATOM      8  C   UNL     1     129.356 123.996  98.704  1.00  0.00     0.039 C 
ATOM      9  C   UNL     1     129.173 124.618  97.542  1.00  0.00     0.012 C 
ENDBRANCH   6   8
ENDBRANCH   5   6
ENDBRANCH   1   5
TORSDOF 5
ENDMDL
MODEL 4
REMARK VINA RESULT:    -3.277     15.511     17.095
REMARK INTER + INTRA:          -4.406
REMARK INTER:                  -4.043
REMARK INTRA:                  -0.363
REMARK UNBOUND:                -0.170
REMARK SMILES C=CC(=O)CCCCC
REMARK SMILES IDX 6 1 7 2 8 3 9 4 5 5 3 6 4 7 2 8 1 9
REMARK H PARENT
REMARK Flexibility Score: inf
ROOT
ATOM      1  C   UNL     1     117.380 125.812 107.223  1.00  0.00     0.008 C 
ENDROOT
BRANCH   1   2
ATOM      2  C   UNL     1     118.818 126.225 106.877  1.00  0.00     0.000 C 
BRANCH   2   3
ATOM      3  C   UNL     1     119.455 127.013 108.027  1.00  0.00    -0.003 C 
ATOM      4  C   UNL     1     120.767 127.660 107.592  1.00  0.00     0.004 C 
ENDBRANCH   2   3
ENDBRANCH   1   2
BRANCH   1   5
ATOM      5  C   UNL     1     117.066 125.983 108.715  1.00  0.00     0.080 C 
BRANCH   5   6
ATOM      6  C   UNL     1     115.804 126.769 108.935  1.00  0.00     0.155 C 
ATOM      7  O   UNL     1     114.804 126.546 108.199  1.00  0.00    -0.295 OA
BRANCH   6   8
ATOM      8  C   UNL     1     115.749 127.811 109.979  1.00  0.00     0.039 C 
ATOM      9  C   UNL     1     116.783 128.604 110.252  1.00  0.00     0.012 C 
ENDBRANCH   6   8
ENDBRANCH   5   6
ENDBRANCH   1   5
TORSDOF 5
ENDMDL
MODEL 5
REMARK VINA RESULT:    -3.257      3.352      5.256
REMARK INTER + INTRA:          -4.379
REMARK INTER:                  -4.271
REMARK INTRA:                  -0.108
REMARK UNBOUND:                -0.170
REMARK SMILES C=CC(=O)CCCCC
REMARK SMILES IDX 6 1 7 2 8 3 9 4 5 5 3 6 4 7 2 8 1 9
REMARK H PARENT
REMARK Flexibility Score: inf
ROOT
ATOM      1  C   UNL     1     126.821 121.357 100.322  1.00  0.00     0.008 C 
ENDROOT
BRANCH   1   2
ATOM      2  C   UNL     1     125.301 121.573 100.299  1.00  0.00     0.000 C 
BRANCH   2   3
ATOM      3  C   UNL     1     124.553 120.249 100.489  1.00  0.00    -0.003 C 
ATOM      4  C   UNL     1     123.319 120.433 101.366  1.00  0.00     0.004 C 
ENDBRANCH   2   3
ENDBRANCH   1   2
BRANCH   1   5
ATOM      5  C   UNL     1     127.600 122.677 100.256  1.00  0.00     0.080 C 
BRANCH   5   6
ATOM      6  C   UNL     1     128.558 122.704  99.100  1.00  0.00     0.155 C 
ATOM      7  O   UNL     1     128.812 121.633  98.484  1.00  0.00    -0.295 OA
BRANCH   6   8
ATOM      8  C   UNL     1     129.217 123.966  98.709  1.00  0.00     0.039 C 
ATOM      9  C   UNL     1     129.080 124.499  97.497  1.00  0.00     0.012 C 
ENDBRANCH   6   8
ENDBRANCH   5   6
ENDBRANCH   1   5
TORSDOF 5
ENDMDL
MODEL 6
REMARK VINA RESULT:    -3.211      1.983      3.036
REMARK INTER + INTRA:          -4.320
REMARK INTER:                  -4.025
REMARK INTRA:                  -0.294
REMARK UNBOUND:                -0.170
REMARK SMILES C=CC(=O)CCCCC
REMARK SMILES IDX 6 1 7 2 8 3 9 4 5 5 3 6 4 7 2 8 1 9
REMARK H PARENT
REMARK Flexibility Score: inf
ROOT
ATOM      1  C   UNL     1     129.473 123.190  98.928  1.00  0.00     0.008 C 
ENDROOT
BRANCH   1   2
ATOM      2  C   UNL     1     128.828 124.292  98.075  1.00  0.00     0.000 C 
BRANCH   2   3
ATOM      3  C   UNL     1     129.893 125.220  97.479  1.00  0.00    -0.003 C 
ATOM      4  C   UNL     1     131.191 125.156  98.278  1.00  0.00     0.004 C 
ENDBRANCH   2   3
ENDBRANCH   1   2
BRANCH   1   5
ATOM      5  C   UNL     1     128.968 121.790  98.552  1.00  0.00     0.080 C 
BRANCH   5   6
ATOM      6  C   UNL     1     128.342 121.088  99.723  1.00  0.00     0.155 C 
ATOM      7  O   UNL     1     128.601 119.870  99.922  1.00  0.00    -0.295 OA
BRANCH   6   8
ATOM      8  C   UNL     1     127.410 121.810 100.612  1.00  0.00     0.039 C 
ATOM      9  C   UNL     1     126.123 121.975 100.316  1.00  0.00     0.012 C 
ENDBRANCH   6   8
ENDBRANCH   5   6
ENDBRANCH   1   5
TORSDOF 5
ENDMDL
MODEL 7
REMARK VINA RESULT:    -3.186     14.779     16.264
REMARK INTER + INTRA:          -4.288
REMARK INTER:                  -3.933
REMARK INTRA:                  -0.355
REMARK UNBOUND:                -0.170
REMARK SMILES C=CC(=O)CCCCC
REMARK SMILES IDX 6 1 7 2 8 3 9 4 5 5 3 6 4 7 2 8 1 9
REMARK H PARENT
REMARK Flexibility Score: inf
ROOT
ATOM      1  C   UNL     1     117.108 125.675 108.495  1.00  0.00     0.008 C 
ENDROOT
BRANCH   1   2
ATOM      2  C   UNL     1     116.006 126.659 108.919  1.00  0.00     0.000 C 
BRANCH   2   3
ATOM      3  C   UNL     1     116.305 127.259 110.296  1.00  0.00    -0.003 C 
ATOM      4  C   UNL     1     116.846 128.680 110.174  1.00  0.00     0.004 C 
ENDBRANCH   2   3
ENDBRANCH   1   2
BRANCH   1   5
ATOM      5  C   UNL     1     117.538 125.875 107.035  1.00  0.00     0.080 C 
BRANCH   5   6
ATOM      6  C   UNL     1     119.011 126.144 106.919  1.00  0.00     0.155 C 
ATOM      7  O   UNL     1     119.670 125.582 106.002  1.00  0.00    -0.295 OA
BRANCH   6   8
ATOM      8  C   UNL     1     119.683 127.034 107.887  1.00  0.00     0.039 C 
ATOM      9  C   UNL     1     120.734 127.782 107.560  1.00  0.00     0.012 C 
ENDBRANCH   6   8
ENDBRANCH   5   6
ENDBRANCH   1   5
TORSDOF 5
ENDMDL
MODEL 8
REMARK VINA RESULT:    -3.166      1.369      2.036
REMARK INTER + INTRA:          -4.262
REMARK INTER:                  -3.999
REMARK INTRA:                  -0.263
REMARK UNBOUND:                -0.170
REMARK SMILES C=CC(=O)CCCCC
REMARK SMILES IDX 6 1 7 2 8 3 9 4 5 5 3 6 4 7 2 8 1 9
REMARK H PARENT
REMARK Flexibility Score: inf
ROOT
ATOM      1  C   UNL     1     130.051 122.281  98.987  1.00  0.00     0.008 C 
ENDROOT
BRANCH   1   2
ATOM      2  C   UNL     1     129.245 123.549  99.309  1.00  0.00     0.000 C 
BRANCH   2   3
ATOM      3  C   UNL     1     128.895 124.318  98.031  1.00  0.00    -0.003 C 
ATOM      4  C   UNL     1     130.120 125.026  97.460  1.00  0.00     0.004 C 
ENDBRANCH   2   3
ENDBRANCH   1   2
BRANCH   1   5
ATOM      5  C   UNL     1     129.172 121.163  98.410  1.00  0.00     0.080 C 
BRANCH   5   6
ATOM      6  C   UNL     1     129.549 119.816  98.958  1.00  0.00     0.155 C 
ATOM      7  O   UNL     1     130.294 119.060  98.278  1.00  0.00    -0.295 OA
BRANCH   6   8
ATOM      8  C   UNL     1     129.027 119.373 100.267  1.00  0.00     0.039 C 
ATOM      9  C   UNL     1     127.811 119.703 100.699  1.00  0.00     0.012 C 
ENDBRANCH   6   8
ENDBRANCH   5   6
ENDBRANCH   1   5
TORSDOF 5
ENDMDL
MODEL 9
REMARK VINA RESULT:    -3.099      2.947      3.869
REMARK INTER + INTRA:          -4.176
REMARK INTER:                  -3.644
REMARK INTRA:                  -0.531
REMARK UNBOUND:                -0.170
REMARK SMILES C=CC(=O)CCCCC
REMARK SMILES IDX 6 1 7 2 8 3 9 4 5 5 3 6 4 7 2 8 1 9
REMARK H PARENT
REMARK Flexibility Score: inf
ROOT
ATOM      1  C   UNL     1     130.652 118.904  98.538  1.00  0.00     0.008 C 
ENDROOT
BRANCH   1   2
ATOM      2  C   UNL     1     130.385 120.377  98.881  1.00  0.00     0.000 C 
BRANCH   2   3
ATOM      3  C   UNL     1     131.644 121.227  98.676  1.00  0.00    -0.003 C 
ATOM      4  C   UNL     1     132.779 120.397  98.085  1.00  0.00     0.004 C 
ENDBRANCH   2   3
ENDBRANCH   1   2
BRANCH   1   5
ATOM      5  C   UNL     1     130.232 117.956  99.669  1.00  0.00     0.080 C 
BRANCH   5   6
ATOM      6  C   UNL     1     131.324 116.988 100.022  1.00  0.00     0.155 C 
ATOM      7  O   UNL     1     131.085 115.750  99.993  1.00  0.00    -0.295 OA
BRANCH   6   8
ATOM      8  C   UNL     1     132.655 117.485 100.429  1.00  0.00     0.039 C 
ATOM      9  C   UNL     1     132.817 118.380 101.400  1.00  0.00     0.012 C 
ENDBRANCH   6   8
ENDBRANCH   5   6
ENDBRANCH   1   5
TORSDOF 5
ENDMDL
