MODEL 1
REMARK VINA RESULT:    -6.703      0.000      0.000
REMARK INTER + INTRA:          -7.292
REMARK INTER:                  -7.683
REMARK INTRA:                   0.390
REMARK UNBOUND:                 0.390
REMARK SMILES O=c1c(-c2ccc(O)cc2)coc2c(O)c(O)ccc12
REMARK SMILES IDX 3 1 11 2 12 3 13 4 20 5 2 6 1 7 19 8 18 9 16 10 14 11 4 12
REMARK SMILES IDX 5 13 6 14 7 15 10 16 9 17 8 18 15 20 17 22
REMARK H PARENT 8 19 15 21 17 23
REMARK Flexibility Score: inf
ROOT
ATOM      1  C   UNL     1     -19.959  56.070   2.899  1.00  0.00     0.065 A 
ATOM      2  C   UNL     1     -19.692  55.941   4.271  1.00  0.00     0.208 A 
ATOM      3  O   UNL     1     -20.626  55.510   5.111  1.00  0.00    -0.459 OA
ATOM      4  C   UNL     1     -21.852  55.177   4.718  1.00  0.00     0.183 A 
ATOM      5  C   UNL     1     -22.209  55.270   3.353  1.00  0.00     0.069 A 
ATOM      6  C   UNL     1     -21.241  55.718   2.436  1.00  0.00     0.200 A 
ATOM      7  O   UNL     1     -21.513  55.786   1.205  1.00  0.00    -0.288 OA
ATOM      8  C   UNL     1     -23.507  54.911   2.951  1.00  0.00     0.020 A 
ATOM      9  C   UNL     1     -24.437  54.469   3.893  1.00  0.00     0.051 A 
ATOM     10  C   UNL     1     -24.086  54.378   5.246  1.00  0.00     0.161 A 
ATOM     11  C   UNL     1     -22.795  54.731   5.662  1.00  0.00     0.201 A 
ENDROOT
BRANCH   1  12
ATOM     12  C   UNL     1     -18.900  56.561   1.982  1.00  0.00    -0.011 A 
ATOM     13  C   UNL     1     -18.899  56.192   0.625  1.00  0.00     0.013 A 
ATOM     14  C   UNL     1     -17.903  56.665  -0.235  1.00  0.00     0.047 A 
ATOM     15  C   UNL     1     -16.900  57.516   0.247  1.00  0.00     0.115 A 
ATOM     16  C   UNL     1     -17.894  57.420   2.457  1.00  0.00     0.013 A 
ATOM     17  C   UNL     1     -16.899  57.891   1.594  1.00  0.00     0.047 A 
BRANCH  15  18
ATOM     18  O   UNL     1     -15.903  57.993  -0.601  1.00  0.00    -0.508 OA
ATOM     19  H   UNL     1     -14.996  58.273  -0.247  1.00  0.00     0.293 HD
ENDBRANCH  15  18
ENDBRANCH   1  12
BRANCH  11  20
ATOM     20  O   UNL     1     -22.464  54.632   7.014  1.00  0.00    -0.502 OA
ATOM     21  H   UNL     1     -21.960  53.839   7.390  1.00  0.00     0.293 HD
ENDBRANCH  11  20
BRANCH  10  22
ATOM     22  O   UNL     1     -25.015  53.936   6.186  1.00  0.00    -0.504 OA
ATOM     23  H   UNL     1     -25.607  53.132   6.009  1.00  0.00     0.293 HD
ENDBRANCH  10  22
TORSDOF 4
ENDMDL
MODEL 2
REMARK VINA RESULT:    -6.669      2.942      4.095
REMARK INTER + INTRA:          -7.254
REMARK INTER:                  -7.064
REMARK INTRA:                  -0.190
REMARK UNBOUND:                 0.390
REMARK SMILES O=c1c(-c2ccc(O)cc2)coc2c(O)c(O)ccc12
REMARK SMILES IDX 3 1 11 2 12 3 13 4 20 5 2 6 1 7 19 8 18 9 16 10 14 11 4 12
REMARK SMILES IDX 5 13 6 14 7 15 10 16 9 17 8 18 15 20 17 22
REMARK H PARENT 8 19 15 21 17 23
REMARK Flexibility Score: inf
ROOT
ATOM      1  C   UNL     1     -18.559  58.456   1.523  1.00  0.00     0.065 A 
ATOM      2  C   UNL     1     -18.436  58.358   2.918  1.00  0.00     0.208 A 
ATOM      3  O   UNL     1     -18.747  57.236   3.554  1.00  0.00    -0.459 OA
ATOM      4  C   UNL     1     -19.189  56.149   2.928  1.00  0.00     0.183 A 
ATOM      5  C   UNL     1     -19.339  56.154   1.522  1.00  0.00     0.069 A 
ATOM      6  C   UNL     1     -19.012  57.327   0.816  1.00  0.00     0.200 A 
ATOM      7  O   UNL     1     -19.106  57.359  -0.442  1.00  0.00    -0.288 OA
ATOM      8  C   UNL     1     -19.803  54.997   0.872  1.00  0.00     0.020 A 
ATOM      9  C   UNL     1     -20.114  53.853   1.609  1.00  0.00     0.051 A 
ATOM     10  C   UNL     1     -19.966  53.847   3.002  1.00  0.00     0.161 A 
ATOM     11  C   UNL     1     -19.504  54.992   3.665  1.00  0.00     0.201 A 
ENDROOT
BRANCH   1  12
ATOM     12  C   UNL     1     -18.211  59.725   0.836  1.00  0.00    -0.011 A 
ATOM     13  C   UNL     1     -17.037  59.827   0.070  1.00  0.00     0.013 A 
ATOM     14  C   UNL     1     -16.719  61.023  -0.581  1.00  0.00     0.047 A 
ATOM     15  C   UNL     1     -17.572  62.129  -0.480  1.00  0.00     0.115 A 
ATOM     16  C   UNL     1     -19.066  60.838   0.927  1.00  0.00     0.013 A 
ATOM     17  C   UNL     1     -18.745  62.032   0.275  1.00  0.00     0.047 A 
BRANCH  15  18
ATOM     18  O   UNL     1     -17.266  63.325  -1.125  1.00  0.00    -0.508 OA
ATOM     19  H   UNL     1     -17.259  64.208  -0.628  1.00  0.00     0.293 HD
ENDBRANCH  15  18
ENDBRANCH   1  12
BRANCH  11  20
ATOM     20  O   UNL     1     -19.363  54.966   5.053  1.00  0.00    -0.502 OA
ATOM     21  H   UNL     1     -19.192  54.108   5.561  1.00  0.00     0.293 HD
ENDBRANCH  11  20
BRANCH  10  22
ATOM     22  O   UNL     1     -20.277  52.705   3.737  1.00  0.00    -0.504 OA
ATOM     23  H   UNL     1     -19.721  51.860   3.665  1.00  0.00     0.293 HD
ENDBRANCH  10  22
TORSDOF 4
ENDMDL
MODEL 3
REMARK VINA RESULT:    -6.627      9.669     10.320
REMARK INTER + INTRA:          -7.206
REMARK INTER:                  -6.969
REMARK INTRA:                  -0.237
REMARK UNBOUND:                 0.390
REMARK SMILES O=c1c(-c2ccc(O)cc2)coc2c(O)c(O)ccc12
REMARK SMILES IDX 3 1 11 2 12 3 13 4 20 5 2 6 1 7 19 8 18 9 16 10 14 11 4 12
REMARK SMILES IDX 5 13 6 14 7 15 10 16 9 17 8 18 15 20 17 22
REMARK H PARENT 8 19 15 21 17 23
REMARK Flexibility Score: inf
ROOT
ATOM      1  C   UNL     1     -22.339  64.552   2.209  1.00  0.00     0.065 A 
ATOM      2  C   UNL     1     -22.076  65.816   1.658  1.00  0.00     0.208 A 
ATOM      3  O   UNL     1     -22.418  66.926   2.302  1.00  0.00    -0.459 OA
ATOM      4  C   UNL     1     -23.020  66.917   3.487  1.00  0.00     0.183 A 
ATOM      5  C   UNL     1     -23.319  65.688   4.120  1.00  0.00     0.069 A 
ATOM      6  C   UNL     1     -22.964  64.493   3.468  1.00  0.00     0.200 A 
ATOM      7  O   UNL     1     -23.188  63.378   4.016  1.00  0.00    -0.288 OA
ATOM      8  C   UNL     1     -23.951  65.693   5.376  1.00  0.00     0.020 A 
ATOM      9  C   UNL     1     -24.284  66.901   5.991  1.00  0.00     0.051 A 
ATOM     10  C   UNL     1     -23.990  68.119   5.364  1.00  0.00     0.161 A 
ATOM     11  C   UNL     1     -23.358  68.131   4.113  1.00  0.00     0.201 A 
ENDROOT
BRANCH   1  12
ATOM     12  C   UNL     1     -21.953  63.326   1.466  1.00  0.00    -0.011 A 
ATOM     13  C   UNL     1     -22.918  62.570   0.779  1.00  0.00     0.013 A 
ATOM     14  C   UNL     1     -22.548  61.421   0.073  1.00  0.00     0.047 A 
ATOM     15  C   UNL     1     -21.207  61.016   0.042  1.00  0.00     0.115 A 
ATOM     16  C   UNL     1     -20.608  62.917   1.424  1.00  0.00     0.013 A 
ATOM     17  C   UNL     1     -20.240  61.767   0.718  1.00  0.00     0.047 A 
BRANCH  15  18
ATOM     18  O   UNL     1     -20.825  59.873  -0.657  1.00  0.00    -0.508 OA
ATOM     19  H   UNL     1     -19.880  59.513  -0.608  1.00  0.00     0.293 HD
ENDBRANCH  15  18
ENDBRANCH   1  12
BRANCH  11  20
ATOM     20  O   UNL     1     -23.073  69.354   3.505  1.00  0.00    -0.502 OA
ATOM     21  H   UNL     1     -22.309  69.466   2.851  1.00  0.00     0.293 HD
ENDBRANCH  11  20
BRANCH  10  22
ATOM     22  O   UNL     1     -24.322  69.325   5.978  1.00  0.00    -0.504 OA
ATOM     23  H   UNL     1     -23.614  69.925   6.386  1.00  0.00     0.293 HD
ENDBRANCH  10  22
TORSDOF 4
ENDMDL
MODEL 4
REMARK VINA RESULT:    -6.496      9.296     10.393
REMARK INTER + INTRA:          -7.055
REMARK INTER:                  -6.822
REMARK INTRA:                  -0.232
REMARK UNBOUND:                 0.390
REMARK SMILES O=c1c(-c2ccc(O)cc2)coc2c(O)c(O)ccc12
REMARK SMILES IDX 3 1 11 2 12 3 13 4 20 5 2 6 1 7 19 8 18 9 16 10 14 11 4 12
REMARK SMILES IDX 5 13 6 14 7 15 10 16 9 17 8 18 15 20 17 22
REMARK H PARENT 8 19 15 21 17 23
REMARK Flexibility Score: inf
ROOT
ATOM      1  C   UNL     1     -21.931  64.129   1.621  1.00  0.00     0.065 A 
ATOM      2  C   UNL     1     -22.729  64.083   2.774  1.00  0.00     0.208 A 
ATOM      3  O   UNL     1     -23.091  65.197   3.399  1.00  0.00    -0.459 OA
ATOM      4  C   UNL     1     -22.730  66.408   2.984  1.00  0.00     0.183 A 
ATOM      5  C   UNL     1     -21.930  66.551   1.828  1.00  0.00     0.069 A 
ATOM      6  C   UNL     1     -21.534  65.390   1.138  1.00  0.00     0.200 A 
ATOM      7  O   UNL     1     -20.844  65.480   0.085  1.00  0.00    -0.288 OA
ATOM      8  C   UNL     1     -21.560  67.837   1.397  1.00  0.00     0.020 A 
ATOM      9  C   UNL     1     -21.977  68.963   2.108  1.00  0.00     0.051 A 
ATOM     10  C   UNL     1     -22.768  68.823   3.256  1.00  0.00     0.161 A 
ATOM     11  C   UNL     1     -23.147  67.548   3.696  1.00  0.00     0.201 A 
ENDROOT
BRANCH   1  12
ATOM     12  C   UNL     1     -21.533  62.869   0.945  1.00  0.00    -0.011 A 
ATOM     13  C   UNL     1     -20.231  62.358   1.088  1.00  0.00     0.013 A 
ATOM     14  C   UNL     1     -19.865  61.166   0.456  1.00  0.00     0.047 A 
ATOM     15  C   UNL     1     -20.797  60.467  -0.323  1.00  0.00     0.115 A 
ATOM     16  C   UNL     1     -22.464  62.158   0.168  1.00  0.00     0.013 A 
ATOM     17  C   UNL     1     -22.095  60.966  -0.464  1.00  0.00     0.047 A 
BRANCH  15  18
ATOM     18  O   UNL     1     -20.444  59.278  -0.958  1.00  0.00    -0.508 OA
ATOM     19  H   UNL     1     -19.571  59.187  -1.464  1.00  0.00     0.293 HD
ENDBRANCH  15  18
ENDBRANCH   1  12
BRANCH  11  20
ATOM     20  O   UNL     1     -23.936  67.429   4.841  1.00  0.00    -0.502 OA
ATOM     21  H   UNL     1     -24.715  66.784   4.895  1.00  0.00     0.293 HD
ENDBRANCH  11  20
BRANCH  10  22
ATOM     22  O   UNL     1     -23.184  69.948   3.965  1.00  0.00    -0.504 OA
ATOM     23  H   UNL     1     -24.151  70.254   3.956  1.00  0.00     0.293 HD
ENDBRANCH  10  22
TORSDOF 4
ENDMDL
MODEL 5
REMARK VINA RESULT:    -6.482     10.313     11.101
REMARK INTER + INTRA:          -7.039
REMARK INTER:                  -6.829
REMARK INTRA:                  -0.211
REMARK UNBOUND:                 0.390
REMARK SMILES O=c1c(-c2ccc(O)cc2)coc2c(O)c(O)ccc12
REMARK SMILES IDX 3 1 11 2 12 3 13 4 20 5 2 6 1 7 19 8 18 9 16 10 14 11 4 12
REMARK SMILES IDX 5 13 6 14 7 15 10 16 9 17 8 18 15 20 17 22
REMARK H PARENT 8 19 15 21 17 23
REMARK Flexibility Score: inf
ROOT
ATOM      1  C   UNL     1     -22.666  65.008   2.577  1.00  0.00     0.065 A 
ATOM      2  C   UNL     1     -23.233  64.835   3.849  1.00  0.00     0.208 A 
ATOM      3  O   UNL     1     -23.522  65.880   4.615  1.00  0.00    -0.459 OA
ATOM      4  C   UNL     1     -23.300  67.135   4.238  1.00  0.00     0.183 A 
ATOM      5  C   UNL     1     -22.736  67.405   2.970  1.00  0.00     0.069 A 
ATOM      6  C   UNL     1     -22.423  66.321   2.131  1.00  0.00     0.200 A 
ATOM      7  O   UNL     1     -21.946  66.524   0.980  1.00  0.00    -0.288 OA
ATOM      8  C   UNL     1     -22.510  68.738   2.583  1.00  0.00     0.020 A 
ATOM      9  C   UNL     1     -22.838  69.785   3.445  1.00  0.00     0.051 A 
ATOM     10  C   UNL     1     -23.396  69.519   4.702  1.00  0.00     0.161 A 
ATOM     11  C   UNL     1     -23.628  68.197   5.102  1.00  0.00     0.201 A 
ENDROOT
BRANCH   1  12
ATOM     12  C   UNL     1     -22.344  63.823   1.742  1.00  0.00    -0.011 A 
ATOM     13  C   UNL     1     -23.365  63.102   1.098  1.00  0.00     0.013 A 
ATOM     14  C   UNL     1     -23.055  61.991   0.306  1.00  0.00     0.047 A 
ATOM     15  C   UNL     1     -21.723  61.592   0.144  1.00  0.00     0.115 A 
ATOM     16  C   UNL     1     -21.009  63.420   1.569  1.00  0.00     0.013 A 
ATOM     17  C   UNL     1     -20.702  62.309   0.776  1.00  0.00     0.047 A 
BRANCH  15  18
ATOM     18  O   UNL     1     -21.402  60.487  -0.642  1.00  0.00    -0.508 OA
ATOM     19  H   UNL     1     -21.495  60.510  -1.651  1.00  0.00     0.293 HD
ENDBRANCH  15  18
ENDBRANCH   1  12
BRANCH  11  20
ATOM     20  O   UNL     1     -24.184  67.953   6.358  1.00  0.00    -0.502 OA
ATOM     21  H   UNL     1     -24.978  67.337   6.487  1.00  0.00     0.293 HD
ENDBRANCH  11  20
BRANCH  10  22
ATOM     22  O   UNL     1     -23.723  70.566   5.562  1.00  0.00    -0.504 OA
ATOM     23  H   UNL     1     -23.984  71.480   5.210  1.00  0.00     0.293 HD
ENDBRANCH  10  22
TORSDOF 4
ENDMDL
MODEL 6
REMARK VINA RESULT:    -6.424      1.511      1.853
REMARK INTER + INTRA:          -6.972
REMARK INTER:                  -6.698
REMARK INTRA:                  -0.275
REMARK UNBOUND:                 0.390
REMARK SMILES O=c1c(-c2ccc(O)cc2)coc2c(O)c(O)ccc12
REMARK SMILES IDX 3 1 11 2 12 3 13 4 20 5 2 6 1 7 19 8 18 9 16 10 14 11 4 12
REMARK SMILES IDX 5 13 6 14 7 15 10 16 9 17 8 18 15 20 17 22
REMARK H PARENT 8 19 15 21 17 23
REMARK Flexibility Score: inf
ROOT
ATOM      1  C   UNL     1     -19.080  56.862   2.086  1.00  0.00     0.065 A 
ATOM      2  C   UNL     1     -18.930  56.845   3.482  1.00  0.00     0.208 A 
ATOM      3  O   UNL     1     -19.735  56.116   4.246  1.00  0.00    -0.459 OA
ATOM      4  C   UNL     1     -20.716  55.366   3.753  1.00  0.00     0.183 A 
ATOM      5  C   UNL     1     -20.937  55.318   2.357  1.00  0.00     0.069 A 
ATOM      6  C   UNL     1     -20.099  56.074   1.518  1.00  0.00     0.200 A 
ATOM      7  O   UNL     1     -20.248  56.032   0.265  1.00  0.00    -0.288 OA
ATOM      8  C   UNL     1     -21.976  54.518   1.849  1.00  0.00     0.020 A 
ATOM      9  C   UNL     1     -22.783  53.780   2.716  1.00  0.00     0.051 A 
ATOM     10  C   UNL     1     -22.566  53.828   4.099  1.00  0.00     0.161 A 
ATOM     11  C   UNL     1     -21.534  54.620   4.621  1.00  0.00     0.201 A 
ENDROOT
BRANCH   1  12
ATOM     12  C   UNL     1     -18.172  57.691   1.254  1.00  0.00    -0.011 A 
ATOM     13  C   UNL     1     -17.010  57.137   0.691  1.00  0.00     0.013 A 
ATOM     14  C   UNL     1     -16.164  57.921  -0.099  1.00  0.00     0.047 A 
ATOM     15  C   UNL     1     -16.471  59.267  -0.340  1.00  0.00     0.115 A 
ATOM     16  C   UNL     1     -18.478  59.040   1.003  1.00  0.00     0.013 A 
ATOM     17  C   UNL     1     -17.629  59.822   0.213  1.00  0.00     0.047 A 
BRANCH  15  18
ATOM     18  O   UNL     1     -15.635  60.058  -1.125  1.00  0.00    -0.508 OA
ATOM     19  H   UNL     1     -15.258  60.933  -0.781  1.00  0.00     0.293 HD
ENDBRANCH  15  18
ENDBRANCH   1  12
BRANCH  11  20
ATOM     20  O   UNL     1     -21.333  54.654   6.002  1.00  0.00    -0.502 OA
ATOM     21  H   UNL     1     -21.775  55.346   6.594  1.00  0.00     0.293 HD
ENDBRANCH  11  20
BRANCH  10  22
ATOM     22  O   UNL     1     -23.373  53.091   4.964  1.00  0.00    -0.504 OA
ATOM     23  H   UNL     1     -24.227  53.477   5.350  1.00  0.00     0.293 HD
ENDBRANCH  10  22
TORSDOF 4
ENDMDL
MODEL 7
REMARK VINA RESULT:    -6.379      1.186      1.637
REMARK INTER + INTRA:          -6.921
REMARK INTER:                  -7.116
REMARK INTRA:                   0.195
REMARK UNBOUND:                 0.390
REMARK SMILES O=c1c(-c2ccc(O)cc2)coc2c(O)c(O)ccc12
REMARK SMILES IDX 3 1 11 2 12 3 13 4 20 5 2 6 1 7 19 8 18 9 16 10 14 11 4 12
REMARK SMILES IDX 5 13 6 14 7 15 10 16 9 17 8 18 15 20 17 22
REMARK H PARENT 8 19 15 21 17 23
REMARK Flexibility Score: inf
ROOT
ATOM      1  C   UNL     1     -21.200  55.634   3.106  1.00  0.00     0.065 A 
ATOM      2  C   UNL     1     -21.264  55.319   4.472  1.00  0.00     0.208 A 
ATOM      3  O   UNL     1     -22.390  54.877   5.019  1.00  0.00    -0.459 OA
ATOM      4  C   UNL     1     -23.511  54.705   4.325  1.00  0.00     0.183 A 
ATOM      5  C   UNL     1     -23.538  54.992   2.941  1.00  0.00     0.069 A 
ATOM      6  C   UNL     1     -22.360  55.457   2.328  1.00  0.00     0.200 A 
ATOM      7  O   UNL     1     -22.338  55.695   1.089  1.00  0.00    -0.288 OA
ATOM      8  C   UNL     1     -24.729  54.801   2.218  1.00  0.00     0.020 A 
ATOM      9  C   UNL     1     -25.876  54.335   2.863  1.00  0.00     0.051 A 
ATOM     10  C   UNL     1     -25.851  54.052   4.234  1.00  0.00     0.161 A 
ATOM     11  C   UNL     1     -24.671  54.235   4.968  1.00  0.00     0.201 A 
ENDROOT
BRANCH   1  12
ATOM     12  C   UNL     1     -19.931  56.134   2.520  1.00  0.00    -0.011 A 
ATOM     13  C   UNL     1     -19.489  55.673   1.268  1.00  0.00     0.013 A 
ATOM     14  C   UNL     1     -18.297  56.154   0.717  1.00  0.00     0.047 A 
ATOM     15  C   UNL     1     -17.535  57.105   1.409  1.00  0.00     0.115 A 
ATOM     16  C   UNL     1     -19.164  57.093   3.205  1.00  0.00     0.013 A 
ATOM     17  C   UNL     1     -17.972  57.572   2.652  1.00  0.00     0.047 A 
BRANCH  15  18
ATOM     18  O   UNL     1     -16.345  57.591   0.870  1.00  0.00    -0.508 OA
ATOM     19  H   UNL     1     -15.894  58.418   1.243  1.00  0.00     0.293 HD
ENDBRANCH  15  18
ENDBRANCH   1  12
BRANCH  11  20
ATOM     20  O   UNL     1     -24.667  53.947   6.334  1.00  0.00    -0.502 OA
ATOM     21  H   UNL     1     -25.369  54.313   6.965  1.00  0.00     0.293 HD
ENDBRANCH  11  20
BRANCH  10  22
ATOM     22  O   UNL     1     -26.996  53.587   4.878  1.00  0.00    -0.504 OA
ATOM     23  H   UNL     1     -27.923  53.776   4.513  1.00  0.00     0.293 HD
ENDBRANCH  10  22
TORSDOF 4
ENDMDL
MODEL 8
REMARK VINA RESULT:    -6.240      3.047      4.694
REMARK INTER + INTRA:          -6.762
REMARK INTER:                  -6.561
REMARK INTRA:                  -0.201
REMARK UNBOUND:                 0.390
REMARK SMILES O=c1c(-c2ccc(O)cc2)coc2c(O)c(O)ccc12
REMARK SMILES IDX 3 1 11 2 12 3 13 4 20 5 2 6 1 7 19 8 18 9 16 10 14 11 4 12
REMARK SMILES IDX 5 13 6 14 7 15 10 16 9 17 8 18 15 20 17 22
REMARK H PARENT 8 19 15 21 17 23
REMARK Flexibility Score: inf
ROOT
ATOM      1  C   UNL     1     -18.746  58.465   0.823  1.00  0.00     0.065 A 
ATOM      2  C   UNL     1     -19.136  57.464  -0.080  1.00  0.00     0.208 A 
ATOM      3  O   UNL     1     -19.480  56.255   0.347  1.00  0.00    -0.459 OA
ATOM      4  C   UNL     1     -19.478  55.916   1.633  1.00  0.00     0.183 A 
ATOM      5  C   UNL     1     -19.104  56.862   2.614  1.00  0.00     0.069 A 
ATOM      6  C   UNL     1     -18.739  58.155   2.196  1.00  0.00     0.200 A 
ATOM      7  O   UNL     1     -18.428  59.034   3.046  1.00  0.00    -0.288 OA
ATOM      8  C   UNL     1     -19.111  56.491   3.970  1.00  0.00     0.020 A 
ATOM      9  C   UNL     1     -19.482  55.198   4.344  1.00  0.00     0.051 A 
ATOM     10  C   UNL     1     -19.851  54.259   3.372  1.00  0.00     0.161 A 
ATOM     11  C   UNL     1     -19.851  54.614   2.016  1.00  0.00     0.201 A 
ENDROOT
BRANCH   1  12
ATOM     12  C   UNL     1     -18.359  59.807   0.319  1.00  0.00    -0.011 A 
ATOM     13  C   UNL     1     -17.127  60.002  -0.328  1.00  0.00     0.013 A 
ATOM     14  C   UNL     1     -16.772  61.266  -0.808  1.00  0.00     0.047 A 
ATOM     15  C   UNL     1     -17.646  62.350  -0.651  1.00  0.00     0.115 A 
ATOM     16  C   UNL     1     -19.234  60.898   0.466  1.00  0.00     0.013 A 
ATOM     17  C   UNL     1     -18.876  62.161  -0.014  1.00  0.00     0.047 A 
BRANCH  15  18
ATOM     18  O   UNL     1     -17.303  63.614  -1.125  1.00  0.00    -0.508 OA
ATOM     19  H   UNL     1     -17.946  64.163  -1.684  1.00  0.00     0.293 HD
ENDBRANCH  15  18
ENDBRANCH   1  12
BRANCH  11  20
ATOM     20  O   UNL     1     -20.223  53.665   1.064  1.00  0.00    -0.502 OA
ATOM     21  H   UNL     1     -19.856  52.722   1.070  1.00  0.00     0.293 HD
ENDBRANCH  11  20
BRANCH  10  22
ATOM     22  O   UNL     1     -20.222  52.969   3.746  1.00  0.00    -0.504 OA
ATOM     23  H   UNL     1     -20.193  52.198   3.088  1.00  0.00     0.293 HD
ENDBRANCH  10  22
TORSDOF 4
ENDMDL
MODEL 9
REMARK VINA RESULT:    -6.103      2.055      6.740
REMARK INTER + INTRA:          -6.605
REMARK INTER:                  -6.484
REMARK INTRA:                  -0.121
REMARK UNBOUND:                 0.390
REMARK SMILES O=c1c(-c2ccc(O)cc2)coc2c(O)c(O)ccc12
REMARK SMILES IDX 3 1 11 2 12 3 13 4 20 5 2 6 1 7 19 8 18 9 16 10 14 11 4 12
REMARK SMILES IDX 5 13 6 14 7 15 10 16 9 17 8 18 15 20 17 22
REMARK H PARENT 8 19 15 21 17 23
REMARK Flexibility Score: inf
ROOT
ATOM      1  C   UNL     1     -20.789  54.908   3.098  1.00  0.00     0.065 A 
ATOM      2  C   UNL     1     -20.357  55.816   4.077  1.00  0.00     0.208 A 
ATOM      3  O   UNL     1     -19.476  56.766   3.786  1.00  0.00    -0.459 OA
ATOM      4  C   UNL     1     -18.954  56.920   2.573  1.00  0.00     0.183 A 
ATOM      5  C   UNL     1     -19.335  56.053   1.523  1.00  0.00     0.069 A 
ATOM      6  C   UNL     1     -20.271  55.039   1.796  1.00  0.00     0.200 A 
ATOM      7  O   UNL     1     -20.658  54.265   0.876  1.00  0.00    -0.288 OA
ATOM      8  C   UNL     1     -18.778  56.229   0.244  1.00  0.00     0.020 A 
ATOM      9  C   UNL     1     -17.854  57.250   0.014  1.00  0.00     0.051 A 
ATOM     10  C   UNL     1     -17.475  58.108   1.054  1.00  0.00     0.161 A 
ATOM     11  C   UNL     1     -18.022  57.947   2.334  1.00  0.00     0.201 A 
ENDROOT
BRANCH   1  12
ATOM     12  C   UNL     1     -21.769  53.850   3.451  1.00  0.00    -0.011 A 
ATOM     13  C   UNL     1     -21.413  52.492   3.384  1.00  0.00     0.013 A 
ATOM     14  C   UNL     1     -22.338  51.500   3.726  1.00  0.00     0.047 A 
ATOM     15  C   UNL     1     -23.628  51.854   4.143  1.00  0.00     0.115 A 
ATOM     16  C   UNL     1     -23.063  54.197   3.877  1.00  0.00     0.013 A 
ATOM     17  C   UNL     1     -23.986  53.203   4.218  1.00  0.00     0.047 A 
BRANCH  15  18
ATOM     18  O   UNL     1     -24.558  50.875   4.486  1.00  0.00    -0.508 OA
ATOM     19  H   UNL     1     -25.361  50.680   3.900  1.00  0.00     0.293 HD
ENDBRANCH  15  18
ENDBRANCH   1  12
BRANCH  11  20
ATOM     20  O   UNL     1     -17.631  58.812   3.356  1.00  0.00    -0.502 OA
ATOM     21  H   UNL     1     -18.302  59.281   3.951  1.00  0.00     0.293 HD
ENDBRANCH  11  20
BRANCH  10  22
ATOM     22  O   UNL     1     -16.552  59.127   0.824  1.00  0.00    -0.504 OA
ATOM     23  H   UNL     1     -15.573  58.927   0.650  1.00  0.00     0.293 HD
ENDBRANCH  10  22
TORSDOF 4
ENDMDL
