MODEL 1
REMARK VINA RESULT:    -4.911      0.000      0.000
REMARK INTER + INTRA:          -9.773
REMARK INTER:                  -8.356
REMARK INTRA:                  -1.417
REMARK UNBOUND:                -1.417
REMARK SMILES CCCCCCCCCCCCCC(=O)[O-]
REMARK SMILES IDX 8 1 9 2 10 3 11 4 12 5 13 6 14 7 15 8 16 9 7 10 6 11 5 12
REMARK SMILES IDX 4 13 3 14 2 15 1 16
REMARK H PARENT
REMARK Flexibility Score: inf
ROOT
ATOM      1  C   UNL     1      -3.397  10.087  -8.921  1.00  0.00     0.000 C 
ENDROOT
BRANCH   1   2
ATOM      2  C   UNL     1      -2.691  11.357  -9.411  1.00  0.00     0.000 C 
BRANCH   2   3
ATOM      3  C   UNL     1      -1.990  12.079  -8.254  1.00  0.00     0.000 C 
BRANCH   3   4
ATOM      4  C   UNL     1      -1.000  11.143  -7.541  1.00  0.00     0.000 C 
BRANCH   4   5
ATOM      5  C   UNL     1       0.432  11.272  -8.082  1.00  0.00     0.006 C 
BRANCH   5   6
ATOM      6  C   UNL     1       1.212   9.953  -8.011  1.00  0.00     0.053 C 
BRANCH   6   7
ATOM      7  C   UNL     1       2.684  10.214  -8.060  1.00  0.00     0.041 C 
ATOM      8  O   UNL     1       3.358   9.858  -9.062  1.00  0.00    -0.550 OA
ATOM      9  O   UNL     1       3.321  10.805  -6.976  1.00  0.00    -0.550 OA
ENDBRANCH   6   7
ENDBRANCH   5   6
ENDBRANCH   4   5
ENDBRANCH   3   4
ENDBRANCH   2   3
ENDBRANCH   1   2
BRANCH   1  10
ATOM     10  C   UNL     1      -4.474   9.638  -9.916  1.00  0.00     0.000 C 
BRANCH  10  11
ATOM     11  C   UNL     1      -5.092  10.841 -10.639  1.00  0.00    -0.000 C 
BRANCH  11  12
ATOM     12  C   UNL     1      -6.585  10.976 -10.301  1.00  0.00    -0.000 C 
BRANCH  12  13
ATOM     13  C   UNL     1      -6.823  11.580  -8.908  1.00  0.00    -0.000 C 
BRANCH  13  14
ATOM     14  C   UNL     1      -6.034  12.882  -8.685  1.00  0.00    -0.000 C 
BRANCH  14  15
ATOM     15  C   UNL     1      -5.904  13.244  -7.198  1.00  0.00    -0.003 C 
ATOM     16  C   UNL     1      -5.226  12.144  -6.381  1.00  0.00     0.004 C 
ENDBRANCH  14  15
ENDBRANCH  13  14
ENDBRANCH  12  13
ENDBRANCH  11  12
ENDBRANCH  10  11
ENDBRANCH   1  10
TORSDOF 12
ENDMDL
MODEL 2
REMARK VINA RESULT:    -4.790      1.778      3.347
REMARK INTER + INTRA:          -9.567
REMARK INTER:                  -8.732
REMARK INTRA:                  -0.835
REMARK UNBOUND:                -1.417
REMARK SMILES CCCCCCCCCCCCCC(=O)[O-]
REMARK SMILES IDX 8 1 9 2 10 3 11 4 12 5 13 6 14 7 15 8 16 9 7 10 6 11 5 12
REMARK SMILES IDX 4 13 3 14 2 15 1 16
REMARK H PARENT
REMARK Flexibility Score: inf
ROOT
ATOM      1  C   UNL     1      -3.823  12.114  -8.988  1.00  0.00     0.000 C 
ENDROOT
BRANCH   1   2
ATOM      2  C   UNL     1      -2.950  10.903  -9.337  1.00  0.00     0.000 C 
BRANCH   2   3
ATOM      3  C   UNL     1      -1.853  10.693  -8.287  1.00  0.00     0.000 C 
BRANCH   3   4
ATOM      4  C   UNL     1      -1.098  12.003  -8.011  1.00  0.00     0.000 C 
BRANCH   4   5
ATOM      5  C   UNL     1       0.427  11.815  -7.992  1.00  0.00     0.006 C 
BRANCH   5   6
ATOM      6  C   UNL     1       0.841  10.359  -7.738  1.00  0.00     0.053 C 
BRANCH   6   7
ATOM      7  C   UNL     1       2.300  10.176  -8.010  1.00  0.00     0.041 C 
ATOM      8  O   UNL     1       2.680   9.545  -9.031  1.00  0.00    -0.550 OA
ATOM      9  O   UNL     1       3.241  10.659  -7.109  1.00  0.00    -0.550 OA
ENDBRANCH   6   7
ENDBRANCH   5   6
ENDBRANCH   4   5
ENDBRANCH   3   4
ENDBRANCH   2   3
ENDBRANCH   1   2
BRANCH   1  10
ATOM     10  C   UNL     1      -5.272  11.897  -9.444  1.00  0.00     0.000 C 
BRANCH  10  11
ATOM     11  C   UNL     1      -5.381  10.681 -10.371  1.00  0.00    -0.000 C 
BRANCH  11  12
ATOM     12  C   UNL     1      -6.669   9.892 -10.091  1.00  0.00    -0.000 C 
BRANCH  12  13
ATOM     13  C   UNL     1      -6.406   8.397  -9.849  1.00  0.00    -0.000 C 
BRANCH  13  14
ATOM     14  C   UNL     1      -5.130   7.900 -10.550  1.00  0.00    -0.000 C 
BRANCH  14  15
ATOM     15  C   UNL     1      -5.305   6.504 -11.168  1.00  0.00    -0.003 C 
ATOM     16  C   UNL     1      -6.643   5.862 -10.806  1.00  0.00     0.004 C 
ENDBRANCH  14  15
ENDBRANCH  13  14
ENDBRANCH  12  13
ENDBRANCH  11  12
ENDBRANCH  10  11
ENDBRANCH   1  10
TORSDOF 12
ENDMDL
MODEL 3
REMARK VINA RESULT:    -4.712      1.012      2.074
REMARK INTER + INTRA:          -9.434
REMARK INTER:                  -8.026
REMARK INTRA:                  -1.408
REMARK UNBOUND:                -1.417
REMARK SMILES CCCCCCCCCCCCCC(=O)[O-]
REMARK SMILES IDX 8 1 9 2 10 3 11 4 12 5 13 6 14 7 15 8 16 9 7 10 6 11 5 12
REMARK SMILES IDX 4 13 3 14 2 15 1 16
REMARK H PARENT
REMARK Flexibility Score: inf
ROOT
ATOM      1  C   UNL     1      -2.748  11.963  -8.451  1.00  0.00     0.000 C 
ENDROOT
BRANCH   1   2
ATOM      2  C   UNL     1      -2.715  11.005  -7.255  1.00  0.00     0.000 C 
BRANCH   2   3
ATOM      3  C   UNL     1      -1.316  10.954  -6.628  1.00  0.00     0.000 C 
BRANCH   3   4
ATOM      4  C   UNL     1      -0.506  12.209  -6.988  1.00  0.00     0.000 C 
BRANCH   4   5
ATOM      5  C   UNL     1       0.863  11.875  -7.601  1.00  0.00     0.006 C 
BRANCH   5   6
ATOM      6  C   UNL     1       0.991  10.397  -7.991  1.00  0.00     0.053 C 
BRANCH   6   7
ATOM      7  C   UNL     1       2.426  10.040  -8.217  1.00  0.00     0.041 C 
ATOM      8  O   UNL     1       3.311  10.427  -7.410  1.00  0.00    -0.550 OA
ATOM      9  O   UNL     1       2.793   9.320  -9.347  1.00  0.00    -0.550 OA
ENDBRANCH   6   7
ENDBRANCH   5   6
ENDBRANCH   4   5
ENDBRANCH   3   4
ENDBRANCH   2   3
ENDBRANCH   1   2
BRANCH   1  10
ATOM     10  C   UNL     1      -2.966  11.199  -9.763  1.00  0.00     0.000 C 
BRANCH  10  11
ATOM     11  C   UNL     1      -3.568   9.814  -9.499  1.00  0.00    -0.000 C 
BRANCH  11  12
ATOM     12  C   UNL     1      -4.572   9.434 -10.598  1.00  0.00    -0.000 C 
BRANCH  12  13
ATOM     13  C   UNL     1      -6.029   9.495 -10.113  1.00  0.00    -0.000 C 
BRANCH  13  14
ATOM     14  C   UNL     1      -6.598  10.924 -10.126  1.00  0.00    -0.000 C 
BRANCH  14  15
ATOM     15  C   UNL     1      -6.795  11.492  -8.712  1.00  0.00    -0.003 C 
ATOM     16  C   UNL     1      -6.343  12.947  -8.591  1.00  0.00     0.004 C 
ENDBRANCH  14  15
ENDBRANCH  13  14
ENDBRANCH  12  13
ENDBRANCH  11  12
ENDBRANCH  10  11
ENDBRANCH   1  10
TORSDOF 12
ENDMDL
MODEL 4
REMARK VINA RESULT:    -4.707      1.023      2.770
REMARK INTER + INTRA:          -9.426
REMARK INTER:                  -8.441
REMARK INTRA:                  -0.985
REMARK UNBOUND:                -1.417
REMARK SMILES CCCCCCCCCCCCCC(=O)[O-]
REMARK SMILES IDX 8 1 9 2 10 3 11 4 12 5 13 6 14 7 15 8 16 9 7 10 6 11 5 12
REMARK SMILES IDX 4 13 3 14 2 15 1 16
REMARK H PARENT
REMARK Flexibility Score: inf
ROOT
ATOM      1  C   UNL     1      -3.546  12.812  -7.836  1.00  0.00     0.000 C 
ENDROOT
BRANCH   1   2
ATOM      2  C   UNL     1      -2.522  12.246  -8.827  1.00  0.00     0.000 C 
BRANCH   2   3
ATOM      3  C   UNL     1      -1.948  10.916  -8.326  1.00  0.00     0.000 C 
BRANCH   3   4
ATOM      4  C   UNL     1      -0.853  11.150  -7.273  1.00  0.00     0.000 C 
BRANCH   4   5
ATOM      5  C   UNL     1       0.543  11.310  -7.896  1.00  0.00     0.006 C 
BRANCH   5   6
ATOM      6  C   UNL     1       1.294   9.978  -8.016  1.00  0.00     0.053 C 
BRANCH   6   7
ATOM      7  C   UNL     1       2.768  10.216  -8.109  1.00  0.00     0.041 C 
ATOM      8  O   UNL     1       3.411   9.822  -9.116  1.00  0.00    -0.550 OA
ATOM      9  O   UNL     1       3.440  10.829  -7.059  1.00  0.00    -0.550 OA
ENDBRANCH   6   7
ENDBRANCH   5   6
ENDBRANCH   4   5
ENDBRANCH   3   4
ENDBRANCH   2   3
ENDBRANCH   1   2
BRANCH   1  10
ATOM     10  C   UNL     1      -4.921  12.969  -8.495  1.00  0.00     0.000 C 
BRANCH  10  11
ATOM     11  C   UNL     1      -5.748  11.686  -8.355  1.00  0.00    -0.000 C 
BRANCH  11  12
ATOM     12  C   UNL     1      -6.667  11.489  -9.570  1.00  0.00    -0.000 C 
BRANCH  12  13
ATOM     13  C   UNL     1      -6.329  10.218 -10.367  1.00  0.00    -0.000 C 
BRANCH  13  14
ATOM     14  C   UNL     1      -4.814  10.007 -10.530  1.00  0.00    -0.000 C 
BRANCH  14  15
ATOM     15  C   UNL     1      -4.363   8.609 -10.081  1.00  0.00    -0.003 C 
ATOM     16  C   UNL     1      -5.094   7.488 -10.820  1.00  0.00     0.004 C 
ENDBRANCH  14  15
ENDBRANCH  13  14
ENDBRANCH  12  13
ENDBRANCH  11  12
ENDBRANCH  10  11
ENDBRANCH   1  10
TORSDOF 12
ENDMDL
MODEL 5
REMARK VINA RESULT:    -4.666      3.176      7.059
REMARK INTER + INTRA:          -9.357
REMARK INTER:                  -8.545
REMARK INTRA:                  -0.812
REMARK UNBOUND:                -1.417
REMARK SMILES CCCCCCCCCCCCCC(=O)[O-]
REMARK SMILES IDX 8 1 9 2 10 3 11 4 12 5 13 6 14 7 15 8 16 9 7 10 6 11 5 12
REMARK SMILES IDX 4 13 3 14 2 15 1 16
REMARK H PARENT
REMARK Flexibility Score: inf
ROOT
ATOM      1  C   UNL     1      -3.409  11.420  -7.999  1.00  0.00     0.000 C 
ENDROOT
BRANCH   1   2
ATOM      2  C   UNL     1      -4.136  12.247  -9.066  1.00  0.00     0.000 C 
BRANCH   2   3
ATOM      3  C   UNL     1      -5.507  12.713  -8.563  1.00  0.00     0.000 C 
BRANCH   3   4
ATOM      4  C   UNL     1      -6.631  11.839  -9.139  1.00  0.00     0.000 C 
BRANCH   4   5
ATOM      5  C   UNL     1      -6.154  10.946 -10.295  1.00  0.00     0.006 C 
BRANCH   5   6
ATOM      6  C   UNL     1      -6.337   9.450 -10.002  1.00  0.00     0.053 C 
BRANCH   6   7
ATOM      7  C   UNL     1      -5.230   8.658 -10.623  1.00  0.00     0.041 C 
ATOM      8  O   UNL     1      -5.401   7.443 -10.903  1.00  0.00    -0.550 OA
ATOM      9  O   UNL     1      -3.993   9.249 -10.847  1.00  0.00    -0.550 OA
ENDBRANCH   6   7
ENDBRANCH   5   6
ENDBRANCH   4   5
ENDBRANCH   3   4
ENDBRANCH   2   3
ENDBRANCH   1   2
BRANCH   1  10
ATOM     10  C   UNL     1      -1.954  11.153  -8.405  1.00  0.00     0.000 C 
BRANCH  10  11
ATOM     11  C   UNL     1      -1.056  12.344  -8.049  1.00  0.00    -0.000 C 
BRANCH  11  12
ATOM     12  C   UNL     1       0.364  11.875  -7.698  1.00  0.00    -0.000 C 
BRANCH  12  13
ATOM     13  C   UNL     1       0.614  10.409  -8.084  1.00  0.00    -0.000 C 
BRANCH  13  14
ATOM     14  C   UNL     1       1.929   9.860  -7.503  1.00  0.00    -0.000 C 
BRANCH  14  15
ATOM     15  C   UNL     1       3.164  10.363  -8.266  1.00  0.00    -0.003 C 
ATOM     16  C   UNL     1       3.395   9.610  -9.575  1.00  0.00     0.004 C 
ENDBRANCH  14  15
ENDBRANCH  13  14
ENDBRANCH  12  13
ENDBRANCH  11  12
ENDBRANCH  10  11
ENDBRANCH   1  10
TORSDOF 12
ENDMDL
MODEL 6
REMARK VINA RESULT:    -4.611      3.677      6.519
REMARK INTER + INTRA:          -9.262
REMARK INTER:                  -8.095
REMARK INTRA:                  -1.168
REMARK UNBOUND:                -1.417
REMARK SMILES CCCCCCCCCCCCCC(=O)[O-]
REMARK SMILES IDX 8 1 9 2 10 3 11 4 12 5 13 6 14 7 15 8 16 9 7 10 6 11 5 12
REMARK SMILES IDX 4 13 3 14 2 15 1 16
REMARK H PARENT
REMARK Flexibility Score: inf
ROOT
ATOM      1  C   UNL     1      -4.814  12.822  -8.868  1.00  0.00     0.000 C 
ENDROOT
BRANCH   1   2
ATOM      2  C   UNL     1      -6.213  12.193  -8.867  1.00  0.00     0.000 C 
BRANCH   2   3
ATOM      3  C   UNL     1      -6.207  10.835  -9.577  1.00  0.00     0.000 C 
BRANCH   3   4
ATOM      4  C   UNL     1      -5.120  10.785 -10.662  1.00  0.00     0.000 C 
BRANCH   4   5
ATOM      5  C   UNL     1      -4.234   9.534 -10.556  1.00  0.00     0.006 C 
BRANCH   5   6
ATOM      6  C   UNL     1      -4.818   8.474  -9.612  1.00  0.00     0.053 C 
BRANCH   6   7
ATOM      7  C   UNL     1      -5.569   7.441 -10.390  1.00  0.00     0.041 C 
ATOM      8  O   UNL     1      -5.070   6.947 -11.435  1.00  0.00    -0.550 OA
ATOM      9  O   UNL     1      -6.843   7.059  -9.989  1.00  0.00    -0.550 OA
ENDBRANCH   6   7
ENDBRANCH   5   6
ENDBRANCH   4   5
ENDBRANCH   3   4
ENDBRANCH   2   3
ENDBRANCH   1   2
BRANCH   1  10
ATOM     10  C   UNL     1      -4.293  13.009  -7.438  1.00  0.00     0.000 C 
BRANCH  10  11
ATOM     11  C   UNL     1      -2.768  12.859  -7.383  1.00  0.00    -0.000 C 
BRANCH  11  12
ATOM     12  C   UNL     1      -2.256  12.028  -8.569  1.00  0.00    -0.000 C 
BRANCH  12  13
ATOM     13  C   UNL     1      -1.113  11.078  -8.175  1.00  0.00    -0.000 C 
BRANCH  13  14
ATOM     14  C   UNL     1       0.002  11.788  -7.387  1.00  0.00    -0.000 C 
BRANCH  14  15
ATOM     15  C   UNL     1       1.405  11.401  -7.877  1.00  0.00    -0.003 C 
ATOM     16  C   UNL     1       1.526   9.914  -8.207  1.00  0.00     0.004 C 
ENDBRANCH  14  15
ENDBRANCH  13  14
ENDBRANCH  12  13
ENDBRANCH  11  12
ENDBRANCH  10  11
ENDBRANCH   1  10
TORSDOF 12
ENDMDL
MODEL 7
REMARK VINA RESULT:    -4.520      3.652      7.049
REMARK INTER + INTRA:          -9.108
REMARK INTER:                  -7.777
REMARK INTRA:                  -1.330
REMARK UNBOUND:                -1.417
REMARK SMILES CCCCCCCCCCCCCC(=O)[O-]
REMARK SMILES IDX 8 1 9 2 10 3 11 4 12 5 13 6 14 7 15 8 16 9 7 10 6 11 5 12
REMARK SMILES IDX 4 13 3 14 2 15 1 16
REMARK H PARENT
REMARK Flexibility Score: inf
ROOT
ATOM      1  C   UNL     1      -2.850  11.992  -8.084  1.00  0.00     0.000 C 
ENDROOT
BRANCH   1   2
ATOM      2  C   UNL     1      -2.892  11.332  -9.467  1.00  0.00     0.000 C 
BRANCH   2   3
ATOM      3  C   UNL     1      -3.422   9.896  -9.376  1.00  0.00     0.000 C 
BRANCH   3   4
ATOM      4  C   UNL     1      -4.533   9.652 -10.410  1.00  0.00     0.000 C 
BRANCH   4   5
ATOM      5  C   UNL     1      -5.307  10.932 -10.761  1.00  0.00     0.006 C 
BRANCH   5   6
ATOM      6  C   UNL     1      -6.668  11.012 -10.058  1.00  0.00     0.053 C 
BRANCH   6   7
ATOM      7  C   UNL     1      -6.539  11.723  -8.749  1.00  0.00     0.041 C 
ATOM      8  O   UNL     1      -6.463  12.979  -8.715  1.00  0.00    -0.550 OA
ATOM      9  O   UNL     1      -6.453  10.997  -7.568  1.00  0.00    -0.550 OA
ENDBRANCH   6   7
ENDBRANCH   5   6
ENDBRANCH   4   5
ENDBRANCH   3   4
ENDBRANCH   2   3
ENDBRANCH   1   2
BRANCH   1  10
ATOM     10  C   UNL     1      -2.749  10.939  -6.974  1.00  0.00     0.000 C 
BRANCH  10  11
ATOM     11  C   UNL     1      -1.308  10.814  -6.463  1.00  0.00    -0.000 C 
BRANCH  11  12
ATOM     12  C   UNL     1      -0.486  12.058  -6.831  1.00  0.00    -0.000 C 
BRANCH  12  13
ATOM     13  C   UNL     1       0.593  11.762  -7.886  1.00  0.00    -0.000 C 
BRANCH  13  14
ATOM     14  C   UNL     1       0.935  10.265  -7.978  1.00  0.00    -0.000 C 
BRANCH  14  15
ATOM     15  C   UNL     1       2.449  10.010  -8.023  1.00  0.00    -0.003 C 
ATOM     16  C   UNL     1       3.209  10.773  -6.938  1.00  0.00     0.004 C 
ENDBRANCH  14  15
ENDBRANCH  13  14
ENDBRANCH  12  13
ENDBRANCH  11  12
ENDBRANCH  10  11
ENDBRANCH   1  10
TORSDOF 12
ENDMDL
MODEL 8
REMARK VINA RESULT:    -4.505      1.670      3.605
REMARK INTER + INTRA:          -9.083
REMARK INTER:                  -7.708
REMARK INTRA:                  -1.375
REMARK UNBOUND:                -1.417
REMARK SMILES CCCCCCCCCCCCCC(=O)[O-]
REMARK SMILES IDX 8 1 9 2 10 3 11 4 12 5 13 6 14 7 15 8 16 9 7 10 6 11 5 12
REMARK SMILES IDX 4 13 3 14 2 15 1 16
REMARK H PARENT
REMARK Flexibility Score: inf
ROOT
ATOM      1  C   UNL     1      -5.582  10.976  -7.456  1.00  0.00     0.000 C 
ENDROOT
BRANCH   1   2
ATOM      2  C   UNL     1      -4.076  11.133  -7.211  1.00  0.00     0.000 C 
BRANCH   2   3
ATOM      3  C   UNL     1      -3.559  12.456  -7.788  1.00  0.00     0.000 C 
BRANCH   3   4
ATOM      4  C   UNL     1      -2.340  12.222  -8.695  1.00  0.00     0.000 C 
BRANCH   4   5
ATOM      5  C   UNL     1      -1.307  11.275  -8.065  1.00  0.00     0.006 C 
BRANCH   5   6
ATOM      6  C   UNL     1       0.048  11.955  -7.823  1.00  0.00     0.053 C 
BRANCH   6   7
ATOM      7  C   UNL     1       1.098  10.933  -7.522  1.00  0.00     0.041 C 
ATOM      8  O   UNL     1       1.856  11.077  -6.527  1.00  0.00    -0.550 OA
ATOM      9  O   UNL     1       1.274   9.847  -8.370  1.00  0.00    -0.550 OA
ENDBRANCH   6   7
ENDBRANCH   5   6
ENDBRANCH   4   5
ENDBRANCH   3   4
ENDBRANCH   2   3
ENDBRANCH   1   2
BRANCH   1  10
ATOM     10  C   UNL     1      -6.015  11.729  -8.720  1.00  0.00     0.000 C 
BRANCH  10  11
ATOM     11  C   UNL     1      -6.167  10.770  -9.906  1.00  0.00    -0.000 C 
BRANCH  11  12
ATOM     12  C   UNL     1      -4.894  10.755 -10.766  1.00  0.00    -0.000 C 
BRANCH  12  13
ATOM     13  C   UNL     1      -4.098   9.448 -10.621  1.00  0.00    -0.000 C 
BRANCH  13  14
ATOM     14  C   UNL     1      -4.923   8.322  -9.972  1.00  0.00    -0.000 C 
BRANCH  14  15
ATOM     15  C   UNL     1      -5.034   7.082 -10.871  1.00  0.00    -0.003 C 
ATOM     16  C   UNL     1      -6.335   6.309 -10.652  1.00  0.00     0.004 C 
ENDBRANCH  14  15
ENDBRANCH  13  14
ENDBRANCH  12  13
ENDBRANCH  11  12
ENDBRANCH  10  11
ENDBRANCH   1  10
TORSDOF 12
ENDMDL
MODEL 9
REMARK VINA RESULT:    -4.347      2.052      3.282
REMARK INTER + INTRA:          -8.814
REMARK INTER:                  -7.652
REMARK INTRA:                  -1.162
REMARK UNBOUND:                -1.417
REMARK SMILES CCCCCCCCCCCCCC(=O)[O-]
REMARK SMILES IDX 8 1 9 2 10 3 11 4 12 5 13 6 14 7 15 8 16 9 7 10 6 11 5 12
REMARK SMILES IDX 4 13 3 14 2 15 1 16
REMARK H PARENT
REMARK Flexibility Score: inf
ROOT
ATOM      1  C   UNL     1      -3.081  11.208  -7.401  1.00  0.00     0.000 C 
ENDROOT
BRANCH   1   2
ATOM      2  C   UNL     1      -2.062  11.720  -8.426  1.00  0.00     0.000 C 
BRANCH   2   3
ATOM      3  C   UNL     1      -0.914  12.467  -7.737  1.00  0.00     0.000 C 
BRANCH   3   4
ATOM      4  C   UNL     1       0.443  11.843  -8.096  1.00  0.00     0.000 C 
BRANCH   4   5
ATOM      5  C   UNL     1       0.951  10.871  -7.020  1.00  0.00     0.006 C 
BRANCH   5   6
ATOM      6  C   UNL     1       2.159  11.421  -6.249  1.00  0.00     0.053 C 
BRANCH   6   7
ATOM      7  C   UNL     1       1.704  12.231  -5.077  1.00  0.00     0.041 C 
ATOM      8  O   UNL     1       1.155  11.670  -4.093  1.00  0.00    -0.550 OA
ATOM      9  O   UNL     1       1.840  13.614  -5.093  1.00  0.00    -0.550 OA
ENDBRANCH   6   7
ENDBRANCH   5   6
ENDBRANCH   4   5
ENDBRANCH   3   4
ENDBRANCH   2   3
ENDBRANCH   1   2
BRANCH   1  10
ATOM     10  C   UNL     1      -4.289  12.148  -7.308  1.00  0.00     0.000 C 
BRANCH  10  11
ATOM     11  C   UNL     1      -4.762  12.576  -8.702  1.00  0.00    -0.000 C 
BRANCH  11  12
ATOM     12  C   UNL     1      -6.166  12.028  -8.997  1.00  0.00    -0.000 C 
BRANCH  12  13
ATOM     13  C   UNL     1      -6.178  11.031 -10.167  1.00  0.00    -0.000 C 
BRANCH  13  14
ATOM     14  C   UNL     1      -4.772  10.769 -10.735  1.00  0.00    -0.000 C 
BRANCH  14  15
ATOM     15  C   UNL     1      -4.280   9.341 -10.452  1.00  0.00    -0.003 C 
ATOM     16  C   UNL     1      -5.421   8.327 -10.383  1.00  0.00     0.004 C 
ENDBRANCH  14  15
ENDBRANCH  13  14
ENDBRANCH  12  13
ENDBRANCH  11  12
ENDBRANCH  10  11
ENDBRANCH   1  10
TORSDOF 12
ENDMDL
