MODEL 1
REMARK VINA RESULT:    -3.764      0.000      0.000
REMARK INTER + INTRA:          -4.802
REMARK INTER:                  -4.644
REMARK INTRA:                  -0.158
REMARK UNBOUND:                -0.158
REMARK SMILES CCCCCC(=O)[O-]
REMARK SMILES IDX 4 1 5 2 6 3 7 4 8 5 3 6 2 7 1 8
REMARK H PARENT
REMARK Flexibility Score: inf
ROOT
ATOM      1  C   UNL     1     -11.867 -13.769  19.767  1.00  0.00     0.006 C 
ENDROOT
BRANCH   1   2
ATOM      2  C   UNL     1     -13.295 -13.274  20.034  1.00  0.00     0.053 C 
BRANCH   2   3
ATOM      3  C   UNL     1     -14.274 -13.858  19.062  1.00  0.00     0.041 C 
ATOM      4  O   UNL     1     -15.013 -13.104  18.376  1.00  0.00    -0.550 OA
ATOM      5  O   UNL     1     -14.347 -15.235  18.891  1.00  0.00    -0.550 OA
ENDBRANCH   2   3
ENDBRANCH   1   2
BRANCH   1   6
ATOM      6  C   UNL     1     -10.981 -12.679  19.146  1.00  0.00     0.000 C 
BRANCH   6   7
ATOM      7  C   UNL     1     -11.311 -12.484  17.661  1.00  0.00    -0.003 C 
ATOM      8  C   UNL     1     -11.784 -11.060  17.384  1.00  0.00     0.004 C 
ENDBRANCH   6   7
ENDBRANCH   1   6
TORSDOF 4
ENDMDL
MODEL 2
REMARK VINA RESULT:    -3.737      2.085      3.825
REMARK INTER + INTRA:          -4.768
REMARK INTER:                  -4.645
REMARK INTRA:                  -0.124
REMARK UNBOUND:                -0.158
REMARK SMILES CCCCCC(=O)[O-]
REMARK SMILES IDX 4 1 5 2 6 3 7 4 8 5 3 6 2 7 1 8
REMARK H PARENT
REMARK Flexibility Score: inf
ROOT
ATOM      1  C   UNL     1     -11.029 -12.899  19.387  1.00  0.00     0.006 C 
ENDROOT
BRANCH   1   2
ATOM      2  C   UNL     1     -11.172 -12.600  17.888  1.00  0.00     0.053 C 
BRANCH   2   3
ATOM      3  C   UNL     1     -12.091 -11.443  17.640  1.00  0.00     0.041 C 
ATOM      4  O   UNL     1     -13.300 -11.507  17.985  1.00  0.00    -0.550 OA
ATOM      5  O   UNL     1     -11.604 -10.281  17.053  1.00  0.00    -0.550 OA
ENDBRANCH   2   3
ENDBRANCH   1   2
BRANCH   1   6
ATOM      6  C   UNL     1     -11.877 -14.102  19.824  1.00  0.00     0.000 C 
BRANCH   6   7
ATOM      7  C   UNL     1     -12.935 -13.684  20.851  1.00  0.00    -0.003 C 
ATOM      8  C   UNL     1     -12.656 -14.306  22.215  1.00  0.00     0.004 C 
ENDBRANCH   6   7
ENDBRANCH   1   6
TORSDOF 4
ENDMDL
MODEL 3
REMARK VINA RESULT:    -3.712      1.379      1.400
REMARK INTER + INTRA:          -4.738
REMARK INTER:                  -4.559
REMARK INTRA:                  -0.178
REMARK UNBOUND:                -0.158
REMARK SMILES CCCCCC(=O)[O-]
REMARK SMILES IDX 4 1 5 2 6 3 7 4 8 5 3 6 2 7 1 8
REMARK H PARENT
REMARK Flexibility Score: inf
ROOT
ATOM      1  C   UNL     1     -11.797 -13.647  19.769  1.00  0.00     0.006 C 
ENDROOT
BRANCH   1   2
ATOM      2  C   UNL     1     -13.190 -13.769  19.134  1.00  0.00     0.053 C 
BRANCH   2   3
ATOM      3  C   UNL     1     -14.128 -12.724  19.653  1.00  0.00     0.041 C 
ATOM      4  O   UNL     1     -14.665 -11.904  18.863  1.00  0.00    -0.550 OA
ATOM      5  O   UNL     1     -14.433 -12.675  21.008  1.00  0.00    -0.550 OA
ENDBRANCH   2   3
ENDBRANCH   1   2
BRANCH   1   6
ATOM      6  C   UNL     1     -10.951 -12.549  19.108  1.00  0.00     0.000 C 
BRANCH   6   7
ATOM      7  C   UNL     1     -11.301 -12.405  17.623  1.00  0.00    -0.003 C 
ATOM      8  C   UNL     1     -11.600 -10.953  17.265  1.00  0.00     0.004 C 
ENDBRANCH   6   7
ENDBRANCH   1   6
TORSDOF 4
ENDMDL
MODEL 4
REMARK VINA RESULT:    -3.668      1.293      1.463
REMARK INTER + INTRA:          -4.684
REMARK INTER:                  -4.549
REMARK INTRA:                  -0.135
REMARK UNBOUND:                -0.158
REMARK SMILES CCCCCC(=O)[O-]
REMARK SMILES IDX 4 1 5 2 6 3 7 4 8 5 3 6 2 7 1 8
REMARK H PARENT
REMARK Flexibility Score: inf
ROOT
ATOM      1  C   UNL     1     -11.397 -13.187  19.245  1.00  0.00     0.006 C 
ENDROOT
BRANCH   1   2
ATOM      2  C   UNL     1     -12.888 -13.167  19.610  1.00  0.00     0.053 C 
BRANCH   2   3
ATOM      3  C   UNL     1     -13.441 -14.551  19.753  1.00  0.00     0.041 C 
ATOM      4  O   UNL     1     -14.489 -14.750  20.422  1.00  0.00    -0.550 OA
ATOM      5  O   UNL     1     -12.815 -15.619  19.122  1.00  0.00    -0.550 OA
ENDBRANCH   2   3
ENDBRANCH   1   2
BRANCH   1   6
ATOM      6  C   UNL     1     -11.119 -12.507  17.896  1.00  0.00     0.000 C 
BRANCH   6   7
ATOM      7  C   UNL     1     -12.118 -11.373  17.637  1.00  0.00    -0.003 C 
ATOM      8  C   UNL     1     -11.454 -10.208  16.910  1.00  0.00     0.004 C 
ENDBRANCH   6   7
ENDBRANCH   1   6
TORSDOF 4
ENDMDL
MODEL 5
REMARK VINA RESULT:    -3.641      1.712      1.849
REMARK INTER + INTRA:          -4.651
REMARK INTER:                  -4.534
REMARK INTRA:                  -0.117
REMARK UNBOUND:                -0.158
REMARK SMILES CCCCCC(=O)[O-]
REMARK SMILES IDX 4 1 5 2 6 3 7 4 8 5 3 6 2 7 1 8
REMARK H PARENT
REMARK Flexibility Score: inf
ROOT
ATOM      1  C   UNL     1     -12.185 -13.602  20.081  1.00  0.00     0.006 C 
ENDROOT
BRANCH   1   2
ATOM      2  C   UNL     1     -13.186 -14.367  19.204  1.00  0.00     0.053 C 
BRANCH   2   3
ATOM      3  C   UNL     1     -13.398 -15.765  19.697  1.00  0.00     0.041 C 
ATOM      4  O   UNL     1     -13.669 -15.977  20.908  1.00  0.00    -0.550 OA
ATOM      5  O   UNL     1     -13.326 -16.833  18.811  1.00  0.00    -0.550 OA
ENDBRANCH   2   3
ENDBRANCH   1   2
BRANCH   1   6
ATOM      6  C   UNL     1     -11.039 -12.992  19.261  1.00  0.00     0.000 C 
BRANCH   6   7
ATOM      7  C   UNL     1     -11.468 -12.758  17.808  1.00  0.00    -0.003 C 
ATOM      8  C   UNL     1     -11.877 -11.307  17.580  1.00  0.00     0.004 C 
ENDBRANCH   6   7
ENDBRANCH   1   6
TORSDOF 4
ENDMDL
MODEL 6
REMARK VINA RESULT:    -3.449      1.651      2.320
REMARK INTER + INTRA:          -4.414
REMARK INTER:                  -4.244
REMARK INTRA:                  -0.170
REMARK UNBOUND:                -0.158
REMARK SMILES CCCCCC(=O)[O-]
REMARK SMILES IDX 4 1 5 2 6 3 7 4 8 5 3 6 2 7 1 8
REMARK H PARENT
REMARK Flexibility Score: inf
ROOT
ATOM      1  C   UNL     1     -13.526 -12.915  19.645  1.00  0.00     0.006 C 
ENDROOT
BRANCH   1   2
ATOM      2  C   UNL     1     -14.295 -14.206  19.330  1.00  0.00     0.053 C 
BRANCH   2   3
ATOM      3  C   UNL     1     -13.578 -15.416  19.844  1.00  0.00     0.041 C 
ATOM      4  O   UNL     1     -12.982 -16.187  19.047  1.00  0.00    -0.550 OA
ATOM      5  O   UNL     1     -13.541 -15.675  21.209  1.00  0.00    -0.550 OA
ENDBRANCH   2   3
ENDBRANCH   1   2
BRANCH   1   6
ATOM      6  C   UNL     1     -13.155 -12.134  18.375  1.00  0.00     0.000 C 
BRANCH   6   7
ATOM      7  C   UNL     1     -11.666 -12.292  18.049  1.00  0.00    -0.003 C 
ATOM      8  C   UNL     1     -10.894 -12.843  19.244  1.00  0.00     0.004 C 
ENDBRANCH   6   7
ENDBRANCH   1   6
TORSDOF 4
ENDMDL
MODEL 7
REMARK VINA RESULT:    -3.411      2.527      3.985
REMARK INTER + INTRA:          -4.367
REMARK INTER:                  -4.230
REMARK INTRA:                  -0.137
REMARK UNBOUND:                -0.158
REMARK SMILES CCCCCC(=O)[O-]
REMARK SMILES IDX 4 1 5 2 6 3 7 4 8 5 3 6 2 7 1 8
REMARK H PARENT
REMARK Flexibility Score: inf
ROOT
ATOM      1  C   UNL     1     -13.477 -13.371  19.966  1.00  0.00     0.006 C 
ENDROOT
BRANCH   1   2
ATOM      2  C   UNL     1     -13.391 -12.447  18.743  1.00  0.00     0.053 C 
BRANCH   2   3
ATOM      3  C   UNL     1     -11.971 -12.118  18.397  1.00  0.00     0.041 C 
ATOM      4  O   UNL     1     -11.715 -11.309  17.467  1.00  0.00    -0.550 OA
ATOM      5  O   UNL     1     -10.929 -12.682  19.124  1.00  0.00    -0.550 OA
ENDBRANCH   2   3
ENDBRANCH   1   2
BRANCH   1   6
ATOM      6  C   UNL     1     -14.441 -12.834  21.034  1.00  0.00     0.000 C 
BRANCH   6   7
ATOM      7  C   UNL     1     -13.952 -13.188  22.443  1.00  0.00    -0.003 C 
ATOM      8  C   UNL     1     -12.621 -13.930  22.395  1.00  0.00     0.004 C 
ENDBRANCH   6   7
ENDBRANCH   1   6
TORSDOF 4
ENDMDL
MODEL 8
REMARK VINA RESULT:    -3.250     20.525     21.758
REMARK INTER + INTRA:          -4.168
REMARK INTER:                  -3.961
REMARK INTRA:                  -0.207
REMARK UNBOUND:                -0.158
REMARK SMILES CCCCCC(=O)[O-]
REMARK SMILES IDX 4 1 5 2 6 3 7 4 8 5 3 6 2 7 1 8
REMARK H PARENT
REMARK Flexibility Score: inf
ROOT
ATOM      1  C   UNL     1       3.996  -3.459  10.209  1.00  0.00     0.006 C 
ENDROOT
BRANCH   1   2
ATOM      2  C   UNL     1       4.844  -2.183  10.123  1.00  0.00     0.053 C 
BRANCH   2   3
ATOM      3  C   UNL     1       4.341  -1.120  11.051  1.00  0.00     0.041 C 
ATOM      4  O   UNL     1       4.081   0.032  10.615  1.00  0.00    -0.550 OA
ATOM      5  O   UNL     1       4.130  -1.412  12.393  1.00  0.00    -0.550 OA
ENDBRANCH   2   3
ENDBRANCH   1   2
BRANCH   1   6
ATOM      6  C   UNL     1       4.737  -4.605  10.913  1.00  0.00     0.000 C 
BRANCH   6   7
ATOM      7  C   UNL     1       4.083  -4.935  12.261  1.00  0.00    -0.003 C 
ATOM      8  C   UNL     1       5.032  -4.647  13.419  1.00  0.00     0.004 C 
ENDBRANCH   6   7
ENDBRANCH   1   6
TORSDOF 4
ENDMDL
MODEL 9
REMARK VINA RESULT:    -2.884      2.156      2.651
REMARK INTER + INTRA:          -3.716
REMARK INTER:                  -3.530
REMARK INTRA:                  -0.186
REMARK UNBOUND:                -0.158
REMARK SMILES CCCCCC(=O)[O-]
REMARK SMILES IDX 4 1 5 2 6 3 7 4 8 5 3 6 2 7 1 8
REMARK H PARENT
REMARK Flexibility Score: inf
ROOT
ATOM      1  C   UNL     1     -13.772 -12.785  18.749  1.00  0.00     0.006 C 
ENDROOT
BRANCH   1   2
ATOM      2  C   UNL     1     -14.892 -12.090  19.535  1.00  0.00     0.053 C 
BRANCH   2   3
ATOM      3  C   UNL     1     -14.730 -12.278  21.013  1.00  0.00     0.041 C 
ATOM      4  O   UNL     1     -15.125 -11.389  21.813  1.00  0.00    -0.550 OA
ATOM      5  O   UNL     1     -14.171 -13.450  21.507  1.00  0.00    -0.550 OA
ENDBRANCH   2   3
ENDBRANCH   1   2
BRANCH   1   6
ATOM      6  C   UNL     1     -12.818 -11.781  18.086  1.00  0.00     0.000 C 
BRANCH   6   7
ATOM      7  C   UNL     1     -11.355 -12.160  18.346  1.00  0.00    -0.003 C 
ATOM      8  C   UNL     1     -11.246 -13.234  19.423  1.00  0.00     0.004 C 
ENDBRANCH   6   7
ENDBRANCH   1   6
TORSDOF 4
ENDMDL
