MODEL 1
REMARK VINA RESULT:    -0.298      0.000      0.000
REMARK INTER + INTRA:          -0.307
REMARK INTER:                  -0.307
REMARK INTRA:                   0.000
REMARK UNBOUND:                 0.000
REMARK SMILES Oc1ccc2[nH]ccc2c1
REMARK SMILES IDX 3 1 4 2 5 3 9 4 8 5 7 6 6 7 10 8 2 9 1 11
REMARK H PARENT 6 10 1 12
REMARK Flexibility Score: inf
ROOT
ATOM      1  C   UNL     1      64.464  30.080  39.139  1.00  0.00     0.048 A 
ATOM      2  C   UNL     1      65.735  30.079  39.746  1.00  0.00     0.030 A 
ATOM      3  C   UNL     1      66.853  30.088  38.914  1.00  0.00     0.046 A 
ATOM      4  C   UNL     1      66.734  30.097  37.549  1.00  0.00     0.003 A 
ATOM      5  C   UNL     1      68.009  30.104  37.026  1.00  0.00     0.028 A 
ATOM      6  C   UNL     1      68.855  30.099  38.130  1.00  0.00     0.083 A 
ATOM      7  N   UNL     1      68.144  30.090  39.281  1.00  0.00    -0.361 N 
ATOM      8  C   UNL     1      65.494  30.097  36.917  1.00  0.00     0.056 A 
ATOM      9  C   UNL     1      64.341  30.089  37.727  1.00  0.00     0.116 A 
ATOM     10  H   UNL     1      68.525  30.084  40.253  1.00  0.00     0.166 HD
ENDROOT
BRANCH   9  11
ATOM     11  O   UNL     1      63.084  30.089  37.128  1.00  0.00    -0.508 OA
ATOM     12  H   UNL     1      62.980  30.114  36.120  1.00  0.00     0.293 HD
ENDBRANCH   9  11
TORSDOF 1
ENDMDL
MODEL 2
REMARK VINA RESULT:    -0.255      2.859      3.935
REMARK INTER + INTRA:          -0.263
REMARK INTER:                  -0.263
REMARK INTRA:                   0.000
REMARK UNBOUND:                 0.000
REMARK SMILES Oc1ccc2[nH]ccc2c1
REMARK SMILES IDX 3 1 4 2 5 3 9 4 8 5 7 6 6 7 10 8 2 9 1 11
REMARK H PARENT 6 10 1 12
REMARK Flexibility Score: inf
ROOT
ATOM      1  C   UNL     1      68.557  31.834  38.518  1.00  0.00     0.048 A 
ATOM      2  C   UNL     1      67.328  32.520  38.557  1.00  0.00     0.030 A 
ATOM      3  C   UNL     1      66.224  31.912  37.963  1.00  0.00     0.046 A 
ATOM      4  C   UNL     1      66.317  30.687  37.357  1.00  0.00     0.003 A 
ATOM      5  C   UNL     1      65.065  30.371  36.876  1.00  0.00     0.028 A 
ATOM      6  C   UNL     1      64.258  31.450  37.224  1.00  0.00     0.083 A 
ATOM      7  N   UNL     1      64.971  32.388  37.888  1.00  0.00    -0.361 N 
ATOM      8  C   UNL     1      67.516  29.981  37.301  1.00  0.00     0.056 A 
ATOM      9  C   UNL     1      68.654  30.566  37.892  1.00  0.00     0.116 A 
ATOM     10  H   UNL     1      64.616  33.296  38.264  1.00  0.00     0.166 HD
ENDROOT
BRANCH   9  11
ATOM     11  O   UNL     1      69.869  29.887  37.853  1.00  0.00    -0.508 OA
ATOM     12  H   UNL     1      70.599  30.149  37.200  1.00  0.00     0.293 HD
ENDBRANCH   9  11
TORSDOF 1
ENDMDL
MODEL 3
REMARK VINA RESULT:    -0.234      2.079      2.644
REMARK INTER + INTRA:          -0.241
REMARK INTER:                  -0.241
REMARK INTRA:                   0.000
REMARK UNBOUND:                 0.000
REMARK SMILES Oc1ccc2[nH]ccc2c1
REMARK SMILES IDX 3 1 4 2 5 3 9 4 8 5 7 6 6 7 10 8 2 9 1 11
REMARK H PARENT 6 10 1 12
REMARK Flexibility Score: inf
ROOT
ATOM      1  C   UNL     1      64.759  32.653  40.032  1.00  0.00     0.048 A 
ATOM      2  C   UNL     1      65.989  32.235  39.488  1.00  0.00     0.030 A 
ATOM      3  C   UNL     1      65.958  31.305  38.450  1.00  0.00     0.046 A 
ATOM      4  C   UNL     1      64.778  30.806  37.965  1.00  0.00     0.003 A 
ATOM      5  C   UNL     1      65.090  29.921  36.956  1.00  0.00     0.028 A 
ATOM      6  C   UNL     1      66.479  29.931  36.880  1.00  0.00     0.083 A 
ATOM      7  N   UNL     1      67.005  30.778  37.795  1.00  0.00    -0.361 N 
ATOM      8  C   UNL     1      63.546  31.198  38.481  1.00  0.00     0.056 A 
ATOM      9  C   UNL     1      63.538  32.137  39.531  1.00  0.00     0.116 A 
ATOM     10  H   UNL     1      68.018  30.978  37.955  1.00  0.00     0.166 HD
ENDROOT
BRANCH   9  11
ATOM     11  O   UNL     1      62.322  32.550  40.070  1.00  0.00    -0.508 OA
ATOM     12  H   UNL     1      62.278  33.049  40.951  1.00  0.00     0.293 HD
ENDBRANCH   9  11
TORSDOF 1
ENDMDL
MODEL 4
REMARK VINA RESULT:    -0.227      2.949      3.708
REMARK INTER + INTRA:          -0.233
REMARK INTER:                  -0.233
REMARK INTRA:                   0.000
REMARK UNBOUND:                 0.000
REMARK SMILES Oc1ccc2[nH]ccc2c1
REMARK SMILES IDX 3 1 4 2 5 3 9 4 8 5 7 6 6 7 10 8 2 9 1 11
REMARK H PARENT 6 10 1 12
REMARK Flexibility Score: inf
ROOT
ATOM      1  C   UNL     1      66.621  32.334  40.249  1.00  0.00     0.048 A 
ATOM      2  C   UNL     1      65.358  32.158  39.651  1.00  0.00     0.030 A 
ATOM      3  C   UNL     1      65.271  31.299  38.557  1.00  0.00     0.046 A 
ATOM      4  C   UNL     1      66.369  30.643  38.068  1.00  0.00     0.003 A 
ATOM      5  C   UNL     1      65.951  29.883  36.997  1.00  0.00     0.028 A 
ATOM      6  C   UNL     1      64.585  30.126  36.891  1.00  0.00     0.083 A 
ATOM      7  N   UNL     1      64.175  30.991  37.846  1.00  0.00    -0.361 N 
ATOM      8  C   UNL     1      67.632  30.795  38.635  1.00  0.00     0.056 A 
ATOM      9  C   UNL     1      67.757  31.655  39.744  1.00  0.00     0.116 A 
ATOM     10  H   UNL     1      63.203  31.345  37.995  1.00  0.00     0.166 HD
ENDROOT
BRANCH   9  11
ATOM     11  O   UNL     1      69.006  31.830  40.335  1.00  0.00    -0.508 OA
ATOM     12  H   UNL     1      69.705  32.437  39.923  1.00  0.00     0.293 HD
ENDBRANCH   9  11
TORSDOF 1
ENDMDL
MODEL 5
REMARK VINA RESULT:    -0.224      2.880      4.073
REMARK INTER + INTRA:          -0.231
REMARK INTER:                  -0.231
REMARK INTRA:                   0.000
REMARK UNBOUND:                 0.000
REMARK SMILES Oc1ccc2[nH]ccc2c1
REMARK SMILES IDX 3 1 4 2 5 3 9 4 8 5 7 6 6 7 10 8 2 9 1 11
REMARK H PARENT 6 10 1 12
REMARK Flexibility Score: inf
ROOT
ATOM      1  C   UNL     1      67.541  30.941  37.577  1.00  0.00     0.048 A 
ATOM      2  C   UNL     1      66.455  30.056  37.721  1.00  0.00     0.030 A 
ATOM      3  C   UNL     1      65.177  30.545  37.452  1.00  0.00     0.046 A 
ATOM      4  C   UNL     1      64.971  31.841  37.059  1.00  0.00     0.003 A 
ATOM      5  C   UNL     1      63.615  32.004  36.876  1.00  0.00     0.028 A 
ATOM      6  C   UNL     1      63.056  30.766  37.175  1.00  0.00     0.083 A 
ATOM      7  N   UNL     1      64.015  29.878  37.526  1.00  0.00    -0.361 N 
ATOM      8  C   UNL     1      66.022  32.741  36.907  1.00  0.00     0.056 A 
ATOM      9  C   UNL     1      67.328  32.281  37.171  1.00  0.00     0.116 A 
ATOM     10  H   UNL     1      63.875  28.879  37.799  1.00  0.00     0.166 HD
ENDROOT
BRANCH   9  11
ATOM     11  O   UNL     1      68.403  33.156  37.028  1.00  0.00    -0.508 OA
ATOM     12  H   UNL     1      68.307  34.146  37.223  1.00  0.00     0.293 HD
ENDBRANCH   9  11
TORSDOF 1
ENDMDL
MODEL 6
REMARK VINA RESULT:    -0.220      2.962      4.028
REMARK INTER + INTRA:          -0.226
REMARK INTER:                  -0.226
REMARK INTRA:                   0.000
REMARK UNBOUND:                 0.000
REMARK SMILES Oc1ccc2[nH]ccc2c1
REMARK SMILES IDX 3 1 4 2 5 3 9 4 8 5 7 6 6 7 10 8 2 9 1 11
REMARK H PARENT 6 10 1 12
REMARK Flexibility Score: inf
ROOT
ATOM      1  C   UNL     1      66.310  32.592  39.036  1.00  0.00     0.048 A 
ATOM      2  C   UNL     1      64.904  32.642  39.104  1.00  0.00     0.030 A 
ATOM      3  C   UNL     1      64.182  31.743  38.322  1.00  0.00     0.046 A 
ATOM      4  C   UNL     1      64.806  30.834  37.509  1.00  0.00     0.003 A 
ATOM      5  C   UNL     1      63.823  30.102  36.880  1.00  0.00     0.028 A 
ATOM      6  C   UNL     1      62.623  30.620  37.358  1.00  0.00     0.083 A 
ATOM      7  N   UNL     1      62.848  31.622  38.238  1.00  0.00    -0.361 N 
ATOM      8  C   UNL     1      66.193  30.757  37.418  1.00  0.00     0.056 A 
ATOM      9  C   UNL     1      66.956  31.652  38.195  1.00  0.00     0.116 A 
ATOM     10  H   UNL     1      62.128  32.183  38.746  1.00  0.00     0.166 HD
ENDROOT
BRANCH   9  11
ATOM     11  O   UNL     1      68.346  31.602  38.128  1.00  0.00    -0.508 OA
ATOM     12  H   UNL     1      68.824  31.343  37.272  1.00  0.00     0.293 HD
ENDBRANCH   9  11
TORSDOF 1
ENDMDL
MODEL 7
REMARK VINA RESULT:    -0.179      2.848      3.223
REMARK INTER + INTRA:          -0.184
REMARK INTER:                  -0.184
REMARK INTRA:                   0.000
REMARK UNBOUND:                 0.000
REMARK SMILES Oc1ccc2[nH]ccc2c1
REMARK SMILES IDX 3 1 4 2 5 3 9 4 8 5 7 6 6 7 10 8 2 9 1 11
REMARK H PARENT 6 10 1 12
REMARK Flexibility Score: inf
ROOT
ATOM      1  C   UNL     1      66.705  34.123  38.065  1.00  0.00     0.048 A 
ATOM      2  C   UNL     1      67.770  33.310  37.631  1.00  0.00     0.030 A 
ATOM      3  C   UNL     1      67.502  31.964  37.385  1.00  0.00     0.046 A 
ATOM      4  C   UNL     1      66.249  31.437  37.557  1.00  0.00     0.003 A 
ATOM      5  C   UNL     1      66.319  30.099  37.235  1.00  0.00     0.028 A 
ATOM      6  C   UNL     1      67.645  29.880  36.876  1.00  0.00     0.083 A 
ATOM      7  N   UNL     1      68.364  31.023  36.969  1.00  0.00    -0.361 N 
ATOM      8  C   UNL     1      65.175  32.212  37.985  1.00  0.00     0.056 A 
ATOM      9  C   UNL     1      65.409  33.578  38.243  1.00  0.00     0.116 A 
ATOM     10  H   UNL     1      69.380  31.143  36.760  1.00  0.00     0.166 HD
ENDROOT
BRANCH   9  11
ATOM     11  O   UNL     1      64.357  34.383  38.672  1.00  0.00    -0.508 OA
ATOM     12  H   UNL     1      63.570  34.589  38.068  1.00  0.00     0.293 HD
ENDBRANCH   9  11
TORSDOF 1
ENDMDL
MODEL 8
REMARK VINA RESULT:    -0.149     27.518     28.398
REMARK INTER + INTRA:          -0.154
REMARK INTER:                  -0.154
REMARK INTRA:                   0.000
REMARK UNBOUND:                 0.000
REMARK SMILES Oc1ccc2[nH]ccc2c1
REMARK SMILES IDX 3 1 4 2 5 3 9 4 8 5 7 6 6 7 10 8 2 9 1 11
REMARK H PARENT 6 10 1 12
REMARK Flexibility Score: inf
ROOT
ATOM      1  C   UNL     1      77.951  47.943  55.313  1.00  0.00     0.048 A 
ATOM      2  C   UNL     1      78.716  48.758  56.169  1.00  0.00     0.030 A 
ATOM      3  C   UNL     1      80.062  48.439  56.339  1.00  0.00     0.046 A 
ATOM      4  C   UNL     1      80.634  47.370  55.702  1.00  0.00     0.003 A 
ATOM      5  C   UNL     1      81.959  47.328  56.078  1.00  0.00     0.028 A 
ATOM      6  C   UNL     1      82.125  48.402  56.946  1.00  0.00     0.083 A 
ATOM      7  N   UNL     1      80.963  49.078  57.103  1.00  0.00    -0.361 N 
ATOM      8  C   UNL     1      79.906  46.544  54.850  1.00  0.00     0.056 A 
ATOM      9  C   UNL     1      78.542  46.837  54.653  1.00  0.00     0.116 A 
ATOM     10  H   UNL     1      80.804  49.922  57.696  1.00  0.00     0.166 HD
ENDROOT
BRANCH   9  11
ATOM     11  O   UNL     1      77.784  46.031  53.807  1.00  0.00    -0.508 OA
ATOM     12  H   UNL     1      78.215  45.315  53.235  1.00  0.00     0.293 HD
ENDBRANCH   9  11
TORSDOF 1
ENDMDL
MODEL 9
REMARK VINA RESULT:    -0.145      3.326      3.935
REMARK INTER + INTRA:          -0.149
REMARK INTER:                  -0.149
REMARK INTRA:                   0.000
REMARK UNBOUND:                 0.000
REMARK SMILES Oc1ccc2[nH]ccc2c1
REMARK SMILES IDX 3 1 4 2 5 3 9 4 8 5 7 6 6 7 10 8 2 9 1 11
REMARK H PARENT 6 10 1 12
REMARK Flexibility Score: inf
ROOT
ATOM      1  C   UNL     1      64.470  32.908  40.520  1.00  0.00     0.048 A 
ATOM      2  C   UNL     1      63.799  31.710  40.207  1.00  0.00     0.030 A 
ATOM      3  C   UNL     1      63.999  31.166  38.939  1.00  0.00     0.046 A 
ATOM      4  C   UNL     1      64.817  31.765  38.019  1.00  0.00     0.003 A 
ATOM      5  C   UNL     1      64.799  30.986  36.883  1.00  0.00     0.028 A 
ATOM      6  C   UNL     1      63.948  29.927  37.182  1.00  0.00     0.083 A 
ATOM      7  N   UNL     1      63.461  30.041  38.440  1.00  0.00    -0.361 N 
ATOM      8  C   UNL     1      65.495  32.950  38.296  1.00  0.00     0.056 A 
ATOM      9  C   UNL     1      65.317  33.529  39.569  1.00  0.00     0.116 A 
ATOM     10  H   UNL     1      62.803  29.387  38.919  1.00  0.00     0.166 HD
ENDROOT
BRANCH   9  11
ATOM     11  O   UNL     1      65.980  34.714  39.879  1.00  0.00    -0.508 OA
ATOM     12  H   UNL     1      66.023  35.061  40.831  1.00  0.00     0.293 HD
ENDBRANCH   9  11
TORSDOF 1
ENDMDL
