MODEL 1
REMARK VINA RESULT:    -2.769      0.000      0.000
REMARK INTER + INTRA:         -10.190
REMARK INTER:                  -6.006
REMARK INTRA:                  -4.183
REMARK UNBOUND:                -4.183
REMARK SMILES CCCCCCCCCCCCCCCCCCCCCC(=O)[O-]
REMARK SMILES IDX 12 1 11 2 10 3 9 4 8 5 7 6 6 7 5 8 4 9 3 10 2 11 1 12 13 13
REMARK SMILES IDX 14 14 15 15 16 16 17 17 18 18 19 19 20 20 21 21 22 22 23 23
REMARK SMILES IDX 24 24
REMARK H PARENT
REMARK Flexibility Score: inf
ROOT
ATOM      1  C   UNL     1    -103.433 -29.794 -12.538  1.00  0.00     0.000 C 
ENDROOT
BRANCH   1   2
ATOM      2  C   UNL     1    -102.826 -29.212 -11.254  1.00  0.00     0.000 C 
BRANCH   2   3
ATOM      3  C   UNL     1    -101.725 -28.172 -11.529  1.00  0.00     0.000 C 
BRANCH   3   4
ATOM      4  C   UNL     1    -101.784 -27.506 -12.919  1.00  0.00    -0.000 C 
BRANCH   4   5
ATOM      5  C   UNL     1    -100.538 -27.713 -13.798  1.00  0.00    -0.000 C 
BRANCH   5   6
ATOM      6  C   UNL     1     -99.985 -29.147 -13.724  1.00  0.00    -0.000 C 
BRANCH   6   7
ATOM      7  C   UNL     1    -100.492 -30.028 -14.885  1.00  0.00    -0.000 C 
BRANCH   7   8
ATOM      8  C   UNL     1    -101.163 -29.236 -16.023  1.00  0.00    -0.000 C 
BRANCH   8   9
ATOM      9  C   UNL     1    -102.660 -29.528 -16.225  1.00  0.00    -0.000 C 
BRANCH   9  10
ATOM     10  C   UNL     1    -103.583 -28.298 -16.123  1.00  0.00    -0.000 C 
BRANCH  10  11
ATOM     11  C   UNL     1    -102.895 -26.970 -16.505  1.00  0.00    -0.003 C 
ATOM     12  C   UNL     1    -103.826 -25.767 -16.361  1.00  0.00     0.004 C 
ENDBRANCH  10  11
ENDBRANCH   9  10
ENDBRANCH   8   9
ENDBRANCH   7   8
ENDBRANCH   6   7
ENDBRANCH   5   6
ENDBRANCH   4   5
ENDBRANCH   3   4
ENDBRANCH   2   3
ENDBRANCH   1   2
BRANCH   1  13
ATOM     13  C   UNL     1    -103.108 -31.289 -12.673  1.00  0.00     0.000 C 
BRANCH  13  14
ATOM     14  C   UNL     1    -102.102 -31.782 -11.617  1.00  0.00     0.000 C 
BRANCH  14  15
ATOM     15  C   UNL     1    -100.903 -32.565 -12.182  1.00  0.00     0.000 C 
BRANCH  15  16
ATOM     16  C   UNL     1     -99.555 -32.079 -11.621  1.00  0.00     0.000 C 
BRANCH  16  17
ATOM     17  C   UNL     1     -99.733 -31.087 -10.460  1.00  0.00     0.000 C 
BRANCH  17  18
ATOM     18  C   UNL     1     -98.620 -30.029 -10.422  1.00  0.00     0.000 C 
BRANCH  18  19
ATOM     19  C   UNL     1     -97.240 -30.690 -10.283  1.00  0.00     0.000 C 
BRANCH  19  20
ATOM     20  C   UNL     1     -96.154 -29.973 -11.102  1.00  0.00     0.006 C 
BRANCH  20  21
ATOM     21  C   UNL     1     -96.560 -29.752 -12.566  1.00  0.00     0.053 C 
BRANCH  21  22
ATOM     22  C   UNL     1     -96.304 -30.987 -13.370  1.00  0.00     0.041 C 
ATOM     23  O   UNL     1     -95.245 -31.648 -13.195  1.00  0.00    -0.550 OA
ATOM     24  O   UNL     1     -97.261 -31.446 -14.264  1.00  0.00    -0.550 OA
ENDBRANCH  21  22
ENDBRANCH  20  21
ENDBRANCH  19  20
ENDBRANCH  18  19
ENDBRANCH  17  18
ENDBRANCH  16  17
ENDBRANCH  15  16
ENDBRANCH  14  15
ENDBRANCH  13  14
ENDBRANCH   1  13
TORSDOF 20
ENDMDL
MODEL 2
REMARK VINA RESULT:    -2.767      3.014      5.830
REMARK INTER + INTRA:         -10.185
REMARK INTER:                  -7.113
REMARK INTRA:                  -3.072
REMARK UNBOUND:                -4.183
REMARK SMILES CCCCCCCCCCCCCCCCCCCCCC(=O)[O-]
REMARK SMILES IDX 12 1 11 2 10 3 9 4 8 5 7 6 6 7 5 8 4 9 3 10 2 11 1 12 13 13
REMARK SMILES IDX 14 14 15 15 16 16 17 17 18 18 19 19 20 20 21 21 22 22 23 23
REMARK SMILES IDX 24 24
REMARK H PARENT
REMARK Flexibility Score: inf
ROOT
ATOM      1  C   UNL     1    -102.147 -27.604 -15.751  1.00  0.00     0.000 C 
ENDROOT
BRANCH   1   2
ATOM      2  C   UNL     1    -102.954 -26.919 -16.864  1.00  0.00     0.000 C 
BRANCH   2   3
ATOM      3  C   UNL     1    -103.829 -25.764 -16.345  1.00  0.00     0.000 C 
BRANCH   3   4
ATOM      4  C   UNL     1    -103.839 -25.585 -14.812  1.00  0.00    -0.000 C 
BRANCH   4   5
ATOM      5  C   UNL     1    -104.983 -24.714 -14.263  1.00  0.00    -0.000 C 
BRANCH   5   6
ATOM      6  C   UNL     1    -104.954 -24.585 -12.730  1.00  0.00    -0.000 C 
BRANCH   6   7
ATOM      7  C   UNL     1    -104.628 -23.147 -12.271  1.00  0.00    -0.000 C 
BRANCH   7   8
ATOM      8  C   UNL     1    -104.427 -23.009 -10.750  1.00  0.00    -0.000 C 
BRANCH   8   9
ATOM      9  C   UNL     1    -104.645 -24.301  -9.945  1.00  0.00    -0.000 C 
BRANCH   9  10
ATOM     10  C   UNL     1    -103.362 -24.936  -9.374  1.00  0.00    -0.000 C 
BRANCH  10  11
ATOM     11  C   UNL     1    -103.020 -24.470  -7.942  1.00  0.00    -0.003 C 
ATOM     12  C   UNL     1    -101.934 -23.396  -7.920  1.00  0.00     0.004 C 
ENDBRANCH  10  11
ENDBRANCH   9  10
ENDBRANCH   8   9
ENDBRANCH   7   8
ENDBRANCH   6   7
ENDBRANCH   5   6
ENDBRANCH   4   5
ENDBRANCH   3   4
ENDBRANCH   2   3
ENDBRANCH   1   2
BRANCH   1  13
ATOM     13  C   UNL     1    -101.976 -29.103 -16.039  1.00  0.00     0.000 C 
BRANCH  13  14
ATOM     14  C   UNL     1    -102.706 -29.998 -15.021  1.00  0.00     0.000 C 
BRANCH  14  15
ATOM     15  C   UNL     1    -103.750 -29.271 -14.153  1.00  0.00     0.000 C 
BRANCH  15  16
ATOM     16  C   UNL     1    -103.433 -29.345 -12.650  1.00  0.00     0.000 C 
BRANCH  16  17
ATOM     17  C   UNL     1    -103.389 -27.955 -11.996  1.00  0.00     0.000 C 
BRANCH  17  18
ATOM     18  C   UNL     1    -101.964 -27.382 -11.941  1.00  0.00     0.000 C 
BRANCH  18  19
ATOM     19  C   UNL     1    -100.918 -28.506 -11.984  1.00  0.00     0.000 C 
BRANCH  19  20
ATOM     20  C   UNL     1     -99.858 -28.287 -13.075  1.00  0.00     0.006 C 
BRANCH  20  21
ATOM     21  C   UNL     1     -98.747 -29.346 -13.049  1.00  0.00     0.053 C 
BRANCH  21  22
ATOM     22  C   UNL     1     -99.159 -30.553 -13.829  1.00  0.00     0.041 C 
ATOM     23  O   UNL     1     -98.884 -30.640 -15.056  1.00  0.00    -0.550 OA
ATOM     24  O   UNL     1     -99.789 -31.612 -13.189  1.00  0.00    -0.550 OA
ENDBRANCH  21  22
ENDBRANCH  20  21
ENDBRANCH  19  20
ENDBRANCH  18  19
ENDBRANCH  17  18
ENDBRANCH  16  17
ENDBRANCH  15  16
ENDBRANCH  14  15
ENDBRANCH  13  14
ENDBRANCH   1  13
TORSDOF 20
ENDMDL
MODEL 3
REMARK VINA RESULT:    -2.753      2.256      4.181
REMARK INTER + INTRA:         -10.156
REMARK INTER:                  -6.944
REMARK INTRA:                  -3.212
REMARK UNBOUND:                -4.183
REMARK SMILES CCCCCCCCCCCCCCCCCCCCCC(=O)[O-]
REMARK SMILES IDX 12 1 11 2 10 3 9 4 8 5 7 6 6 7 5 8 4 9 3 10 2 11 1 12 13 13
REMARK SMILES IDX 14 14 15 15 16 16 17 17 18 18 19 19 20 20 21 21 22 22 23 23
REMARK SMILES IDX 24 24
REMARK H PARENT
REMARK Flexibility Score: inf
ROOT
ATOM      1  C   UNL     1    -104.882 -28.523 -13.580  1.00  0.00     0.000 C 
ENDROOT
BRANCH   1   2
ATOM      2  C   UNL     1    -104.345 -29.827 -14.188  1.00  0.00     0.000 C 
BRANCH   2   3
ATOM      3  C   UNL     1    -103.888 -29.664 -15.649  1.00  0.00     0.000 C 
BRANCH   3   4
ATOM      4  C   UNL     1    -102.390 -29.349 -15.836  1.00  0.00    -0.000 C 
BRANCH   4   5
ATOM      5  C   UNL     1    -102.085 -28.079 -16.651  1.00  0.00    -0.000 C 
BRANCH   5   6
ATOM      6  C   UNL     1    -102.688 -26.809 -16.026  1.00  0.00    -0.000 C 
BRANCH   6   7
ATOM      7  C   UNL     1    -103.876 -26.261 -16.846  1.00  0.00    -0.000 C 
BRANCH   7   8
ATOM      8  C   UNL     1    -104.835 -25.369 -16.035  1.00  0.00    -0.000 C 
BRANCH   8   9
ATOM      9  C   UNL     1    -104.224 -24.736 -14.773  1.00  0.00    -0.000 C 
BRANCH   9  10
ATOM     10  C   UNL     1    -105.220 -23.967 -13.884  1.00  0.00    -0.000 C 
BRANCH  10  11
ATOM     11  C   UNL     1    -104.735 -23.770 -12.431  1.00  0.00    -0.003 C 
ATOM     12  C   UNL     1    -105.453 -24.691 -11.446  1.00  0.00     0.004 C 
ENDBRANCH  10  11
ENDBRANCH   9  10
ENDBRANCH   8   9
ENDBRANCH   7   8
ENDBRANCH   6   7
ENDBRANCH   5   6
ENDBRANCH   4   5
ENDBRANCH   3   4
ENDBRANCH   2   3
ENDBRANCH   1   2
BRANCH   1  13
ATOM     13  C   UNL     1    -104.143 -28.179 -12.278  1.00  0.00     0.000 C 
BRANCH  13  14
ATOM     14  C   UNL     1    -102.958 -27.220 -12.496  1.00  0.00     0.000 C 
BRANCH  14  15
ATOM     15  C   UNL     1    -101.653 -27.634 -11.791  1.00  0.00     0.000 C 
BRANCH  15  16
ATOM     16  C   UNL     1    -101.137 -29.009 -12.250  1.00  0.00     0.000 C 
BRANCH  16  17
ATOM     17  C   UNL     1     -99.958 -28.889 -13.229  1.00  0.00     0.000 C 
BRANCH  17  18
ATOM     18  C   UNL     1     -99.568 -30.243 -13.841  1.00  0.00     0.000 C 
BRANCH  18  19
ATOM     19  C   UNL     1     -98.052 -30.470 -13.751  1.00  0.00     0.000 C 
BRANCH  19  20
ATOM     20  C   UNL     1     -97.358 -29.475 -12.806  1.00  0.00     0.006 C 
BRANCH  20  21
ATOM     21  C   UNL     1     -96.409 -30.158 -11.813  1.00  0.00     0.053 C 
BRANCH  21  22
ATOM     22  C   UNL     1     -97.054 -30.268 -10.467  1.00  0.00     0.041 C 
ATOM     23  O   UNL     1     -98.242 -29.883 -10.301  1.00  0.00    -0.550 OA
ATOM     24  O   UNL     1     -96.367 -30.855  -9.413  1.00  0.00    -0.550 OA
ENDBRANCH  21  22
ENDBRANCH  20  21
ENDBRANCH  19  20
ENDBRANCH  18  19
ENDBRANCH  17  18
ENDBRANCH  16  17
ENDBRANCH  15  16
ENDBRANCH  14  15
ENDBRANCH  13  14
ENDBRANCH   1  13
TORSDOF 20
ENDMDL
MODEL 4
REMARK VINA RESULT:    -2.707      4.450      7.521
REMARK INTER + INTRA:         -10.056
REMARK INTER:                  -6.505
REMARK INTRA:                  -3.551
REMARK UNBOUND:                -4.183
REMARK SMILES CCCCCCCCCCCCCCCCCCCCCC(=O)[O-]
REMARK SMILES IDX 12 1 11 2 10 3 9 4 8 5 7 6 6 7 5 8 4 9 3 10 2 11 1 12 13 13
REMARK SMILES IDX 14 14 15 15 16 16 17 17 18 18 19 19 20 20 21 21 22 22 23 23
REMARK SMILES IDX 24 24
REMARK H PARENT
REMARK Flexibility Score: inf
ROOT
ATOM      1  C   UNL     1    -102.340 -27.492 -16.064  1.00  0.00     0.000 C 
ENDROOT
BRANCH   1   2
ATOM      2  C   UNL     1    -101.427 -28.359 -15.184  1.00  0.00     0.000 C 
BRANCH   2   3
ATOM      3  C   UNL     1    -100.888 -27.605 -13.955  1.00  0.00     0.000 C 
BRANCH   3   4
ATOM      4  C   UNL     1    -100.566 -28.488 -12.731  1.00  0.00    -0.000 C 
BRANCH   4   5
ATOM      5  C   UNL     1    -101.557 -28.368 -11.559  1.00  0.00    -0.000 C 
BRANCH   5   6
ATOM      6  C   UNL     1    -102.385 -27.072 -11.606  1.00  0.00    -0.000 C 
BRANCH   6   7
ATOM      7  C   UNL     1    -103.881 -27.345 -11.872  1.00  0.00    -0.000 C 
BRANCH   7   8
ATOM      8  C   UNL     1    -104.222 -28.837 -12.046  1.00  0.00    -0.000 C 
BRANCH   8   9
ATOM      9  C   UNL     1    -104.597 -29.255 -13.478  1.00  0.00    -0.000 C 
BRANCH   9  10
ATOM     10  C   UNL     1    -105.842 -28.554 -14.056  1.00  0.00    -0.000 C 
BRANCH  10  11
ATOM     11  C   UNL     1    -105.984 -28.698 -15.586  1.00  0.00    -0.003 C 
ATOM     12  C   UNL     1    -106.817 -27.576 -16.205  1.00  0.00     0.004 C 
ENDBRANCH  10  11
ENDBRANCH   9  10
ENDBRANCH   8   9
ENDBRANCH   7   8
ENDBRANCH   6   7
ENDBRANCH   5   6
ENDBRANCH   4   5
ENDBRANCH   3   4
ENDBRANCH   2   3
ENDBRANCH   1   2
BRANCH   1  13
ATOM     13  C   UNL     1    -103.043 -26.411 -15.230  1.00  0.00     0.000 C 
BRANCH  13  14
ATOM     14  C   UNL     1    -103.759 -25.357 -16.094  1.00  0.00     0.000 C 
BRANCH  14  15
ATOM     15  C   UNL     1    -104.482 -24.253 -15.301  1.00  0.00     0.000 C 
BRANCH  15  16
ATOM     16  C   UNL     1    -105.331 -24.808 -14.145  1.00  0.00     0.000 C 
BRANCH  16  17
ATOM     17  C   UNL     1    -105.671 -23.729 -13.104  1.00  0.00     0.000 C 
BRANCH  17  18
ATOM     18  C   UNL     1    -104.718 -23.760 -11.899  1.00  0.00     0.000 C 
BRANCH  18  19
ATOM     19  C   UNL     1    -104.184 -22.354 -11.586  1.00  0.00     0.000 C 
BRANCH  19  20
ATOM     20  C   UNL     1    -104.208 -22.032 -10.083  1.00  0.00     0.006 C 
BRANCH  20  21
ATOM     21  C   UNL     1    -104.472 -23.268  -9.213  1.00  0.00     0.053 C 
BRANCH  21  22
ATOM     22  C   UNL     1    -103.182 -23.852  -8.732  1.00  0.00     0.041 C 
ATOM     23  O   UNL     1    -103.021 -25.102  -8.710  1.00  0.00    -0.550 OA
ATOM     24  O   UNL     1    -102.133 -23.018  -8.370  1.00  0.00    -0.550 OA
ENDBRANCH  21  22
ENDBRANCH  20  21
ENDBRANCH  19  20
ENDBRANCH  18  19
ENDBRANCH  17  18
ENDBRANCH  16  17
ENDBRANCH  15  16
ENDBRANCH  14  15
ENDBRANCH  13  14
ENDBRANCH   1  13
TORSDOF 20
ENDMDL
MODEL 5
REMARK VINA RESULT:    -2.685      2.199      5.120
REMARK INTER + INTRA:         -10.007
REMARK INTER:                  -6.476
REMARK INTRA:                  -3.531
REMARK UNBOUND:                -4.183
REMARK SMILES CCCCCCCCCCCCCCCCCCCCCC(=O)[O-]
REMARK SMILES IDX 12 1 11 2 10 3 9 4 8 5 7 6 6 7 5 8 4 9 3 10 2 11 1 12 13 13
REMARK SMILES IDX 14 14 15 15 16 16 17 17 18 18 19 19 20 20 21 21 22 22 23 23
REMARK SMILES IDX 24 24
REMARK H PARENT
REMARK Flexibility Score: inf
ROOT
ATOM      1  C   UNL     1    -103.486 -30.793 -14.611  1.00  0.00     0.000 C 
ENDROOT
BRANCH   1   2
ATOM      2  C   UNL     1    -104.569 -29.900 -13.990  1.00  0.00     0.000 C 
BRANCH   2   3
ATOM      3  C   UNL     1    -105.451 -29.206 -15.043  1.00  0.00     0.000 C 
BRANCH   3   4
ATOM      4  C   UNL     1    -105.614 -27.683 -14.862  1.00  0.00    -0.000 C 
BRANCH   4   5
ATOM      5  C   UNL     1    -106.109 -26.925 -16.107  1.00  0.00    -0.000 C 
BRANCH   5   6
ATOM      6  C   UNL     1    -105.060 -25.951 -16.671  1.00  0.00    -0.000 C 
BRANCH   6   7
ATOM      7  C   UNL     1    -105.064 -24.595 -15.932  1.00  0.00    -0.000 C 
BRANCH   7   8
ATOM      8  C   UNL     1    -104.351 -24.628 -14.567  1.00  0.00    -0.000 C 
BRANCH   8   9
ATOM      9  C   UNL     1    -105.008 -23.773 -13.469  1.00  0.00    -0.000 C 
BRANCH   9  10
ATOM     10  C   UNL     1    -104.685 -24.207 -12.026  1.00  0.00    -0.000 C 
BRANCH  10  11
ATOM     11  C   UNL     1    -104.244 -25.682 -11.903  1.00  0.00    -0.003 C 
ATOM     12  C   UNL     1    -103.556 -25.977 -10.571  1.00  0.00     0.004 C 
ENDBRANCH  10  11
ENDBRANCH   9  10
ENDBRANCH   8   9
ENDBRANCH   7   8
ENDBRANCH   6   7
ENDBRANCH   5   6
ENDBRANCH   4   5
ENDBRANCH   3   4
ENDBRANCH   2   3
ENDBRANCH   1   2
BRANCH   1  13
ATOM     13  C   UNL     1    -103.465 -30.650 -16.140  1.00  0.00     0.000 C 
BRANCH  13  14
ATOM     14  C   UNL     1    -102.040 -30.570 -16.717  1.00  0.00     0.000 C 
BRANCH  14  15
ATOM     15  C   UNL     1    -101.194 -29.396 -16.190  1.00  0.00     0.000 C 
BRANCH  15  16
ATOM     16  C   UNL     1    -101.890 -28.035 -16.363  1.00  0.00     0.000 C 
BRANCH  16  17
ATOM     17  C   UNL     1    -101.997 -27.265 -15.037  1.00  0.00     0.000 C 
BRANCH  17  18
ATOM     18  C   UNL     1    -100.891 -27.656 -14.045  1.00  0.00     0.000 C 
BRANCH  18  19
ATOM     19  C   UNL     1    -101.493 -28.157 -12.722  1.00  0.00     0.000 C 
BRANCH  19  20
ATOM     20  C   UNL     1    -100.552 -29.108 -11.966  1.00  0.00     0.006 C 
BRANCH  20  21
ATOM     21  C   UNL     1    -100.165 -30.344 -12.789  1.00  0.00     0.053 C 
BRANCH  21  22
ATOM     22  C   UNL     1     -98.677 -30.449 -12.902  1.00  0.00     0.041 C 
ATOM     23  O   UNL     1     -97.973 -29.407 -12.995  1.00  0.00    -0.550 OA
ATOM     24  O   UNL     1     -98.061 -31.691 -12.838  1.00  0.00    -0.550 OA
ENDBRANCH  21  22
ENDBRANCH  20  21
ENDBRANCH  19  20
ENDBRANCH  18  19
ENDBRANCH  17  18
ENDBRANCH  16  17
ENDBRANCH  15  16
ENDBRANCH  14  15
ENDBRANCH  13  14
ENDBRANCH   1  13
TORSDOF 20
ENDMDL
MODEL 6
REMARK VINA RESULT:    -2.673      4.271      7.412
REMARK INTER + INTRA:          -9.981
REMARK INTER:                  -7.245
REMARK INTRA:                  -2.735
REMARK UNBOUND:                -4.183
REMARK SMILES CCCCCCCCCCCCCCCCCCCCCC(=O)[O-]
REMARK SMILES IDX 12 1 11 2 10 3 9 4 8 5 7 6 6 7 5 8 4 9 3 10 2 11 1 12 13 13
REMARK SMILES IDX 14 14 15 15 16 16 17 17 18 18 19 19 20 20 21 21 22 22 23 23
REMARK SMILES IDX 24 24
REMARK H PARENT
REMARK Flexibility Score: inf
ROOT
ATOM      1  C   UNL     1    -103.247 -27.574 -16.542  1.00  0.00     0.000 C 
ENDROOT
BRANCH   1   2
ATOM      2  C   UNL     1    -101.818 -28.116 -16.398  1.00  0.00     0.000 C 
BRANCH   2   3
ATOM      3  C   UNL     1    -101.776 -29.579 -15.921  1.00  0.00     0.000 C 
BRANCH   3   4
ATOM      4  C   UNL     1    -100.403 -30.271 -16.046  1.00  0.00    -0.000 C 
BRANCH   4   5
ATOM      5  C   UNL     1     -99.960 -31.073 -14.810  1.00  0.00    -0.000 C 
BRANCH   5   6
ATOM      6  C   UNL     1     -98.518 -30.755 -14.376  1.00  0.00    -0.000 C 
BRANCH   6   7
ATOM      7  C   UNL     1     -98.453 -29.571 -13.387  1.00  0.00    -0.000 C 
BRANCH   7   8
ATOM      8  C   UNL     1     -99.768 -29.323 -12.624  1.00  0.00    -0.000 C 
BRANCH   8   9
ATOM      9  C   UNL     1    -100.415 -27.949 -12.870  1.00  0.00    -0.000 C 
BRANCH   9  10
ATOM     10  C   UNL     1    -101.667 -27.657 -12.020  1.00  0.00    -0.000 C 
BRANCH  10  11
ATOM     11  C   UNL     1    -102.957 -27.486 -12.851  1.00  0.00    -0.003 C 
ATOM     12  C   UNL     1    -103.806 -28.756 -12.881  1.00  0.00     0.004 C 
ENDBRANCH  10  11
ENDBRANCH   9  10
ENDBRANCH   8   9
ENDBRANCH   7   8
ENDBRANCH   6   7
ENDBRANCH   5   6
ENDBRANCH   4   5
ENDBRANCH   3   4
ENDBRANCH   2   3
ENDBRANCH   1   2
BRANCH   1  13
ATOM     13  C   UNL     1    -103.293 -26.063 -16.268  1.00  0.00     0.000 C 
BRANCH  13  14
ATOM     14  C   UNL     1    -104.659 -25.590 -15.739  1.00  0.00     0.000 C 
BRANCH  14  15
ATOM     15  C   UNL     1    -104.625 -24.267 -14.953  1.00  0.00     0.000 C 
BRANCH  15  16
ATOM     16  C   UNL     1    -104.778 -24.471 -13.436  1.00  0.00     0.000 C 
BRANCH  16  17
ATOM     17  C   UNL     1    -104.703 -23.146 -12.661  1.00  0.00     0.000 C 
BRANCH  17  18
ATOM     18  C   UNL     1    -104.647 -23.361 -11.141  1.00  0.00     0.000 C 
BRANCH  18  19
ATOM     19  C   UNL     1    -104.616 -24.859 -10.800  1.00  0.00     0.000 C 
BRANCH  19  20
ATOM     20  C   UNL     1    -103.479 -25.223  -9.832  1.00  0.00     0.006 C 
BRANCH  20  21
ATOM     21  C   UNL     1    -103.990 -25.716  -8.471  1.00  0.00     0.053 C 
BRANCH  21  22
ATOM     22  C   UNL     1    -103.277 -25.011  -7.361  1.00  0.00     0.041 C 
ATOM     23  O   UNL     1    -103.511 -23.794  -7.130  1.00  0.00    -0.550 OA
ATOM     24  O   UNL     1    -102.405 -25.712  -6.539  1.00  0.00    -0.550 OA
ENDBRANCH  21  22
ENDBRANCH  20  21
ENDBRANCH  19  20
ENDBRANCH  18  19
ENDBRANCH  17  18
ENDBRANCH  16  17
ENDBRANCH  15  16
ENDBRANCH  14  15
ENDBRANCH  13  14
ENDBRANCH   1  13
TORSDOF 20
ENDMDL
MODEL 7
REMARK VINA RESULT:    -2.668      2.293      4.651
REMARK INTER + INTRA:          -9.971
REMARK INTER:                  -6.534
REMARK INTRA:                  -3.437
REMARK UNBOUND:                -4.183
REMARK SMILES CCCCCCCCCCCCCCCCCCCCCC(=O)[O-]
REMARK SMILES IDX 12 1 11 2 10 3 9 4 8 5 7 6 6 7 5 8 4 9 3 10 2 11 1 12 13 13
REMARK SMILES IDX 14 14 15 15 16 16 17 17 18 18 19 19 20 20 21 21 22 22 23 23
REMARK SMILES IDX 24 24
REMARK H PARENT
REMARK Flexibility Score: inf
ROOT
ATOM      1  C   UNL     1    -102.712 -29.928 -14.846  1.00  0.00     0.000 C 
ENDROOT
BRANCH   1   2
ATOM      2  C   UNL     1    -102.514 -29.600 -16.333  1.00  0.00     0.000 C 
BRANCH   2   3
ATOM      3  C   UNL     1    -101.966 -28.180 -16.565  1.00  0.00     0.000 C 
BRANCH   3   4
ATOM      4  C   UNL     1    -101.901 -27.288 -15.309  1.00  0.00    -0.000 C 
BRANCH   4   5
ATOM      5  C   UNL     1    -103.058 -26.284 -15.159  1.00  0.00    -0.000 C 
BRANCH   5   6
ATOM      6  C   UNL     1    -103.636 -25.832 -16.511  1.00  0.00    -0.000 C 
BRANCH   6   7
ATOM      7  C   UNL     1    -105.160 -26.067 -16.603  1.00  0.00    -0.000 C 
BRANCH   7   8
ATOM      8  C   UNL     1    -105.999 -25.020 -15.845  1.00  0.00    -0.000 C 
BRANCH   8   9
ATOM      9  C   UNL     1    -105.352 -23.630 -15.727  1.00  0.00    -0.000 C 
BRANCH   9  10
ATOM     10  C   UNL     1    -105.274 -23.069 -14.293  1.00  0.00    -0.000 C 
BRANCH  10  11
ATOM     11  C   UNL     1    -104.909 -24.127 -13.230  1.00  0.00    -0.003 C 
ATOM     12  C   UNL     1    -104.533 -23.501 -11.887  1.00  0.00     0.004 C 
ENDBRANCH  10  11
ENDBRANCH   9  10
ENDBRANCH   8   9
ENDBRANCH   7   8
ENDBRANCH   6   7
ENDBRANCH   5   6
ENDBRANCH   4   5
ENDBRANCH   3   4
ENDBRANCH   2   3
ENDBRANCH   1   2
BRANCH   1  13
ATOM     13  C   UNL     1    -104.201 -30.122 -14.520  1.00  0.00     0.000 C 
BRANCH  13  14
ATOM     14  C   UNL     1    -104.794 -28.958 -13.705  1.00  0.00     0.000 C 
BRANCH  14  15
ATOM     15  C   UNL     1    -104.332 -28.894 -12.238  1.00  0.00     0.000 C 
BRANCH  15  16
ATOM     16  C   UNL     1    -104.112 -27.453 -11.745  1.00  0.00     0.000 C 
BRANCH  16  17
ATOM     17  C   UNL     1    -102.621 -27.116 -11.582  1.00  0.00     0.000 C 
BRANCH  17  18
ATOM     18  C   UNL     1    -101.750 -28.375 -11.454  1.00  0.00     0.000 C 
BRANCH  18  19
ATOM     19  C   UNL     1    -100.528 -28.294 -12.382  1.00  0.00     0.000 C 
BRANCH  19  20
ATOM     20  C   UNL     1     -99.754 -29.620 -12.460  1.00  0.00     0.006 C 
BRANCH  20  21
ATOM     21  C   UNL     1     -98.851 -29.711 -13.698  1.00  0.00     0.053 C 
BRANCH  21  22
ATOM     22  C   UNL     1     -99.126 -30.973 -14.451  1.00  0.00     0.041 C 
ATOM     23  O   UNL     1     -98.533 -31.203 -15.540  1.00  0.00    -0.550 OA
ATOM     24  O   UNL     1     -99.984 -31.927 -13.921  1.00  0.00    -0.550 OA
ENDBRANCH  21  22
ENDBRANCH  20  21
ENDBRANCH  19  20
ENDBRANCH  18  19
ENDBRANCH  17  18
ENDBRANCH  16  17
ENDBRANCH  15  16
ENDBRANCH  14  15
ENDBRANCH  13  14
ENDBRANCH   1  13
TORSDOF 20
ENDMDL
MODEL 8
REMARK VINA RESULT:    -2.640      3.528      7.566
REMARK INTER + INTRA:          -9.911
REMARK INTER:                  -6.204
REMARK INTRA:                  -3.707
REMARK UNBOUND:                -4.183
REMARK SMILES CCCCCCCCCCCCCCCCCCCCCC(=O)[O-]
REMARK SMILES IDX 12 1 11 2 10 3 9 4 8 5 7 6 6 7 5 8 4 9 3 10 2 11 1 12 13 13
REMARK SMILES IDX 14 14 15 15 16 16 17 17 18 18 19 19 20 20 21 21 22 22 23 23
REMARK SMILES IDX 24 24
REMARK H PARENT
REMARK Flexibility Score: inf
ROOT
ATOM      1  C   UNL     1    -102.683 -26.863 -15.729  1.00  0.00     0.000 C 
ENDROOT
BRANCH   1   2
ATOM      2  C   UNL     1    -102.928 -28.308 -16.186  1.00  0.00     0.000 C 
BRANCH   2   3
ATOM      3  C   UNL     1    -101.635 -29.139 -16.269  1.00  0.00     0.000 C 
BRANCH   3   4
ATOM      4  C   UNL     1    -101.836 -30.669 -16.258  1.00  0.00    -0.000 C 
BRANCH   4   5
ATOM      5  C   UNL     1    -100.755 -31.465 -15.504  1.00  0.00    -0.000 C 
BRANCH   5   6
ATOM      6  C   UNL     1     -99.376 -30.784 -15.540  1.00  0.00    -0.000 C 
BRANCH   6   7
ATOM      7  C   UNL     1     -98.633 -30.896 -14.191  1.00  0.00    -0.000 C 
BRANCH   7   8
ATOM      8  C   UNL     1     -98.486 -29.556 -13.447  1.00  0.00    -0.000 C 
BRANCH   8   9
ATOM      9  C   UNL     1     -99.614 -29.238 -12.450  1.00  0.00    -0.000 C 
BRANCH   9  10
ATOM     10  C   UNL     1    -100.552 -28.090 -12.874  1.00  0.00    -0.000 C 
BRANCH  10  11
ATOM     11  C   UNL     1    -102.011 -28.273 -12.405  1.00  0.00    -0.003 C 
ATOM     12  C   UNL     1    -102.538 -29.682 -12.668  1.00  0.00     0.004 C 
ENDBRANCH  10  11
ENDBRANCH   9  10
ENDBRANCH   8   9
ENDBRANCH   7   8
ENDBRANCH   6   7
ENDBRANCH   5   6
ENDBRANCH   4   5
ENDBRANCH   3   4
ENDBRANCH   2   3
ENDBRANCH   1   2
BRANCH   1  13
ATOM     13  C   UNL     1    -103.499 -25.873 -16.572  1.00  0.00     0.000 C 
BRANCH  13  14
ATOM     14  C   UNL     1    -104.799 -26.484 -17.125  1.00  0.00     0.000 C 
BRANCH  14  15
ATOM     15  C   UNL     1    -106.061 -25.629 -16.905  1.00  0.00     0.000 C 
BRANCH  15  16
ATOM     16  C   UNL     1    -105.805 -24.411 -16.001  1.00  0.00     0.000 C 
BRANCH  16  17
ATOM     17  C   UNL     1    -106.892 -24.249 -14.926  1.00  0.00     0.000 C 
BRANCH  17  18
ATOM     18  C   UNL     1    -106.298 -24.011 -13.528  1.00  0.00     0.000 C 
BRANCH  18  19
ATOM     19  C   UNL     1    -104.769 -24.159 -13.549  1.00  0.00     0.000 C 
BRANCH  19  20
ATOM     20  C   UNL     1    -104.281 -25.376 -12.748  1.00  0.00     0.006 C 
BRANCH  20  21
ATOM     21  C   UNL     1    -105.413 -26.087 -11.994  1.00  0.00     0.053 C 
BRANCH  21  22
ATOM     22  C   UNL     1    -105.636 -27.455 -12.558  1.00  0.00     0.041 C 
ATOM     23  O   UNL     1    -105.852 -28.430 -11.789  1.00  0.00    -0.550 OA
ATOM     24  O   UNL     1    -105.671 -27.642 -13.933  1.00  0.00    -0.550 OA
ENDBRANCH  21  22
ENDBRANCH  20  21
ENDBRANCH  19  20
ENDBRANCH  18  19
ENDBRANCH  17  18
ENDBRANCH  16  17
ENDBRANCH  15  16
ENDBRANCH  14  15
ENDBRANCH  13  14
ENDBRANCH   1  13
TORSDOF 20
ENDMDL
MODEL 9
REMARK VINA RESULT:    -2.622      5.295      8.368
REMARK INTER + INTRA:          -9.872
REMARK INTER:                  -7.519
REMARK INTRA:                  -2.353
REMARK UNBOUND:                -4.183
REMARK SMILES CCCCCCCCCCCCCCCCCCCCCC(=O)[O-]
REMARK SMILES IDX 12 1 11 2 10 3 9 4 8 5 7 6 6 7 5 8 4 9 3 10 2 11 1 12 13 13
REMARK SMILES IDX 14 14 15 15 16 16 17 17 18 18 19 19 20 20 21 21 22 22 23 23
REMARK SMILES IDX 24 24
REMARK H PARENT
REMARK Flexibility Score: inf
ROOT
ATOM      1  C   UNL     1    -104.359 -24.550 -15.174  1.00  0.00     0.000 C 
ENDROOT
BRANCH   1   2
ATOM      2  C   UNL     1    -104.723 -25.692 -16.134  1.00  0.00     0.000 C 
BRANCH   2   3
ATOM      3  C   UNL     1    -103.489 -26.358 -16.768  1.00  0.00     0.000 C 
BRANCH   3   4
ATOM      4  C   UNL     1    -103.100 -27.725 -16.168  1.00  0.00    -0.000 C 
BRANCH   4   5
ATOM      5  C   UNL     1    -101.590 -27.946 -15.965  1.00  0.00    -0.000 C 
BRANCH   5   6
ATOM      6  C   UNL     1    -101.252 -29.370 -15.493  1.00  0.00    -0.000 C 
BRANCH   6   7
ATOM      7  C   UNL     1    -100.870 -29.415 -13.997  1.00  0.00    -0.000 C 
BRANCH   7   8
ATOM      8  C   UNL     1    -100.572 -28.031 -13.389  1.00  0.00    -0.000 C 
BRANCH   8   9
ATOM      9  C   UNL     1    -101.520 -27.600 -12.256  1.00  0.00    -0.000 C 
BRANCH   9  10
ATOM     10  C   UNL     1    -102.945 -28.179 -12.346  1.00  0.00    -0.000 C 
BRANCH  10  11
ATOM     11  C   UNL     1    -104.039 -27.112 -12.567  1.00  0.00    -0.003 C 
ATOM     12  C   UNL     1    -103.925 -25.947 -11.584  1.00  0.00     0.004 C 
ENDBRANCH  10  11
ENDBRANCH   9  10
ENDBRANCH   8   9
ENDBRANCH   7   8
ENDBRANCH   6   7
ENDBRANCH   5   6
ENDBRANCH   4   5
ENDBRANCH   3   4
ENDBRANCH   2   3
ENDBRANCH   1   2
BRANCH   1  13
ATOM     13  C   UNL     1    -105.008 -23.230 -15.618  1.00  0.00     0.000 C 
BRANCH  13  14
ATOM     14  C   UNL     1    -105.629 -22.444 -14.449  1.00  0.00     0.000 C 
BRANCH  14  15
ATOM     15  C   UNL     1    -105.025 -22.755 -13.067  1.00  0.00     0.000 C 
BRANCH  15  16
ATOM     16  C   UNL     1    -105.389 -21.702 -12.006  1.00  0.00     0.000 C 
BRANCH  16  17
ATOM     17  C   UNL     1    -104.162 -20.909 -11.530  1.00  0.00     0.000 C 
BRANCH  17  18
ATOM     18  C   UNL     1    -103.526 -21.518 -10.272  1.00  0.00     0.000 C 
BRANCH  18  19
ATOM     19  C   UNL     1    -104.582 -21.753  -9.181  1.00  0.00     0.000 C 
BRANCH  19  20
ATOM     20  C   UNL     1    -104.496 -23.158  -8.565  1.00  0.00     0.006 C 
BRANCH  20  21
ATOM     21  C   UNL     1    -103.053 -23.669  -8.444  1.00  0.00     0.053 C 
BRANCH  21  22
ATOM     22  C   UNL     1    -102.616 -23.661  -7.014  1.00  0.00     0.041 C 
ATOM     23  O   UNL     1    -103.111 -22.831  -6.205  1.00  0.00    -0.550 OA
ATOM     24  O   UNL     1    -101.711 -24.610  -6.559  1.00  0.00    -0.550 OA
ENDBRANCH  21  22
ENDBRANCH  20  21
ENDBRANCH  19  20
ENDBRANCH  18  19
ENDBRANCH  17  18
ENDBRANCH  16  17
ENDBRANCH  15  16
ENDBRANCH  14  15
ENDBRANCH  13  14
ENDBRANCH   1  13
TORSDOF 20
ENDMDL
