MODEL 1
REMARK VINA RESULT:    -4.933      0.000      0.000
REMARK INTER + INTRA:          -9.427
REMARK INTER:                  -8.394
REMARK INTRA:                  -1.033
REMARK UNBOUND:                -1.033
REMARK SMILES CCCCCCCCCCCCCC(=O)[O-]
REMARK SMILES IDX 8 1 9 2 10 3 11 4 12 5 13 6 14 7 15 8 16 9 7 10 6 11 5 12
REMARK SMILES IDX 4 13 3 14 2 15 1 16
REMARK H PARENT
REMARK Flexibility Score: inf
ROOT
ATOM      1  C   UNL     1      49.342  32.495  17.738  1.00  0.00     0.000 C 
ENDROOT
BRANCH   1   2
ATOM      2  C   UNL     1      48.867  33.869  17.232  1.00  0.00     0.000 C 
BRANCH   2   3
ATOM      3  C   UNL     1      47.396  33.859  16.781  1.00  0.00     0.000 C 
BRANCH   3   4
ATOM      4  C   UNL     1      47.166  34.229  15.302  1.00  0.00     0.000 C 
BRANCH   4   5
ATOM      5  C   UNL     1      48.167  33.565  14.332  1.00  0.00     0.006 C 
BRANCH   5   6
ATOM      6  C   UNL     1      48.726  34.558  13.304  1.00  0.00     0.053 C 
BRANCH   6   7
ATOM      7  C   UNL     1      49.053  33.858  12.023  1.00  0.00     0.041 C 
ATOM      8  O   UNL     1      50.194  33.985  11.503  1.00  0.00    -0.550 OA
ATOM      9  O   UNL     1      48.082  33.104  11.377  1.00  0.00    -0.550 OA
ENDBRANCH   6   7
ENDBRANCH   5   6
ENDBRANCH   4   5
ENDBRANCH   3   4
ENDBRANCH   2   3
ENDBRANCH   1   2
BRANCH   1  10
ATOM     10  C   UNL     1      48.175  31.578  18.137  1.00  0.00     0.000 C 
BRANCH  10  11
ATOM     11  C   UNL     1      48.121  30.290  17.297  1.00  0.00    -0.000 C 
BRANCH  11  12
ATOM     12  C   UNL     1      49.445  29.990  16.569  1.00  0.00    -0.000 C 
BRANCH  12  13
ATOM     13  C   UNL     1      49.764  28.497  16.374  1.00  0.00    -0.000 C 
BRANCH  13  14
ATOM     14  C   UNL     1      48.672  27.747  15.592  1.00  0.00    -0.000 C 
BRANCH  14  15
ATOM     15  C   UNL     1      48.521  26.287  16.047  1.00  0.00    -0.003 C 
ATOM     16  C   UNL     1      48.766  26.105  17.545  1.00  0.00     0.004 C 
ENDBRANCH  14  15
ENDBRANCH  13  14
ENDBRANCH  12  13
ENDBRANCH  11  12
ENDBRANCH  10  11
ENDBRANCH   1  10
TORSDOF 12
ENDMDL
MODEL 2
REMARK VINA RESULT:    -4.828      3.694      5.008
REMARK INTER + INTRA:          -9.247
REMARK INTER:                  -8.285
REMARK INTRA:                  -0.963
REMARK UNBOUND:                -1.033
REMARK SMILES CCCCCCCCCCCCCC(=O)[O-]
REMARK SMILES IDX 8 1 9 2 10 3 11 4 12 5 13 6 14 7 15 8 16 9 7 10 6 11 5 12
REMARK SMILES IDX 4 13 3 14 2 15 1 16
REMARK H PARENT
REMARK Flexibility Score: inf
ROOT
ATOM      1  C   UNL     1      48.157  33.467  14.217  1.00  0.00     0.000 C 
ENDROOT
BRANCH   1   2
ATOM      2  C   UNL     1      48.118  34.541  13.115  1.00  0.00     0.000 C 
BRANCH   2   3
ATOM      3  C   UNL     1      46.724  34.693  12.482  1.00  0.00     0.000 C 
BRANCH   3   4
ATOM      4  C   UNL     1      45.986  35.999  12.837  1.00  0.00     0.000 C 
BRANCH   4   5
ATOM      5  C   UNL     1      44.453  35.841  12.937  1.00  0.00     0.006 C 
BRANCH   5   6
ATOM      6  C   UNL     1      43.705  36.946  12.180  1.00  0.00     0.053 C 
BRANCH   6   7
ATOM      7  C   UNL     1      42.240  36.643  12.127  1.00  0.00     0.041 C 
ATOM      8  O   UNL     1      41.470  37.074  13.026  1.00  0.00    -0.550 OA
ATOM      9  O   UNL     1      41.733  35.843  11.112  1.00  0.00    -0.550 OA
ENDBRANCH   6   7
ENDBRANCH   5   6
ENDBRANCH   4   5
ENDBRANCH   3   4
ENDBRANCH   2   3
ENDBRANCH   1   2
BRANCH   1  10
ATOM     10  C   UNL     1      47.416  33.903  15.490  1.00  0.00     0.000 C 
BRANCH  10  11
ATOM     11  C   UNL     1      48.337  33.961  16.721  1.00  0.00    -0.000 C 
BRANCH  11  12
ATOM     12  C   UNL     1      48.289  32.677  17.569  1.00  0.00    -0.000 C 
BRANCH  12  13
ATOM     13  C   UNL     1      49.500  31.739  17.409  1.00  0.00    -0.000 C 
BRANCH  13  14
ATOM     14  C   UNL     1      49.102  30.312  16.994  1.00  0.00    -0.000 C 
BRANCH  14  15
ATOM     15  C   UNL     1      47.589  30.166  16.767  1.00  0.00    -0.003 C 
ATOM     16  C   UNL     1      47.231  29.918  15.302  1.00  0.00     0.004 C 
ENDBRANCH  14  15
ENDBRANCH  13  14
ENDBRANCH  12  13
ENDBRANCH  11  12
ENDBRANCH  10  11
ENDBRANCH   1  10
TORSDOF 12
ENDMDL
MODEL 3
REMARK VINA RESULT:    -4.763      3.071      6.491
REMARK INTER + INTRA:          -9.137
REMARK INTER:                  -8.220
REMARK INTRA:                  -0.918
REMARK UNBOUND:                -1.033
REMARK SMILES CCCCCCCCCCCCCC(=O)[O-]
REMARK SMILES IDX 8 1 9 2 10 3 11 4 12 5 13 6 14 7 15 8 16 9 7 10 6 11 5 12
REMARK SMILES IDX 4 13 3 14 2 15 1 16
REMARK H PARENT
REMARK Flexibility Score: inf
ROOT
ATOM      1  C   UNL     1      48.644  32.783  16.964  1.00  0.00     0.000 C 
ENDROOT
BRANCH   1   2
ATOM      2  C   UNL     1      48.383  31.835  18.149  1.00  0.00     0.000 C 
BRANCH   2   3
ATOM      3  C   UNL     1      47.779  30.489  17.712  1.00  0.00     0.000 C 
BRANCH   3   4
ATOM      4  C   UNL     1      48.189  30.018  16.302  1.00  0.00     0.000 C 
BRANCH   4   5
ATOM      5  C   UNL     1      49.476  29.166  16.280  1.00  0.00     0.006 C 
BRANCH   5   6
ATOM      6  C   UNL     1      49.378  27.942  17.201  1.00  0.00     0.053 C 
BRANCH   6   7
ATOM      7  C   UNL     1      48.678  26.818  16.504  1.00  0.00     0.041 C 
ATOM      8  O   UNL     1      47.967  26.010  17.159  1.00  0.00    -0.550 OA
ATOM      9  O   UNL     1      48.853  26.632  15.139  1.00  0.00    -0.550 OA
ENDBRANCH   6   7
ENDBRANCH   5   6
ENDBRANCH   4   5
ENDBRANCH   3   4
ENDBRANCH   2   3
ENDBRANCH   1   2
BRANCH   1  10
ATOM     10  C   UNL     1      47.556  33.859  16.820  1.00  0.00     0.000 C 
BRANCH  10  11
ATOM     11  C   UNL     1      47.183  34.131  15.352  1.00  0.00    -0.000 C 
BRANCH  11  12
ATOM     12  C   UNL     1      48.169  33.496  14.354  1.00  0.00    -0.000 C 
BRANCH  12  13
ATOM     13  C   UNL     1      48.552  34.382  13.154  1.00  0.00    -0.000 C 
BRANCH  13  14
ATOM     14  C   UNL     1      47.867  33.950  11.846  1.00  0.00    -0.000 C 
BRANCH  14  15
ATOM     15  C   UNL     1      48.866  33.399  10.815  1.00  0.00    -0.003 C 
ATOM     16  C   UNL     1      50.318  33.722  11.166  1.00  0.00     0.004 C 
ENDBRANCH  14  15
ENDBRANCH  13  14
ENDBRANCH  12  13
ENDBRANCH  11  12
ENDBRANCH  10  11
ENDBRANCH   1  10
TORSDOF 12
ENDMDL
MODEL 4
REMARK VINA RESULT:    -4.667      1.182      2.140
REMARK INTER + INTRA:          -8.974
REMARK INTER:                  -8.158
REMARK INTRA:                  -0.817
REMARK UNBOUND:                -1.033
REMARK SMILES CCCCCCCCCCCCCC(=O)[O-]
REMARK SMILES IDX 8 1 9 2 10 3 11 4 12 5 13 6 14 7 15 8 16 9 7 10 6 11 5 12
REMARK SMILES IDX 4 13 3 14 2 15 1 16
REMARK H PARENT
REMARK Flexibility Score: inf
ROOT
ATOM      1  C   UNL     1      49.235  30.664  16.651  1.00  0.00     0.000 C 
ENDROOT
BRANCH   1   2
ATOM      2  C   UNL     1      49.492  31.978  17.410  1.00  0.00     0.000 C 
BRANCH   2   3
ATOM      3  C   UNL     1      48.212  32.807  17.613  1.00  0.00     0.000 C 
BRANCH   3   4
ATOM      4  C   UNL     1      48.100  34.060  16.722  1.00  0.00     0.000 C 
BRANCH   4   5
ATOM      5  C   UNL     1      47.582  33.766  15.297  1.00  0.00     0.006 C 
BRANCH   5   6
ATOM      6  C   UNL     1      48.597  34.161  14.217  1.00  0.00     0.053 C 
BRANCH   6   7
ATOM      7  C   UNL     1      47.973  34.086  12.859  1.00  0.00     0.041 C 
ATOM      8  O   UNL     1      47.032  34.865  12.549  1.00  0.00    -0.550 OA
ATOM      9  O   UNL     1      48.395  33.121  11.953  1.00  0.00    -0.550 OA
ENDBRANCH   6   7
ENDBRANCH   5   6
ENDBRANCH   4   5
ENDBRANCH   3   4
ENDBRANCH   2   3
ENDBRANCH   1   2
BRANCH   1  10
ATOM     10  C   UNL     1      48.027  29.891  17.203  1.00  0.00     0.000 C 
BRANCH  10  11
ATOM     11  C   UNL     1      47.500  28.834  16.217  1.00  0.00    -0.000 C 
BRANCH  11  12
ATOM     12  C   UNL     1      48.517  27.711  15.938  1.00  0.00    -0.000 C 
BRANCH  12  13
ATOM     13  C   UNL     1      48.108  26.314  16.439  1.00  0.00    -0.000 C 
BRANCH  13  14
ATOM     14  C   UNL     1      49.157  25.679  17.367  1.00  0.00    -0.000 C 
BRANCH  14  15
ATOM     15  C   UNL     1      49.157  26.307  18.771  1.00  0.00    -0.003 C 
ATOM     16  C   UNL     1      48.696  25.333  19.855  1.00  0.00     0.004 C 
ENDBRANCH  14  15
ENDBRANCH  13  14
ENDBRANCH  12  13
ENDBRANCH  11  12
ENDBRANCH  10  11
ENDBRANCH   1  10
TORSDOF 12
ENDMDL
MODEL 5
REMARK VINA RESULT:    -4.658      4.776      8.504
REMARK INTER + INTRA:          -8.958
REMARK INTER:                  -8.111
REMARK INTRA:                  -0.848
REMARK UNBOUND:                -1.033
REMARK SMILES CCCCCCCCCCCCCC(=O)[O-]
REMARK SMILES IDX 8 1 9 2 10 3 11 4 12 5 13 6 14 7 15 8 16 9 7 10 6 11 5 12
REMARK SMILES IDX 4 13 3 14 2 15 1 16
REMARK H PARENT
REMARK Flexibility Score: inf
ROOT
ATOM      1  C   UNL     1      49.053  27.424  15.474  1.00  0.00     0.000 C 
ENDROOT
BRANCH   1   2
ATOM      2  C   UNL     1      48.358  26.249  16.184  1.00  0.00     0.000 C 
BRANCH   2   3
ATOM      3  C   UNL     1      48.654  26.206  17.693  1.00  0.00     0.000 C 
BRANCH   3   4
ATOM      4  C   UNL     1      49.698  25.155  18.122  1.00  0.00     0.000 C 
BRANCH   4   5
ATOM      5  C   UNL     1      49.818  24.987  19.652  1.00  0.00     0.006 C 
BRANCH   5   6
ATOM      6  C   UNL     1      48.534  25.398  20.384  1.00  0.00     0.053 C 
BRANCH   6   7
ATOM      7  C   UNL     1      48.863  26.123  21.651  1.00  0.00     0.041 C 
ATOM      8  O   UNL     1      48.399  27.275  21.862  1.00  0.00    -0.550 OA
ATOM      9  O   UNL     1      49.724  25.547  22.577  1.00  0.00    -0.550 OA
ENDBRANCH   6   7
ENDBRANCH   5   6
ENDBRANCH   4   5
ENDBRANCH   3   4
ENDBRANCH   2   3
ENDBRANCH   1   2
BRANCH   1  10
ATOM     10  C   UNL     1      49.848  28.311  16.445  1.00  0.00     0.000 C 
BRANCH  10  11
ATOM     11  C   UNL     1      49.456  29.796  16.347  1.00  0.00    -0.000 C 
BRANCH  11  12
ATOM     12  C   UNL     1      48.084  30.098  16.978  1.00  0.00    -0.000 C 
BRANCH  12  13
ATOM     13  C   UNL     1      48.051  31.306  17.932  1.00  0.00    -0.000 C 
BRANCH  13  14
ATOM     14  C   UNL     1      49.208  32.291  17.693  1.00  0.00    -0.000 C 
BRANCH  14  15
ATOM     15  C   UNL     1      48.714  33.700  17.329  1.00  0.00    -0.003 C 
ATOM     16  C   UNL     1      47.636  33.689  16.245  1.00  0.00     0.004 C 
ENDBRANCH  14  15
ENDBRANCH  13  14
ENDBRANCH  12  13
ENDBRANCH  11  12
ENDBRANCH  10  11
ENDBRANCH   1  10
TORSDOF 12
ENDMDL
MODEL 6
REMARK VINA RESULT:    -4.613      3.142      5.352
REMARK INTER + INTRA:          -8.883
REMARK INTER:                  -8.259
REMARK INTRA:                  -0.624
REMARK UNBOUND:                -1.033
REMARK SMILES CCCCCCCCCCCCCC(=O)[O-]
REMARK SMILES IDX 8 1 9 2 10 3 11 4 12 5 13 6 14 7 15 8 16 9 7 10 6 11 5 12
REMARK SMILES IDX 4 13 3 14 2 15 1 16
REMARK H PARENT
REMARK Flexibility Score: inf
ROOT
ATOM      1  C   UNL     1      49.114  27.125  15.499  1.00  0.00     0.000 C 
ENDROOT
BRANCH   1   2
ATOM      2  C   UNL     1      48.059  28.082  16.084  1.00  0.00     0.000 C 
BRANCH   2   3
ATOM      3  C   UNL     1      48.464  29.561  15.960  1.00  0.00     0.000 C 
BRANCH   3   4
ATOM      4  C   UNL     1      49.455  30.058  17.031  1.00  0.00     0.000 C 
BRANCH   4   5
ATOM      5  C   UNL     1      49.350  31.570  17.323  1.00  0.00     0.006 C 
BRANCH   5   6
ATOM      6  C   UNL     1      48.324  32.266  16.418  1.00  0.00     0.053 C 
BRANCH   6   7
ATOM      7  C   UNL     1      48.102  33.676  16.867  1.00  0.00     0.041 C 
ATOM      8  O   UNL     1      49.003  34.291  17.496  1.00  0.00    -0.550 OA
ATOM      9  O   UNL     1      46.879  34.293  16.636  1.00  0.00    -0.550 OA
ENDBRANCH   6   7
ENDBRANCH   5   6
ENDBRANCH   4   5
ENDBRANCH   3   4
ENDBRANCH   2   3
ENDBRANCH   1   2
BRANCH   1  10
ATOM     10  C   UNL     1      49.434  25.954  16.441  1.00  0.00     0.000 C 
BRANCH  10  11
ATOM     11  C   UNL     1      48.542  25.942  17.695  1.00  0.00    -0.000 C 
BRANCH  11  12
ATOM     12  C   UNL     1      49.188  25.208  18.884  1.00  0.00    -0.000 C 
BRANCH  12  13
ATOM     13  C   UNL     1      48.862  25.790  20.272  1.00  0.00    -0.000 C 
BRANCH  13  14
ATOM     14  C   UNL     1      49.579  25.052  21.415  1.00  0.00    -0.000 C 
BRANCH  14  15
ATOM     15  C   UNL     1      49.976  25.993  22.565  1.00  0.00    -0.003 C 
ATOM     16  C   UNL     1      49.061  27.213  22.674  1.00  0.00     0.004 C 
ENDBRANCH  14  15
ENDBRANCH  13  14
ENDBRANCH  12  13
ENDBRANCH  11  12
ENDBRANCH  10  11
ENDBRANCH   1  10
TORSDOF 12
ENDMDL
MODEL 7
REMARK VINA RESULT:    -4.598      5.431      8.781
REMARK INTER + INTRA:          -8.857
REMARK INTER:                  -8.379
REMARK INTRA:                  -0.478
REMARK UNBOUND:                -1.033
REMARK SMILES CCCCCCCCCCCCCC(=O)[O-]
REMARK SMILES IDX 8 1 9 2 10 3 11 4 12 5 13 6 14 7 15 8 16 9 7 10 6 11 5 12
REMARK SMILES IDX 4 13 3 14 2 15 1 16
REMARK H PARENT
REMARK Flexibility Score: inf
ROOT
ATOM      1  C   UNL     1      46.010  35.804  12.752  1.00  0.00     0.000 C 
ENDROOT
BRANCH   1   2
ATOM      2  C   UNL     1      46.962  34.659  12.362  1.00  0.00     0.000 C 
BRANCH   2   3
ATOM      3  C   UNL     1      48.183  34.558  13.293  1.00  0.00     0.000 C 
BRANCH   3   4
ATOM      4  C   UNL     1      48.096  33.451  14.363  1.00  0.00     0.000 C 
BRANCH   4   5
ATOM      5  C   UNL     1      47.460  33.917  15.690  1.00  0.00     0.006 C 
BRANCH   5   6
ATOM      6  C   UNL     1      48.493  34.034  16.819  1.00  0.00     0.053 C 
BRANCH   6   7
ATOM      7  C   UNL     1      48.768  32.690  17.418  1.00  0.00     0.041 C 
ATOM      8  O   UNL     1      47.847  31.836  17.511  1.00  0.00    -0.550 OA
ATOM      9  O   UNL     1      50.031  32.399  17.918  1.00  0.00    -0.550 OA
ENDBRANCH   6   7
ENDBRANCH   5   6
ENDBRANCH   4   5
ENDBRANCH   3   4
ENDBRANCH   2   3
ENDBRANCH   1   2
BRANCH   1  10
ATOM     10  C   UNL     1      44.534  35.451  12.507  1.00  0.00     0.000 C 
BRANCH  10  11
ATOM     11  C   UNL     1      43.610  36.679  12.592  1.00  0.00    -0.000 C 
BRANCH  11  12
ATOM     12  C   UNL     1      42.548  36.710  11.478  1.00  0.00    -0.000 C 
BRANCH  12  13
ATOM     13  C   UNL     1      41.262  35.917  11.774  1.00  0.00    -0.000 C 
BRANCH  13  14
ATOM     14  C   UNL     1      40.096  36.813  12.229  1.00  0.00    -0.000 C 
BRANCH  14  15
ATOM     15  C   UNL     1      38.728  36.261  11.797  1.00  0.00    -0.003 C 
ATOM     16  C   UNL     1      38.789  34.796  11.364  1.00  0.00     0.004 C 
ENDBRANCH  14  15
ENDBRANCH  13  14
ENDBRANCH  12  13
ENDBRANCH  11  12
ENDBRANCH  10  11
ENDBRANCH   1  10
TORSDOF 12
ENDMDL
MODEL 8
REMARK VINA RESULT:    -4.586      4.355      7.152
REMARK INTER + INTRA:          -8.836
REMARK INTER:                  -7.953
REMARK INTRA:                  -0.883
REMARK UNBOUND:                -1.033
REMARK SMILES CCCCCCCCCCCCCC(=O)[O-]
REMARK SMILES IDX 8 1 9 2 10 3 11 4 12 5 13 6 14 7 15 8 16 9 7 10 6 11 5 12
REMARK SMILES IDX 4 13 3 14 2 15 1 16
REMARK H PARENT
REMARK Flexibility Score: inf
ROOT
ATOM      1  C   UNL     1      48.222  25.588  19.312  1.00  0.00     0.000 C 
ENDROOT
BRANCH   1   2
ATOM      2  C   UNL     1      49.584  25.322  18.646  1.00  0.00     0.000 C 
BRANCH   2   3
ATOM      3  C   UNL     1      49.576  25.618  17.137  1.00  0.00     0.000 C 
BRANCH   3   4
ATOM      4  C   UNL     1      48.344  26.395  16.631  1.00  0.00     0.000 C 
BRANCH   4   5
ATOM      5  C   UNL     1      48.681  27.784  16.048  1.00  0.00     0.006 C 
BRANCH   5   6
ATOM      6  C   UNL     1      47.551  28.798  16.275  1.00  0.00     0.053 C 
BRANCH   6   7
ATOM      7  C   UNL     1      48.099  30.076  16.829  1.00  0.00     0.041 C 
ATOM      8  O   UNL     1      47.750  30.473  17.972  1.00  0.00    -0.550 OA
ATOM      9  O   UNL     1      48.956  30.855  16.062  1.00  0.00    -0.550 OA
ENDBRANCH   6   7
ENDBRANCH   5   6
ENDBRANCH   4   5
ENDBRANCH   3   4
ENDBRANCH   2   3
ENDBRANCH   1   2
BRANCH   1  10
ATOM     10  C   UNL     1      48.265  25.402  20.837  1.00  0.00     0.000 C 
BRANCH  10  11
ATOM     11  C   UNL     1      48.497  26.725  21.588  1.00  0.00    -0.000 C 
BRANCH  11  12
ATOM     12  C   UNL     1      49.756  26.701  22.475  1.00  0.00    -0.000 C 
BRANCH  12  13
ATOM     13  C   UNL     1      50.514  25.361  22.502  1.00  0.00    -0.000 C 
BRANCH  13  14
ATOM     14  C   UNL     1      51.890  25.438  21.819  1.00  0.00    -0.000 C 
BRANCH  14  15
ATOM     15  C   UNL     1      52.893  26.293  22.610  1.00  0.00    -0.003 C 
ATOM     16  C   UNL     1      53.939  25.453  23.343  1.00  0.00     0.004 C 
ENDBRANCH  14  15
ENDBRANCH  13  14
ENDBRANCH  12  13
ENDBRANCH  11  12
ENDBRANCH  10  11
ENDBRANCH   1  10
TORSDOF 12
ENDMDL
MODEL 9
REMARK VINA RESULT:    -4.577      5.141      7.511
REMARK INTER + INTRA:          -8.821
REMARK INTER:                  -7.559
REMARK INTRA:                  -1.261
REMARK UNBOUND:                -1.033
REMARK SMILES CCCCCCCCCCCCCC(=O)[O-]
REMARK SMILES IDX 8 1 9 2 10 3 11 4 12 5 13 6 14 7 15 8 16 9 7 10 6 11 5 12
REMARK SMILES IDX 4 13 3 14 2 15 1 16
REMARK H PARENT
REMARK Flexibility Score: inf
ROOT
ATOM      1  C   UNL     1      48.451  26.658  21.529  1.00  0.00     0.000 C 
ENDROOT
BRANCH   1   2
ATOM      2  C   UNL     1      48.825  25.390  20.741  1.00  0.00     0.000 C 
BRANCH   2   3
ATOM      3  C   UNL     1      48.508  25.506  19.241  1.00  0.00     0.000 C 
BRANCH   3   4
ATOM      4  C   UNL     1      49.684  25.182  18.298  1.00  0.00     0.000 C 
BRANCH   4   5
ATOM      5  C   UNL     1      49.450  25.623  16.837  1.00  0.00     0.006 C 
BRANCH   5   6
ATOM      6  C   UNL     1      48.142  26.407  16.669  1.00  0.00     0.053 C 
BRANCH   6   7
ATOM      7  C   UNL     1      48.428  27.836  16.332  1.00  0.00     0.041 C 
ATOM      8  O   UNL     1      49.608  28.207  16.091  1.00  0.00    -0.550 OA
ATOM      9  O   UNL     1      47.399  28.769  16.335  1.00  0.00    -0.550 OA
ENDBRANCH   6   7
ENDBRANCH   5   6
ENDBRANCH   4   5
ENDBRANCH   3   4
ENDBRANCH   2   3
ENDBRANCH   1   2
BRANCH   1  10
ATOM     10  C   UNL     1      49.422  26.942  22.686  1.00  0.00     0.000 C 
BRANCH  10  11
ATOM     11  C   UNL     1      50.681  26.058  22.632  1.00  0.00    -0.000 C 
BRANCH  11  12
ATOM     12  C   UNL     1      51.937  26.829  22.183  1.00  0.00    -0.000 C 
BRANCH  12  13
ATOM     13  C   UNL     1      53.093  25.955  21.664  1.00  0.00    -0.000 C 
BRANCH  13  14
ATOM     14  C   UNL     1      53.009  25.684  20.152  1.00  0.00    -0.000 C 
BRANCH  14  15
ATOM     15  C   UNL     1      52.599  26.933  19.354  1.00  0.00    -0.003 C 
ATOM     16  C   UNL     1      53.792  27.811  18.974  1.00  0.00     0.004 C 
ENDBRANCH  14  15
ENDBRANCH  13  14
ENDBRANCH  12  13
ENDBRANCH  11  12
ENDBRANCH  10  11
ENDBRANCH   1  10
TORSDOF 12
ENDMDL
