MODEL 1
REMARK VINA RESULT:    -5.899      0.000      0.000
REMARK INTER + INTRA:          -5.899
REMARK INTER:                  -5.899
REMARK INTRA:                   0.000
REMARK UNBOUND:                 0.000
REMARK SMILES O=c1ccc2ccc3occc3c2o1
REMARK SMILES IDX 6 1 7 2 8 3 12 4 11 5 10 6 9 7 13 8 5 9 4 10 3 11 2 12 1 13
REMARK SMILES IDX 14 14
REMARK H PARENT
REMARK Flexibility Score: inf
ROOT
ATOM      1  C   UNL     1      10.609  15.329  23.830  1.00  0.00     0.016 A 
ATOM      2  C   UNL     1      10.976  15.940  22.616  1.00  0.00     0.048 A 
ATOM      3  C   UNL     1      10.784  15.222  21.436  1.00  0.00     0.137 A 
ATOM      4  C   UNL     1      10.257  13.959  21.436  1.00  0.00     0.064 A 
ATOM      5  C   UNL     1      10.204  13.547  20.124  1.00  0.00     0.054 A 
ATOM      6  C   UNL     1      10.719  14.619  19.400  1.00  0.00     0.196 A 
ATOM      7  O   UNL     1      11.056  15.604  20.213  1.00  0.00    -0.464 OA
ATOM      8  C   UNL     1       9.881  13.320  22.616  1.00  0.00     0.149 A 
ATOM      9  C   UNL     1      10.062  14.023  23.835  1.00  0.00     0.018 A 
ATOM     10  C   UNL     1       9.689  13.387  25.022  1.00  0.00     0.019 A 
ATOM     11  C   UNL     1       9.154  12.099  24.971  1.00  0.00     0.094 A 
ATOM     12  C   UNL     1       9.006  11.471  23.728  1.00  0.00     0.336 A 
ATOM     13  O   UNL     1       8.526  10.309  23.666  1.00  0.00    -0.246 OA
ATOM     14  O   UNL     1       9.368  12.093  22.609  1.00  0.00    -0.422 OA
ENDROOT
TORSDOF 0
ENDMDL
MODEL 2
REMARK VINA RESULT:    -5.810      2.432      4.111
REMARK INTER + INTRA:          -5.810
REMARK INTER:                  -5.810
REMARK INTRA:                   0.000
REMARK UNBOUND:                 0.000
REMARK SMILES O=c1ccc2ccc3occc3c2o1
REMARK SMILES IDX 6 1 7 2 8 3 12 4 11 5 10 6 9 7 13 8 5 9 4 10 3 11 2 12 1 13
REMARK SMILES IDX 14 14
REMARK H PARENT
REMARK Flexibility Score: inf
ROOT
ATOM      1  C   UNL     1      10.139  14.642  24.129  1.00  0.00     0.016 A 
ATOM      2  C   UNL     1      10.253  15.898  24.753  1.00  0.00     0.048 A 
ATOM      3  C   UNL     1      10.535  17.005  23.952  1.00  0.00     0.137 A 
ATOM      4  C   UNL     1      10.699  16.895  22.598  1.00  0.00     0.064 A 
ATOM      5  C   UNL     1      10.962  18.159  22.123  1.00  0.00     0.054 A 
ATOM      6  C   UNL     1      10.937  18.970  23.253  1.00  0.00     0.196 A 
ATOM      7  O   UNL     1      10.679  18.251  24.331  1.00  0.00    -0.464 OA
ATOM      8  C   UNL     1      10.595  15.669  21.943  1.00  0.00     0.149 A 
ATOM      9  C   UNL     1      10.308  14.522  22.728  1.00  0.00     0.018 A 
ATOM     10  C   UNL     1      10.203  13.290  22.077  1.00  0.00     0.019 A 
ATOM     11  C   UNL     1      10.379  13.228  20.694  1.00  0.00     0.094 A 
ATOM     12  C   UNL     1      10.659  14.405  19.988  1.00  0.00     0.336 A 
ATOM     13  O   UNL     1      10.820  14.365  18.741  1.00  0.00    -0.246 OA
ATOM     14  O   UNL     1      10.755  15.569  20.627  1.00  0.00    -0.422 OA
ENDROOT
TORSDOF 0
ENDMDL
MODEL 3
REMARK VINA RESULT:    -5.543      1.404      4.267
REMARK INTER + INTRA:          -5.543
REMARK INTER:                  -5.543
REMARK INTRA:                   0.000
REMARK UNBOUND:                 0.000
REMARK SMILES O=c1ccc2ccc3occc3c2o1
REMARK SMILES IDX 6 1 7 2 8 3 12 4 11 5 10 6 9 7 13 8 5 9 4 10 3 11 2 12 1 13
REMARK SMILES IDX 14 14
REMARK H PARENT
REMARK Flexibility Score: inf
ROOT
ATOM      1  C   UNL     1      10.203  15.941  23.768  1.00  0.00     0.016 A 
ATOM      2  C   UNL     1       9.879  15.049  24.808  1.00  0.00     0.048 A 
ATOM      3  C   UNL     1       9.759  13.695  24.496  1.00  0.00     0.137 A 
ATOM      4  C   UNL     1       9.946  13.226  23.225  1.00  0.00     0.064 A 
ATOM      5  C   UNL     1       9.755  11.863  23.268  1.00  0.00     0.054 A 
ATOM      6  C   UNL     1       9.457  11.595  24.601  1.00  0.00     0.196 A 
ATOM      7  O   UNL     1       9.468  12.709  25.310  1.00  0.00    -0.464 OA
ATOM      8  C   UNL     1      10.267  14.076  22.168  1.00  0.00     0.149 A 
ATOM      9  C   UNL     1      10.398  15.461  22.450  1.00  0.00     0.018 A 
ATOM     10  C   UNL     1      10.719  16.319  21.395  1.00  0.00     0.019 A 
ATOM     11  C   UNL     1      10.900  15.793  20.115  1.00  0.00     0.094 A 
ATOM     12  C   UNL     1      10.754  14.414  19.917  1.00  0.00     0.336 A 
ATOM     13  O   UNL     1      10.914  13.925  18.768  1.00  0.00    -0.246 OA
ATOM     14  O   UNL     1      10.448  13.614  20.935  1.00  0.00    -0.422 OA
ENDROOT
TORSDOF 0
ENDMDL
MODEL 4
REMARK VINA RESULT:    -5.519      2.182      4.253
REMARK INTER + INTRA:          -5.519
REMARK INTER:                  -5.519
REMARK INTRA:                   0.000
REMARK UNBOUND:                 0.000
REMARK SMILES O=c1ccc2ccc3occc3c2o1
REMARK SMILES IDX 6 1 7 2 8 3 12 4 11 5 10 6 9 7 13 8 5 9 4 10 3 11 2 12 1 13
REMARK SMILES IDX 14 14
REMARK H PARENT
REMARK Flexibility Score: inf
ROOT
ATOM      1  C   UNL     1      11.126  17.626  21.529  1.00  0.00     0.016 A 
ATOM      2  C   UNL     1      11.016  18.015  22.878  1.00  0.00     0.048 A 
ATOM      3  C   UNL     1      10.656  17.044  23.812  1.00  0.00     0.137 A 
ATOM      4  C   UNL     1      10.412  15.747  23.451  1.00  0.00     0.064 A 
ATOM      5  C   UNL     1      10.086  15.065  24.601  1.00  0.00     0.054 A 
ATOM      6  C   UNL     1      10.157  16.024  25.607  1.00  0.00     0.196 A 
ATOM      7  O   UNL     1      10.500  17.196  25.105  1.00  0.00    -0.464 OA
ATOM      8  C   UNL     1      10.509  15.323  22.127  1.00  0.00     0.149 A 
ATOM      9  C   UNL     1      10.875  16.285  21.150  1.00  0.00     0.018 A 
ATOM     10  C   UNL     1      10.974  15.866  19.820  1.00  0.00     0.019 A 
ATOM     11  C   UNL     1      10.716  14.533  19.500  1.00  0.00     0.094 A 
ATOM     12  C   UNL     1      10.361  13.642  20.522  1.00  0.00     0.336 A 
ATOM     13  O   UNL     1      10.125  12.436  20.249  1.00  0.00    -0.246 OA
ATOM     14  O   UNL     1      10.272  14.061  21.782  1.00  0.00    -0.422 OA
ENDROOT
TORSDOF 0
ENDMDL
MODEL 5
REMARK VINA RESULT:    -5.458      1.796      3.796
REMARK INTER + INTRA:          -5.458
REMARK INTER:                  -5.458
REMARK INTRA:                   0.000
REMARK UNBOUND:                 0.000
REMARK SMILES O=c1ccc2ccc3occc3c2o1
REMARK SMILES IDX 6 1 7 2 8 3 12 4 11 5 10 6 9 7 13 8 5 9 4 10 3 11 2 12 1 13
REMARK SMILES IDX 14 14
REMARK H PARENT
REMARK Flexibility Score: inf
ROOT
ATOM      1  C   UNL     1       9.911  13.245  23.940  1.00  0.00     0.016 A 
ATOM      2  C   UNL     1       9.902  12.475  22.762  1.00  0.00     0.048 A 
ATOM      3  C   UNL     1      10.171  13.121  21.555  1.00  0.00     0.137 A 
ATOM      4  C   UNL     1      10.439  14.461  21.496  1.00  0.00     0.064 A 
ATOM      5  C   UNL     1      10.657  14.768  20.172  1.00  0.00     0.054 A 
ATOM      6  C   UNL     1      10.501  13.558  19.503  1.00  0.00     0.196 A 
ATOM      7  O   UNL     1      10.212  12.592  20.356  1.00  0.00    -0.464 OA
ATOM      8  C   UNL     1      10.457  15.258  22.639  1.00  0.00     0.149 A 
ATOM      9  C   UNL     1      10.188  14.633  23.885  1.00  0.00     0.018 A 
ATOM     10  C   UNL     1      10.204  15.426  25.035  1.00  0.00     0.019 A 
ATOM     11  C   UNL     1      10.482  16.789  24.924  1.00  0.00     0.094 A 
ATOM     12  C   UNL     1      10.738  17.332  23.659  1.00  0.00     0.336 A 
ATOM     13  O   UNL     1      10.991  18.560  23.543  1.00  0.00    -0.246 OA
ATOM     14  O   UNL     1      10.718  16.560  22.575  1.00  0.00    -0.422 OA
ENDROOT
TORSDOF 0
ENDMDL
MODEL 6
REMARK VINA RESULT:    -5.439      2.106      4.669
REMARK INTER + INTRA:          -5.439
REMARK INTER:                  -5.439
REMARK INTRA:                   0.000
REMARK UNBOUND:                 0.000
REMARK SMILES O=c1ccc2ccc3occc3c2o1
REMARK SMILES IDX 6 1 7 2 8 3 12 4 11 5 10 6 9 7 13 8 5 9 4 10 3 11 2 12 1 13
REMARK SMILES IDX 14 14
REMARK H PARENT
REMARK Flexibility Score: inf
ROOT
ATOM      1  C   UNL     1      10.645  15.192  20.352  1.00  0.00     0.016 A 
ATOM      2  C   UNL     1      10.417  13.811  20.496  1.00  0.00     0.048 A 
ATOM      3  C   UNL     1      10.183  13.315  21.778  1.00  0.00     0.137 A 
ATOM      4  C   UNL     1      10.173  14.130  22.878  1.00  0.00     0.064 A 
ATOM      5  C   UNL     1       9.916  13.329  23.967  1.00  0.00     0.054 A 
ATOM      6  C   UNL     1       9.786  12.049  23.437  1.00  0.00     0.196 A 
ATOM      7  O   UNL     1       9.950  12.073  22.127  1.00  0.00    -0.464 OA
ATOM      8  C   UNL     1      10.395  15.502  22.777  1.00  0.00     0.149 A 
ATOM      9  C   UNL     1      10.635  16.040  21.486  1.00  0.00     0.018 A 
ATOM     10  C   UNL     1      10.859  17.415  21.378  1.00  0.00     0.019 A 
ATOM     11  C   UNL     1      10.838  18.205  22.529  1.00  0.00     0.094 A 
ATOM     12  C   UNL     1      10.594  17.600  23.768  1.00  0.00     0.336 A 
ATOM     13  O   UNL     1      10.572  18.299  24.814  1.00  0.00    -0.246 OA
ATOM     14  O   UNL     1      10.383  16.288  23.849  1.00  0.00    -0.422 OA
ENDROOT
TORSDOF 0
ENDMDL
MODEL 7
REMARK VINA RESULT:    -5.357      2.424      4.605
REMARK INTER + INTRA:          -5.357
REMARK INTER:                  -5.357
REMARK INTRA:                   0.000
REMARK UNBOUND:                 0.000
REMARK SMILES O=c1ccc2ccc3occc3c2o1
REMARK SMILES IDX 6 1 7 2 8 3 12 4 11 5 10 6 9 7 13 8 5 9 4 10 3 11 2 12 1 13
REMARK SMILES IDX 14 14
REMARK H PARENT
REMARK Flexibility Score: inf
ROOT
ATOM      1  C   UNL     1      10.637  15.475  24.036  1.00  0.00     0.016 A 
ATOM      2  C   UNL     1      10.762  14.313  23.251  1.00  0.00     0.048 A 
ATOM      3  C   UNL     1      10.398  14.388  21.907  1.00  0.00     0.137 A 
ATOM      4  C   UNL     1       9.930  15.546  21.347  1.00  0.00     0.064 A 
ATOM      5  C   UNL     1       9.668  15.274  20.024  1.00  0.00     0.054 A 
ATOM      6  C   UNL     1      10.005  13.933  19.869  1.00  0.00     0.196 A 
ATOM      7  O   UNL     1      10.438  13.431  21.012  1.00  0.00    -0.464 OA
ATOM      8  C   UNL     1       9.791  16.716  22.090  1.00  0.00     0.149 A 
ATOM      9  C   UNL     1      10.154  16.676  23.462  1.00  0.00     0.018 A 
ATOM     10  C   UNL     1      10.016  17.847  24.213  1.00  0.00     0.019 A 
ATOM     11  C   UNL     1       9.535  19.003  23.597  1.00  0.00     0.094 A 
ATOM     12  C   UNL     1       9.198  18.963  22.238  1.00  0.00     0.336 A 
ATOM     13  O   UNL     1       8.763  19.999  21.670  1.00  0.00    -0.246 OA
ATOM     14  O   UNL     1       9.336  17.838  21.541  1.00  0.00    -0.422 OA
ENDROOT
TORSDOF 0
ENDMDL
MODEL 8
REMARK VINA RESULT:    -5.078      1.804      5.075
REMARK INTER + INTRA:          -5.078
REMARK INTER:                  -5.078
REMARK INTRA:                   0.000
REMARK UNBOUND:                 0.000
REMARK SMILES O=c1ccc2ccc3occc3c2o1
REMARK SMILES IDX 6 1 7 2 8 3 12 4 11 5 10 6 9 7 13 8 5 9 4 10 3 11 2 12 1 13
REMARK SMILES IDX 14 14
REMARK H PARENT
REMARK Flexibility Score: inf
ROOT
ATOM      1  C   UNL     1       8.729  12.879  25.971  1.00  0.00     0.016 A 
ATOM      2  C   UNL     1       8.668  11.651  26.655  1.00  0.00     0.048 A 
ATOM      3  C   UNL     1       8.985  10.491  25.948  1.00  0.00     0.137 A 
ATOM      4  C   UNL     1       9.348  10.524  24.629  1.00  0.00     0.064 A 
ATOM      5  C   UNL     1       9.590   9.224  24.248  1.00  0.00     0.054 A 
ATOM      6  C   UNL     1       9.351   8.473  25.395  1.00  0.00     0.196 A 
ATOM      7  O   UNL     1       8.991   9.258  26.394  1.00  0.00    -0.464 OA
ATOM      8  C   UNL     1       9.420  11.719  23.917  1.00  0.00     0.149 A 
ATOM      9  C   UNL     1       9.104  12.919  24.605  1.00  0.00     0.018 A 
ATOM     10  C   UNL     1       9.174  14.122  23.897  1.00  0.00     0.019 A 
ATOM     11  C   UNL     1       9.549  14.104  22.553  1.00  0.00     0.094 A 
ATOM     12  C   UNL     1       9.846  12.879  21.943  1.00  0.00     0.336 A 
ATOM     13  O   UNL     1      10.185  12.847  20.731  1.00  0.00    -0.246 OA
ATOM     14  O   UNL     1       9.773  11.745  22.635  1.00  0.00    -0.422 OA
ENDROOT
TORSDOF 0
ENDMDL
MODEL 9
REMARK VINA RESULT:    -5.014      2.047      3.129
REMARK INTER + INTRA:          -5.014
REMARK INTER:                  -5.014
REMARK INTRA:                   0.000
REMARK UNBOUND:                 0.000
REMARK SMILES O=c1ccc2ccc3occc3c2o1
REMARK SMILES IDX 6 1 7 2 8 3 12 4 11 5 10 6 9 7 13 8 5 9 4 10 3 11 2 12 1 13
REMARK SMILES IDX 14 14
REMARK H PARENT
REMARK Flexibility Score: inf
ROOT
ATOM      1  C   UNL     1       9.559  15.527  25.697  1.00  0.00     0.016 A 
ATOM      2  C   UNL     1       9.887  16.890  25.560  1.00  0.00     0.048 A 
ATOM      3  C   UNL     1      10.397  17.321  24.336  1.00  0.00     0.137 A 
ATOM      4  C   UNL     1      10.582  16.462  23.286  1.00  0.00     0.064 A 
ATOM      5  C   UNL     1      11.093  17.205  22.246  1.00  0.00     0.054 A 
ATOM      6  C   UNL     1      11.184  18.498  22.753  1.00  0.00     0.196 A 
ATOM      7  O   UNL     1      10.761  18.535  24.003  1.00  0.00    -0.464 OA
ATOM      8  C   UNL     1      10.271  15.108  23.382  1.00  0.00     0.149 A 
ATOM      9  C   UNL     1       9.748  14.635  24.614  1.00  0.00     0.018 A 
ATOM     10  C   UNL     1       9.435  13.277  24.717  1.00  0.00     0.019 A 
ATOM     11  C   UNL     1       9.640  12.441  23.619  1.00  0.00     0.094 A 
ATOM     12  C   UNL     1      10.159  12.983  22.436  1.00  0.00     0.336 A 
ATOM     13  O   UNL     1      10.350  12.241  21.437  1.00  0.00    -0.246 OA
ATOM     14  O   UNL     1      10.452  14.279  22.359  1.00  0.00    -0.422 OA
ENDROOT
TORSDOF 0
ENDMDL
