MODEL 1
REMARK VINA RESULT:    -6.471      0.000      0.000
REMARK INTER + INTRA:         -10.741
REMARK INTER:                  -9.497
REMARK INTRA:                  -1.244
REMARK UNBOUND:                -1.244
REMARK SMILES Cc1cc2c(C(C)C)c(O)c(O)c(C=O)c2c(O)c1-c1c(C)cc2c(C(C)C)c(O)c(O)c(C=O)c2c1O
REMARK SMILES IDX 1 1 2 2 3 3 4 4 16 5 13 6 11 7 9 8 5 9 17 10 19 11 20 12
REMARK SMILES IDX 37 13 21 14 36 15 23 16 22 17 24 18 33 19 25 20 31 21 29 22
REMARK SMILES IDX 38 23 34 25 35 26 26 27 27 28 28 29 32 30 30 32 18 34 6 36
REMARK SMILES IDX 7 37 8 38 14 39 15 40 10 41 12 43
REMARK H PARENT 38 24 32 31 30 33 18 35 10 42 12 44
REMARK Flexibility Score: inf
ROOT
ATOM      1  C   UNL     1     -12.661  -9.235  62.132  1.00  0.00     0.045 C 
ATOM      2  C   UNL     1     -12.007  -9.511  60.799  1.00  0.00    -0.039 A 
ATOM      3  C   UNL     1     -12.523 -10.519  59.979  1.00  0.00     0.013 A 
ATOM      4  C   UNL     1     -11.957 -10.827  58.725  1.00  0.00    -0.006 A 
ATOM      5  C   UNL     1     -10.770 -10.137  58.332  1.00  0.00     0.039 A 
ATOM      6  C   UNL     1     -10.073 -10.564  57.165  1.00  0.00     0.072 A 
ATOM      7  C   UNL     1     -10.630 -11.558  56.340  1.00  0.00     0.169 A 
ATOM      8  C   UNL     1     -11.851 -12.155  56.672  1.00  0.00     0.162 A 
ATOM      9  C   UNL     1     -12.541 -11.802  57.855  1.00  0.00     0.008 A 
ATOM     10  C   UNL     1     -10.335  -9.017  59.099  1.00  0.00     0.132 A 
ATOM     11  C   UNL     1     -10.936  -8.730  60.342  1.00  0.00     0.031 A 
ENDROOT
BRANCH  11  12
ATOM     12  C   UNL     1     -10.434  -7.601  61.169  1.00  0.00     0.031 A 
ATOM     13  C   UNL     1     -10.977  -6.308  61.008  1.00  0.00     0.132 A 
ATOM     14  C   UNL     1      -9.417  -7.824  62.110  1.00  0.00    -0.039 A 
ATOM     15  C   UNL     1     -10.522  -5.229  61.824  1.00  0.00     0.039 A 
ATOM     16  C   UNL     1      -8.897  -6.747  62.829  1.00  0.00     0.013 A 
ATOM     17  C   UNL     1      -8.853  -9.207  62.332  1.00  0.00     0.045 C 
ATOM     18  C   UNL     1      -9.379  -5.431  62.652  1.00  0.00    -0.006 A 
ATOM     19  C   UNL     1     -11.152  -3.951  61.818  1.00  0.00     0.072 A 
ATOM     20  C   UNL     1      -8.762  -4.322  63.307  1.00  0.00     0.008 A 
ATOM     21  C   UNL     1     -10.612  -2.894  62.573  1.00  0.00     0.169 A 
ATOM     22  C   UNL     1      -9.446  -3.086  63.341  1.00  0.00     0.162 A 
BRANCH  13  23
ATOM     23  O   UNL     1     -11.930  -6.084  60.009  1.00  0.00    -0.507 OA
ATOM     24  H   UNL     1     -11.897  -5.308  59.360  1.00  0.00     0.293 HD
ENDBRANCH  13  23
BRANCH  19  25
ATOM     25  C   UNL     1     -12.450  -3.717  61.141  1.00  0.00     0.264 C 
ATOM     26  O   UNL     1     -12.515  -3.053  60.073  1.00  0.00    -0.298 OA
ENDBRANCH  19  25
BRANCH  20  27
ATOM     27  C   UNL     1      -7.386  -4.455  63.985  1.00  0.00     0.017 C 
ATOM     28  C   UNL     1      -6.288  -4.720  62.949  1.00  0.00     0.012 C 
ATOM     29  C   UNL     1      -7.350  -5.496  65.120  1.00  0.00     0.012 C 
ENDBRANCH  20  27
BRANCH  21  30
ATOM     30  O   UNL     1     -11.265  -1.654  62.542  1.00  0.00    -0.504 OA
ATOM     31  H   UNL     1     -11.925  -1.332  63.235  1.00  0.00     0.293 HD
ENDBRANCH  21  30
BRANCH  22  32
ATOM     32  O   UNL     1      -8.967  -2.075  64.179  1.00  0.00    -0.504 OA
ATOM     33  H   UNL     1      -9.264  -1.111  64.150  1.00  0.00     0.293 HD
ENDBRANCH  22  32
ENDBRANCH  11  12
BRANCH  10  34
ATOM     34  O   UNL     1      -9.342  -8.165  58.602  1.00  0.00    -0.507 OA
ATOM     35  H   UNL     1      -9.397  -7.698  57.707  1.00  0.00     0.293 HD
ENDBRANCH  10  34
BRANCH   9  36
ATOM     36  C   UNL     1     -13.899 -12.487  58.118  1.00  0.00     0.017 C 
ATOM     37  C   UNL     1     -14.811 -12.462  56.883  1.00  0.00     0.012 C 
ATOM     38  C   UNL     1     -13.788 -13.883  58.766  1.00  0.00     0.012 C 
ENDBRANCH   9  36
BRANCH   6  39
ATOM     39  C   UNL     1      -8.714 -10.078  56.840  1.00  0.00     0.264 C 
ATOM     40  O   UNL     1      -8.529  -9.316  55.854  1.00  0.00    -0.298 OA
ENDBRANCH   6  39
BRANCH   8  41
ATOM     41  O   UNL     1     -12.380 -13.133  55.820  1.00  0.00    -0.504 OA
ATOM     42  H   UNL     1     -11.924 -13.430  54.966  1.00  0.00     0.293 HD
ENDBRANCH   8  41
BRANCH   7  43
ATOM     43  O   UNL     1      -9.979 -11.997  55.179  1.00  0.00    -0.504 OA
ATOM     44  H   UNL     1      -9.276 -11.464  54.684  1.00  0.00     0.293 HD
ENDBRANCH   7  43
TORSDOF 11
ENDMDL
MODEL 2
REMARK VINA RESULT:    -6.460      0.602      9.057
REMARK INTER + INTRA:         -10.726
REMARK INTER:                  -9.710
REMARK INTRA:                  -1.015
REMARK UNBOUND:                -1.244
REMARK SMILES Cc1cc2c(C(C)C)c(O)c(O)c(C=O)c2c(O)c1-c1c(C)cc2c(C(C)C)c(O)c(O)c(C=O)c2c1O
REMARK SMILES IDX 1 1 2 2 3 3 4 4 16 5 13 6 11 7 9 8 5 9 17 10 19 11 20 12
REMARK SMILES IDX 37 13 21 14 36 15 23 16 22 17 24 18 33 19 25 20 31 21 29 22
REMARK SMILES IDX 38 23 34 25 35 26 26 27 27 28 28 29 32 30 30 32 18 34 6 36
REMARK SMILES IDX 7 37 8 38 14 39 15 40 10 41 12 43
REMARK H PARENT 38 24 32 31 30 33 18 35 10 42 12 44
REMARK Flexibility Score: inf
ROOT
ATOM      1  C   UNL     1      -8.852  -9.317  61.829  1.00  0.00     0.045 C 
ATOM      2  C   UNL     1      -9.435  -7.926  61.740  1.00  0.00    -0.039 A 
ATOM      3  C   UNL     1      -8.892  -6.904  62.522  1.00  0.00     0.013 A 
ATOM      4  C   UNL     1      -9.391  -5.586  62.486  1.00  0.00    -0.006 A 
ATOM      5  C   UNL     1     -10.543  -5.323  61.685  1.00  0.00     0.039 A 
ATOM      6  C   UNL     1     -11.182  -4.053  61.781  1.00  0.00     0.072 A 
ATOM      7  C   UNL     1     -10.596  -3.031  62.551  1.00  0.00     0.169 A 
ATOM      8  C   UNL     1      -9.405  -3.260  63.249  1.00  0.00     0.162 A 
ATOM      9  C   UNL     1      -8.776  -4.527  63.227  1.00  0.00     0.008 A 
ATOM     10  C   UNL     1     -11.002  -6.327  60.783  1.00  0.00     0.132 A 
ATOM     11  C   UNL     1     -10.467  -7.630  60.837  1.00  0.00     0.031 A 
ENDROOT
BRANCH  11  12
ATOM     12  C   UNL     1     -10.995  -8.691  59.939  1.00  0.00     0.031 A 
ATOM     13  C   UNL     1     -10.567  -8.761  58.595  1.00  0.00     0.132 A 
ATOM     14  C   UNL     1     -11.924  -9.621  60.431  1.00  0.00    -0.039 A 
ATOM     15  C   UNL     1     -11.046  -9.798  57.741  1.00  0.00     0.039 A 
ATOM     16  C   UNL     1     -12.474 -10.567  59.564  1.00  0.00     0.013 A 
ATOM     17  C   UNL     1     -12.361  -9.594  61.875  1.00  0.00     0.045 C 
ATOM     18  C   UNL     1     -12.109 -10.630  58.201  1.00  0.00    -0.006 A 
ATOM     19  C   UNL     1     -10.519 -10.013  56.434  1.00  0.00     0.072 A 
ATOM     20  C   UNL     1     -12.762 -11.524  57.299  1.00  0.00     0.008 A 
ATOM     21  C   UNL     1     -11.085 -10.991  55.596  1.00  0.00     0.169 A 
ATOM     22  C   UNL     1     -12.176 -11.767  56.037  1.00  0.00     0.162 A 
BRANCH  13  23
ATOM     23  O   UNL     1      -9.706  -7.777  58.098  1.00  0.00    -0.507 OA
ATOM     24  H   UNL     1      -8.699  -7.810  58.188  1.00  0.00     0.293 HD
ENDBRANCH  13  23
BRANCH  19  25
ATOM     25  C   UNL     1      -9.293  -9.328  55.958  1.00  0.00     0.264 C 
ATOM     26  O   UNL     1      -9.360  -8.377  55.134  1.00  0.00    -0.298 OA
ENDBRANCH  19  25
BRANCH  20  27
ATOM     27  C   UNL     1     -14.074 -12.235  57.684  1.00  0.00     0.017 C 
ATOM     28  C   UNL     1     -13.790 -13.522  58.465  1.00  0.00     0.012 C 
ATOM     29  C   UNL     1     -15.011 -12.498  56.490  1.00  0.00     0.012 C 
ENDBRANCH  20  27
BRANCH  21  30
ATOM     30  O   UNL     1     -10.534 -11.172  54.320  1.00  0.00    -0.504 OA
ATOM     31  H   UNL     1     -10.986 -10.914  53.454  1.00  0.00     0.293 HD
ENDBRANCH  21  30
BRANCH  22  32
ATOM     32  O   UNL     1     -12.672 -12.814  55.255  1.00  0.00    -0.504 OA
ATOM     33  H   UNL     1     -12.702 -13.783  55.539  1.00  0.00     0.293 HD
ENDBRANCH  22  32
ENDBRANCH  11  12
BRANCH  10  34
ATOM     34  O   UNL     1     -11.952  -6.014  59.803  1.00  0.00    -0.507 OA
ATOM     35  H   UNL     1     -12.427  -6.705  59.238  1.00  0.00     0.293 HD
ENDBRANCH  10  34
BRANCH   9  36
ATOM     36  C   UNL     1      -7.446  -4.674  63.996  1.00  0.00     0.017 C 
ATOM     37  C   UNL     1      -7.539  -5.711  65.124  1.00  0.00     0.012 C 
ATOM     38  C   UNL     1      -6.211  -4.867  63.092  1.00  0.00     0.012 C 
ENDBRANCH   9  36
BRANCH   6  39
ATOM     39  C   UNL     1     -12.512  -3.795  61.190  1.00  0.00     0.264 C 
ATOM     40  O   UNL     1     -12.627  -3.044  60.184  1.00  0.00    -0.298 OA
ENDBRANCH   6  39
BRANCH   8  41
ATOM     41  O   UNL     1      -8.846  -2.216  63.995  1.00  0.00    -0.504 OA
ATOM     42  H   UNL     1      -9.381  -1.424  64.330  1.00  0.00     0.293 HD
ENDBRANCH   8  41
BRANCH   7  43
ATOM     43  O   UNL     1     -11.188  -1.766  62.663  1.00  0.00    -0.504 OA
ATOM     44  H   UNL     1     -10.701  -0.893  62.506  1.00  0.00     0.293 HD
ENDBRANCH   7  43
TORSDOF 11
ENDMDL
MODEL 3
REMARK VINA RESULT:    -6.295      3.705      8.894
REMARK INTER + INTRA:         -10.483
REMARK INTER:                  -9.221
REMARK INTRA:                  -1.262
REMARK UNBOUND:                -1.244
REMARK SMILES Cc1cc2c(C(C)C)c(O)c(O)c(C=O)c2c(O)c1-c1c(C)cc2c(C(C)C)c(O)c(O)c(C=O)c2c1O
REMARK SMILES IDX 1 1 2 2 3 3 4 4 16 5 13 6 11 7 9 8 5 9 17 10 19 11 20 12
REMARK SMILES IDX 37 13 21 14 36 15 23 16 22 17 24 18 33 19 25 20 31 21 29 22
REMARK SMILES IDX 38 23 34 25 35 26 26 27 27 28 28 29 32 30 30 32 18 34 6 36
REMARK SMILES IDX 7 37 8 38 14 39 15 40 10 41 12 43
REMARK H PARENT 38 24 32 31 30 33 18 35 10 42 12 44
REMARK Flexibility Score: inf
ROOT
ATOM      1  C   UNL     1     -11.399  -7.752  64.144  1.00  0.00     0.045 C 
ATOM      2  C   UNL     1     -10.230  -7.778  63.189  1.00  0.00    -0.039 A 
ATOM      3  C   UNL     1      -9.253  -6.782  63.275  1.00  0.00     0.013 A 
ATOM      4  C   UNL     1      -8.138  -6.750  62.412  1.00  0.00    -0.006 A 
ATOM      5  C   UNL     1      -8.063  -7.722  61.369  1.00  0.00     0.039 A 
ATOM      6  C   UNL     1      -7.055  -7.594  60.370  1.00  0.00     0.072 A 
ATOM      7  C   UNL     1      -6.064  -6.602  60.498  1.00  0.00     0.169 A 
ATOM      8  C   UNL     1      -6.078  -5.719  61.583  1.00  0.00     0.162 A 
ATOM      9  C   UNL     1      -7.099  -5.776  62.561  1.00  0.00     0.008 A 
ATOM     10  C   UNL     1      -8.978  -8.815  61.376  1.00  0.00     0.132 A 
ATOM     11  C   UNL     1     -10.073  -8.821  62.264  1.00  0.00     0.031 A 
ENDROOT
BRANCH  11  12
ATOM     12  C   UNL     1     -11.061  -9.931  62.222  1.00  0.00     0.031 A 
ATOM     13  C   UNL     1     -10.887 -11.068  63.039  1.00  0.00     0.132 A 
ATOM     14  C   UNL     1     -12.169  -9.845  61.364  1.00  0.00    -0.039 A 
ATOM     15  C   UNL     1     -11.851 -12.119  63.026  1.00  0.00     0.039 A 
ATOM     16  C   UNL     1     -13.052 -10.922  61.272  1.00  0.00     0.013 A 
ATOM     17  C   UNL     1     -12.401  -8.619  60.514  1.00  0.00     0.045 C 
ATOM     18  C   UNL     1     -12.876 -12.097  62.035  1.00  0.00    -0.006 A 
ATOM     19  C   UNL     1     -11.810 -13.203  63.950  1.00  0.00     0.072 A 
ATOM     20  C   UNL     1     -13.718 -13.235  61.847  1.00  0.00     0.008 A 
ATOM     21  C   UNL     1     -12.731 -14.261  63.841  1.00  0.00     0.169 A 
ATOM     22  C   UNL     1     -13.701 -14.261  62.818  1.00  0.00     0.162 A 
BRANCH  13  23
ATOM     23  O   UNL     1      -9.735 -11.177  63.827  1.00  0.00    -0.507 OA
ATOM     24  H   UNL     1      -8.876 -10.675  63.642  1.00  0.00     0.293 HD
ENDBRANCH  13  23
BRANCH  19  25
ATOM     25  C   UNL     1     -10.905 -13.202  65.125  1.00  0.00     0.264 C 
ATOM     26  O   UNL     1      -9.814 -13.831  65.104  1.00  0.00    -0.298 OA
ENDBRANCH  19  25
BRANCH  20  27
ATOM     27  C   UNL     1     -14.647 -13.353  60.624  1.00  0.00     0.017 C 
ATOM     28  C   UNL     1     -16.046 -13.816  61.042  1.00  0.00     0.012 C 
ATOM     29  C   UNL     1     -14.079 -14.234  59.494  1.00  0.00     0.012 C 
ENDBRANCH  20  27
BRANCH  21  30
ATOM     30  O   UNL     1     -12.657 -15.306  64.772  1.00  0.00    -0.504 OA
ATOM     31  H   UNL     1     -12.333 -16.240  64.567  1.00  0.00     0.293 HD
ENDBRANCH  21  30
BRANCH  22  32
ATOM     32  O   UNL     1     -14.688 -15.250  62.769  1.00  0.00    -0.504 OA
ATOM     33  H   UNL     1     -14.804 -15.986  63.451  1.00  0.00     0.293 HD
ENDBRANCH  22  32
ENDBRANCH  11  12
BRANCH  10  34
ATOM     34  O   UNL     1      -8.770  -9.914  60.534  1.00  0.00    -0.507 OA
ATOM     35  H   UNL     1      -8.272  -9.864  59.655  1.00  0.00     0.293 HD
ENDBRANCH  10  34
BRANCH   9  36
ATOM     36  C   UNL     1      -7.009  -4.787  63.742  1.00  0.00     0.017 C 
ATOM     37  C   UNL     1      -7.852  -3.526  63.508  1.00  0.00     0.012 C 
ATOM     38  C   UNL     1      -7.245  -5.430  65.125  1.00  0.00     0.012 C 
ENDBRANCH   9  36
BRANCH   6  39
ATOM     39  C   UNL     1      -7.072  -8.397  59.129  1.00  0.00     0.264 C 
ATOM     40  O   UNL     1      -6.172  -9.251  58.911  1.00  0.00    -0.298 OA
ENDBRANCH   6  39
BRANCH   8  41
ATOM     41  O   UNL     1      -5.070  -4.753  61.683  1.00  0.00    -0.504 OA
ATOM     42  H   UNL     1      -5.244  -3.758  61.601  1.00  0.00     0.293 HD
ENDBRANCH   8  41
BRANCH   7  43
ATOM     43  O   UNL     1      -5.051  -6.450  59.542  1.00  0.00    -0.504 OA
ATOM     44  H   UNL     1      -4.702  -7.200  58.959  1.00  0.00     0.293 HD
ENDBRANCH   7  43
TORSDOF 11
ENDMDL
MODEL 4
REMARK VINA RESULT:    -6.257      3.432      5.089
REMARK INTER + INTRA:         -10.427
REMARK INTER:                  -8.813
REMARK INTRA:                  -1.614
REMARK UNBOUND:                -1.244
REMARK SMILES Cc1cc2c(C(C)C)c(O)c(O)c(C=O)c2c(O)c1-c1c(C)cc2c(C(C)C)c(O)c(O)c(C=O)c2c1O
REMARK SMILES IDX 1 1 2 2 3 3 4 4 16 5 13 6 11 7 9 8 5 9 17 10 19 11 20 12
REMARK SMILES IDX 37 13 21 14 36 15 23 16 22 17 24 18 33 19 25 20 31 21 29 22
REMARK SMILES IDX 38 23 34 25 35 26 26 27 27 28 28 29 32 30 30 32 18 34 6 36
REMARK SMILES IDX 7 37 8 38 14 39 15 40 10 41 12 43
REMARK H PARENT 38 24 32 31 30 33 18 35 10 42 12 44
REMARK Flexibility Score: inf
ROOT
ATOM      1  C   UNL     1     -10.317 -11.812  59.640  1.00  0.00     0.045 C 
ATOM      2  C   UNL     1     -11.484 -12.334  60.444  1.00  0.00    -0.039 A 
ATOM      3  C   UNL     1     -11.997 -13.602  60.161  1.00  0.00     0.013 A 
ATOM      4  C   UNL     1     -13.086 -14.146  60.874  1.00  0.00    -0.006 A 
ATOM      5  C   UNL     1     -13.727 -13.329  61.854  1.00  0.00     0.039 A 
ATOM      6  C   UNL     1     -14.942 -13.778  62.447  1.00  0.00     0.072 A 
ATOM      7  C   UNL     1     -15.420 -15.073  62.170  1.00  0.00     0.169 A 
ATOM      8  C   UNL     1     -14.727 -15.913  61.292  1.00  0.00     0.162 A 
ATOM      9  C   UNL     1     -13.551 -15.479  60.636  1.00  0.00     0.008 A 
ATOM     10  C   UNL     1     -13.113 -12.100  62.238  1.00  0.00     0.132 A 
ATOM     11  C   UNL     1     -12.016 -11.595  61.511  1.00  0.00     0.031 A 
ENDROOT
BRANCH  11  12
ATOM     12  C   UNL     1     -11.422 -10.282  61.875  1.00  0.00     0.031 A 
ATOM     13  C   UNL     1     -11.871  -9.101  61.244  1.00  0.00     0.132 A 
ATOM     14  C   UNL     1     -10.410 -10.220  62.846  1.00  0.00    -0.039 A 
ATOM     15  C   UNL     1     -11.327  -7.836  61.615  1.00  0.00     0.039 A 
ATOM     16  C   UNL     1      -9.803  -8.995  63.128  1.00  0.00     0.013 A 
ATOM     17  C   UNL     1      -9.946 -11.463  63.566  1.00  0.00     0.045 C 
ATOM     18  C   UNL     1     -10.190  -7.804  62.476  1.00  0.00    -0.006 A 
ATOM     19  C   UNL     1     -11.861  -6.606  61.134  1.00  0.00     0.072 A 
ATOM     20  C   UNL     1      -9.485  -6.580  62.688  1.00  0.00     0.008 A 
ATOM     21  C   UNL     1     -11.235  -5.388  61.458  1.00  0.00     0.169 A 
ATOM     22  C   UNL     1     -10.076  -5.371  62.258  1.00  0.00     0.162 A 
BRANCH  13  23
ATOM     23  O   UNL     1     -12.819  -9.189  60.220  1.00  0.00    -0.507 OA
ATOM     24  H   UNL     1     -13.782  -9.468  60.363  1.00  0.00     0.293 HD
ENDBRANCH  13  23
BRANCH  19  25
ATOM     25  C   UNL     1     -13.149  -6.541  60.401  1.00  0.00     0.264 C 
ATOM     26  O   UNL     1     -13.178  -6.352  59.156  1.00  0.00    -0.298 OA
ENDBRANCH  19  25
BRANCH  20  27
ATOM     27  C   UNL     1      -8.112  -6.556  63.386  1.00  0.00     0.017 C 
ATOM     28  C   UNL     1      -8.211  -5.899  64.767  1.00  0.00     0.012 C 
ATOM     29  C   UNL     1      -6.995  -5.916  62.539  1.00  0.00     0.012 C 
ENDBRANCH  20  27
BRANCH  21  30
ATOM     30  O   UNL     1     -11.796  -4.201  60.966  1.00  0.00    -0.504 OA
ATOM     31  H   UNL     1     -11.613  -3.811  60.053  1.00  0.00     0.293 HD
ENDBRANCH  21  30
BRANCH  22  32
ATOM     32  O   UNL     1      -9.512  -4.162  62.676  1.00  0.00    -0.504 OA
ATOM     33  H   UNL     1      -9.958  -3.259  62.597  1.00  0.00     0.293 HD
ENDBRANCH  22  32
ENDBRANCH  11  12
BRANCH  10  34
ATOM     34  O   UNL     1     -13.565 -11.410  63.369  1.00  0.00    -0.507 OA
ATOM     35  H   UNL     1     -14.240 -11.783  64.025  1.00  0.00     0.293 HD
ENDBRANCH  10  34
BRANCH   9  36
ATOM     36  C   UNL     1     -12.836 -16.489  59.714  1.00  0.00     0.017 C 
ATOM     37  C   UNL     1     -12.946 -16.102  58.233  1.00  0.00     0.012 C 
ATOM     38  C   UNL     1     -11.396 -16.831  60.150  1.00  0.00     0.012 C 
ENDBRANCH   9  36
BRANCH   6  39
ATOM     39  C   UNL     1     -15.793 -12.889  63.265  1.00  0.00     0.264 C 
ATOM     40  O   UNL     1     -15.974 -13.128  64.489  1.00  0.00    -0.298 OA
ENDBRANCH   6  39
BRANCH   8  41
ATOM     41  O   UNL     1     -15.227 -17.199  61.049  1.00  0.00    -0.504 OA
ATOM     42  H   UNL     1     -15.111 -17.970  61.695  1.00  0.00     0.293 HD
ENDBRANCH   8  41
BRANCH   7  43
ATOM     43  O   UNL     1     -16.605 -15.555  62.741  1.00  0.00    -0.504 OA
ATOM     44  H   UNL     1     -17.213 -15.008  63.336  1.00  0.00     0.293 HD
ENDBRANCH   7  43
TORSDOF 11
ENDMDL
MODEL 5
REMARK VINA RESULT:    -6.191      3.235      4.609
REMARK INTER + INTRA:         -10.331
REMARK INTER:                  -9.165
REMARK INTRA:                  -1.166
REMARK UNBOUND:                -1.244
REMARK SMILES Cc1cc2c(C(C)C)c(O)c(O)c(C=O)c2c(O)c1-c1c(C)cc2c(C(C)C)c(O)c(O)c(C=O)c2c1O
REMARK SMILES IDX 1 1 2 2 3 3 4 4 16 5 13 6 11 7 9 8 5 9 17 10 19 11 20 12
REMARK SMILES IDX 37 13 21 14 36 15 23 16 22 17 24 18 33 19 25 20 31 21 29 22
REMARK SMILES IDX 38 23 34 25 35 26 26 27 27 28 28 29 32 30 30 32 18 34 6 36
REMARK SMILES IDX 7 37 8 38 14 39 15 40 10 41 12 43
REMARK H PARENT 38 24 32 31 30 33 18 35 10 42 12 44
REMARK Flexibility Score: inf
ROOT
ATOM      1  C   UNL     1     -10.689  -9.303  58.085  1.00  0.00     0.045 C 
ATOM      2  C   UNL     1     -11.250 -10.117  59.227  1.00  0.00    -0.039 A 
ATOM      3  C   UNL     1     -12.334 -10.967  58.994  1.00  0.00     0.013 A 
ATOM      4  C   UNL     1     -12.904 -11.752  60.018  1.00  0.00    -0.006 A 
ATOM      5  C   UNL     1     -12.402 -11.597  61.346  1.00  0.00     0.039 A 
ATOM      6  C   UNL     1     -13.085 -12.229  62.425  1.00  0.00     0.072 A 
ATOM      7  C   UNL     1     -14.154 -13.106  62.160  1.00  0.00     0.169 A 
ATOM      8  C   UNL     1     -14.573 -13.339  60.846  1.00  0.00     0.162 A 
ATOM      9  C   UNL     1     -13.960 -12.682  59.754  1.00  0.00     0.008 A 
ATOM     10  C   UNL     1     -11.209 -10.844  61.550  1.00  0.00     0.132 A 
ATOM     11  C   UNL     1     -10.658 -10.084  60.499  1.00  0.00     0.031 A 
ENDROOT
BRANCH  11  12
ATOM     12  C   UNL     1      -9.452  -9.248  60.735  1.00  0.00     0.031 A 
ATOM     13  C   UNL     1      -9.568  -8.006  61.398  1.00  0.00     0.132 A 
ATOM     14  C   UNL     1      -8.197  -9.696  60.295  1.00  0.00    -0.039 A 
ATOM     15  C   UNL     1      -8.408  -7.218  61.657  1.00  0.00     0.039 A 
ATOM     16  C   UNL     1      -7.080  -8.873  60.452  1.00  0.00     0.013 A 
ATOM     17  C   UNL     1      -8.042 -11.040  59.625  1.00  0.00     0.045 C 
ATOM     18  C   UNL     1      -7.171  -7.602  61.060  1.00  0.00    -0.006 A 
ATOM     19  C   UNL     1      -8.448  -6.046  62.466  1.00  0.00     0.072 A 
ATOM     20  C   UNL     1      -6.046  -6.723  61.110  1.00  0.00     0.008 A 
ATOM     21  C   UNL     1      -7.296  -5.252  62.619  1.00  0.00     0.169 A 
ATOM     22  C   UNL     1      -6.093  -5.606  61.975  1.00  0.00     0.162 A 
BRANCH  13  23
ATOM     23  O   UNL     1     -10.836  -7.536  61.755  1.00  0.00    -0.507 OA
ATOM     24  H   UNL     1     -11.686  -7.768  61.257  1.00  0.00     0.293 HD
ENDBRANCH  13  23
BRANCH  19  25
ATOM     25  C   UNL     1      -9.639  -5.689  63.275  1.00  0.00     0.264 C 
ATOM     26  O   UNL     1     -10.360  -4.703  62.968  1.00  0.00    -0.298 OA
ENDBRANCH  19  25
BRANCH  20  27
ATOM     27  C   UNL     1      -4.789  -6.979  60.259  1.00  0.00     0.017 C 
ATOM     28  C   UNL     1      -5.101  -6.841  58.765  1.00  0.00     0.012 C 
ATOM     29  C   UNL     1      -4.094  -8.321  60.564  1.00  0.00     0.012 C 
ENDBRANCH  20  27
BRANCH  21  30
ATOM     30  O   UNL     1      -7.379  -4.110  63.426  1.00  0.00    -0.504 OA
ATOM     31  H   UNL     1      -7.003  -3.204  63.184  1.00  0.00     0.293 HD
ENDBRANCH  21  30
BRANCH  22  32
ATOM     32  O   UNL     1      -4.918  -4.888  62.210  1.00  0.00    -0.504 OA
ATOM     33  H   UNL     1      -4.556  -4.653  63.123  1.00  0.00     0.293 HD
ENDBRANCH  22  32
ENDBRANCH  11  12
BRANCH  10  34
ATOM     34  O   UNL     1     -10.549 -10.891  62.784  1.00  0.00    -0.507 OA
ATOM     35  H   UNL     1     -10.490 -11.721  63.360  1.00  0.00     0.293 HD
ENDBRANCH  10  34
BRANCH   9  36
ATOM     36  C   UNL     1     -14.464 -13.032  58.338  1.00  0.00     0.017 C 
ATOM     37  C   UNL     1     -14.769 -11.780  57.504  1.00  0.00     0.012 C 
ATOM     38  C   UNL     1     -13.591 -14.063  57.593  1.00  0.00     0.012 C 
ENDBRANCH   9  36
BRANCH   6  39
ATOM     39  C   UNL     1     -12.787 -11.911  63.837  1.00  0.00     0.264 C 
ATOM     40  O   UNL     1     -12.189 -12.746  64.567  1.00  0.00    -0.298 OA
ENDBRANCH   6  39
BRANCH   8  41
ATOM     41  O   UNL     1     -15.633 -14.227  60.621  1.00  0.00    -0.504 OA
ATOM     42  H   UNL     1     -16.548 -14.117  61.042  1.00  0.00     0.293 HD
ENDBRANCH   8  41
BRANCH   7  43
ATOM     43  O   UNL     1     -14.844 -13.753  63.194  1.00  0.00    -0.504 OA
ATOM     44  H   UNL     1     -14.420 -14.406  63.839  1.00  0.00     0.293 HD
ENDBRANCH   7  43
TORSDOF 11
ENDMDL
MODEL 6
REMARK VINA RESULT:    -6.173      2.900      8.402
REMARK INTER + INTRA:         -10.305
REMARK INTER:                  -9.091
REMARK INTRA:                  -1.213
REMARK UNBOUND:                -1.244
REMARK SMILES Cc1cc2c(C(C)C)c(O)c(O)c(C=O)c2c(O)c1-c1c(C)cc2c(C(C)C)c(O)c(O)c(C=O)c2c1O
REMARK SMILES IDX 1 1 2 2 3 3 4 4 16 5 13 6 11 7 9 8 5 9 17 10 19 11 20 12
REMARK SMILES IDX 37 13 21 14 36 15 23 16 22 17 24 18 33 19 25 20 31 21 29 22
REMARK SMILES IDX 38 23 34 25 35 26 26 27 27 28 28 29 32 30 30 32 18 34 6 36
REMARK SMILES IDX 7 37 8 38 14 39 15 40 10 41 12 43
REMARK H PARENT 38 24 32 31 30 33 18 35 10 42 12 44
REMARK Flexibility Score: inf
ROOT
ATOM      1  C   UNL     1     -11.383  -7.711  63.530  1.00  0.00     0.045 C 
ATOM      2  C   UNL     1     -10.090  -7.756  62.751  1.00  0.00    -0.039 A 
ATOM      3  C   UNL     1      -9.140  -6.748  62.941  1.00  0.00     0.013 A 
ATOM      4  C   UNL     1      -7.915  -6.732  62.243  1.00  0.00    -0.006 A 
ATOM      5  C   UNL     1      -7.689  -7.734  61.252  1.00  0.00     0.039 A 
ATOM      6  C   UNL     1      -6.551  -7.627  60.402  1.00  0.00     0.072 A 
ATOM      7  C   UNL     1      -5.594  -6.622  60.636  1.00  0.00     0.169 A 
ATOM      8  C   UNL     1      -5.765  -5.707  61.680  1.00  0.00     0.162 A 
ATOM      9  C   UNL     1      -6.913  -5.744  62.506  1.00  0.00     0.008 A 
ATOM     10  C   UNL     1      -8.591  -8.835  61.165  1.00  0.00     0.132 A 
ATOM     11  C   UNL     1      -9.799  -8.825  61.890  1.00  0.00     0.031 A 
ENDROOT
BRANCH  11  12
ATOM     12  C   UNL     1     -10.766  -9.945  61.745  1.00  0.00     0.031 A 
ATOM     13  C   UNL     1     -11.570 -10.043  60.588  1.00  0.00     0.132 A 
ATOM     14  C   UNL     1     -10.879 -10.904  62.763  1.00  0.00    -0.039 A 
ATOM     15  C   UNL     1     -12.473 -11.135  60.430  1.00  0.00     0.039 A 
ATOM     16  C   UNL     1     -11.841 -11.910  62.656  1.00  0.00     0.013 A 
ATOM     17  C   UNL     1      -9.998 -10.846  63.988  1.00  0.00     0.045 C 
ATOM     18  C   UNL     1     -12.699 -12.004  61.538  1.00  0.00    -0.006 A 
ATOM     19  C   UNL     1     -13.179 -11.371  59.215  1.00  0.00     0.072 A 
ATOM     20  C   UNL     1     -13.754 -12.965  61.494  1.00  0.00     0.008 A 
ATOM     21  C   UNL     1     -14.126 -12.409  59.137  1.00  0.00     0.169 A 
ATOM     22  C   UNL     1     -14.387 -13.224  60.257  1.00  0.00     0.162 A 
BRANCH  13  23
ATOM     23  O   UNL     1     -11.505  -9.034  59.621  1.00  0.00    -0.507 OA
ATOM     24  H   UNL     1     -10.650  -8.566  59.350  1.00  0.00     0.293 HD
ENDBRANCH  13  23
BRANCH  19  25
ATOM     25  C   UNL     1     -12.859 -10.640  57.965  1.00  0.00     0.264 C 
ATOM     26  O   UNL     1     -13.529  -9.634  57.612  1.00  0.00    -0.298 OA
ENDBRANCH  19  25
BRANCH  20  27
ATOM     27  C   UNL     1     -14.198 -13.729  62.756  1.00  0.00     0.017 C 
ATOM     28  C   UNL     1     -13.838 -15.215  62.651  1.00  0.00     0.012 C 
ATOM     29  C   UNL     1     -15.685 -13.536  63.109  1.00  0.00     0.012 C 
ENDBRANCH  20  27
BRANCH  21  30
ATOM     30  O   UNL     1     -14.795 -12.608  57.922  1.00  0.00    -0.504 OA
ATOM     31  H   UNL     1     -14.932 -11.899  57.216  1.00  0.00     0.293 HD
ENDBRANCH  21  30
BRANCH  22  32
ATOM     32  O   UNL     1     -15.243 -14.324  60.157  1.00  0.00    -0.504 OA
ATOM     33  H   UNL     1     -16.018 -14.397  59.514  1.00  0.00     0.293 HD
ENDBRANCH  22  32
ENDBRANCH  11  12
BRANCH  10  34
ATOM     34  O   UNL     1      -8.260  -9.957  60.396  1.00  0.00    -0.507 OA
ATOM     35  H   UNL     1      -8.166 -10.892  60.773  1.00  0.00     0.293 HD
ENDBRANCH  10  34
BRANCH   9  36
ATOM     36  C   UNL     1      -6.996  -4.718  63.656  1.00  0.00     0.017 C 
ATOM     37  C   UNL     1      -7.971  -3.574  63.344  1.00  0.00     0.012 C 
ATOM     38  C   UNL     1      -7.217  -5.345  65.048  1.00  0.00     0.012 C 
ENDBRANCH   9  36
BRANCH   6  39
ATOM     39  C   UNL     1      -6.389  -8.468  59.197  1.00  0.00     0.264 C 
ATOM     40  O   UNL     1      -5.487  -9.346  59.150  1.00  0.00    -0.298 OA
ENDBRANCH   6  39
BRANCH   8  41
ATOM     41  O   UNL     1      -4.785  -4.728  61.890  1.00  0.00    -0.504 OA
ATOM     42  H   UNL     1      -4.042  -4.536  61.228  1.00  0.00     0.293 HD
ENDBRANCH   8  41
BRANCH   7  43
ATOM     43  O   UNL     1      -4.457  -6.490  59.827  1.00  0.00    -0.504 OA
ATOM     44  H   UNL     1      -3.623  -7.056  59.921  1.00  0.00     0.293 HD
ENDBRANCH   7  43
TORSDOF 11
ENDMDL
MODEL 7
REMARK VINA RESULT:    -6.155      3.343      8.943
REMARK INTER + INTRA:         -10.278
REMARK INTER:                  -9.027
REMARK INTRA:                  -1.251
REMARK UNBOUND:                -1.244
REMARK SMILES Cc1cc2c(C(C)C)c(O)c(O)c(C=O)c2c(O)c1-c1c(C)cc2c(C(C)C)c(O)c(O)c(C=O)c2c1O
REMARK SMILES IDX 1 1 2 2 3 3 4 4 16 5 13 6 11 7 9 8 5 9 17 10 19 11 20 12
REMARK SMILES IDX 37 13 21 14 36 15 23 16 22 17 24 18 33 19 25 20 31 21 29 22
REMARK SMILES IDX 38 23 34 25 35 26 26 27 27 28 28 29 32 30 30 32 18 34 6 36
REMARK SMILES IDX 7 37 8 38 14 39 15 40 10 41 12 43
REMARK H PARENT 38 24 32 31 30 33 18 35 10 42 12 44
REMARK Flexibility Score: inf
ROOT
ATOM      1  C   UNL     1      -8.184 -11.187  59.551  1.00  0.00     0.045 C 
ATOM      2  C   UNL     1      -8.297  -9.857  60.256  1.00  0.00    -0.039 A 
ATOM      3  C   UNL     1      -7.170  -9.037  60.358  1.00  0.00     0.013 A 
ATOM      4  C   UNL     1      -7.211  -7.784  61.005  1.00  0.00    -0.006 A 
ATOM      5  C   UNL     1      -8.426  -7.394  61.646  1.00  0.00     0.039 A 
ATOM      6  C   UNL     1      -8.435  -6.230  62.467  1.00  0.00     0.072 A 
ATOM      7  C   UNL     1      -7.297  -5.405  62.527  1.00  0.00     0.169 A 
ATOM      8  C   UNL     1      -6.143  -5.734  61.808  1.00  0.00     0.162 A 
ATOM      9  C   UNL     1      -6.074  -6.914  61.032  1.00  0.00     0.008 A 
ATOM     10  C   UNL     1      -9.605  -8.161  61.416  1.00  0.00     0.132 A 
ATOM     11  C   UNL     1      -9.529  -9.402  60.751  1.00  0.00     0.031 A 
ENDROOT
BRANCH  11  12
ATOM     12  C   UNL     1     -10.752 -10.229  60.573  1.00  0.00     0.031 A 
ATOM     13  C   UNL     1     -11.241 -11.012  61.641  1.00  0.00     0.132 A 
ATOM     14  C   UNL     1     -11.417 -10.230  59.337  1.00  0.00    -0.039 A 
ATOM     15  C   UNL     1     -12.433 -11.779  61.483  1.00  0.00     0.039 A 
ATOM     16  C   UNL     1     -12.520 -11.066  59.151  1.00  0.00     0.013 A 
ATOM     17  C   UNL     1     -10.939  -9.366  58.195  1.00  0.00     0.045 C 
ATOM     18  C   UNL     1     -13.002 -11.903  60.182  1.00  0.00    -0.006 A 
ATOM     19  C   UNL     1     -13.059 -12.448  62.575  1.00  0.00     0.072 A 
ATOM     20  C   UNL     1     -14.056 -12.837  59.944  1.00  0.00     0.008 A 
ATOM     21  C   UNL     1     -14.182 -13.266  62.353  1.00  0.00     0.169 A 
ATOM     22  C   UNL     1     -14.700 -13.431  61.053  1.00  0.00     0.162 A 
BRANCH  13  23
ATOM     23  O   UNL     1     -10.520 -11.065  62.838  1.00  0.00    -0.507 OA
ATOM     24  H   UNL     1     -10.233 -11.925  63.287  1.00  0.00     0.293 HD
ENDBRANCH  13  23
BRANCH  19  25
ATOM     25  C   UNL     1     -12.648 -12.213  63.981  1.00  0.00     0.264 C 
ATOM     26  O   UNL     1     -11.976 -13.070  64.612  1.00  0.00    -0.298 OA
ENDBRANCH  19  25
BRANCH  20  27
ATOM     27  C   UNL     1     -14.509 -13.191  58.515  1.00  0.00     0.017 C 
ATOM     28  C   UNL     1     -13.520 -14.153  57.849  1.00  0.00     0.012 C 
ATOM     29  C   UNL     1     -14.778 -11.960  57.627  1.00  0.00     0.012 C 
ENDBRANCH  20  27
BRANCH  21  30
ATOM     30  O   UNL     1     -14.768 -13.902  63.455  1.00  0.00    -0.504 OA
ATOM     31  H   UNL     1     -14.420 -13.854  64.402  1.00  0.00     0.293 HD
ENDBRANCH  21  30
BRANCH  22  32
ATOM     32  O   UNL     1     -15.879 -14.151  60.839  1.00  0.00    -0.504 OA
ATOM     33  H   UNL     1     -16.353 -14.705  61.538  1.00  0.00     0.293 HD
ENDBRANCH  22  32
ENDBRANCH  11  12
BRANCH  10  34
ATOM     34  O   UNL     1     -10.855  -7.666  61.807  1.00  0.00    -0.507 OA
ATOM     35  H   UNL     1     -11.094  -6.683  61.817  1.00  0.00     0.293 HD
ENDBRANCH  10  34
BRANCH   9  36
ATOM     36  C   UNL     1      -4.773  -7.174  60.244  1.00  0.00     0.017 C 
ATOM     37  C   UNL     1      -4.121  -8.511  60.624  1.00  0.00     0.012 C 
ATOM     38  C   UNL     1      -4.904  -6.971  58.721  1.00  0.00     0.012 C 
ENDBRANCH   9  36
BRANCH   6  39
ATOM     39  C   UNL     1      -9.568  -5.909  63.361  1.00  0.00     0.264 C 
ATOM     40  O   UNL     1     -10.273  -4.885  63.154  1.00  0.00    -0.298 OA
ENDBRANCH   6  39
BRANCH   8  41
ATOM     41  O   UNL     1      -5.033  -4.882  61.883  1.00  0.00    -0.504 OA
ATOM     42  H   UNL     1      -4.558  -4.664  62.751  1.00  0.00     0.293 HD
ENDBRANCH   8  41
BRANCH   7  43
ATOM     43  O   UNL     1      -7.271  -4.247  63.315  1.00  0.00    -0.504 OA
ATOM     44  H   UNL     1      -6.471  -3.635  63.402  1.00  0.00     0.293 HD
ENDBRANCH   7  43
TORSDOF 11
ENDMDL
MODEL 8
REMARK VINA RESULT:    -6.128      3.200      5.123
REMARK INTER + INTRA:         -10.238
REMARK INTER:                  -9.212
REMARK INTRA:                  -1.026
REMARK UNBOUND:                -1.244
REMARK SMILES Cc1cc2c(C(C)C)c(O)c(O)c(C=O)c2c(O)c1-c1c(C)cc2c(C(C)C)c(O)c(O)c(C=O)c2c1O
REMARK SMILES IDX 1 1 2 2 3 3 4 4 16 5 13 6 11 7 9 8 5 9 17 10 19 11 20 12
REMARK SMILES IDX 37 13 21 14 36 15 23 16 22 17 24 18 33 19 25 20 31 21 29 22
REMARK SMILES IDX 38 23 34 25 35 26 26 27 27 28 28 29 32 30 30 32 18 34 6 36
REMARK SMILES IDX 7 37 8 38 14 39 15 40 10 41 12 43
REMARK H PARENT 38 24 32 31 30 33 18 35 10 42 12 44
REMARK Flexibility Score: inf
ROOT
ATOM      1  C   UNL     1     -11.442  -9.187  58.581  1.00  0.00     0.045 C 
ATOM      2  C   UNL     1     -11.948 -10.114  59.660  1.00  0.00    -0.039 A 
ATOM      3  C   UNL     1     -12.791 -11.173  59.314  1.00  0.00     0.013 A 
ATOM      4  C   UNL     1     -13.298 -12.073  60.274  1.00  0.00    -0.006 A 
ATOM      5  C   UNL     1     -13.002 -11.829  61.650  1.00  0.00     0.039 A 
ATOM      6  C   UNL     1     -13.658 -12.604  62.649  1.00  0.00     0.072 A 
ATOM      7  C   UNL     1     -14.476 -13.685  62.273  1.00  0.00     0.169 A 
ATOM      8  C   UNL     1     -14.676 -13.989  60.922  1.00  0.00     0.162 A 
ATOM      9  C   UNL     1     -14.092 -13.204  59.900  1.00  0.00     0.008 A 
ATOM     10  C   UNL     1     -12.030 -10.841  61.983  1.00  0.00     0.132 A 
ATOM     11  C   UNL     1     -11.533  -9.969  60.993  1.00  0.00     0.031 A 
ENDROOT
BRANCH  11  12
ATOM     12  C   UNL     1     -10.569  -8.898  61.358  1.00  0.00     0.031 A 
ATOM     13  C   UNL     1      -9.204  -9.026  61.023  1.00  0.00     0.132 A 
ATOM     14  C   UNL     1     -11.021  -7.758  62.041  1.00  0.00    -0.039 A 
ATOM     15  C   UNL     1      -8.283  -7.984  61.341  1.00  0.00     0.039 A 
ATOM     16  C   UNL     1     -10.101  -6.791  62.449  1.00  0.00     0.013 A 
ATOM     17  C   UNL     1     -12.484  -7.578  62.370  1.00  0.00     0.045 C 
ATOM     18  C   UNL     1      -8.721  -6.915  62.178  1.00  0.00    -0.006 A 
ATOM     19  C   UNL     1      -6.936  -7.989  60.878  1.00  0.00     0.072 A 
ATOM     20  C   UNL     1      -7.776  -5.980  62.700  1.00  0.00     0.008 A 
ATOM     21  C   UNL     1      -6.042  -6.985  61.292  1.00  0.00     0.169 A 
ATOM     22  C   UNL     1      -6.467  -5.967  62.169  1.00  0.00     0.162 A 
BRANCH  13  23
ATOM     23  O   UNL     1      -8.755 -10.204  60.417  1.00  0.00    -0.507 OA
ATOM     24  H   UNL     1      -7.847 -10.305  59.981  1.00  0.00     0.293 HD
ENDBRANCH  13  23
BRANCH  19  25
ATOM     25  C   UNL     1      -6.460  -8.951  59.854  1.00  0.00     0.264 C 
ATOM     26  O   UNL     1      -5.699  -9.905  60.164  1.00  0.00    -0.298 OA
ENDBRANCH  19  25
BRANCH  20  27
ATOM     27  C   UNL     1      -8.163  -4.983  63.809  1.00  0.00     0.017 C 
ATOM     28  C   UNL     1      -8.090  -3.540  63.299  1.00  0.00     0.012 C 
ATOM     29  C   UNL     1      -7.358  -5.159  65.111  1.00  0.00     0.012 C 
ENDBRANCH  20  27
BRANCH  21  30
ATOM     30  O   UNL     1      -4.727  -7.026  60.810  1.00  0.00    -0.504 OA
ATOM     31  H   UNL     1      -4.191  -6.218  60.524  1.00  0.00     0.293 HD
ENDBRANCH  21  30
BRANCH  22  32
ATOM     32  O   UNL     1      -5.619  -4.906  62.498  1.00  0.00    -0.504 OA
ATOM     33  H   UNL     1      -5.124  -4.333  61.829  1.00  0.00     0.293 HD
ENDBRANCH  22  32
ENDBRANCH  11  12
BRANCH  10  34
ATOM     34  O   UNL     1     -11.526 -10.759  63.286  1.00  0.00    -0.507 OA
ATOM     35  H   UNL     1     -11.985 -10.262  64.038  1.00  0.00     0.293 HD
ENDBRANCH  10  34
BRANCH   9  36
ATOM     36  C   UNL     1     -14.338 -13.638  58.440  1.00  0.00     0.017 C 
ATOM     37  C   UNL     1     -14.722 -12.456  57.540  1.00  0.00     0.012 C 
ATOM     38  C   UNL     1     -13.220 -14.519  57.846  1.00  0.00     0.012 C 
ENDBRANCH   9  36
BRANCH   6  39
ATOM     39  C   UNL     1     -13.605 -12.244  64.082  1.00  0.00     0.264 C 
ATOM     40  O   UNL     1     -12.984 -12.975  64.900  1.00  0.00    -0.298 OA
ENDBRANCH   6  39
BRANCH   8  41
ATOM     41  O   UNL     1     -15.488 -15.079  60.586  1.00  0.00    -0.504 OA
ATOM     42  H   UNL     1     -15.163 -15.864  60.035  1.00  0.00     0.293 HD
ENDBRANCH   8  41
BRANCH   7  43
ATOM     43  O   UNL     1     -15.131 -14.476  63.227  1.00  0.00    -0.504 OA
ATOM     44  H   UNL     1     -14.727 -15.296  63.660  1.00  0.00     0.293 HD
ENDBRANCH   7  43
TORSDOF 11
ENDMDL
MODEL 9
REMARK VINA RESULT:    -6.117      2.417      3.776
REMARK INTER + INTRA:         -10.222
REMARK INTER:                  -8.712
REMARK INTRA:                  -1.511
REMARK UNBOUND:                -1.244
REMARK SMILES Cc1cc2c(C(C)C)c(O)c(O)c(C=O)c2c(O)c1-c1c(C)cc2c(C(C)C)c(O)c(O)c(C=O)c2c1O
REMARK SMILES IDX 1 1 2 2 3 3 4 4 16 5 13 6 11 7 9 8 5 9 17 10 19 11 20 12
REMARK SMILES IDX 37 13 21 14 36 15 23 16 22 17 24 18 33 19 25 20 31 21 29 22
REMARK SMILES IDX 38 23 34 25 35 26 26 27 27 28 28 29 32 30 30 32 18 34 6 36
REMARK SMILES IDX 7 37 8 38 14 39 15 40 10 41 12 43
REMARK H PARENT 38 24 32 31 30 33 18 35 10 42 12 44
REMARK Flexibility Score: inf
ROOT
ATOM      1  C   UNL     1     -10.794 -11.168  62.156  1.00  0.00     0.045 C 
ATOM      2  C   UNL     1     -11.153 -11.069  60.692  1.00  0.00    -0.039 A 
ATOM      3  C   UNL     1     -11.961 -12.052  60.117  1.00  0.00     0.013 A 
ATOM      4  C   UNL     1     -12.330 -12.018  58.756  1.00  0.00    -0.006 A 
ATOM      5  C   UNL     1     -11.782 -10.987  57.934  1.00  0.00     0.039 A 
ATOM      6  C   UNL     1     -11.982 -11.043  56.524  1.00  0.00     0.072 A 
ATOM      7  C   UNL     1     -12.827 -12.025  55.974  1.00  0.00     0.169 A 
ATOM      8  C   UNL     1     -13.451 -12.968  56.798  1.00  0.00     0.162 A 
ATOM      9  C   UNL     1     -13.227 -12.983  58.195  1.00  0.00     0.008 A 
ATOM     10  C   UNL     1     -11.081  -9.911  58.551  1.00  0.00     0.132 A 
ATOM     11  C   UNL     1     -10.743  -9.972  59.918  1.00  0.00     0.031 A 
ENDROOT
BRANCH  11  12
ATOM     12  C   UNL     1      -9.954  -8.877  60.542  1.00  0.00     0.031 A 
ATOM     13  C   UNL     1      -8.550  -8.842  60.395  1.00  0.00     0.132 A 
ATOM     14  C   UNL     1     -10.609  -7.879  61.279  1.00  0.00    -0.039 A 
ATOM     15  C   UNL     1      -7.794  -7.774  60.963  1.00  0.00     0.039 A 
ATOM     16  C   UNL     1      -9.857  -6.897  61.926  1.00  0.00     0.013 A 
ATOM     17  C   UNL     1     -12.113  -7.871  61.412  1.00  0.00     0.045 C 
ATOM     18  C   UNL     1      -8.447  -6.865  61.845  1.00  0.00    -0.006 A 
ATOM     19  C   UNL     1      -6.404  -7.602  60.702  1.00  0.00     0.072 A 
ATOM     20  C   UNL     1      -7.683  -5.926  62.604  1.00  0.00     0.008 A 
ATOM     21  C   UNL     1      -5.682  -6.586  61.355  1.00  0.00     0.169 A 
ATOM     22  C   UNL     1      -6.324  -5.731  62.273  1.00  0.00     0.162 A 
BRANCH  13  23
ATOM     23  O   UNL     1      -7.904  -9.889  59.728  1.00  0.00    -0.507 OA
ATOM     24  H   UNL     1      -8.374 -10.719  59.392  1.00  0.00     0.293 HD
ENDBRANCH  13  23
BRANCH  19  25
ATOM     25  C   UNL     1      -5.698  -8.378  59.653  1.00  0.00     0.264 C 
ATOM     26  O   UNL     1      -4.904  -9.307  59.957  1.00  0.00    -0.298 OA
ENDBRANCH  19  25
BRANCH  20  27
ATOM     27  C   UNL     1      -8.316  -5.119  63.753  1.00  0.00     0.017 C 
ATOM     28  C   UNL     1      -8.436  -3.638  63.381  1.00  0.00     0.012 C 
ATOM     29  C   UNL     1      -7.602  -5.301  65.107  1.00  0.00     0.012 C 
ENDBRANCH  20  27
BRANCH  21  30
ATOM     30  O   UNL     1      -4.317  -6.450  61.067  1.00  0.00    -0.504 OA
ATOM     31  H   UNL     1      -3.755  -5.644  61.302  1.00  0.00     0.293 HD
ENDBRANCH  21  30
BRANCH  22  32
ATOM     32  O   UNL     1      -5.642  -4.651  62.843  1.00  0.00    -0.504 OA
ATOM     33  H   UNL     1      -4.827  -4.207  62.444  1.00  0.00     0.293 HD
ENDBRANCH  22  32
ENDBRANCH  11  12
BRANCH  10  34
ATOM     34  O   UNL     1     -10.764  -8.762  57.816  1.00  0.00    -0.507 OA
ATOM     35  H   UNL     1     -10.630  -8.754  56.813  1.00  0.00     0.293 HD
ENDBRANCH  10  34
BRANCH   9  36
ATOM     36  C   UNL     1     -13.988 -14.036  59.026  1.00  0.00     0.017 C 
ATOM     37  C   UNL     1     -13.096 -15.222  59.418  1.00  0.00     0.012 C 
ATOM     38  C   UNL     1     -14.782 -13.452  60.214  1.00  0.00     0.012 C 
ENDBRANCH   9  36
BRANCH   6  39
ATOM     39  C   UNL     1     -11.238 -10.170  55.591  1.00  0.00     0.264 C 
ATOM     40  O   UNL     1     -11.837  -9.266  54.950  1.00  0.00    -0.298 OA
ENDBRANCH   6  39
BRANCH   8  41
ATOM     41  O   UNL     1     -14.294 -13.923  56.216  1.00  0.00    -0.504 OA
ATOM     42  H   UNL     1     -13.964 -14.641  55.582  1.00  0.00     0.293 HD
ENDBRANCH   8  41
BRANCH   7  43
ATOM     43  O   UNL     1     -13.056 -12.106  54.594  1.00  0.00    -0.504 OA
ATOM     44  H   UNL     1     -13.943 -12.356  54.178  1.00  0.00     0.293 HD
ENDBRANCH   7  43
TORSDOF 11
ENDMDL
