MODEL 1
REMARK VINA RESULT:    -5.002      0.000      0.000
REMARK INTER + INTRA:          -5.481
REMARK INTER:                  -5.295
REMARK INTRA:                  -0.186
REMARK UNBOUND:                -0.186
REMARK SMILES C=C(C)[C@H]1CC[C@]2(C)CCCC(=C)[C@@H]2C1
REMARK SMILES IDX 4 1 5 2 6 3 7 4 9 5 10 6 11 7 12 8 13 9 14 10 15 11 8 12
REMARK SMILES IDX 2 13 3 14 1 15
REMARK H PARENT
REMARK Flexibility Score: inf
ROOT
ATOM      1  C   UNL     1     133.298 136.568 136.137  1.00  0.00     0.015 C 
ATOM      2  C   UNL     1     133.754 137.237 137.441  1.00  0.00     0.008 C 
ATOM      3  C   UNL     1     134.604 136.273 138.277  1.00  0.00     0.008 C 
ATOM      4  C   UNL     1     133.899 134.906 138.562  1.00  0.00    -0.026 C 
ATOM      5  C   UNL     1     134.929 133.898 139.139  1.00  0.00     0.008 C 
ATOM      6  C   UNL     1     136.072 133.527 138.169  1.00  0.00     0.005 C 
ATOM      7  C   UNL     1     135.710 133.598 136.672  1.00  0.00     0.031 C 
ATOM      8  C   UNL     1     134.225 133.491 136.424  1.00  0.00    -0.074 C 
ATOM      9  C   UNL     1     133.772 132.677 135.454  1.00  0.00     0.008 C 
ATOM     10  C   UNL     1     133.239 134.278 137.282  1.00  0.00     0.021 C 
ATOM     11  C   UNL     1     132.455 135.319 136.446  1.00  0.00     0.016 C 
ATOM     12  C   UNL     1     132.811 135.126 139.645  1.00  0.00     0.012 C 
ENDROOT
BRANCH   1  13
ATOM     13  C   UNL     1     132.536 137.545 135.250  1.00  0.00    -0.077 C 
ATOM     14  C   UNL     1     132.683 139.030 135.461  1.00  0.00     0.039 C 
ATOM     15  C   UNL     1     131.725 137.113 134.269  1.00  0.00     0.008 C 
ENDBRANCH   1  13
TORSDOF 1
ENDMDL
MODEL 2
REMARK VINA RESULT:    -4.990      4.725      6.970
REMARK INTER + INTRA:          -5.467
REMARK INTER:                  -5.281
REMARK INTRA:                  -0.186
REMARK UNBOUND:                -0.186
REMARK SMILES C=C(C)[C@H]1CC[C@]2(C)CCCC(=C)[C@@H]2C1
REMARK SMILES IDX 4 1 5 2 6 3 7 4 9 5 10 6 11 7 12 8 13 9 14 10 15 11 8 12
REMARK SMILES IDX 2 13 3 14 1 15
REMARK H PARENT
REMARK Flexibility Score: inf
ROOT
ATOM      1  C   UNL     1     139.275 135.958 136.191  1.00  0.00     0.015 C 
ATOM      2  C   UNL     1     138.801 135.326 137.508  1.00  0.00     0.008 C 
ATOM      3  C   UNL     1     137.977 136.328 138.325  1.00  0.00     0.008 C 
ATOM      4  C   UNL     1     138.719 137.681 138.584  1.00  0.00    -0.026 C 
ATOM      5  C   UNL     1     137.717 138.728 139.142  1.00  0.00     0.008 C 
ATOM      6  C   UNL     1     136.583 139.110 138.165  1.00  0.00     0.005 C 
ATOM      7  C   UNL     1     136.942 139.001 136.670  1.00  0.00     0.031 C 
ATOM      8  C   UNL     1     138.430 139.064 136.419  1.00  0.00    -0.074 C 
ATOM      9  C   UNL     1     138.904 139.847 135.434  1.00  0.00     0.008 C 
ATOM     10  C   UNL     1     139.395 138.267 137.292  1.00  0.00     0.021 C 
ATOM     11  C   UNL     1     140.150 137.190 136.476  1.00  0.00     0.016 C 
ATOM     12  C   UNL     1     139.801 137.453 139.671  1.00  0.00     0.012 C 
ENDROOT
BRANCH   1  13
ATOM     13  C   UNL     1     140.009 134.945 135.323  1.00  0.00    -0.077 C 
ATOM     14  C   UNL     1     139.805 133.468 135.547  1.00  0.00     0.039 C 
ATOM     15  C   UNL     1     140.846 135.337 134.347  1.00  0.00     0.008 C 
ENDBRANCH   1  13
TORSDOF 1
ENDMDL
MODEL 3
REMARK VINA RESULT:    -4.982      3.350      5.026
REMARK INTER + INTRA:          -5.460
REMARK INTER:                  -5.274
REMARK INTRA:                  -0.186
REMARK UNBOUND:                -0.186
REMARK SMILES C=C(C)[C@H]1CC[C@]2(C)CCCC(=C)[C@@H]2C1
REMARK SMILES IDX 4 1 5 2 6 3 7 4 9 5 10 6 11 7 12 8 13 9 14 10 15 11 8 12
REMARK SMILES IDX 2 13 3 14 1 15
REMARK H PARENT
REMARK Flexibility Score: inf
ROOT
ATOM      1  C   UNL     1     136.645 139.313 136.235  1.00  0.00     0.015 C 
ATOM      2  C   UNL     1     137.308 138.890 137.555  1.00  0.00     0.008 C 
ATOM      3  C   UNL     1     136.328 138.092 138.423  1.00  0.00     0.008 C 
ATOM      4  C   UNL     1     134.977 138.837 138.684  1.00  0.00    -0.026 C 
ATOM      5  C   UNL     1     133.948 137.852 139.301  1.00  0.00     0.008 C 
ATOM      6  C   UNL     1     133.550 136.682 138.374  1.00  0.00     0.005 C 
ATOM      7  C   UNL     1     133.625 136.987 136.865  1.00  0.00     0.031 C 
ATOM      8  C   UNL     1     133.549 138.464 136.562  1.00  0.00    -0.074 C 
ATOM      9  C   UNL     1     132.743 138.899 135.578  1.00  0.00     0.008 C 
ATOM     10  C   UNL     1     134.360 139.463 137.382  1.00  0.00     0.021 C 
ATOM     11  C   UNL     1     135.416 140.193 136.516  1.00  0.00     0.016 C 
ATOM     12  C   UNL     1     135.223 139.959 139.726  1.00  0.00     0.012 C 
ENDROOT
BRANCH   1  13
ATOM     13  C   UNL     1     137.636 140.020 135.319  1.00  0.00    -0.077 C 
ATOM     14  C   UNL     1     139.117 139.807 135.500  1.00  0.00     0.039 C 
ATOM     15  C   UNL     1     137.219 140.839 134.338  1.00  0.00     0.008 C 
ENDBRANCH   1  13
TORSDOF 1
ENDMDL
MODEL 4
REMARK VINA RESULT:    -4.960      3.182      4.840
REMARK INTER + INTRA:          -5.436
REMARK INTER:                  -5.250
REMARK INTRA:                  -0.186
REMARK UNBOUND:                -0.186
REMARK SMILES C=C(C)[C@H]1CC[C@]2(C)CCCC(=C)[C@@H]2C1
REMARK SMILES IDX 4 1 5 2 6 3 7 4 9 5 10 6 11 7 12 8 13 9 14 10 15 11 8 12
REMARK SMILES IDX 2 13 3 14 1 15
REMARK H PARENT
REMARK Flexibility Score: inf
ROOT
ATOM      1  C   UNL     1     135.955 133.360 136.225  1.00  0.00     0.015 C 
ATOM      2  C   UNL     1     135.286 133.822 137.528  1.00  0.00     0.008 C 
ATOM      3  C   UNL     1     136.267 134.630 138.385  1.00  0.00     0.008 C 
ATOM      4  C   UNL     1     137.608 133.879 138.675  1.00  0.00    -0.026 C 
ATOM      5  C   UNL     1     138.642 134.868 139.276  1.00  0.00     0.008 C 
ATOM      6  C   UNL     1     139.060 136.011 138.323  1.00  0.00     0.005 C 
ATOM      7  C   UNL     1     138.994 135.670 136.822  1.00  0.00     0.031 C 
ATOM      8  C   UNL     1     139.056 134.185 136.556  1.00  0.00    -0.074 C 
ATOM      9  C   UNL     1     139.866 133.718 135.589  1.00  0.00     0.008 C 
ATOM     10  C   UNL     1     138.229 133.215 137.394  1.00  0.00     0.021 C 
ATOM     11  C   UNL     1     137.173 132.474 136.537  1.00  0.00     0.016 C 
ATOM     12  C   UNL     1     137.342 132.785 139.742  1.00  0.00     0.012 C 
ENDROOT
BRANCH   1  13
ATOM     13  C   UNL     1     134.964 132.641 135.319  1.00  0.00    -0.077 C 
ATOM     14  C   UNL     1     133.483 132.851 135.501  1.00  0.00     0.039 C 
ATOM     15  C   UNL     1     135.381 131.812 134.346  1.00  0.00     0.008 C 
ENDBRANCH   1  13
TORSDOF 1
ENDMDL
MODEL 5
REMARK VINA RESULT:    -4.955      2.201      4.364
REMARK INTER + INTRA:          -5.430
REMARK INTER:                  -5.248
REMARK INTRA:                  -0.183
REMARK UNBOUND:                -0.186
REMARK SMILES C=C(C)[C@H]1CC[C@]2(C)CCCC(=C)[C@@H]2C1
REMARK SMILES IDX 4 1 5 2 6 3 7 4 9 5 10 6 11 7 12 8 13 9 14 10 15 11 8 12
REMARK SMILES IDX 2 13 3 14 1 15
REMARK H PARENT
REMARK Flexibility Score: inf
ROOT
ATOM      1  C   UNL     1     134.138 133.921 136.603  1.00  0.00     0.015 C 
ATOM      2  C   UNL     1     133.876 133.013 135.393  1.00  0.00     0.008 C 
ATOM      3  C   UNL     1     135.158 132.284 134.974  1.00  0.00     0.008 C 
ATOM      4  C   UNL     1     136.363 133.245 134.707  1.00  0.00    -0.026 C 
ATOM      5  C   UNL     1     137.673 132.421 134.590  1.00  0.00     0.008 C 
ATOM      6  C   UNL     1     138.076 131.675 135.882  1.00  0.00     0.005 C 
ATOM      7  C   UNL     1     137.614 132.341 137.193  1.00  0.00     0.031 C 
ATOM      8  C   UNL     1     137.334 133.816 137.034  1.00  0.00    -0.074 C 
ATOM      9  C   UNL     1     137.805 134.682 137.948  1.00  0.00     0.008 C 
ATOM     10  C   UNL     1     136.546 134.327 135.832  1.00  0.00     0.021 C 
ATOM     11  C   UNL     1     135.205 134.973 136.258  1.00  0.00     0.016 C 
ATOM     12  C   UNL     1     136.140 133.953 133.346  1.00  0.00     0.012 C 
ENDROOT
BRANCH   1  13
ATOM     13  C   UNL     1     132.853 134.576 137.093  1.00  0.00    -0.077 C 
ATOM     14  C   UNL     1     132.778 135.145 138.487  1.00  0.00     0.039 C 
ATOM     15  C   UNL     1     131.767 134.661 136.305  1.00  0.00     0.008 C 
ENDBRANCH   1  13
TORSDOF 1
ENDMDL
MODEL 6
REMARK VINA RESULT:    -4.952      4.520      7.040
REMARK INTER + INTRA:          -5.427
REMARK INTER:                  -5.245
REMARK INTRA:                  -0.182
REMARK UNBOUND:                -0.186
REMARK SMILES C=C(C)[C@H]1CC[C@]2(C)CCCC(=C)[C@@H]2C1
REMARK SMILES IDX 4 1 5 2 6 3 7 4 9 5 10 6 11 7 12 8 13 9 14 10 15 11 8 12
REMARK SMILES IDX 2 13 3 14 1 15
REMARK H PARENT
REMARK Flexibility Score: inf
ROOT
ATOM      1  C   UNL     1     138.698 134.155 136.586  1.00  0.00     0.015 C 
ATOM      2  C   UNL     1     139.603 133.904 135.372  1.00  0.00     0.008 C 
ATOM      3  C   UNL     1     140.299 135.198 134.936  1.00  0.00     0.008 C 
ATOM      4  C   UNL     1     139.309 136.379 134.666  1.00  0.00    -0.026 C 
ATOM      5  C   UNL     1     140.103 137.706 134.531  1.00  0.00     0.008 C 
ATOM      6  C   UNL     1     140.849 138.137 135.813  1.00  0.00     0.005 C 
ATOM      7  C   UNL     1     140.204 137.671 137.134  1.00  0.00     0.031 C 
ATOM      8  C   UNL     1     138.734 137.357 136.988  1.00  0.00    -0.074 C 
ATOM      9  C   UNL     1     137.865 137.816 137.905  1.00  0.00     0.008 C 
ATOM     10  C   UNL     1     138.232 136.547 135.797  1.00  0.00     0.021 C 
ATOM     11  C   UNL     1     137.619 135.195 136.240  1.00  0.00     0.016 C 
ATOM     12  C   UNL     1     138.596 136.128 133.312  1.00  0.00     0.012 C 
ENDROOT
BRANCH   1  13
ATOM     13  C   UNL     1     138.076 132.860 137.093  1.00  0.00    -0.077 C 
ATOM     14  C   UNL     1     137.544 132.776 138.500  1.00  0.00     0.039 C 
ATOM     15  C   UNL     1     137.987 131.773 136.306  1.00  0.00     0.008 C 
ENDBRANCH   1  13
TORSDOF 1
ENDMDL
MODEL 7
REMARK VINA RESULT:    -4.951      4.232      6.792
REMARK INTER + INTRA:          -5.426
REMARK INTER:                  -5.244
REMARK INTRA:                  -0.182
REMARK UNBOUND:                -0.186
REMARK SMILES C=C(C)[C@H]1CC[C@]2(C)CCCC(=C)[C@@H]2C1
REMARK SMILES IDX 4 1 5 2 6 3 7 4 9 5 10 6 11 7 12 8 13 9 14 10 15 11 8 12
REMARK SMILES IDX 2 13 3 14 1 15
REMARK H PARENT
REMARK Flexibility Score: inf
ROOT
ATOM      1  C   UNL     1     138.459 138.624 136.724  1.00  0.00     0.015 C 
ATOM      2  C   UNL     1     138.704 139.548 135.522  1.00  0.00     0.008 C 
ATOM      3  C   UNL     1     137.417 140.284 135.132  1.00  0.00     0.008 C 
ATOM      4  C   UNL     1     136.207 139.328 134.870  1.00  0.00    -0.026 C 
ATOM      5  C   UNL     1     134.897 140.156 134.783  1.00  0.00     0.008 C 
ATOM      6  C   UNL     1     134.514 140.884 136.090  1.00  0.00     0.005 C 
ATOM      7  C   UNL     1     134.995 140.201 137.385  1.00  0.00     0.031 C 
ATOM      8  C   UNL     1     135.270 138.728 137.203  1.00  0.00    -0.074 C 
ATOM      9  C   UNL     1     134.811 137.850 138.112  1.00  0.00     0.008 C 
ATOM     10  C   UNL     1     136.039 138.231 135.982  1.00  0.00     0.021 C 
ATOM     11  C   UNL     1     137.386 137.578 136.380  1.00  0.00     0.016 C 
ATOM     12  C   UNL     1     136.409 138.638 133.496  1.00  0.00     0.012 C 
ENDROOT
BRANCH   1  13
ATOM     13  C   UNL     1     139.751 137.961 137.186  1.00  0.00    -0.077 C 
ATOM     14  C   UNL     1     140.935 137.884 136.257  1.00  0.00     0.039 C 
ATOM     15  C   UNL     1     139.865 137.437 138.418  1.00  0.00     0.008 C 
ENDBRANCH   1  13
TORSDOF 1
ENDMDL
MODEL 8
REMARK VINA RESULT:    -4.938      1.810      4.036
REMARK INTER + INTRA:          -5.413
REMARK INTER:                  -5.232
REMARK INTRA:                  -0.181
REMARK UNBOUND:                -0.186
REMARK SMILES C=C(C)[C@H]1CC[C@]2(C)CCCC(=C)[C@@H]2C1
REMARK SMILES IDX 4 1 5 2 6 3 7 4 9 5 10 6 11 7 12 8 13 9 14 10 15 11 8 12
REMARK SMILES IDX 2 13 3 14 1 15
REMARK H PARENT
REMARK Flexibility Score: inf
ROOT
ATOM      1  C   UNL     1     134.002 138.487 136.709  1.00  0.00     0.015 C 
ATOM      2  C   UNL     1     133.070 138.774 135.522  1.00  0.00     0.008 C 
ATOM      3  C   UNL     1     132.339 137.500 135.086  1.00  0.00     0.008 C 
ATOM      4  C   UNL     1     133.299 136.306 134.771  1.00  0.00    -0.026 C 
ATOM      5  C   UNL     1     132.478 134.996 134.638  1.00  0.00     0.008 C 
ATOM      6  C   UNL     1     131.758 134.558 135.933  1.00  0.00     0.005 C 
ATOM      7  C   UNL     1     132.446 134.992 137.243  1.00  0.00     0.031 C 
ATOM      8  C   UNL     1     133.917 135.281 137.063  1.00  0.00    -0.074 C 
ATOM      9  C   UNL     1     134.802 134.792 137.949  1.00  0.00     0.008 C 
ATOM     10  C   UNL     1     134.403 136.100 135.871  1.00  0.00     0.021 C 
ATOM     11  C   UNL     1     135.052 137.434 136.317  1.00  0.00     0.016 C 
ATOM     12  C   UNL     1     133.981 136.565 133.403  1.00  0.00     0.012 C 
ENDROOT
BRANCH   1  13
ATOM     13  C   UNL     1     134.661 139.763 137.217  1.00  0.00    -0.077 C 
ATOM     14  C   UNL     1     134.790 140.960 136.311  1.00  0.00     0.039 C 
ATOM     15  C   UNL     1     135.135 139.852 138.472  1.00  0.00     0.008 C 
ENDBRANCH   1  13
TORSDOF 1
ENDMDL
MODEL 9
REMARK VINA RESULT:    -4.687      1.831      4.647
REMARK INTER + INTRA:          -5.147
REMARK INTER:                  -4.979
REMARK INTRA:                  -0.168
REMARK UNBOUND:                -0.186
REMARK SMILES C=C(C)[C@H]1CC[C@]2(C)CCCC(=C)[C@@H]2C1
REMARK SMILES IDX 4 1 5 2 6 3 7 4 9 5 10 6 11 7 12 8 13 9 14 10 15 11 8 12
REMARK SMILES IDX 2 13 3 14 1 15
REMARK H PARENT
REMARK Flexibility Score: inf
ROOT
ATOM      1  C   UNL     1     136.273 133.380 136.746  1.00  0.00     0.015 C 
ATOM      2  C   UNL     1     135.837 133.778 138.163  1.00  0.00     0.008 C 
ATOM      3  C   UNL     1     134.389 134.283 138.164  1.00  0.00     0.008 C 
ATOM      4  C   UNL     1     134.133 135.445 137.148  1.00  0.00    -0.026 C 
ATOM      5  C   UNL     1     132.606 135.681 136.998  1.00  0.00     0.008 C 
ATOM      6  C   UNL     1     131.831 134.488 136.396  1.00  0.00     0.005 C 
ATOM      7  C   UNL     1     132.645 133.597 135.436  1.00  0.00     0.031 C 
ATOM      8  C   UNL     1     133.837 134.310 134.845  1.00  0.00    -0.074 C 
ATOM      9  C   UNL     1     134.084 134.207 133.527  1.00  0.00     0.008 C 
ATOM     10  C   UNL     1     134.742 135.163 135.727  1.00  0.00     0.021 C 
ATOM     11  C   UNL     1     136.179 134.589 135.800  1.00  0.00     0.016 C 
ATOM     12  C   UNL     1     134.748 136.748 137.720  1.00  0.00     0.012 C 
ENDROOT
BRANCH   1  13
ATOM     13  C   UNL     1     137.674 132.783 136.744  1.00  0.00    -0.077 C 
ATOM     14  C   UNL     1     138.824 133.551 137.343  1.00  0.00     0.039 C 
ATOM     15  C   UNL     1     137.917 131.570 136.217  1.00  0.00     0.008 C 
ENDBRANCH   1  13
TORSDOF 1
ENDMDL
