MODEL 1
REMARK VINA RESULT:    -3.403      0.000      0.000
REMARK INTER + INTRA:          -5.247
REMARK INTER:                  -4.596
REMARK INTRA:                  -0.651
REMARK UNBOUND:                -0.651
REMARK SMILES O=C[C@H](O)[C@H](O)[C@H](O)CO
REMARK SMILES IDX 7 1 9 2 10 3 5 5 3 6 2 7 1 8 4 9 6 11 8 13
REMARK H PARENT 10 4 4 10 6 12 8 14
REMARK Flexibility Score: inf
ROOT
ATOM      1  C   UNL     1       9.898 -11.862  17.211  1.00  0.00     0.171 C 
ENDROOT
BRANCH   1   2
ATOM      2  C   UNL     1       9.738 -10.801  18.316  1.00  0.00     0.190 C 
BRANCH   2   3
ATOM      3  O   UNL     1      10.811 -10.864  19.215  1.00  0.00    -0.394 OA
ATOM      4  H   UNL     1      11.612 -11.086  18.673  1.00  0.00     0.210 HD
ENDBRANCH   2   3
ENDBRANCH   1   2
BRANCH   1   5
ATOM      5  C   UNL     1      10.161 -13.285  17.787  1.00  0.00     0.181 C 
BRANCH   5   6
ATOM      6  C   UNL     1       9.544 -14.404  16.901  1.00  0.00     0.209 C 
BRANCH   6   7
ATOM      7  C   UNL     1      10.360 -15.673  16.956  1.00  0.00     0.258 C 
ATOM      8  O   UNL     1      10.755 -16.112  18.025  1.00  0.00    -0.300 OA
ENDBRANCH   6   7
BRANCH   6   9
ATOM      9  O   UNL     1       9.414 -13.987  15.565  1.00  0.00    -0.383 OA
ATOM     10  H   UNL     1       9.915 -13.135  15.465  1.00  0.00     0.211 HD
ENDBRANCH   6   9
ENDBRANCH   5   6
BRANCH   5  11
ATOM     11  O   UNL     1       9.667 -13.377  19.103  1.00  0.00    -0.387 OA
ATOM     12  H   UNL     1      10.399 -13.731  19.672  1.00  0.00     0.211 HD
ENDBRANCH   5  11
ENDBRANCH   1   5
BRANCH   1  13
ATOM     13  O   UNL     1      10.930 -11.474  16.339  1.00  0.00    -0.388 OA
ATOM     14  H   UNL     1      10.545 -11.412  15.426  1.00  0.00     0.211 HD
ENDBRANCH   1  13
TORSDOF 8
ENDMDL
MODEL 2
REMARK VINA RESULT:    -3.361     17.074     18.513
REMARK INTER + INTRA:          -5.191
REMARK INTER:                  -4.386
REMARK INTRA:                  -0.806
REMARK UNBOUND:                -0.651
REMARK SMILES O=C[C@H](O)[C@H](O)[C@H](O)CO
REMARK SMILES IDX 7 1 9 2 10 3 5 5 3 6 2 7 1 8 4 9 6 11 8 13
REMARK H PARENT 10 4 4 10 6 12 8 14
REMARK Flexibility Score: inf
ROOT
ATOM      1  C   UNL     1      -1.424 -27.721  16.719  1.00  0.00     0.171 C 
ENDROOT
BRANCH   1   2
ATOM      2  C   UNL     1      -0.140 -26.904  16.955  1.00  0.00     0.190 C 
BRANCH   2   3
ATOM      3  O   UNL     1       0.604 -26.809  15.770  1.00  0.00    -0.394 OA
ATOM      4  H   UNL     1       0.114 -26.172  15.188  1.00  0.00     0.210 HD
ENDBRANCH   2   3
ENDBRANCH   1   2
BRANCH   1   5
ATOM      5  C   UNL     1      -2.486 -26.934  15.895  1.00  0.00     0.181 C 
BRANCH   5   6
ATOM      6  C   UNL     1      -2.535 -27.387  14.408  1.00  0.00     0.209 C 
BRANCH   6   7
ATOM      7  C   UNL     1      -2.096 -26.285  13.475  1.00  0.00     0.258 C 
ATOM      8  O   UNL     1      -0.931 -25.916  13.453  1.00  0.00    -0.300 OA
ENDBRANCH   6   7
BRANCH   6   9
ATOM      9  O   UNL     1      -3.822 -27.823  14.047  1.00  0.00    -0.383 OA
ATOM     10  H   UNL     1      -4.032 -28.626  14.594  1.00  0.00     0.211 HD
ENDBRANCH   6   9
ENDBRANCH   5   6
BRANCH   5  11
ATOM     11  O   UNL     1      -2.238 -25.550  15.975  1.00  0.00    -0.387 OA
ATOM     12  H   UNL     1      -2.080 -25.331  16.931  1.00  0.00     0.211 HD
ENDBRANCH   5  11
ENDBRANCH   1   5
BRANCH   1  13
ATOM     13  O   UNL     1      -1.950 -28.129  17.958  1.00  0.00    -0.388 OA
ATOM     14  H   UNL     1      -1.262 -28.688  18.406  1.00  0.00     0.211 HD
ENDBRANCH   1  13
TORSDOF 8
ENDMDL
MODEL 3
REMARK VINA RESULT:    -3.348      2.461      4.401
REMARK INTER + INTRA:          -5.174
REMARK INTER:                  -4.475
REMARK INTRA:                  -0.698
REMARK UNBOUND:                -0.651
REMARK SMILES O=C[C@H](O)[C@H](O)[C@H](O)CO
REMARK SMILES IDX 7 1 9 2 10 3 5 5 3 6 2 7 1 8 4 9 6 11 8 13
REMARK H PARENT 10 4 4 10 6 12 8 14
REMARK Flexibility Score: inf
ROOT
ATOM      1  C   UNL     1      10.823 -15.556  14.419  1.00  0.00     0.171 C 
ENDROOT
BRANCH   1   2
ATOM      2  C   UNL     1      10.793 -14.627  13.190  1.00  0.00     0.190 C 
BRANCH   2   3
ATOM      3  O   UNL     1       9.527 -14.653  12.588  1.00  0.00    -0.394 OA
ATOM      4  H   UNL     1       9.026 -15.386  13.031  1.00  0.00     0.210 HD
ENDBRANCH   2   3
ENDBRANCH   1   2
BRANCH   1   5
ATOM      5  C   UNL     1      10.356 -14.836  15.719  1.00  0.00     0.181 C 
BRANCH   5   6
ATOM      6  C   UNL     1      10.150 -15.826  16.901  1.00  0.00     0.209 C 
BRANCH   6   7
ATOM      7  C   UNL     1       9.536 -15.144  18.099  1.00  0.00     0.258 C 
ATOM      8  O   UNL     1       9.775 -13.970  18.336  1.00  0.00    -0.300 OA
ENDBRANCH   6   7
BRANCH   6   9
ATOM      9  O   UNL     1      11.360 -16.435  17.276  1.00  0.00    -0.383 OA
ATOM     10  H   UNL     1      11.145 -17.170  17.909  1.00  0.00     0.211 HD
ENDBRANCH   6   9
ENDBRANCH   5   6
BRANCH   5  11
ATOM     11  O   UNL     1       9.172 -14.113  15.477  1.00  0.00    -0.387 OA
ATOM     12  H   UNL     1       9.240 -13.727  14.565  1.00  0.00     0.211 HD
ENDBRANCH   5  11
ENDBRANCH   1   5
BRANCH   1  13
ATOM     13  O   UNL     1      12.118 -16.081  14.574  1.00  0.00    -0.388 OA
ATOM     14  H   UNL     1      12.705 -15.633  13.909  1.00  0.00     0.211 HD
ENDBRANCH   1  13
TORSDOF 8
ENDMDL
MODEL 4
REMARK VINA RESULT:    -3.337      1.147      4.155
REMARK INTER + INTRA:          -5.159
REMARK INTER:                  -4.403
REMARK INTRA:                  -0.756
REMARK UNBOUND:                -0.651
REMARK SMILES O=C[C@H](O)[C@H](O)[C@H](O)CO
REMARK SMILES IDX 7 1 9 2 10 3 5 5 3 6 2 7 1 8 4 9 6 11 8 13
REMARK H PARENT 10 4 4 10 6 12 8 14
REMARK Flexibility Score: inf
ROOT
ATOM      1  C   UNL     1       9.754 -14.232  17.560  1.00  0.00     0.171 C 
ENDROOT
BRANCH   1   2
ATOM      2  C   UNL     1       9.922 -14.858  16.163  1.00  0.00     0.190 C 
BRANCH   2   3
ATOM      3  O   UNL     1       9.367 -14.025  15.182  1.00  0.00    -0.394 OA
ATOM      4  H   UNL     1       9.468 -13.097  15.520  1.00  0.00     0.210 HD
ENDBRANCH   2   3
ENDBRANCH   1   2
BRANCH   1   5
ATOM      5  C   UNL     1      10.810 -13.122  17.845  1.00  0.00     0.181 C 
BRANCH   5   6
ATOM      6  C   UNL     1      10.159 -11.808  18.365  1.00  0.00     0.209 C 
BRANCH   6   7
ATOM      7  C   UNL     1       9.887 -10.838  17.242  1.00  0.00     0.258 C 
ATOM      8  O   UNL     1       9.277 -11.195  16.246  1.00  0.00    -0.300 OA
ENDBRANCH   6   7
BRANCH   6   9
ATOM      9  O   UNL     1      10.965 -11.188  19.337  1.00  0.00    -0.383 OA
ATOM     10  H   UNL     1      11.857 -11.029  18.931  1.00  0.00     0.211 HD
ENDBRANCH   6   9
ENDBRANCH   5   6
BRANCH   5  11
ATOM     11  O   UNL     1      11.570 -12.864  16.688  1.00  0.00    -0.387 OA
ATOM     12  H   UNL     1      11.011 -12.311  16.081  1.00  0.00     0.211 HD
ENDBRANCH   5  11
ENDBRANCH   1   5
BRANCH   1  13
ATOM     13  O   UNL     1       9.814 -15.244  18.535  1.00  0.00    -0.388 OA
ATOM     14  H   UNL     1       8.967 -15.759  18.484  1.00  0.00     0.211 HD
ENDBRANCH   1  13
TORSDOF 8
ENDMDL
MODEL 5
REMARK VINA RESULT:    -3.330     15.795     17.586
REMARK INTER + INTRA:          -5.149
REMARK INTER:                  -4.459
REMARK INTRA:                  -0.690
REMARK UNBOUND:                -0.651
REMARK SMILES O=C[C@H](O)[C@H](O)[C@H](O)CO
REMARK SMILES IDX 7 1 9 2 10 3 5 5 3 6 2 7 1 8 4 9 6 11 8 13
REMARK H PARENT 10 4 4 10 6 12 8 14
REMARK Flexibility Score: inf
ROOT
ATOM      1  C   UNL     1      -2.093 -27.094  15.635  1.00  0.00     0.171 C 
ENDROOT
BRANCH   1   2
ATOM      2  C   UNL     1      -0.842 -27.719  16.282  1.00  0.00     0.190 C 
BRANCH   2   3
ATOM      3  O   UNL     1      -0.341 -26.881  17.289  1.00  0.00    -0.394 OA
ATOM      4  H   UNL     1       0.234 -26.214  16.831  1.00  0.00     0.210 HD
ENDBRANCH   2   3
ENDBRANCH   1   2
BRANCH   1   5
ATOM      5  C   UNL     1      -1.794 -26.485  14.233  1.00  0.00     0.181 C 
BRANCH   5   6
ATOM      6  C   UNL     1      -0.300 -26.084  14.070  1.00  0.00     0.209 C 
BRANCH   6   7
ATOM      7  C   UNL     1      -0.060 -24.649  14.470  1.00  0.00     0.258 C 
ATOM      8  O   UNL     1      -0.388 -24.250  15.577  1.00  0.00    -0.300 OA
ENDBRANCH   6   7
BRANCH   6   9
ATOM      9  O   UNL     1       0.143 -26.284  12.750  1.00  0.00    -0.383 OA
ATOM     10  H   UNL     1       0.175 -27.263  12.588  1.00  0.00     0.211 HD
ENDBRANCH   6   9
ENDBRANCH   5   6
BRANCH   5  11
ATOM     11  O   UNL     1      -2.625 -25.372  13.997  1.00  0.00    -0.387 OA
ATOM     12  H   UNL     1      -2.101 -24.716  13.468  1.00  0.00     0.211 HD
ENDBRANCH   5  11
ENDBRANCH   1   5
BRANCH   1  13
ATOM     13  O   UNL     1      -2.630 -26.125  16.500  1.00  0.00    -0.388 OA
ATOM     14  H   UNL     1      -3.551 -25.922  16.188  1.00  0.00     0.211 HD
ENDBRANCH   1  13
TORSDOF 8
ENDMDL
MODEL 6
REMARK VINA RESULT:    -3.304      1.268      2.083
REMARK INTER + INTRA:          -5.115
REMARK INTER:                  -4.454
REMARK INTRA:                  -0.661
REMARK UNBOUND:                -0.651
REMARK SMILES O=C[C@H](O)[C@H](O)[C@H](O)CO
REMARK SMILES IDX 7 1 9 2 10 3 5 5 3 6 2 7 1 8 4 9 6 11 8 13
REMARK H PARENT 10 4 4 10 6 12 8 14
REMARK Flexibility Score: inf
ROOT
ATOM      1  C   UNL     1      10.760 -11.912  16.281  1.00  0.00     0.171 C 
ENDROOT
BRANCH   1   2
ATOM      2  C   UNL     1      10.276 -10.488  16.613  1.00  0.00     0.190 C 
BRANCH   2   3
ATOM      3  O   UNL     1       9.352 -10.518  17.667  1.00  0.00    -0.394 OA
ATOM      4  H   UNL     1       8.455 -10.458  17.249  1.00  0.00     0.210 HD
ENDBRANCH   2   3
ENDBRANCH   1   2
BRANCH   1   5
ATOM      5  C   UNL     1       9.699 -12.997  16.633  1.00  0.00     0.181 C 
BRANCH   5   6
ATOM      6  C   UNL     1      10.116 -13.852  17.864  1.00  0.00     0.209 C 
BRANCH   6   7
ATOM      7  C   UNL     1       9.515 -15.235  17.812  1.00  0.00     0.258 C 
ATOM      8  O   UNL     1      10.096 -16.143  17.238  1.00  0.00    -0.300 OA
ENDBRANCH   6   7
BRANCH   6   9
ATOM      9  O   UNL     1       9.750 -13.226  19.069  1.00  0.00    -0.383 OA
ATOM     10  H   UNL     1       8.951 -13.698  19.424  1.00  0.00     0.211 HD
ENDBRANCH   6   9
ENDBRANCH   5   6
BRANCH   5  11
ATOM     11  O   UNL     1       9.464 -13.828  15.521  1.00  0.00    -0.387 OA
ATOM     12  H   UNL     1       9.308 -13.239  14.737  1.00  0.00     0.211 HD
ENDBRANCH   5  11
ENDBRANCH   1   5
BRANCH   1  13
ATOM     13  O   UNL     1      11.973 -12.159  16.949  1.00  0.00    -0.388 OA
ATOM     14  H   UNL     1      11.927 -13.077  17.324  1.00  0.00     0.211 HD
ENDBRANCH   1  13
TORSDOF 8
ENDMDL
MODEL 7
REMARK VINA RESULT:    -3.292     16.115     17.923
REMARK INTER + INTRA:          -5.098
REMARK INTER:                  -4.416
REMARK INTRA:                  -0.682
REMARK UNBOUND:                -0.651
REMARK SMILES O=C[C@H](O)[C@H](O)[C@H](O)CO
REMARK SMILES IDX 7 1 9 2 10 3 5 5 3 6 2 7 1 8 4 9 6 11 8 13
REMARK H PARENT 10 4 4 10 6 12 8 14
REMARK Flexibility Score: inf
ROOT
ATOM      1  C   UNL     1      -0.503 -27.518  16.858  1.00  0.00     0.171 C 
ENDROOT
BRANCH   1   2
ATOM      2  C   UNL     1      -1.286 -28.728  17.402  1.00  0.00     0.190 C 
BRANCH   2   3
ATOM      3  O   UNL     1      -2.013 -28.368  18.545  1.00  0.00    -0.394 OA
ATOM      4  H   UNL     1      -2.954 -28.258  18.249  1.00  0.00     0.210 HD
ENDBRANCH   2   3
ENDBRANCH   1   2
BRANCH   1   5
ATOM      5  C   UNL     1      -1.357 -26.642  15.894  1.00  0.00     0.181 C 
BRANCH   5   6
ATOM      6  C   UNL     1      -0.706 -25.256  15.623  1.00  0.00     0.209 C 
BRANCH   6   7
ATOM      7  C   UNL     1      -1.412 -24.515  14.514  1.00  0.00     0.258 C 
ATOM      8  O   UNL     1      -2.252 -25.077  13.828  1.00  0.00    -0.300 OA
ENDBRANCH   6   7
BRANCH   6   9
ATOM      9  O   UNL     1       0.658 -25.384  15.308  1.00  0.00    -0.383 OA
ATOM     10  H   UNL     1       1.080 -24.493  15.429  1.00  0.00     0.211 HD
ENDBRANCH   6   9
ENDBRANCH   5   6
BRANCH   5  11
ATOM     11  O   UNL     1      -2.658 -26.477  16.408  1.00  0.00    -0.387 OA
ATOM     12  H   UNL     1      -2.740 -25.537  16.715  1.00  0.00     0.211 HD
ENDBRANCH   5  11
ENDBRANCH   1   5
BRANCH   1  13
ATOM     13  O   UNL     1       0.668 -27.968  16.224  1.00  0.00    -0.388 OA
ATOM     14  H   UNL     1       1.442 -27.629  16.746  1.00  0.00     0.211 HD
ENDBRANCH   1  13
TORSDOF 8
ENDMDL
MODEL 8
REMARK VINA RESULT:    -3.244     16.417     18.219
REMARK INTER + INTRA:          -5.033
REMARK INTER:                  -4.203
REMARK INTRA:                  -0.831
REMARK UNBOUND:                -0.651
REMARK SMILES O=C[C@H](O)[C@H](O)[C@H](O)CO
REMARK SMILES IDX 7 1 9 2 10 3 5 5 3 6 2 7 1 8 4 9 6 11 8 13
REMARK H PARENT 10 4 4 10 6 12 8 14
REMARK Flexibility Score: inf
ROOT
ATOM      1  C   UNL     1      -1.489 -27.954  15.226  1.00  0.00     0.171 C 
ENDROOT
BRANCH   1   2
ATOM      2  C   UNL     1      -0.937 -28.193  16.644  1.00  0.00     0.190 C 
BRANCH   2   3
ATOM      3  O   UNL     1      -0.015 -27.193  16.985  1.00  0.00    -0.394 OA
ATOM      4  H   UNL     1       0.862 -27.647  17.078  1.00  0.00     0.210 HD
ENDBRANCH   2   3
ENDBRANCH   1   2
BRANCH   1   5
ATOM      5  C   UNL     1      -2.460 -26.737  15.164  1.00  0.00     0.181 C 
BRANCH   5   6
ATOM      6  C   UNL     1      -1.934 -25.610  14.231  1.00  0.00     0.209 C 
BRANCH   6   7
ATOM      7  C   UNL     1      -1.266 -24.505  15.013  1.00  0.00     0.258 C 
ATOM      8  O   UNL     1      -0.229 -24.716  15.624  1.00  0.00    -0.300 OA
ENDBRANCH   6   7
BRANCH   6   9
ATOM      9  O   UNL     1      -2.968 -25.070  13.447  1.00  0.00    -0.383 OA
ATOM     10  H   UNL     1      -2.977 -25.559  12.582  1.00  0.00     0.211 HD
ENDBRANCH   6   9
ENDBRANCH   5   6
BRANCH   5  11
ATOM     11  O   UNL     1      -2.691 -26.231  16.458  1.00  0.00    -0.387 OA
ATOM     12  H   UNL     1      -2.182 -25.383  16.541  1.00  0.00     0.211 HD
ENDBRANCH   5  11
ENDBRANCH   1   5
BRANCH   1  13
ATOM     13  O   UNL     1      -2.121 -29.125  14.770  1.00  0.00    -0.388 OA
ATOM     14  H   UNL     1      -2.104 -29.784  15.513  1.00  0.00     0.211 HD
ENDBRANCH   1  13
TORSDOF 8
ENDMDL
MODEL 9
REMARK VINA RESULT:    -3.199      1.052      3.876
REMARK INTER + INTRA:          -4.972
REMARK INTER:                  -4.331
REMARK INTRA:                  -0.641
REMARK UNBOUND:                -0.651
REMARK SMILES O=C[C@H](O)[C@H](O)[C@H](O)CO
REMARK SMILES IDX 7 1 9 2 10 3 5 5 3 6 2 7 1 8 4 9 6 11 8 13
REMARK H PARENT 10 4 4 10 6 12 8 14
REMARK Flexibility Score: inf
ROOT
ATOM      1  C   UNL     1      10.171 -13.712  16.836  1.00  0.00     0.171 C 
ENDROOT
BRANCH   1   2
ATOM      2  C   UNL     1      10.254 -15.031  17.628  1.00  0.00     0.190 C 
BRANCH   2   3
ATOM      3  O   UNL     1       9.122 -15.186  18.441  1.00  0.00    -0.394 OA
ATOM      4  H   UNL     1       8.928 -14.289  18.816  1.00  0.00     0.210 HD
ENDBRANCH   2   3
ENDBRANCH   1   2
BRANCH   1   5
ATOM      5  C   UNL     1       9.747 -12.508  17.731  1.00  0.00     0.181 C 
BRANCH   5   6
ATOM      6  C   UNL     1      10.346 -11.163  17.232  1.00  0.00     0.209 C 
BRANCH   6   7
ATOM      7  C   UNL     1      10.061 -10.035  18.194  1.00  0.00     0.258 C 
ATOM      8  O   UNL     1      10.790  -9.839  19.155  1.00  0.00    -0.300 OA
ENDBRANCH   6   7
BRANCH   6   9
ATOM      9  O   UNL     1       9.859 -10.826  15.957  1.00  0.00    -0.383 OA
ATOM     10  H   UNL     1      10.265 -11.454  15.303  1.00  0.00     0.211 HD
ENDBRANCH   6   9
ENDBRANCH   5   6
BRANCH   5  11
ATOM     11  O   UNL     1      10.118 -12.741  19.069  1.00  0.00    -0.387 OA
ATOM     12  H   UNL     1       9.817 -13.657  19.306  1.00  0.00     0.211 HD
ENDBRANCH   5  11
ENDBRANCH   1   5
BRANCH   1  13
ATOM     13  O   UNL     1       9.286 -13.872  15.756  1.00  0.00    -0.388 OA
ATOM     14  H   UNL     1       9.533 -14.712  15.287  1.00  0.00     0.211 HD
ENDBRANCH   1  13
TORSDOF 8
ENDMDL
