MODEL 1
REMARK VINA RESULT:    -3.934      0.000      0.000
REMARK INTER + INTRA:          -7.641
REMARK INTER:                  -6.234
REMARK INTRA:                  -1.408
REMARK UNBOUND:                -1.408
REMARK SMILES CCCCCCCCCCCC(=O)[O-]
REMARK SMILES IDX 7 1 8 2 9 3 10 4 11 5 12 6 13 7 14 8 6 9 5 10 4 11 3 12 2 13
REMARK SMILES IDX 1 14
REMARK H PARENT
REMARK Flexibility Score: inf
ROOT
ATOM      1  C   UNL     1       8.619  30.612  28.755  1.00  0.00     0.000 C 
ENDROOT
BRANCH   1   2
ATOM      2  C   UNL     1       9.772  29.865  28.066  1.00  0.00     0.000 C 
BRANCH   2   3
ATOM      3  C   UNL     1       9.975  30.301  26.607  1.00  0.00     0.000 C 
BRANCH   3   4
ATOM      4  C   UNL     1       9.586  31.774  26.416  1.00  0.00     0.006 C 
BRANCH   4   5
ATOM      5  C   UNL     1      10.798  32.712  26.501  1.00  0.00     0.053 C 
BRANCH   5   6
ATOM      6  C   UNL     1      10.997  33.479  25.229  1.00  0.00     0.041 C 
ATOM      7  O   UNL     1      11.273  34.707  25.268  1.00  0.00    -0.550 OA
ATOM      8  O   UNL     1      10.912  32.831  24.004  1.00  0.00    -0.550 OA
ENDBRANCH   5   6
ENDBRANCH   4   5
ENDBRANCH   3   4
ENDBRANCH   2   3
ENDBRANCH   1   2
BRANCH   1   9
ATOM      9  C   UNL     1       9.070  31.356  30.024  1.00  0.00     0.000 C 
BRANCH   9  10
ATOM     10  C   UNL     1      10.537  31.072  30.384  1.00  0.00    -0.000 C 
BRANCH  10  11
ATOM     11  C   UNL     1      11.438  32.305  30.223  1.00  0.00    -0.000 C 
BRANCH  11  12
ATOM     12  C   UNL     1      12.909  31.896  30.084  1.00  0.00    -0.000 C 
BRANCH  12  13
ATOM     13  C   UNL     1      13.068  30.747  29.080  1.00  0.00    -0.003 C 
ATOM     14  C   UNL     1      13.807  31.209  27.828  1.00  0.00     0.004 C 
ENDBRANCH  12  13
ENDBRANCH  11  12
ENDBRANCH  10  11
ENDBRANCH   9  10
ENDBRANCH   1   9
TORSDOF 10
ENDMDL
MODEL 2
REMARK VINA RESULT:    -3.888      1.590      2.207
REMARK INTER + INTRA:          -7.568
REMARK INTER:                  -6.493
REMARK INTRA:                  -1.076
REMARK UNBOUND:                -1.408
REMARK SMILES CCCCCCCCCCCC(=O)[O-]
REMARK SMILES IDX 7 1 8 2 9 3 10 4 11 5 12 6 13 7 14 8 6 9 5 10 4 11 3 12 2 13
REMARK SMILES IDX 1 14
REMARK H PARENT
REMARK Flexibility Score: inf
ROOT
ATOM      1  C   UNL     1      11.560  30.795  27.061  1.00  0.00     0.000 C 
ENDROOT
BRANCH   1   2
ATOM      2  C   UNL     1      11.142  30.494  25.613  1.00  0.00     0.000 C 
BRANCH   2   3
ATOM      3  C   UNL     1       9.656  30.786  25.350  1.00  0.00     0.000 C 
BRANCH   3   4
ATOM      4  C   UNL     1       9.353  32.281  25.522  1.00  0.00     0.006 C 
BRANCH   4   5
ATOM      5  C   UNL     1      10.074  33.145  24.477  1.00  0.00     0.053 C 
BRANCH   5   6
ATOM      6  C   UNL     1      10.991  34.142  25.117  1.00  0.00     0.041 C 
ATOM      7  O   UNL     1      11.527  35.046  24.423  1.00  0.00    -0.550 OA
ATOM      8  O   UNL     1      11.227  34.095  26.485  1.00  0.00    -0.550 OA
ENDBRANCH   5   6
ENDBRANCH   4   5
ENDBRANCH   3   4
ENDBRANCH   2   3
ENDBRANCH   1   2
BRANCH   1   9
ATOM      9  C   UNL     1      10.972  29.790  28.067  1.00  0.00     0.000 C 
BRANCH   9  10
ATOM     10  C   UNL     1      10.640  30.437  29.422  1.00  0.00    -0.000 C 
BRANCH  10  11
ATOM     11  C   UNL     1      10.379  31.947  29.310  1.00  0.00    -0.000 C 
BRANCH  11  12
ATOM     12  C   UNL     1      11.306  32.733  30.244  1.00  0.00    -0.000 C 
BRANCH  12  13
ATOM     13  C   UNL     1      12.288  31.798  30.961  1.00  0.00    -0.003 C 
ATOM     14  C   UNL     1      13.733  32.229  30.723  1.00  0.00     0.004 C 
ENDBRANCH  12  13
ENDBRANCH  11  12
ENDBRANCH  10  11
ENDBRANCH   9  10
ENDBRANCH   1   9
TORSDOF 10
ENDMDL
MODEL 3
REMARK VINA RESULT:    -3.853     10.083     11.523
REMARK INTER + INTRA:          -7.513
REMARK INTER:                  -6.789
REMARK INTRA:                  -0.724
REMARK UNBOUND:                -1.408
REMARK SMILES CCCCCCCCCCCC(=O)[O-]
REMARK SMILES IDX 7 1 8 2 9 3 10 4 11 5 12 6 13 7 14 8 6 9 5 10 4 11 3 12 2 13
REMARK SMILES IDX 1 14
REMARK H PARENT
REMARK Flexibility Score: inf
ROOT
ATOM      1  C   UNL     1       5.594  30.040  17.109  1.00  0.00     0.000 C 
ENDROOT
BRANCH   1   2
ATOM      2  C   UNL     1       6.851  29.155  17.141  1.00  0.00     0.000 C 
BRANCH   2   3
ATOM      3  C   UNL     1       7.957  29.726  18.042  1.00  0.00     0.000 C 
BRANCH   3   4
ATOM      4  C   UNL     1       8.428  28.677  19.061  1.00  0.00     0.006 C 
BRANCH   4   5
ATOM      5  C   UNL     1       7.727  27.325  18.871  1.00  0.00     0.053 C 
BRANCH   5   6
ATOM      6  C   UNL     1       8.682  26.179  19.007  1.00  0.00     0.041 C 
ATOM      7  O   UNL     1       9.905  26.342  18.755  1.00  0.00    -0.550 OA
ATOM      8  O   UNL     1       8.228  24.942  19.444  1.00  0.00    -0.550 OA
ENDBRANCH   5   6
ENDBRANCH   4   5
ENDBRANCH   3   4
ENDBRANCH   2   3
ENDBRANCH   1   2
BRANCH   1   9
ATOM      9  C   UNL     1       5.542  31.035  18.281  1.00  0.00     0.000 C 
BRANCH   9  10
ATOM     10  C   UNL     1       4.179  31.037  18.993  1.00  0.00    -0.000 C 
BRANCH  10  11
ATOM     11  C   UNL     1       3.623  32.452  19.207  1.00  0.00    -0.000 C 
BRANCH  11  12
ATOM     12  C   UNL     1       4.364  33.470  18.332  1.00  0.00    -0.000 C 
BRANCH  12  13
ATOM     13  C   UNL     1       4.583  34.788  19.086  1.00  0.00    -0.003 C 
ATOM     14  C   UNL     1       5.924  34.790  19.813  1.00  0.00     0.004 C 
ENDBRANCH  12  13
ENDBRANCH  11  12
ENDBRANCH  10  11
ENDBRANCH   9  10
ENDBRANCH   1   9
TORSDOF 10
ENDMDL
MODEL 4
REMARK VINA RESULT:    -3.827      2.322      4.317
REMARK INTER + INTRA:          -7.471
REMARK INTER:                  -6.282
REMARK INTRA:                  -1.190
REMARK UNBOUND:                -1.408
REMARK SMILES CCCCCCCCCCCC(=O)[O-]
REMARK SMILES IDX 7 1 8 2 9 3 10 4 11 5 12 6 13 7 14 8 6 9 5 10 4 11 3 12 2 13
REMARK SMILES IDX 1 14
REMARK H PARENT
REMARK Flexibility Score: inf
ROOT
ATOM      1  C   UNL     1       8.396  30.335  29.008  1.00  0.00     0.000 C 
ENDROOT
BRANCH   1   2
ATOM      2  C   UNL     1       8.898  31.049  30.273  1.00  0.00     0.000 C 
BRANCH   2   3
ATOM      3  C   UNL     1       9.994  32.084  29.975  1.00  0.00     0.000 C 
BRANCH   3   4
ATOM      4  C   UNL     1      11.317  31.690  30.649  1.00  0.00     0.006 C 
BRANCH   4   5
ATOM      5  C   UNL     1      12.536  32.021  29.777  1.00  0.00     0.053 C 
BRANCH   5   6
ATOM      6  C   UNL     1      12.959  30.849  28.946  1.00  0.00     0.041 C 
ATOM      7  O   UNL     1      13.894  30.970  28.111  1.00  0.00    -0.550 OA
ATOM      8  O   UNL     1      12.345  29.615  29.117  1.00  0.00    -0.550 OA
ENDBRANCH   5   6
ENDBRANCH   4   5
ENDBRANCH   3   4
ENDBRANCH   2   3
ENDBRANCH   1   2
BRANCH   1   9
ATOM      9  C   UNL     1       9.302  30.582  27.790  1.00  0.00     0.000 C 
BRANCH   9  10
ATOM     10  C   UNL     1       8.515  31.047  26.553  1.00  0.00    -0.000 C 
BRANCH  10  11
ATOM     11  C   UNL     1       9.335  31.971  25.641  1.00  0.00    -0.000 C 
BRANCH  11  12
ATOM     12  C   UNL     1      10.804  32.009  26.077  1.00  0.00    -0.000 C 
BRANCH  12  13
ATOM     13  C   UNL     1      11.246  33.442  26.399  1.00  0.00    -0.003 C 
ATOM     14  C   UNL     1      11.172  34.332  25.162  1.00  0.00     0.004 C 
ENDBRANCH  12  13
ENDBRANCH  11  12
ENDBRANCH  10  11
ENDBRANCH   9  10
ENDBRANCH   1   9
TORSDOF 10
ENDMDL
MODEL 5
REMARK VINA RESULT:    -3.793      1.453      2.068
REMARK INTER + INTRA:          -7.418
REMARK INTER:                  -6.282
REMARK INTRA:                  -1.136
REMARK UNBOUND:                -1.408
REMARK SMILES CCCCCCCCCCCC(=O)[O-]
REMARK SMILES IDX 7 1 8 2 9 3 10 4 11 5 12 6 13 7 14 8 6 9 5 10 4 11 3 12 2 13
REMARK SMILES IDX 1 14
REMARK H PARENT
REMARK Flexibility Score: inf
ROOT
ATOM      1  C   UNL     1       9.634  32.221  29.824  1.00  0.00     0.000 C 
ENDROOT
BRANCH   1   2
ATOM      2  C   UNL     1       9.324  31.034  28.898  1.00  0.00     0.000 C 
BRANCH   2   3
ATOM      3  C   UNL     1       9.729  31.297  27.439  1.00  0.00     0.000 C 
BRANCH   3   4
ATOM      4  C   UNL     1      10.000  29.978  26.701  1.00  0.00     0.006 C 
BRANCH   4   5
ATOM      5  C   UNL     1       9.840  30.119  25.181  1.00  0.00     0.053 C 
BRANCH   5   6
ATOM      6  C   UNL     1      10.994  30.851  24.565  1.00  0.00     0.041 C 
ATOM      7  O   UNL     1      12.102  30.272  24.413  1.00  0.00    -0.550 OA
ATOM      8  O   UNL     1      10.835  32.160  24.129  1.00  0.00    -0.550 OA
ENDBRANCH   5   6
ENDBRANCH   4   5
ENDBRANCH   3   4
ENDBRANCH   2   3
ENDBRANCH   1   2
BRANCH   1   9
ATOM      9  C   UNL     1      10.358  31.793  31.113  1.00  0.00     0.000 C 
BRANCH   9  10
ATOM     10  C   UNL     1      11.724  31.145  30.834  1.00  0.00    -0.000 C 
BRANCH  10  11
ATOM     11  C   UNL     1      12.892  32.129  31.002  1.00  0.00    -0.000 C 
BRANCH  11  12
ATOM     12  C   UNL     1      13.959  31.902  29.925  1.00  0.00    -0.000 C 
BRANCH  12  13
ATOM     13  C   UNL     1      13.466  30.911  28.862  1.00  0.00    -0.003 C 
ATOM     14  C   UNL     1      13.249  31.605  27.521  1.00  0.00     0.004 C 
ENDBRANCH  12  13
ENDBRANCH  11  12
ENDBRANCH  10  11
ENDBRANCH   9  10
ENDBRANCH   1   9
TORSDOF 10
ENDMDL
MODEL 6
REMARK VINA RESULT:    -3.779      2.930      4.947
REMARK INTER + INTRA:          -7.395
REMARK INTER:                  -6.406
REMARK INTRA:                  -0.989
REMARK UNBOUND:                -1.408
REMARK SMILES CCCCCCCCCCCC(=O)[O-]
REMARK SMILES IDX 7 1 8 2 9 3 10 4 11 5 12 6 13 7 14 8 6 9 5 10 4 11 3 12 2 13
REMARK SMILES IDX 1 14
REMARK H PARENT
REMARK Flexibility Score: inf
ROOT
ATOM      1  C   UNL     1       9.190  29.011  27.215  1.00  0.00     0.000 C 
ENDROOT
BRANCH   1   2
ATOM      2  C   UNL     1      10.449  29.603  27.867  1.00  0.00     0.000 C 
BRANCH   2   3
ATOM      3  C   UNL     1      10.183  30.949  28.559  1.00  0.00     0.000 C 
BRANCH   3   4
ATOM      4  C   UNL     1      11.377  31.900  28.384  1.00  0.00     0.006 C 
BRANCH   4   5
ATOM      5  C   UNL     1      12.670  31.327  28.980  1.00  0.00     0.053 C 
BRANCH   5   6
ATOM      6  C   UNL     1      12.948  31.883  30.343  1.00  0.00     0.041 C 
ATOM      7  O   UNL     1      12.095  31.763  31.262  1.00  0.00    -0.550 OA
ATOM      8  O   UNL     1      14.162  32.504  30.608  1.00  0.00    -0.550 OA
ENDBRANCH   5   6
ENDBRANCH   4   5
ENDBRANCH   3   4
ENDBRANCH   2   3
ENDBRANCH   1   2
BRANCH   1   9
ATOM      9  C   UNL     1       8.701  29.838  26.014  1.00  0.00     0.000 C 
BRANCH   9  10
ATOM     10  C   UNL     1       9.711  29.848  24.854  1.00  0.00    -0.000 C 
BRANCH  10  11
ATOM     11  C   UNL     1      10.496  31.165  24.762  1.00  0.00    -0.000 C 
BRANCH  11  12
ATOM     12  C   UNL     1       9.609  32.359  25.132  1.00  0.00    -0.000 C 
BRANCH  12  13
ATOM     13  C   UNL     1      10.059  33.628  24.397  1.00  0.00    -0.003 C 
ATOM     14  C   UNL     1      11.215  34.307  25.126  1.00  0.00     0.004 C 
ENDBRANCH  12  13
ENDBRANCH  11  12
ENDBRANCH  10  11
ENDBRANCH   9  10
ENDBRANCH   1   9
TORSDOF 10
ENDMDL
MODEL 7
REMARK VINA RESULT:    -3.742      8.386     10.969
REMARK INTER + INTRA:          -7.337
REMARK INTER:                  -6.511
REMARK INTRA:                  -0.826
REMARK UNBOUND:                -1.408
REMARK SMILES CCCCCCCCCCCC(=O)[O-]
REMARK SMILES IDX 7 1 8 2 9 3 10 4 11 5 12 6 13 7 14 8 6 9 5 10 4 11 3 12 2 13
REMARK SMILES IDX 1 14
REMARK H PARENT
REMARK Flexibility Score: inf
ROOT
ATOM      1  C   UNL     1       5.954  29.936  17.260  1.00  0.00     0.000 C 
ENDROOT
BRANCH   1   2
ATOM      2  C   UNL     1       7.002  30.137  18.366  1.00  0.00     0.000 C 
BRANCH   2   3
ATOM      3  C   UNL     1       8.268  29.294  18.146  1.00  0.00     0.000 C 
BRANCH   3   4
ATOM      4  C   UNL     1       8.538  28.385  19.354  1.00  0.00     0.006 C 
BRANCH   4   5
ATOM      5  C   UNL     1       7.339  28.316  20.310  1.00  0.00     0.053 C 
BRANCH   5   6
ATOM      6  C   UNL     1       7.766  28.041  21.719  1.00  0.00     0.041 C 
ATOM      7  O   UNL     1       6.986  28.289  22.676  1.00  0.00    -0.550 OA
ATOM      8  O   UNL     1       9.010  27.478  21.973  1.00  0.00    -0.550 OA
ENDBRANCH   5   6
ENDBRANCH   4   5
ENDBRANCH   3   4
ENDBRANCH   2   3
ENDBRANCH   1   2
BRANCH   1   9
ATOM      9  C   UNL     1       4.632  30.664  17.559  1.00  0.00     0.000 C 
BRANCH   9  10
ATOM     10  C   UNL     1       4.288  30.670  19.058  1.00  0.00    -0.000 C 
BRANCH  10  11
ATOM     11  C   UNL     1       4.047  32.084  19.607  1.00  0.00    -0.000 C 
BRANCH  11  12
ATOM     12  C   UNL     1       3.606  33.037  18.490  1.00  0.00    -0.000 C 
BRANCH  12  13
ATOM     13  C   UNL     1       4.220  34.430  18.680  1.00  0.00    -0.003 C 
ATOM     14  C   UNL     1       5.320  34.408  19.737  1.00  0.00     0.004 C 
ENDBRANCH  12  13
ENDBRANCH  11  12
ENDBRANCH  10  11
ENDBRANCH   9  10
ENDBRANCH   1   9
TORSDOF 10
ENDMDL
MODEL 8
REMARK VINA RESULT:    -3.740     10.231     12.117
REMARK INTER + INTRA:          -7.333
REMARK INTER:                  -6.400
REMARK INTRA:                  -0.933
REMARK UNBOUND:                -1.408
REMARK SMILES CCCCCCCCCCCC(=O)[O-]
REMARK SMILES IDX 7 1 8 2 9 3 10 4 11 5 12 6 13 7 14 8 6 9 5 10 4 11 3 12 2 13
REMARK SMILES IDX 1 14
REMARK H PARENT
REMARK Flexibility Score: inf
ROOT
ATOM      1  C   UNL     1       2.732  29.801  18.656  1.00  0.00     0.000 C 
ENDROOT
BRANCH   1   2
ATOM      2  C   UNL     1       3.754  30.117  19.759  1.00  0.00     0.000 C 
BRANCH   2   3
ATOM      3  C   UNL     1       5.193  30.205  19.229  1.00  0.00     0.000 C 
BRANCH   3   4
ATOM      4  C   UNL     1       6.037  29.027  19.739  1.00  0.00     0.006 C 
BRANCH   4   5
ATOM      5  C   UNL     1       7.443  29.009  19.122  1.00  0.00     0.053 C 
BRANCH   5   6
ATOM      6  C   UNL     1       7.575  27.947  18.073  1.00  0.00     0.041 C 
ATOM      7  O   UNL     1       7.057  28.112  16.937  1.00  0.00    -0.550 OA
ATOM      8  O   UNL     1       8.299  26.792  18.338  1.00  0.00    -0.550 OA
ENDBRANCH   5   6
ENDBRANCH   4   5
ENDBRANCH   3   4
ENDBRANCH   2   3
ENDBRANCH   1   2
BRANCH   1   9
ATOM      9  C   UNL     1       2.900  30.700  17.419  1.00  0.00     0.000 C 
BRANCH   9  10
ATOM     10  C   UNL     1       1.716  31.661  17.222  1.00  0.00    -0.000 C 
BRANCH  10  11
ATOM     11  C   UNL     1       2.071  33.117  17.557  1.00  0.00    -0.000 C 
BRANCH  11  12
ATOM     12  C   UNL     1       3.578  33.273  17.792  1.00  0.00    -0.000 C 
BRANCH  12  13
ATOM     13  C   UNL     1       3.864  34.373  18.822  1.00  0.00    -0.003 C 
ATOM     14  C   UNL     1       5.169  34.105  19.566  1.00  0.00     0.004 C 
ENDBRANCH  12  13
ENDBRANCH  11  12
ENDBRANCH  10  11
ENDBRANCH   9  10
ENDBRANCH   1   9
TORSDOF 10
ENDMDL
MODEL 9
REMARK VINA RESULT:    -3.739      1.776      3.563
REMARK INTER + INTRA:          -7.332
REMARK INTER:                  -6.272
REMARK INTRA:                  -1.060
REMARK UNBOUND:                -1.408
REMARK SMILES CCCCCCCCCCCC(=O)[O-]
REMARK SMILES IDX 7 1 8 2 9 3 10 4 11 5 12 6 13 7 14 8 6 9 5 10 4 11 3 12 2 13
REMARK SMILES IDX 1 14
REMARK H PARENT
REMARK Flexibility Score: inf
ROOT
ATOM      1  C   UNL     1      12.283  31.025  27.722  1.00  0.00     0.000 C 
ENDROOT
BRANCH   1   2
ATOM      2  C   UNL     1      11.776  32.248  26.942  1.00  0.00     0.000 C 
BRANCH   2   3
ATOM      3  C   UNL     1      10.242  32.321  26.884  1.00  0.00     0.000 C 
BRANCH   3   4
ATOM      4  C   UNL     1       9.733  32.042  25.462  1.00  0.00     0.006 C 
BRANCH   4   5
ATOM      5  C   UNL     1       9.465  30.549  25.223  1.00  0.00     0.053 C 
BRANCH   5   6
ATOM      6  C   UNL     1      10.416  29.967  24.222  1.00  0.00     0.041 C 
ATOM      7  O   UNL     1      10.025  29.076  23.422  1.00  0.00    -0.550 OA
ATOM      8  O   UNL     1      11.723  30.430  24.151  1.00  0.00    -0.550 OA
ENDBRANCH   5   6
ENDBRANCH   4   5
ENDBRANCH   3   4
ENDBRANCH   2   3
ENDBRANCH   1   2
BRANCH   1   9
ATOM      9  C   UNL     1      13.511  31.346  28.592  1.00  0.00     0.000 C 
BRANCH   9  10
ATOM     10  C   UNL     1      13.128  31.749  30.026  1.00  0.00    -0.000 C 
BRANCH  10  11
ATOM     11  C   UNL     1      11.809  31.112  30.489  1.00  0.00    -0.000 C 
BRANCH  11  12
ATOM     12  C   UNL     1      10.767  32.188  30.818  1.00  0.00    -0.000 C 
BRANCH  12  13
ATOM     13  C   UNL     1       9.389  31.562  31.065  1.00  0.00    -0.003 C 
ATOM     14  C   UNL     1       8.973  30.668  29.900  1.00  0.00     0.004 C 
ENDBRANCH  12  13
ENDBRANCH  11  12
ENDBRANCH  10  11
ENDBRANCH   9  10
ENDBRANCH   1   9
TORSDOF 10
ENDMDL
