MODEL 1
REMARK VINA RESULT:    -3.816      0.000      0.000
REMARK INTER + INTRA:          -7.090
REMARK INTER:                  -5.824
REMARK INTRA:                  -1.266
REMARK UNBOUND:                -1.266
REMARK SMILES CCCCCCCCCCC(=O)[O-]
REMARK SMILES IDX 7 1 8 2 9 3 10 4 11 5 12 6 13 7 6 8 5 9 4 10 3 11 2 12 1 13
REMARK H PARENT
REMARK Flexibility Score: inf
ROOT
ATOM      1  C   UNL     1     207.311 205.217 158.304  1.00  0.00     0.000 C 
ENDROOT
BRANCH   1   2
ATOM      2  C   UNL     1     206.476 204.400 159.312  1.00  0.00     0.000 C 
BRANCH   2   3
ATOM      3  C   UNL     1     205.857 203.144 158.673  1.00  0.00     0.006 C 
BRANCH   3   4
ATOM      4  C   UNL     1     206.026 203.124 157.148  1.00  0.00     0.053 C 
BRANCH   4   5
ATOM      5  C   UNL     1     206.717 201.880 156.681  1.00  0.00     0.041 C 
ATOM      6  O   UNL     1     207.322 201.868 155.576  1.00  0.00    -0.550 OA
ATOM      7  O   UNL     1     206.663 200.724 157.449  1.00  0.00    -0.550 OA
ENDBRANCH   4   5
ENDBRANCH   3   4
ENDBRANCH   2   3
ENDBRANCH   1   2
BRANCH   1   8
ATOM      8  C   UNL     1     207.325 206.727 158.597  1.00  0.00     0.000 C 
BRANCH   8   9
ATOM      9  C   UNL     1     206.539 207.543 157.558  1.00  0.00    -0.000 C 
BRANCH   9  10
ATOM     10  C   UNL     1     206.094 206.697 156.354  1.00  0.00    -0.000 C 
BRANCH  10  11
ATOM     11  C   UNL     1     204.570 206.682 156.174  1.00  0.00    -0.000 C 
BRANCH  11  12
ATOM     12  C   UNL     1     203.863 206.424 157.510  1.00  0.00    -0.003 C 
ATOM     13  C   UNL     1     202.994 205.172 157.443  1.00  0.00     0.004 C 
ENDBRANCH  11  12
ENDBRANCH  10  11
ENDBRANCH   9  10
ENDBRANCH   8   9
ENDBRANCH   1   8
TORSDOF 9
ENDMDL
MODEL 2
REMARK VINA RESULT:    -3.744      2.069      3.837
REMARK INTER + INTRA:          -6.979
REMARK INTER:                  -5.941
REMARK INTRA:                  -1.038
REMARK UNBOUND:                -1.266
REMARK SMILES CCCCCCCCCCC(=O)[O-]
REMARK SMILES IDX 7 1 8 2 9 3 10 4 11 5 12 6 13 7 6 8 5 9 4 10 3 11 2 12 1 13
REMARK H PARENT
REMARK Flexibility Score: inf
ROOT
ATOM      1  C   UNL     1     205.129 207.029 155.607  1.00  0.00     0.000 C 
ENDROOT
BRANCH   1   2
ATOM      2  C   UNL     1     205.422 205.708 156.349  1.00  0.00     0.000 C 
BRANCH   2   3
ATOM      3  C   UNL     1     206.373 204.794 155.556  1.00  0.00     0.006 C 
BRANCH   3   4
ATOM      4  C   UNL     1     207.168 203.849 156.468  1.00  0.00     0.053 C 
BRANCH   4   5
ATOM      5  C   UNL     1     207.244 202.464 155.904  1.00  0.00     0.041 C 
ATOM      6  O   UNL     1     206.471 201.564 156.327  1.00  0.00    -0.550 OA
ATOM      7  O   UNL     1     208.190 202.158 154.934  1.00  0.00    -0.550 OA
ENDBRANCH   4   5
ENDBRANCH   3   4
ENDBRANCH   2   3
ENDBRANCH   1   2
BRANCH   1   8
ATOM      8  C   UNL     1     205.556 208.282 156.390  1.00  0.00     0.000 C 
BRANCH   8   9
ATOM      9  C   UNL     1     206.453 207.954 157.596  1.00  0.00    -0.000 C 
BRANCH   9  10
ATOM     10  C   UNL     1     207.893 208.460 157.415  1.00  0.00    -0.000 C 
BRANCH  10  11
ATOM     11  C   UNL     1     208.848 207.360 156.927  1.00  0.00    -0.000 C 
BRANCH  11  12
ATOM     12  C   UNL     1     209.079 207.467 155.416  1.00  0.00    -0.003 C 
ATOM     13  C   UNL     1     210.518 207.114 155.051  1.00  0.00     0.004 C 
ENDBRANCH  11  12
ENDBRANCH  10  11
ENDBRANCH   9  10
ENDBRANCH   8   9
ENDBRANCH   1   8
TORSDOF 9
ENDMDL
MODEL 3
REMARK VINA RESULT:    -3.742      2.196      3.698
REMARK INTER + INTRA:          -6.977
REMARK INTER:                  -5.681
REMARK INTRA:                  -1.296
REMARK UNBOUND:                -1.266
REMARK SMILES CCCCCCCCCCC(=O)[O-]
REMARK SMILES IDX 7 1 8 2 9 3 10 4 11 5 12 6 13 7 6 8 5 9 4 10 3 11 2 12 1 13
REMARK H PARENT
REMARK Flexibility Score: inf
ROOT
ATOM      1  C   UNL     1     206.758 204.427 159.745  1.00  0.00     0.000 C 
ENDROOT
BRANCH   1   2
ATOM      2  C   UNL     1     206.828 205.926 159.382  1.00  0.00     0.000 C 
BRANCH   2   3
ATOM      3  C   UNL     1     208.178 206.310 158.751  1.00  0.00     0.006 C 
BRANCH   3   4
ATOM      4  C   UNL     1     208.013 207.250 157.550  1.00  0.00     0.053 C 
BRANCH   4   5
ATOM      5  C   UNL     1     208.561 206.648 156.292  1.00  0.00     0.041 C 
ATOM      6  O   UNL     1     208.727 207.362 155.268  1.00  0.00    -0.550 OA
ATOM      7  O   UNL     1     208.858 205.292 156.242  1.00  0.00    -0.550 OA
ENDBRANCH   4   5
ENDBRANCH   3   4
ENDBRANCH   2   3
ENDBRANCH   1   2
BRANCH   1   8
ATOM      8  C   UNL     1     205.729 203.641 158.915  1.00  0.00     0.000 C 
BRANCH   8   9
ATOM      9  C   UNL     1     206.189 203.401 157.468  1.00  0.00    -0.000 C 
BRANCH   9  10
ATOM     10  C   UNL     1     205.450 204.292 156.457  1.00  0.00    -0.000 C 
BRANCH  10  11
ATOM     11  C   UNL     1     204.153 204.882 157.028  1.00  0.00    -0.000 C 
BRANCH  11  12
ATOM     12  C   UNL     1     204.114 206.403 156.840  1.00  0.00    -0.003 C 
ATOM     13  C   UNL     1     204.915 206.828 155.612  1.00  0.00     0.004 C 
ENDBRANCH  11  12
ENDBRANCH  10  11
ENDBRANCH   9  10
ENDBRANCH   8   9
ENDBRANCH   1   8
TORSDOF 9
ENDMDL
MODEL 4
REMARK VINA RESULT:    -3.725      3.500      5.387
REMARK INTER + INTRA:          -6.951
REMARK INTER:                  -5.645
REMARK INTRA:                  -1.306
REMARK UNBOUND:                -1.266
REMARK SMILES CCCCCCCCCCC(=O)[O-]
REMARK SMILES IDX 7 1 8 2 9 3 10 4 11 5 12 6 13 7 6 8 5 9 4 10 3 11 2 12 1 13
REMARK H PARENT
REMARK Flexibility Score: inf
ROOT
ATOM      1  C   UNL     1     205.116 206.812 155.848  1.00  0.00     0.000 C 
ENDROOT
BRANCH   1   2
ATOM      2  C   UNL     1     204.597 206.811 157.302  1.00  0.00     0.000 C 
BRANCH   2   3
ATOM      3  C   UNL     1     205.146 207.996 158.116  1.00  0.00     0.006 C 
BRANCH   3   4
ATOM      4  C   UNL     1     205.697 209.112 157.219  1.00  0.00     0.053 C 
BRANCH   4   5
ATOM      5  C   UNL     1     207.046 209.579 157.676  1.00  0.00     0.041 C 
ATOM      6  O   UNL     1     208.044 208.818 157.581  1.00  0.00    -0.550 OA
ATOM      7  O   UNL     1     207.192 210.841 158.236  1.00  0.00    -0.550 OA
ENDBRANCH   4   5
ENDBRANCH   3   4
ENDBRANCH   2   3
ENDBRANCH   1   2
BRANCH   1   8
ATOM      8  C   UNL     1     206.002 205.600 155.511  1.00  0.00     0.000 C 
BRANCH   8   9
ATOM      9  C   UNL     1     207.409 205.702 156.123  1.00  0.00    -0.000 C 
BRANCH   9  10
ATOM     10  C   UNL     1     207.620 204.724 157.289  1.00  0.00    -0.000 C 
BRANCH  10  11
ATOM     11  C   UNL     1     207.782 205.440 158.638  1.00  0.00    -0.000 C 
BRANCH  11  12
ATOM     12  C   UNL     1     206.890 204.800 159.708  1.00  0.00    -0.003 C 
ATOM     13  C   UNL     1     205.935 203.780 159.093  1.00  0.00     0.004 C 
ENDBRANCH  11  12
ENDBRANCH  10  11
ENDBRANCH   9  10
ENDBRANCH   8   9
ENDBRANCH   1   8
TORSDOF 9
ENDMDL
MODEL 5
REMARK VINA RESULT:    -3.722      1.386      1.859
REMARK INTER + INTRA:          -6.946
REMARK INTER:                  -5.663
REMARK INTRA:                  -1.283
REMARK UNBOUND:                -1.266
REMARK SMILES CCCCCCCCCCC(=O)[O-]
REMARK SMILES IDX 7 1 8 2 9 3 10 4 11 5 12 6 13 7 6 8 5 9 4 10 3 11 2 12 1 13
REMARK H PARENT
REMARK Flexibility Score: inf
ROOT
ATOM      1  C   UNL     1     206.768 205.210 159.707  1.00  0.00     0.000 C 
ENDROOT
BRANCH   1   2
ATOM      2  C   UNL     1     206.368 203.769 159.322  1.00  0.00     0.000 C 
BRANCH   2   3
ATOM      3  C   UNL     1     205.214 203.738 158.306  1.00  0.00     0.006 C 
BRANCH   3   4
ATOM      4  C   UNL     1     205.707 203.893 156.860  1.00  0.00     0.053 C 
BRANCH   4   5
ATOM      5  C   UNL     1     206.745 202.870 156.514  1.00  0.00     0.041 C 
ATOM      6  O   UNL     1     207.885 203.234 156.120  1.00  0.00    -0.550 OA
ATOM      7  O   UNL     1     206.444 201.517 156.594  1.00  0.00    -0.550 OA
ENDBRANCH   4   5
ENDBRANCH   3   4
ENDBRANCH   2   3
ENDBRANCH   1   2
BRANCH   1   8
ATOM      8  C   UNL     1     208.192 205.590 159.266  1.00  0.00     0.000 C 
BRANCH   8   9
ATOM      9  C   UNL     1     208.234 206.221 157.865  1.00  0.00    -0.000 C 
BRANCH   9  10
ATOM     10  C   UNL     1     207.630 207.635 157.834  1.00  0.00    -0.000 C 
BRANCH  10  11
ATOM     11  C   UNL     1     206.539 207.787 156.765  1.00  0.00    -0.000 C 
BRANCH  11  12
ATOM     12  C   UNL     1     205.153 207.500 157.353  1.00  0.00    -0.003 C 
ATOM     13  C   UNL     1     204.946 208.245 158.669  1.00  0.00     0.004 C 
ENDBRANCH  11  12
ENDBRANCH  10  11
ENDBRANCH   9  10
ENDBRANCH   8   9
ENDBRANCH   1   8
TORSDOF 9
ENDMDL
MODEL 6
REMARK VINA RESULT:    -3.721      2.374      3.965
REMARK INTER + INTRA:          -6.944
REMARK INTER:                  -6.059
REMARK INTRA:                  -0.886
REMARK UNBOUND:                -1.266
REMARK SMILES CCCCCCCCCCC(=O)[O-]
REMARK SMILES IDX 7 1 8 2 9 3 10 4 11 5 12 6 13 7 6 8 5 9 4 10 3 11 2 12 1 13
REMARK H PARENT
REMARK Flexibility Score: inf
ROOT
ATOM      1  C   UNL     1     205.196 207.461 157.680  1.00  0.00     0.000 C 
ENDROOT
BRANCH   1   2
ATOM      2  C   UNL     1     204.554 206.568 156.597  1.00  0.00     0.000 C 
BRANCH   2   3
ATOM      3  C   UNL     1     204.261 205.148 157.111  1.00  0.00     0.006 C 
BRANCH   3   4
ATOM      4  C   UNL     1     205.483 204.227 157.005  1.00  0.00     0.053 C 
BRANCH   4   5
ATOM      5  C   UNL     1     205.859 203.645 158.333  1.00  0.00     0.041 C 
ATOM      6  O   UNL     1     205.741 202.408 158.539  1.00  0.00    -0.550 OA
ATOM      7  O   UNL     1     206.308 204.473 159.354  1.00  0.00    -0.550 OA
ENDBRANCH   4   5
ENDBRANCH   3   4
ENDBRANCH   2   3
ENDBRANCH   1   2
BRANCH   1   8
ATOM      8  C   UNL     1     205.842 208.739 157.120  1.00  0.00     0.000 C 
BRANCH   8   9
ATOM      9  C   UNL     1     207.379 208.674 157.109  1.00  0.00    -0.000 C 
BRANCH   9  10
ATOM     10  C   UNL     1     207.916 207.304 157.550  1.00  0.00    -0.000 C 
BRANCH  10  11
ATOM     11  C   UNL     1     208.542 206.514 156.392  1.00  0.00    -0.000 C 
BRANCH  11  12
ATOM     12  C   UNL     1     209.124 207.461 155.336  1.00  0.00    -0.003 C 
ATOM     13  C   UNL     1     210.583 207.128 155.040  1.00  0.00     0.004 C 
ENDBRANCH  11  12
ENDBRANCH  10  11
ENDBRANCH   9  10
ENDBRANCH   8   9
ENDBRANCH   1   8
TORSDOF 9
ENDMDL
MODEL 7
REMARK VINA RESULT:    -3.714      1.497      1.795
REMARK INTER + INTRA:          -6.934
REMARK INTER:                  -5.797
REMARK INTRA:                  -1.136
REMARK UNBOUND:                -1.266
REMARK SMILES CCCCCCCCCCC(=O)[O-]
REMARK SMILES IDX 7 1 8 2 9 3 10 4 11 5 12 6 13 7 6 8 5 9 4 10 3 11 2 12 1 13
REMARK H PARENT
REMARK Flexibility Score: inf
ROOT
ATOM      1  C   UNL     1     208.160 207.099 157.793  1.00  0.00     0.000 C 
ENDROOT
BRANCH   1   2
ATOM      2  C   UNL     1     208.408 205.916 156.832  1.00  0.00     0.000 C 
BRANCH   2   3
ATOM      3  C   UNL     1     207.504 204.711 157.148  1.00  0.00     0.006 C 
BRANCH   3   4
ATOM      4  C   UNL     1     206.969 204.037 155.877  1.00  0.00     0.053 C 
BRANCH   4   5
ATOM      5  C   UNL     1     207.334 202.585 155.821  1.00  0.00     0.041 C 
ATOM      6  O   UNL     1     208.492 202.237 155.470  1.00  0.00    -0.550 OA
ATOM      7  O   UNL     1     206.387 201.617 156.126  1.00  0.00    -0.550 OA
ENDBRANCH   4   5
ENDBRANCH   3   4
ENDBRANCH   2   3
ENDBRANCH   1   2
BRANCH   1   8
ATOM      8  C   UNL     1     207.508 208.315 157.114  1.00  0.00     0.000 C 
BRANCH   8   9
ATOM      9  C   UNL     1     205.972 208.289 157.192  1.00  0.00    -0.000 C 
BRANCH   9  10
ATOM     10  C   UNL     1     205.316 207.995 155.833  1.00  0.00    -0.000 C 
BRANCH  10  11
ATOM     11  C   UNL     1     204.416 206.752 155.869  1.00  0.00    -0.000 C 
BRANCH  11  12
ATOM     12  C   UNL     1     204.164 206.301 157.312  1.00  0.00    -0.003 C 
ATOM     13  C   UNL     1     203.114 205.195 157.369  1.00  0.00     0.004 C 
ENDBRANCH  11  12
ENDBRANCH  10  11
ENDBRANCH   9  10
ENDBRANCH   8   9
ENDBRANCH   1   8
TORSDOF 9
ENDMDL
MODEL 8
REMARK VINA RESULT:    -3.703      3.417      5.416
REMARK INTER + INTRA:          -6.917
REMARK INTER:                  -5.607
REMARK INTRA:                  -1.310
REMARK UNBOUND:                -1.266
REMARK SMILES CCCCCCCCCCC(=O)[O-]
REMARK SMILES IDX 7 1 8 2 9 3 10 4 11 5 12 6 13 7 6 8 5 9 4 10 3 11 2 12 1 13
REMARK H PARENT
REMARK Flexibility Score: inf
ROOT
ATOM      1  C   UNL     1     206.208 205.278 155.799  1.00  0.00     0.000 C 
ENDROOT
BRANCH   1   2
ATOM      2  C   UNL     1     207.320 206.341 155.667  1.00  0.00     0.000 C 
BRANCH   2   3
ATOM      3  C   UNL     1     207.054 207.575 156.547  1.00  0.00     0.006 C 
BRANCH   3   4
ATOM      4  C   UNL     1     205.627 207.589 157.113  1.00  0.00     0.053 C 
BRANCH   4   5
ATOM      5  C   UNL     1     205.476 208.589 158.217  1.00  0.00     0.041 C 
ATOM      6  O   UNL     1     204.831 208.292 159.257  1.00  0.00    -0.550 OA
ATOM      7  O   UNL     1     206.019 209.860 158.084  1.00  0.00    -0.550 OA
ENDBRANCH   4   5
ENDBRANCH   3   4
ENDBRANCH   2   3
ENDBRANCH   1   2
BRANCH   1   8
ATOM      8  C   UNL     1     206.730 203.833 155.746  1.00  0.00     0.000 C 
BRANCH   8   9
ATOM      9  C   UNL     1     206.320 203.005 156.976  1.00  0.00    -0.000 C 
BRANCH   9  10
ATOM     10  C   UNL     1     205.572 203.839 158.027  1.00  0.00    -0.000 C 
BRANCH  10  11
ATOM     11  C   UNL     1     206.276 203.837 159.392  1.00  0.00    -0.000 C 
BRANCH  11  12
ATOM     12  C   UNL     1     206.732 205.250 159.774  1.00  0.00    -0.003 C 
ATOM     13  C   UNL     1     208.197 205.475 159.410  1.00  0.00     0.004 C 
ENDBRANCH  11  12
ENDBRANCH  10  11
ENDBRANCH   9  10
ENDBRANCH   8   9
ENDBRANCH   1   8
TORSDOF 9
ENDMDL
MODEL 9
REMARK VINA RESULT:    -3.697      2.821      4.859
REMARK INTER + INTRA:          -6.908
REMARK INTER:                  -5.573
REMARK INTRA:                  -1.336
REMARK UNBOUND:                -1.266
REMARK SMILES CCCCCCCCCCC(=O)[O-]
REMARK SMILES IDX 7 1 8 2 9 3 10 4 11 5 12 6 13 7 6 8 5 9 4 10 3 11 2 12 1 13
REMARK H PARENT
REMARK Flexibility Score: inf
ROOT
ATOM      1  C   UNL     1     205.028 207.003 155.607  1.00  0.00     0.000 C 
ENDROOT
BRANCH   1   2
ATOM      2  C   UNL     1     206.162 206.139 155.016  1.00  0.00     0.000 C 
BRANCH   2   3
ATOM      3  C   UNL     1     207.552 206.742 155.283  1.00  0.00     0.006 C 
BRANCH   3   4
ATOM      4  C   UNL     1     208.222 206.133 156.523  1.00  0.00     0.053 C 
BRANCH   4   5
ATOM      5  C   UNL     1     208.246 207.095 157.671  1.00  0.00     0.041 C 
ATOM      6  O   UNL     1     207.263 207.168 158.456  1.00  0.00    -0.550 OA
ATOM      7  O   UNL     1     209.337 207.933 157.855  1.00  0.00    -0.550 OA
ENDBRANCH   4   5
ENDBRANCH   3   4
ENDBRANCH   2   3
ENDBRANCH   1   2
BRANCH   1   8
ATOM      8  C   UNL     1     204.351 206.372 156.836  1.00  0.00     0.000 C 
BRANCH   8   9
ATOM      9  C   UNL     1     204.467 204.839 156.859  1.00  0.00    -0.000 C 
BRANCH   9  10
ATOM     10  C   UNL     1     205.234 204.323 158.088  1.00  0.00    -0.000 C 
BRANCH  10  11
ATOM     11  C   UNL     1     206.017 203.035 157.796  1.00  0.00    -0.000 C 
BRANCH  11  12
ATOM     12  C   UNL     1     206.128 202.792 156.287  1.00  0.00    -0.003 C 
ATOM     13  C   UNL     1     207.569 202.501 155.879  1.00  0.00     0.004 C 
ENDBRANCH  11  12
ENDBRANCH  10  11
ENDBRANCH   9  10
ENDBRANCH   8   9
ENDBRANCH   1   8
TORSDOF 9
ENDMDL
