MODEL 1
REMARK VINA RESULT:    -3.134      0.000      0.000
REMARK INTER + INTRA:          -3.522
REMARK INTER:                  -3.500
REMARK INTRA:                  -0.022
REMARK UNBOUND:                -0.022
REMARK SMILES CCCC(=O)[O-]
REMARK SMILES IDX 3 1 4 2 5 3 6 4 2 5 1 6
REMARK H PARENT
REMARK Flexibility Score: inf
ROOT
ATOM      1  C   UNL     1      61.579  38.903  29.209  1.00  0.00     0.052 C 
ENDROOT
BRANCH   1   2
ATOM      2  C   UNL     1      61.511  38.462  30.638  1.00  0.00     0.041 C 
ATOM      3  O   UNL     1      62.316  38.932  31.485  1.00  0.00    -0.550 OA
ATOM      4  O   UNL     1      60.581  37.507  31.029  1.00  0.00    -0.550 OA
ENDBRANCH   1   2
BRANCH   1   5
ATOM      5  C   UNL     1      62.859  39.700  28.920  1.00  0.00     0.003 C 
ATOM      6  C   UNL     1      63.613  39.164  27.702  1.00  0.00     0.004 C 
ENDBRANCH   1   5
TORSDOF 2
ENDMDL
MODEL 2
REMARK VINA RESULT:    -2.974      2.048      2.692
REMARK INTER + INTRA:          -3.343
REMARK INTER:                  -3.335
REMARK INTRA:                  -0.008
REMARK UNBOUND:                -0.022
REMARK SMILES CCCC(=O)[O-]
REMARK SMILES IDX 3 1 4 2 5 3 6 4 2 5 1 6
REMARK H PARENT
REMARK Flexibility Score: inf
ROOT
ATOM      1  C   UNL     1      62.110  38.988  31.396  1.00  0.00     0.052 C 
ENDROOT
BRANCH   1   2
ATOM      2  C   UNL     1      61.320  38.437  30.250  1.00  0.00     0.041 C 
ATOM      3  O   UNL     1      60.484  37.514  30.443  1.00  0.00    -0.550 OA
ATOM      4  O   UNL     1      61.529  38.917  28.964  1.00  0.00    -0.550 OA
ENDBRANCH   1   2
BRANCH   1   5
ATOM      5  C   UNL     1      63.370  39.722  30.918  1.00  0.00     0.003 C 
ATOM      6  C   UNL     1      64.318  40.058  32.070  1.00  0.00     0.004 C 
ENDBRANCH   1   5
TORSDOF 2
ENDMDL
MODEL 3
REMARK VINA RESULT:    -2.873     17.755     18.575
REMARK INTER + INTRA:          -3.231
REMARK INTER:                  -3.159
REMARK INTRA:                  -0.072
REMARK UNBOUND:                -0.022
REMARK SMILES CCCC(=O)[O-]
REMARK SMILES IDX 3 1 4 2 5 3 6 4 2 5 1 6
REMARK H PARENT
REMARK Flexibility Score: inf
ROOT
ATOM      1  C   UNL     1      48.740  25.707  34.422  1.00  0.00     0.052 C 
ENDROOT
BRANCH   1   2
ATOM      2  C   UNL     1      49.550  25.787  35.679  1.00  0.00     0.041 C 
ATOM      3  O   UNL     1      49.818  26.908  36.188  1.00  0.00    -0.550 OA
ATOM      4  O   UNL     1      50.038  24.629  36.269  1.00  0.00    -0.550 OA
ENDBRANCH   1   2
BRANCH   1   5
ATOM      5  C   UNL     1      49.450  26.383  33.242  1.00  0.00     0.003 C 
ATOM      6  C   UNL     1      50.800  25.736  32.928  1.00  0.00     0.004 C 
ENDBRANCH   1   5
TORSDOF 2
ENDMDL
MODEL 4
REMARK VINA RESULT:    -2.826     17.198     18.151
REMARK INTER + INTRA:          -3.179
REMARK INTER:                  -3.131
REMARK INTRA:                  -0.048
REMARK UNBOUND:                -0.022
REMARK SMILES CCCC(=O)[O-]
REMARK SMILES IDX 3 1 4 2 5 3 6 4 2 5 1 6
REMARK H PARENT
REMARK Flexibility Score: inf
ROOT
ATOM      1  C   UNL     1      49.562  26.528  33.347  1.00  0.00     0.052 C 
ENDROOT
BRANCH   1   2
ATOM      2  C   UNL     1      50.834  25.809  33.024  1.00  0.00     0.041 C 
ATOM      3  O   UNL     1      50.800  24.684  32.459  1.00  0.00    -0.550 OA
ATOM      4  O   UNL     1      52.058  26.365  33.376  1.00  0.00    -0.550 OA
ENDBRANCH   1   2
BRANCH   1   5
ATOM      5  C   UNL     1      48.887  25.955  34.601  1.00  0.00     0.003 C 
ATOM      6  C   UNL     1      49.596  26.380  35.887  1.00  0.00     0.004 C 
ENDBRANCH   1   5
TORSDOF 2
ENDMDL
MODEL 5
REMARK VINA RESULT:    -2.807     17.676     18.534
REMARK INTER + INTRA:          -3.157
REMARK INTER:                  -3.086
REMARK INTRA:                  -0.071
REMARK UNBOUND:                -0.022
REMARK SMILES CCCC(=O)[O-]
REMARK SMILES IDX 3 1 4 2 5 3 6 4 2 5 1 6
REMARK H PARENT
REMARK Flexibility Score: inf
ROOT
ATOM      1  C   UNL     1      50.243  26.800  34.463  1.00  0.00     0.052 C 
ENDROOT
BRANCH   1   2
ATOM      2  C   UNL     1      49.991  25.997  33.225  1.00  0.00     0.041 C 
ATOM      3  O   UNL     1      48.842  25.973  32.709  1.00  0.00    -0.550 OA
ATOM      4  O   UNL     1      51.015  25.248  32.659  1.00  0.00    -0.550 OA
ENDBRANCH   1   2
BRANCH   1   5
ATOM      5  C   UNL     1      49.479  26.241  35.670  1.00  0.00     0.003 C 
ATOM      6  C   UNL     1      49.917  24.820  36.027  1.00  0.00     0.004 C 
ENDBRANCH   1   5
TORSDOF 2
ENDMDL
MODEL 6
REMARK VINA RESULT:    -2.747     17.377     18.289
REMARK INTER + INTRA:          -3.090
REMARK INTER:                  -3.036
REMARK INTRA:                  -0.054
REMARK UNBOUND:                -0.022
REMARK SMILES CCCC(=O)[O-]
REMARK SMILES IDX 3 1 4 2 5 3 6 4 2 5 1 6
REMARK H PARENT
REMARK Flexibility Score: inf
ROOT
ATOM      1  C   UNL     1      49.630  26.694  33.580  1.00  0.00     0.052 C 
ENDROOT
BRANCH   1   2
ATOM      2  C   UNL     1      49.058  25.939  34.739  1.00  0.00     0.041 C 
ATOM      3  O   UNL     1      48.336  24.927  34.541  1.00  0.00    -0.550 OA
ATOM      4  O   UNL     1      49.294  26.372  36.038  1.00  0.00    -0.550 OA
ENDBRANCH   1   2
BRANCH   1   5
ATOM      5  C   UNL     1      50.801  25.943  32.933  1.00  0.00     0.003 C 
ATOM      6  C   UNL     1      52.102  26.106  33.720  1.00  0.00     0.004 C 
ENDBRANCH   1   5
TORSDOF 2
ENDMDL
MODEL 7
REMARK VINA RESULT:    -2.603     16.429     17.694
REMARK INTER + INTRA:          -2.930
REMARK INTER:                  -2.867
REMARK INTRA:                  -0.063
REMARK UNBOUND:                -0.022
REMARK SMILES CCCC(=O)[O-]
REMARK SMILES IDX 3 1 4 2 5 3 6 4 2 5 1 6
REMARK H PARENT
REMARK Flexibility Score: inf
ROOT
ATOM      1  C   UNL     1      49.936  26.680  34.417  1.00  0.00     0.052 C 
ENDROOT
BRANCH   1   2
ATOM      2  C   UNL     1      51.379  27.071  34.483  1.00  0.00     0.041 C 
ATOM      3  O   UNL     1      51.772  27.900  35.346  1.00  0.00    -0.550 OA
ATOM      4  O   UNL     1      52.286  26.545  33.572  1.00  0.00    -0.550 OA
ENDBRANCH   1   2
BRANCH   1   5
ATOM      5  C   UNL     1      49.435  26.119  35.755  1.00  0.00     0.003 C 
ATOM      6  C   UNL     1      49.961  24.710  36.027  1.00  0.00     0.004 C 
ENDBRANCH   1   5
TORSDOF 2
ENDMDL
MODEL 8
REMARK VINA RESULT:    -2.599     17.856     18.456
REMARK INTER + INTRA:          -2.924
REMARK INTER:                  -2.883
REMARK INTRA:                  -0.041
REMARK UNBOUND:                -0.022
REMARK SMILES CCCC(=O)[O-]
REMARK SMILES IDX 3 1 4 2 5 3 6 4 2 5 1 6
REMARK H PARENT
REMARK Flexibility Score: inf
ROOT
ATOM      1  C   UNL     1      49.570  25.858  35.662  1.00  0.00     0.052 C 
ENDROOT
BRANCH   1   2
ATOM      2  C   UNL     1      51.000  25.470  35.877  1.00  0.00     0.041 C 
ATOM      3  O   UNL     1      51.285  24.482  36.605  1.00  0.00    -0.550 OA
ATOM      4  O   UNL     1      52.019  26.218  35.302  1.00  0.00    -0.550 OA
ENDBRANCH   1   2
BRANCH   1   5
ATOM      5  C   UNL     1      49.382  26.638  34.353  1.00  0.00     0.003 C 
ATOM      6  C   UNL     1      49.019  25.726  33.181  1.00  0.00     0.004 C 
ENDBRANCH   1   5
TORSDOF 2
ENDMDL
MODEL 9
REMARK VINA RESULT:    -2.559      8.499      9.182
REMARK INTER + INTRA:          -2.880
REMARK INTER:                  -2.828
REMARK INTRA:                  -0.052
REMARK UNBOUND:                -0.022
REMARK SMILES CCCC(=O)[O-]
REMARK SMILES IDX 3 1 4 2 5 3 6 4 2 5 1 6
REMARK H PARENT
REMARK Flexibility Score: inf
ROOT
ATOM      1  C   UNL     1      63.388  32.104  24.296  1.00  0.00     0.052 C 
ENDROOT
BRANCH   1   2
ATOM      2  C   UNL     1      62.259  31.120  24.286  1.00  0.00     0.041 C 
ATOM      3  O   UNL     1      61.111  31.478  23.914  1.00  0.00    -0.550 OA
ATOM      4  O   UNL     1      62.466  29.817  24.721  1.00  0.00    -0.550 OA
ENDBRANCH   1   2
BRANCH   1   5
ATOM      5  C   UNL     1      64.335  31.873  25.481  1.00  0.00     0.003 C 
ATOM      6  C   UNL     1      63.808  32.494  26.775  1.00  0.00     0.004 C 
ENDBRANCH   1   5
TORSDOF 2
ENDMDL
