MODEL 1
REMARK VINA RESULT:    -2.752      0.000      0.000
REMARK INTER + INTRA:          -6.388
REMARK INTER:                  -5.004
REMARK INTRA:                  -1.384
REMARK UNBOUND:                -1.384
REMARK SMILES CCCCCCCCCCCCCCCC(=O)[O-]
REMARK SMILES IDX 9 1 10 2 11 3 12 4 13 5 14 6 15 7 16 8 17 9 18 10 8 11 7 12
REMARK SMILES IDX 6 13 5 14 4 15 3 16 2 17 1 18
REMARK H PARENT
REMARK Flexibility Score: inf
ROOT
ATOM      1  C   UNL     1      77.259  91.034  77.447  1.00  0.00     0.000 C 
ENDROOT
BRANCH   1   2
ATOM      2  C   UNL     1      76.611  92.093  78.351  1.00  0.00     0.000 C 
BRANCH   2   3
ATOM      3  C   UNL     1      76.334  91.523  79.751  1.00  0.00     0.000 C 
BRANCH   3   4
ATOM      4  C   UNL     1      75.056  90.668  79.805  1.00  0.00     0.000 C 
BRANCH   4   5
ATOM      5  C   UNL     1      73.789  91.514  80.022  1.00  0.00     0.000 C 
BRANCH   5   6
ATOM      6  C   UNL     1      72.698  90.755  80.794  1.00  0.00     0.006 C 
BRANCH   6   7
ATOM      7  C   UNL     1      73.272  89.724  81.773  1.00  0.00     0.053 C 
BRANCH   7   8
ATOM      8  C   UNL     1      72.697  88.369  81.499  1.00  0.00     0.041 C 
ATOM      9  O   UNL     1      72.918  87.415  82.290  1.00  0.00    -0.550 OA
ATOM     10  O   UNL     1      71.875  88.174  80.397  1.00  0.00    -0.550 OA
ENDBRANCH   7   8
ENDBRANCH   6   7
ENDBRANCH   5   6
ENDBRANCH   4   5
ENDBRANCH   3   4
ENDBRANCH   2   3
ENDBRANCH   1   2
BRANCH   1  11
ATOM     11  C   UNL     1      76.478  90.794  76.143  1.00  0.00     0.000 C 
BRANCH  11  12
ATOM     12  C   UNL     1      75.224  91.670  75.960  1.00  0.00    -0.000 C 
BRANCH  12  13
ATOM     13  C   UNL     1      74.955  92.028  74.489  1.00  0.00    -0.000 C 
BRANCH  13  14
ATOM     14  C   UNL     1      75.233  90.858  73.527  1.00  0.00    -0.000 C 
BRANCH  14  15
ATOM     15  C   UNL     1      73.991  90.061  73.079  1.00  0.00    -0.000 C 
BRANCH  15  16
ATOM     16  C   UNL     1      74.209  88.546  72.922  1.00  0.00    -0.000 C 
BRANCH  16  17
ATOM     17  C   UNL     1      75.453  88.043  73.669  1.00  0.00    -0.003 C 
ATOM     18  C   UNL     1      75.089  87.535  75.061  1.00  0.00     0.004 C 
ENDBRANCH  16  17
ENDBRANCH  15  16
ENDBRANCH  14  15
ENDBRANCH  13  14
ENDBRANCH  12  13
ENDBRANCH  11  12
ENDBRANCH   1  11
TORSDOF 14
ENDMDL
MODEL 2
REMARK VINA RESULT:    -2.678      1.106      2.312
REMARK INTER + INTRA:          -6.254
REMARK INTER:                  -4.780
REMARK INTRA:                  -1.474
REMARK UNBOUND:                -1.384
REMARK SMILES CCCCCCCCCCCCCCCC(=O)[O-]
REMARK SMILES IDX 9 1 10 2 11 3 12 4 13 5 14 6 15 7 16 8 17 9 18 10 8 11 7 12
REMARK SMILES IDX 6 13 5 14 4 15 3 16 2 17 1 18
REMARK H PARENT
REMARK Flexibility Score: inf
ROOT
ATOM      1  C   UNL     1      76.825  90.119  79.494  1.00  0.00     0.000 C 
ENDROOT
BRANCH   1   2
ATOM      2  C   UNL     1      76.719  91.545  80.053  1.00  0.00     0.000 C 
BRANCH   2   3
ATOM      3  C   UNL     1      75.263  92.036  80.027  1.00  0.00     0.000 C 
BRANCH   3   4
ATOM      4  C   UNL     1      74.245  90.884  79.998  1.00  0.00     0.000 C 
BRANCH   4   5
ATOM      5  C   UNL     1      72.837  91.329  80.433  1.00  0.00     0.000 C 
BRANCH   5   6
ATOM      6  C   UNL     1      72.268  90.461  81.568  1.00  0.00     0.006 C 
BRANCH   6   7
ATOM      7  C   UNL     1      73.274  89.424  82.082  1.00  0.00     0.053 C 
BRANCH   7   8
ATOM      8  C   UNL     1      72.739  88.039  81.887  1.00  0.00     0.041 C 
ATOM      9  O   UNL     1      72.380  87.653  80.744  1.00  0.00    -0.550 OA
ATOM     10  O   UNL     1      72.686  87.158  82.959  1.00  0.00    -0.550 OA
ENDBRANCH   7   8
ENDBRANCH   6   7
ENDBRANCH   5   6
ENDBRANCH   4   5
ENDBRANCH   3   4
ENDBRANCH   2   3
ENDBRANCH   1   2
BRANCH   1  11
ATOM     11  C   UNL     1      77.898  89.978  78.399  1.00  0.00     0.000 C 
BRANCH  11  12
ATOM     12  C   UNL     1      77.354  89.751  76.976  1.00  0.00    -0.000 C 
BRANCH  12  13
ATOM     13  C   UNL     1      75.917  90.268  76.795  1.00  0.00    -0.000 C 
BRANCH  13  14
ATOM     14  C   UNL     1      75.860  91.762  76.426  1.00  0.00    -0.000 C 
BRANCH  14  15
ATOM     15  C   UNL     1      75.047  92.099  75.159  1.00  0.00    -0.000 C 
BRANCH  15  16
ATOM     16  C   UNL     1      75.622  91.538  73.846  1.00  0.00    -0.000 C 
BRANCH  16  17
ATOM     17  C   UNL     1      74.581  90.771  73.019  1.00  0.00    -0.003 C 
ATOM     18  C   UNL     1      74.527  89.302  73.429  1.00  0.00     0.004 C 
ENDBRANCH  16  17
ENDBRANCH  15  16
ENDBRANCH  14  15
ENDBRANCH  13  14
ENDBRANCH  12  13
ENDBRANCH  11  12
ENDBRANCH   1  11
TORSDOF 14
ENDMDL
MODEL 3
REMARK VINA RESULT:    -2.651     11.703     14.334
REMARK INTER + INTRA:          -6.205
REMARK INTER:                  -4.401
REMARK INTRA:                  -1.804
REMARK UNBOUND:                -1.384
REMARK SMILES CCCCCCCCCCCCCCCC(=O)[O-]
REMARK SMILES IDX 9 1 10 2 11 3 12 4 13 5 14 6 15 7 16 8 17 9 18 10 8 11 7 12
REMARK SMILES IDX 6 13 5 14 4 15 3 16 2 17 1 18
REMARK H PARENT
REMARK Flexibility Score: inf
ROOT
ATOM      1  C   UNL     1      76.741  90.400  91.846  1.00  0.00     0.000 C 
ENDROOT
BRANCH   1   2
ATOM      2  C   UNL     1      78.045  90.041  92.574  1.00  0.00     0.000 C 
BRANCH   2   3
ATOM      3  C   UNL     1      78.220  88.517  92.666  1.00  0.00     0.000 C 
BRANCH   3   4
ATOM      4  C   UNL     1      79.218  87.968  91.632  1.00  0.00     0.000 C 
BRANCH   4   5
ATOM      5  C   UNL     1      78.519  87.306  90.432  1.00  0.00     0.000 C 
BRANCH   5   6
ATOM      6  C   UNL     1      78.296  88.283  89.266  1.00  0.00     0.006 C 
BRANCH   6   7
ATOM      7  C   UNL     1      78.919  87.792  87.953  1.00  0.00     0.053 C 
BRANCH   7   8
ATOM      8  C   UNL     1      80.150  88.582  87.633  1.00  0.00     0.041 C 
ATOM      9  O   UNL     1      80.098  89.526  86.801  1.00  0.00    -0.550 OA
ATOM     10  O   UNL     1      81.341  88.310  88.293  1.00  0.00    -0.550 OA
ENDBRANCH   7   8
ENDBRANCH   6   7
ENDBRANCH   5   6
ENDBRANCH   4   5
ENDBRANCH   3   4
ENDBRANCH   2   3
ENDBRANCH   1   2
BRANCH   1  11
ATOM     11  C   UNL     1      75.684  91.024  92.775  1.00  0.00     0.000 C 
BRANCH  11  12
ATOM     12  C   UNL     1      74.342  90.270  92.839  1.00  0.00    -0.000 C 
BRANCH  12  13
ATOM     13  C   UNL     1      74.515  88.742  92.856  1.00  0.00    -0.000 C 
BRANCH  13  14
ATOM     14  C   UNL     1      73.294  87.994  92.289  1.00  0.00    -0.000 C 
BRANCH  14  15
ATOM     15  C   UNL     1      73.317  87.749  90.766  1.00  0.00    -0.000 C 
BRANCH  15  16
ATOM     16  C   UNL     1      74.708  87.835  90.113  1.00  0.00    -0.000 C 
BRANCH  16  17
ATOM     17  C   UNL     1      74.650  87.784  88.579  1.00  0.00    -0.003 C 
ATOM     18  C   UNL     1      75.244  86.482  88.050  1.00  0.00     0.004 C 
ENDBRANCH  16  17
ENDBRANCH  15  16
ENDBRANCH  14  15
ENDBRANCH  13  14
ENDBRANCH  12  13
ENDBRANCH  11  12
ENDBRANCH   1  11
TORSDOF 14
ENDMDL
MODEL 4
REMARK VINA RESULT:    -2.633      9.011     10.800
REMARK INTER + INTRA:          -6.172
REMARK INTER:                  -3.821
REMARK INTRA:                  -2.351
REMARK UNBOUND:                -1.384
REMARK SMILES CCCCCCCCCCCCCCCC(=O)[O-]
REMARK SMILES IDX 9 1 10 2 11 3 12 4 13 5 14 6 15 7 16 8 17 9 18 10 8 11 7 12
REMARK SMILES IDX 6 13 5 14 4 15 3 16 2 17 1 18
REMARK H PARENT
REMARK Flexibility Score: inf
ROOT
ATOM      1  C   UNL     1      84.297  91.369  74.770  1.00  0.00     0.000 C 
ENDROOT
BRANCH   1   2
ATOM      2  C   UNL     1      83.129  91.406  75.766  1.00  0.00     0.000 C 
BRANCH   2   3
ATOM      3  C   UNL     1      83.503  90.694  77.076  1.00  0.00     0.000 C 
BRANCH   3   4
ATOM      4  C   UNL     1      84.866  91.143  77.630  1.00  0.00     0.000 C 
BRANCH   4   5
ATOM      5  C   UNL     1      85.681  89.973  78.210  1.00  0.00     0.000 C 
BRANCH   5   6
ATOM      6  C   UNL     1      85.462  88.661  77.439  1.00  0.00     0.006 C 
BRANCH   6   7
ATOM      7  C   UNL     1      86.352  87.520  77.946  1.00  0.00     0.053 C 
BRANCH   7   8
ATOM      8  C   UNL     1      87.400  87.187  76.931  1.00  0.00     0.041 C 
ATOM      9  O   UNL     1      87.069  86.864  75.760  1.00  0.00    -0.550 OA
ATOM     10  O   UNL     1      88.745  87.283  77.265  1.00  0.00    -0.550 OA
ENDBRANCH   7   8
ENDBRANCH   6   7
ENDBRANCH   5   6
ENDBRANCH   4   5
ENDBRANCH   3   4
ENDBRANCH   2   3
ENDBRANCH   1   2
BRANCH   1  11
ATOM     11  C   UNL     1      83.846  91.127  73.319  1.00  0.00     0.000 C 
BRANCH  11  12
ATOM     12  C   UNL     1      83.833  89.651  72.875  1.00  0.00    -0.000 C 
BRANCH  12  13
ATOM     13  C   UNL     1      84.575  88.727  73.854  1.00  0.00    -0.000 C 
BRANCH  13  14
ATOM     14  C   UNL     1      83.789  87.443  74.179  1.00  0.00    -0.000 C 
BRANCH  14  15
ATOM     15  C   UNL     1      82.661  87.605  75.218  1.00  0.00    -0.000 C 
BRANCH  15  16
ATOM     16  C   UNL     1      81.233  87.568  74.643  1.00  0.00    -0.000 C 
BRANCH  16  17
ATOM     17  C   UNL     1      80.613  88.966  74.499  1.00  0.00    -0.003 C 
ATOM     18  C   UNL     1      80.213  89.243  73.053  1.00  0.00     0.004 C 
ENDBRANCH  16  17
ENDBRANCH  15  16
ENDBRANCH  14  15
ENDBRANCH  13  14
ENDBRANCH  12  13
ENDBRANCH  11  12
ENDBRANCH   1  11
TORSDOF 14
ENDMDL
MODEL 5
REMARK VINA RESULT:    -2.602     11.756     14.552
REMARK INTER + INTRA:          -6.116
REMARK INTER:                  -4.139
REMARK INTRA:                  -1.977
REMARK UNBOUND:                -1.384
REMARK SMILES CCCCCCCCCCCCCCCC(=O)[O-]
REMARK SMILES IDX 9 1 10 2 11 3 12 4 13 5 14 6 15 7 16 8 17 9 18 10 8 11 7 12
REMARK SMILES IDX 6 13 5 14 4 15 3 16 2 17 1 18
REMARK H PARENT
REMARK Flexibility Score: inf
ROOT
ATOM      1  C   UNL     1      73.373  88.005  93.099  1.00  0.00     0.000 C 
ENDROOT
BRANCH   1   2
ATOM      2  C   UNL     1      74.025  86.631  92.880  1.00  0.00     0.000 C 
BRANCH   2   3
ATOM      3  C   UNL     1      75.534  86.775  92.628  1.00  0.00     0.000 C 
BRANCH   3   4
ATOM      4  C   UNL     1      76.121  85.595  91.835  1.00  0.00     0.000 C 
BRANCH   4   5
ATOM      5  C   UNL     1      75.145  85.054  90.775  1.00  0.00     0.000 C 
BRANCH   5   6
ATOM      6  C   UNL     1      75.119  85.915  89.502  1.00  0.00     0.006 C 
BRANCH   6   7
ATOM      7  C   UNL     1      73.809  85.773  88.717  1.00  0.00     0.053 C 
BRANCH   7   8
ATOM      8  C   UNL     1      73.307  87.118  88.293  1.00  0.00     0.041 C 
ATOM      9  O   UNL     1      74.120  88.044  88.029  1.00  0.00    -0.550 OA
ATOM     10  O   UNL     1      71.945  87.334  88.139  1.00  0.00    -0.550 OA
ENDBRANCH   7   8
ENDBRANCH   6   7
ENDBRANCH   5   6
ENDBRANCH   4   5
ENDBRANCH   3   4
ENDBRANCH   2   3
ENDBRANCH   1   2
BRANCH   1  11
ATOM     11  C   UNL     1      73.919  89.089  92.152  1.00  0.00     0.000 C 
BRANCH  11  12
ATOM     12  C   UNL     1      74.386  90.385  92.841  1.00  0.00    -0.000 C 
BRANCH  12  13
ATOM     13  C   UNL     1      75.791  90.826  92.396  1.00  0.00    -0.000 C 
BRANCH  13  14
ATOM     14  C   UNL     1      76.916  90.068  93.125  1.00  0.00    -0.000 C 
BRANCH  14  15
ATOM     15  C   UNL     1      78.077  89.589  92.230  1.00  0.00    -0.000 C 
BRANCH  15  16
ATOM     16  C   UNL     1      77.673  89.169  90.805  1.00  0.00    -0.000 C 
BRANCH  16  17
ATOM     17  C   UNL     1      78.544  88.033  90.249  1.00  0.00    -0.003 C 
ATOM     18  C   UNL     1      78.182  87.722  88.801  1.00  0.00     0.004 C 
ENDBRANCH  16  17
ENDBRANCH  15  16
ENDBRANCH  14  15
ENDBRANCH  13  14
ENDBRANCH  12  13
ENDBRANCH  11  12
ENDBRANCH   1  11
TORSDOF 14
ENDMDL
MODEL 6
REMARK VINA RESULT:    -2.581     11.064     13.114
REMARK INTER + INTRA:          -6.078
REMARK INTER:                  -4.408
REMARK INTRA:                  -1.670
REMARK UNBOUND:                -1.384
REMARK SMILES CCCCCCCCCCCCCCCC(=O)[O-]
REMARK SMILES IDX 9 1 10 2 11 3 12 4 13 5 14 6 15 7 16 8 17 9 18 10 8 11 7 12
REMARK SMILES IDX 6 13 5 14 4 15 3 16 2 17 1 18
REMARK H PARENT
REMARK Flexibility Score: inf
ROOT
ATOM      1  C   UNL     1      86.136  87.494  76.267  1.00  0.00     0.000 C 
ENDROOT
BRANCH   1   2
ATOM      2  C   UNL     1      86.893  86.161  76.365  1.00  0.00     0.000 C 
BRANCH   2   3
ATOM      3  C   UNL     1      88.374  86.344  75.997  1.00  0.00     0.000 C 
BRANCH   3   4
ATOM      4  C   UNL     1      89.135  87.220  77.007  1.00  0.00     0.000 C 
BRANCH   4   5
ATOM      5  C   UNL     1      89.072  86.660  78.438  1.00  0.00     0.000 C 
BRANCH   5   6
ATOM      6  C   UNL     1      88.584  87.702  79.459  1.00  0.00     0.006 C 
BRANCH   6   7
ATOM      7  C   UNL     1      88.466  89.108  78.860  1.00  0.00     0.053 C 
BRANCH   7   8
ATOM      8  C   UNL     1      89.569  89.984  79.367  1.00  0.00     0.041 C 
ATOM      9  O   UNL     1      90.530  89.486  80.011  1.00  0.00    -0.550 OA
ATOM     10  O   UNL     1      89.562  91.344  79.083  1.00  0.00    -0.550 OA
ENDBRANCH   7   8
ENDBRANCH   6   7
ENDBRANCH   5   6
ENDBRANCH   4   5
ENDBRANCH   3   4
ENDBRANCH   2   3
ENDBRANCH   1   2
BRANCH   1  11
ATOM     11  C   UNL     1      84.930  87.434  75.313  1.00  0.00     0.000 C 
BRANCH  11  12
ATOM     12  C   UNL     1      85.081  88.250  74.015  1.00  0.00    -0.000 C 
BRANCH  12  13
ATOM     13  C   UNL     1      83.767  88.915  73.571  1.00  0.00    -0.000 C 
BRANCH  13  14
ATOM     14  C   UNL     1      83.946  90.394  73.181  1.00  0.00    -0.000 C 
BRANCH  14  15
ATOM     15  C   UNL     1      84.215  91.359  74.354  1.00  0.00    -0.000 C 
BRANCH  15  16
ATOM     16  C   UNL     1      83.076  91.469  75.383  1.00  0.00    -0.000 C 
BRANCH  16  17
ATOM     17  C   UNL     1      83.438  90.853  76.742  1.00  0.00    -0.003 C 
ATOM     18  C   UNL     1      84.939  90.938  77.001  1.00  0.00     0.004 C 
ENDBRANCH  16  17
ENDBRANCH  15  16
ENDBRANCH  14  15
ENDBRANCH  13  14
ENDBRANCH  12  13
ENDBRANCH  11  12
ENDBRANCH   1  11
TORSDOF 14
ENDMDL
MODEL 7
REMARK VINA RESULT:    -2.571      5.746      8.295
REMARK INTER + INTRA:          -6.060
REMARK INTER:                  -4.361
REMARK INTRA:                  -1.698
REMARK UNBOUND:                -1.384
REMARK SMILES CCCCCCCCCCCCCCCC(=O)[O-]
REMARK SMILES IDX 9 1 10 2 11 3 12 4 13 5 14 6 15 7 16 8 17 9 18 10 8 11 7 12
REMARK SMILES IDX 6 13 5 14 4 15 3 16 2 17 1 18
REMARK H PARENT
REMARK Flexibility Score: inf
ROOT
ATOM      1  C   UNL     1      77.184  87.604  74.612  1.00  0.00     0.000 C 
ENDROOT
BRANCH   1   2
ATOM      2  C   UNL     1      78.238  88.720  74.620  1.00  0.00     0.000 C 
BRANCH   2   3
ATOM      3  C   UNL     1      78.465  89.271  73.204  1.00  0.00     0.000 C 
BRANCH   3   4
ATOM      4  C   UNL     1      79.952  89.489  72.880  1.00  0.00     0.000 C 
BRANCH   4   5
ATOM      5  C   UNL     1      80.872  88.523  73.647  1.00  0.00     0.000 C 
BRANCH   5   6
ATOM      6  C   UNL     1      81.847  89.255  74.584  1.00  0.00     0.006 C 
BRANCH   6   7
ATOM      7  C   UNL     1      83.176  89.600  73.903  1.00  0.00     0.053 C 
BRANCH   7   8
ATOM      8  C   UNL     1      83.420  91.076  73.956  1.00  0.00     0.041 C 
ATOM      9  O   UNL     1      84.220  91.616  73.147  1.00  0.00    -0.550 OA
ATOM     10  O   UNL     1      82.724  91.863  74.864  1.00  0.00    -0.550 OA
ENDBRANCH   7   8
ENDBRANCH   6   7
ENDBRANCH   5   6
ENDBRANCH   4   5
ENDBRANCH   3   4
ENDBRANCH   2   3
ENDBRANCH   1   2
BRANCH   1  11
ATOM     11  C   UNL     1      76.073  87.831  73.571  1.00  0.00     0.000 C 
BRANCH  11  12
ATOM     12  C   UNL     1      74.828  88.574  74.092  1.00  0.00    -0.000 C 
BRANCH  12  13
ATOM     13  C   UNL     1      74.547  89.878  73.327  1.00  0.00    -0.000 C 
BRANCH  13  14
ATOM     14  C   UNL     1      74.552  91.120  74.238  1.00  0.00    -0.000 C 
BRANCH  14  15
ATOM     15  C   UNL     1      75.918  91.818  74.396  1.00  0.00    -0.000 C 
BRANCH  15  16
ATOM     16  C   UNL     1      76.596  91.624  75.764  1.00  0.00    -0.000 C 
BRANCH  16  17
ATOM     17  C   UNL     1      75.663  90.993  76.807  1.00  0.00    -0.003 C 
ATOM     18  C   UNL     1      76.225  91.154  78.216  1.00  0.00     0.004 C 
ENDBRANCH  16  17
ENDBRANCH  15  16
ENDBRANCH  14  15
ENDBRANCH  13  14
ENDBRANCH  12  13
ENDBRANCH  11  12
ENDBRANCH   1  11
TORSDOF 14
ENDMDL
MODEL 8
REMARK VINA RESULT:    -2.550     18.786     21.384
REMARK INTER + INTRA:          -6.021
REMARK INTER:                  -3.665
REMARK INTRA:                  -2.356
REMARK UNBOUND:                -1.384
REMARK SMILES CCCCCCCCCCCCCCCC(=O)[O-]
REMARK SMILES IDX 9 1 10 2 11 3 12 4 13 5 14 6 15 7 16 8 17 9 18 10 8 11 7 12
REMARK SMILES IDX 6 13 5 14 4 15 3 16 2 17 1 18
REMARK H PARENT
REMARK Flexibility Score: inf
ROOT
ATOM      1  C   UNL     1      88.579  86.130  91.839  1.00  0.00     0.000 C 
ENDROOT
BRANCH   1   2
ATOM      2  C   UNL     1      88.383  85.889  90.335  1.00  0.00     0.000 C 
BRANCH   2   3
ATOM      3  C   UNL     1      88.572  84.404  89.988  1.00  0.00     0.000 C 
BRANCH   3   4
ATOM      4  C   UNL     1      89.837  84.143  89.153  1.00  0.00     0.000 C 
BRANCH   4   5
ATOM      5  C   UNL     1      90.620  85.433  88.851  1.00  0.00     0.000 C 
BRANCH   5   6
ATOM      6  C   UNL     1      90.804  85.672  87.343  1.00  0.00     0.006 C 
BRANCH   6   7
ATOM      7  C   UNL     1      89.545  85.343  86.533  1.00  0.00     0.053 C 
BRANCH   7   8
ATOM      8  C   UNL     1      89.850  85.355  85.068  1.00  0.00     0.041 C 
ATOM      9  O   UNL     1      90.758  86.101  84.615  1.00  0.00    -0.550 OA
ATOM     10  O   UNL     1      89.168  84.502  84.210  1.00  0.00    -0.550 OA
ENDBRANCH   7   8
ENDBRANCH   6   7
ENDBRANCH   5   6
ENDBRANCH   4   5
ENDBRANCH   3   4
ENDBRANCH   2   3
ENDBRANCH   1   2
BRANCH   1  11
ATOM     11  C   UNL     1      89.521  87.308  92.144  1.00  0.00     0.000 C 
BRANCH  11  12
ATOM     12  C   UNL     1      91.014  86.942  92.252  1.00  0.00    -0.000 C 
BRANCH  12  13
ATOM     13  C   UNL     1      91.256  85.655  93.058  1.00  0.00    -0.000 C 
BRANCH  13  14
ATOM     14  C   UNL     1      92.032  84.588  92.264  1.00  0.00    -0.000 C 
BRANCH  14  15
ATOM     15  C   UNL     1      91.382  83.190  92.227  1.00  0.00    -0.000 C 
BRANCH  15  16
ATOM     16  C   UNL     1      90.114  83.036  93.086  1.00  0.00    -0.000 C 
BRANCH  16  17
ATOM     17  C   UNL     1      89.345  81.741  92.787  1.00  0.00    -0.003 C 
ATOM     18  C   UNL     1      89.746  81.164  91.434  1.00  0.00     0.004 C 
ENDBRANCH  16  17
ENDBRANCH  15  16
ENDBRANCH  14  15
ENDBRANCH  13  14
ENDBRANCH  12  13
ENDBRANCH  11  12
ENDBRANCH   1  11
TORSDOF 14
ENDMDL
MODEL 9
REMARK VINA RESULT:    -2.547     10.281     13.983
REMARK INTER + INTRA:          -6.016
REMARK INTER:                  -4.275
REMARK INTRA:                  -1.742
REMARK UNBOUND:                -1.384
REMARK SMILES CCCCCCCCCCCCCCCC(=O)[O-]
REMARK SMILES IDX 9 1 10 2 11 3 12 4 13 5 14 6 15 7 16 8 17 9 18 10 8 11 7 12
REMARK SMILES IDX 6 13 5 14 4 15 3 16 2 17 1 18
REMARK H PARENT
REMARK Flexibility Score: inf
ROOT
ATOM      1  C   UNL     1      74.469  89.088  93.100  1.00  0.00     0.000 C 
ENDROOT
BRANCH   1   2
ATOM      2  C   UNL     1      73.542  88.472  92.042  1.00  0.00     0.000 C 
BRANCH   2   3
ATOM      3  C   UNL     1      72.907  87.172  92.559  1.00  0.00     0.000 C 
BRANCH   3   4
ATOM      4  C   UNL     1      71.970  86.515  91.531  1.00  0.00     0.000 C 
BRANCH   4   5
ATOM      5  C   UNL     1      72.715  86.047  90.269  1.00  0.00     0.000 C 
BRANCH   5   6
ATOM      6  C   UNL     1      72.280  86.812  89.008  1.00  0.00     0.006 C 
BRANCH   6   7
ATOM      7  C   UNL     1      73.221  86.579  87.819  1.00  0.00     0.053 C 
BRANCH   7   8
ATOM      8  C   UNL     1      72.786  87.398  86.644  1.00  0.00     0.041 C 
ATOM      9  O   UNL     1      71.875  88.257  86.771  1.00  0.00    -0.550 OA
ATOM     10  O   UNL     1      73.424  87.248  85.420  1.00  0.00    -0.550 OA
ENDBRANCH   7   8
ENDBRANCH   6   7
ENDBRANCH   5   6
ENDBRANCH   4   5
ENDBRANCH   3   4
ENDBRANCH   2   3
ENDBRANCH   1   2
BRANCH   1  11
ATOM     11  C   UNL     1      74.891  90.530  92.767  1.00  0.00     0.000 C 
BRANCH  11  12
ATOM     12  C   UNL     1      76.396  90.823  92.915  1.00  0.00    -0.000 C 
BRANCH  12  13
ATOM     13  C   UNL     1      77.281  89.674  92.406  1.00  0.00    -0.000 C 
BRANCH  13  14
ATOM     14  C   UNL     1      77.290  89.560  90.870  1.00  0.00    -0.000 C 
BRANCH  14  15
ATOM     15  C   UNL     1      78.259  88.508  90.291  1.00  0.00    -0.000 C 
BRANCH  15  16
ATOM     16  C   UNL     1      77.588  87.356  89.522  1.00  0.00    -0.000 C 
BRANCH  16  17
ATOM     17  C   UNL     1      76.212  86.981  90.091  1.00  0.00    -0.003 C 
ATOM     18  C   UNL     1      76.349  86.029  91.275  1.00  0.00     0.004 C 
ENDBRANCH  16  17
ENDBRANCH  15  16
ENDBRANCH  14  15
ENDBRANCH  13  14
ENDBRANCH  12  13
ENDBRANCH  11  12
ENDBRANCH   1  11
TORSDOF 14
ENDMDL
