MODEL 1
REMARK VINA RESULT:    -3.965      0.000      0.000
REMARK INTER + INTRA:          -8.846
REMARK INTER:                  -7.210
REMARK INTRA:                  -1.635
REMARK UNBOUND:                -1.635
REMARK SMILES CCCCCC=CCC=CCCCCCCCC(=O)[O-]
REMARK SMILES IDX 11 1 12 2 13 3 14 4 15 5 16 6 17 7 18 8 19 9 20 10 10 11
REMARK SMILES IDX 9 12 8 13 7 14 6 15 5 16 4 17 3 18 2 19 1 20
REMARK H PARENT
REMARK Flexibility Score: inf
ROOT
ATOM      1  C   UNL     1     169.175 185.742  30.232  1.00  0.00     0.027 C 
ENDROOT
BRANCH   1   2
ATOM      2  C   UNL     1     170.181 185.009  31.134  1.00  0.00     0.004 C 
BRANCH   2   3
ATOM      3  C   UNL     1     171.391 185.884  31.499  1.00  0.00     0.000 C 
BRANCH   3   4
ATOM      4  C   UNL     1     171.506 186.129  33.013  1.00  0.00     0.000 C 
BRANCH   4   5
ATOM      5  C   UNL     1     170.914 184.967  33.837  1.00  0.00     0.000 C 
BRANCH   5   6
ATOM      6  C   UNL     1     171.959 184.200  34.666  1.00  0.00     0.006 C 
BRANCH   6   7
ATOM      7  C   UNL     1     172.410 182.895  34.000  1.00  0.00     0.053 C 
BRANCH   7   8
ATOM      8  C   UNL     1     173.724 183.085  33.309  1.00  0.00     0.041 C 
ATOM      9  O   UNL     1     173.764 183.272  32.064  1.00  0.00    -0.550 OA
ATOM     10  O   UNL     1     174.902 183.102  34.046  1.00  0.00    -0.550 OA
ENDBRANCH   7   8
ENDBRANCH   6   7
ENDBRANCH   5   6
ENDBRANCH   4   5
ENDBRANCH   3   4
ENDBRANCH   2   3
ENDBRANCH   1   2
BRANCH   1  11
ATOM     11  C   UNL     1     168.227 186.578  31.047  1.00  0.00    -0.031 C 
ATOM     12  C   UNL     1     167.751 186.152  32.225  1.00  0.00    -0.027 C 
BRANCH  12  13
ATOM     13  C   UNL     1     166.801 187.003  33.022  1.00  0.00     0.054 C 
BRANCH  13  14
ATOM     14  C   UNL     1     165.622 186.203  33.497  1.00  0.00    -0.027 C 
ATOM     15  C   UNL     1     165.352 184.989  32.992  1.00  0.00    -0.031 C 
BRANCH  15  16
ATOM     16  C   UNL     1     164.169 184.186  33.458  1.00  0.00     0.027 C 
BRANCH  16  17
ATOM     17  C   UNL     1     163.935 182.968  32.554  1.00  0.00     0.004 C 
BRANCH  17  18
ATOM     18  C   UNL     1     164.955 182.869  31.407  1.00  0.00     0.000 C 
BRANCH  18  19
ATOM     19  C   UNL     1     164.307 182.791  30.009  1.00  0.00    -0.003 C 
ATOM     20  C   UNL     1     162.977 182.038  30.024  1.00  0.00     0.004 C 
ENDBRANCH  18  19
ENDBRANCH  17  18
ENDBRANCH  16  17
ENDBRANCH  15  16
ENDBRANCH  13  14
ENDBRANCH  12  13
ENDBRANCH   1  11
TORSDOF 14
ENDMDL
MODEL 2
REMARK VINA RESULT:    -3.898      2.747      3.818
REMARK INTER + INTRA:          -8.724
REMARK INTER:                  -6.668
REMARK INTRA:                  -2.056
REMARK UNBOUND:                -1.635
REMARK SMILES CCCCCC=CCC=CCCCCCCCC(=O)[O-]
REMARK SMILES IDX 11 1 12 2 13 3 14 4 15 5 16 6 17 7 18 8 19 9 20 10 10 11
REMARK SMILES IDX 9 12 8 13 7 14 6 15 5 16 4 17 3 18 2 19 1 20
REMARK H PARENT
REMARK Flexibility Score: inf
ROOT
ATOM      1  C   UNL     1     169.019 185.957  30.348  1.00  0.00     0.027 C 
ENDROOT
BRANCH   1   2
ATOM      2  C   UNL     1     170.092 185.019  30.924  1.00  0.00     0.004 C 
BRANCH   2   3
ATOM      3  C   UNL     1     171.217 185.781  31.640  1.00  0.00     0.000 C 
BRANCH   3   4
ATOM      4  C   UNL     1     171.704 185.059  32.909  1.00  0.00     0.000 C 
BRANCH   4   5
ATOM      5  C   UNL     1     171.389 185.860  34.190  1.00  0.00     0.000 C 
BRANCH   5   6
ATOM      6  C   UNL     1     169.901 185.838  34.583  1.00  0.00     0.006 C 
BRANCH   6   7
ATOM      7  C   UNL     1     169.372 187.215  35.000  1.00  0.00     0.053 C 
BRANCH   7   8
ATOM      8  C   UNL     1     168.653 187.869  33.863  1.00  0.00     0.041 C 
ATOM      9  O   UNL     1     167.394 187.874  33.828  1.00  0.00    -0.550 OA
ATOM     10  O   UNL     1     169.372 188.512  32.863  1.00  0.00    -0.550 OA
ENDBRANCH   7   8
ENDBRANCH   6   7
ENDBRANCH   5   6
ENDBRANCH   4   5
ENDBRANCH   3   4
ENDBRANCH   2   3
ENDBRANCH   1   2
BRANCH   1  11
ATOM     11  C   UNL     1     167.679 185.697  30.978  1.00  0.00    -0.031 C 
ATOM     12  C   UNL     1     167.528 184.795  31.958  1.00  0.00    -0.027 C 
BRANCH  12  13
ATOM     13  C   UNL     1     166.177 184.548  32.572  1.00  0.00     0.054 C 
BRANCH  13  14
ATOM     14  C   UNL     1     165.151 184.233  31.521  1.00  0.00    -0.027 C 
ATOM     15  C   UNL     1     165.105 183.028  30.929  1.00  0.00    -0.031 C 
BRANCH  15  16
ATOM     16  C   UNL     1     164.086 182.709  29.871  1.00  0.00     0.027 C 
BRANCH  16  17
ATOM     17  C   UNL     1     162.906 181.922  30.458  1.00  0.00     0.004 C 
BRANCH  17  18
ATOM     18  C   UNL     1     163.329 180.954  31.576  1.00  0.00     0.000 C 
BRANCH  18  19
ATOM     19  C   UNL     1     162.556 181.159  32.895  1.00  0.00    -0.003 C 
ATOM     20  C   UNL     1     161.991 182.573  33.028  1.00  0.00     0.004 C 
ENDBRANCH  18  19
ENDBRANCH  17  18
ENDBRANCH  16  17
ENDBRANCH  15  16
ENDBRANCH  13  14
ENDBRANCH  12  13
ENDBRANCH   1  11
TORSDOF 14
ENDMDL
MODEL 3
REMARK VINA RESULT:    -3.884      1.240      2.305
REMARK INTER + INTRA:          -8.698
REMARK INTER:                  -7.121
REMARK INTRA:                  -1.576
REMARK UNBOUND:                -1.635
REMARK SMILES CCCCCC=CCC=CCCCCCCCC(=O)[O-]
REMARK SMILES IDX 11 1 12 2 13 3 14 4 15 5 16 6 17 7 18 8 19 9 20 10 10 11
REMARK SMILES IDX 9 12 8 13 7 14 6 15 5 16 4 17 3 18 2 19 1 20
REMARK H PARENT
REMARK Flexibility Score: inf
ROOT
ATOM      1  C   UNL     1     168.812 186.458  30.746  1.00  0.00     0.027 C 
ENDROOT
BRANCH   1   2
ATOM      2  C   UNL     1     169.863 185.343  30.613  1.00  0.00     0.004 C 
BRANCH   2   3
ATOM      3  C   UNL     1     171.172 185.678  31.343  1.00  0.00     0.000 C 
BRANCH   3   4
ATOM      4  C   UNL     1     170.973 186.705  32.472  1.00  0.00     0.000 C 
BRANCH   4   5
ATOM      5  C   UNL     1     171.063 186.057  33.869  1.00  0.00     0.000 C 
BRANCH   5   6
ATOM      6  C   UNL     1     171.170 184.522  33.834  1.00  0.00     0.006 C 
BRANCH   6   7
ATOM      7  C   UNL     1     172.539 184.007  34.292  1.00  0.00     0.053 C 
BRANCH   7   8
ATOM      8  C   UNL     1     173.001 182.890  33.410  1.00  0.00     0.041 C 
ATOM      9  O   UNL     1     173.836 183.109  32.494  1.00  0.00    -0.550 OA
ATOM     10  O   UNL     1     172.544 181.596  33.630  1.00  0.00    -0.550 OA
ENDBRANCH   7   8
ENDBRANCH   6   7
ENDBRANCH   5   6
ENDBRANCH   4   5
ENDBRANCH   3   4
ENDBRANCH   2   3
ENDBRANCH   1   2
BRANCH   1  11
ATOM     11  C   UNL     1     167.493 185.904  31.209  1.00  0.00    -0.031 C 
ATOM     12  C   UNL     1     167.425 184.869  32.058  1.00  0.00    -0.027 C 
BRANCH  12  13
ATOM     13  C   UNL     1     166.094 184.330  32.505  1.00  0.00     0.054 C 
BRANCH  13  14
ATOM     14  C   UNL     1     165.566 183.312  31.535  1.00  0.00    -0.027 C 
ATOM     15  C   UNL     1     164.556 183.601  30.700  1.00  0.00    -0.031 C 
BRANCH  15  16
ATOM     16  C   UNL     1     164.019 182.584  29.731  1.00  0.00     0.027 C 
BRANCH  16  17
ATOM     17  C   UNL     1     162.646 182.063  30.179  1.00  0.00     0.004 C 
BRANCH  17  18
ATOM     18  C   UNL     1     162.745 180.865  31.139  1.00  0.00     0.000 C 
BRANCH  18  19
ATOM     19  C   UNL     1     162.473 181.231  32.613  1.00  0.00    -0.003 C 
ATOM     20  C   UNL     1     163.629 180.840  33.534  1.00  0.00     0.004 C 
ENDBRANCH  18  19
ENDBRANCH  17  18
ENDBRANCH  16  17
ENDBRANCH  15  16
ENDBRANCH  13  14
ENDBRANCH  12  13
ENDBRANCH   1  11
TORSDOF 14
ENDMDL
MODEL 4
REMARK VINA RESULT:    -3.789     16.218     19.592
REMARK INTER + INTRA:          -8.525
REMARK INTER:                  -7.041
REMARK INTRA:                  -1.484
REMARK UNBOUND:                -1.635
REMARK SMILES CCCCCC=CCC=CCCCCCCCC(=O)[O-]
REMARK SMILES IDX 11 1 12 2 13 3 14 4 15 5 16 6 17 7 18 8 19 9 20 10 10 11
REMARK SMILES IDX 9 12 8 13 7 14 6 15 5 16 4 17 3 18 2 19 1 20
REMARK H PARENT
REMARK Flexibility Score: inf
ROOT
ATOM      1  C   UNL     1     158.955 174.640  21.547  1.00  0.00     0.027 C 
ENDROOT
BRANCH   1   2
ATOM      2  C   UNL     1     157.471 174.817  21.189  1.00  0.00     0.004 C 
BRANCH   2   3
ATOM      3  C   UNL     1     156.611 175.183  22.408  1.00  0.00     0.000 C 
BRANCH   3   4
ATOM      4  C   UNL     1     156.016 173.946  23.105  1.00  0.00     0.000 C 
BRANCH   4   5
ATOM      5  C   UNL     1     156.847 173.514  24.330  1.00  0.00     0.000 C 
BRANCH   5   6
ATOM      6  C   UNL     1     157.597 174.674  25.010  1.00  0.00     0.006 C 
BRANCH   6   7
ATOM      7  C   UNL     1     159.086 174.379  25.226  1.00  0.00     0.053 C 
BRANCH   7   8
ATOM      8  C   UNL     1     159.270 173.386  26.330  1.00  0.00     0.041 C 
ATOM      9  O   UNL     1     160.074 172.427  26.193  1.00  0.00    -0.550 OA
ATOM     10  O   UNL     1     158.588 173.547  27.530  1.00  0.00    -0.550 OA
ENDBRANCH   7   8
ENDBRANCH   6   7
ENDBRANCH   5   6
ENDBRANCH   4   5
ENDBRANCH   3   4
ENDBRANCH   2   3
ENDBRANCH   1   2
BRANCH   1  11
ATOM     11  C   UNL     1     159.442 173.267  21.174  1.00  0.00    -0.031 C 
ATOM     12  C   UNL     1     159.880 172.403  22.100  1.00  0.00    -0.027 C 
BRANCH  12  13
ATOM     13  C   UNL     1     160.366 171.035  21.705  1.00  0.00     0.054 C 
BRANCH  13  14
ATOM     14  C   UNL     1     160.946 171.045  20.319  1.00  0.00    -0.027 C 
ATOM     15  C   UNL     1     161.830 170.114  19.926  1.00  0.00    -0.031 C 
BRANCH  15  16
ATOM     16  C   UNL     1     162.420 170.123  18.543  1.00  0.00     0.027 C 
BRANCH  16  17
ATOM     17  C   UNL     1     163.415 168.968  18.357  1.00  0.00     0.004 C 
BRANCH  17  18
ATOM     18  C   UNL     1     163.976 168.885  16.927  1.00  0.00     0.000 C 
BRANCH  18  19
ATOM     19  C   UNL     1     164.869 170.083  16.544  1.00  0.00    -0.003 C 
ATOM     20  C   UNL     1     164.452 170.721  15.219  1.00  0.00     0.004 C 
ENDBRANCH  18  19
ENDBRANCH  17  18
ENDBRANCH  16  17
ENDBRANCH  15  16
ENDBRANCH  13  14
ENDBRANCH  12  13
ENDBRANCH   1  11
TORSDOF 14
ENDMDL
MODEL 5
REMARK VINA RESULT:    -3.776      1.787      2.601
REMARK INTER + INTRA:          -8.501
REMARK INTER:                  -6.093
REMARK INTRA:                  -2.408
REMARK UNBOUND:                -1.635
REMARK SMILES CCCCCC=CCC=CCCCCCCCC(=O)[O-]
REMARK SMILES IDX 11 1 12 2 13 3 14 4 15 5 16 6 17 7 18 8 19 9 20 10 10 11
REMARK SMILES IDX 9 12 8 13 7 14 6 15 5 16 4 17 3 18 2 19 1 20
REMARK H PARENT
REMARK Flexibility Score: inf
ROOT
ATOM      1  C   UNL     1     168.161 185.340  31.124  1.00  0.00     0.027 C 
ENDROOT
BRANCH   1   2
ATOM      2  C   UNL     1     168.165 186.876  31.045  1.00  0.00     0.004 C 
BRANCH   2   3
ATOM      3  C   UNL     1     168.222 187.537  32.431  1.00  0.00     0.000 C 
BRANCH   3   4
ATOM      4  C   UNL     1     169.662 187.839  32.881  1.00  0.00     0.000 C 
BRANCH   4   5
ATOM      5  C   UNL     1     170.065 187.022  34.126  1.00  0.00     0.000 C 
BRANCH   5   6
ATOM      6  C   UNL     1     171.351 186.198  33.937  1.00  0.00     0.006 C 
BRANCH   6   7
ATOM      7  C   UNL     1     171.508 185.653  32.513  1.00  0.00     0.053 C 
BRANCH   7   8
ATOM      8  C   UNL     1     171.982 184.235  32.542  1.00  0.00     0.041 C 
ATOM      9  O   UNL     1     172.914 183.893  33.317  1.00  0.00    -0.550 OA
ATOM     10  O   UNL     1     171.362 183.278  31.747  1.00  0.00    -0.550 OA
ENDBRANCH   7   8
ENDBRANCH   6   7
ENDBRANCH   5   6
ENDBRANCH   4   5
ENDBRANCH   3   4
ENDBRANCH   2   3
ENDBRANCH   1   2
BRANCH   1  11
ATOM     11  C   UNL     1     167.547 184.867  32.412  1.00  0.00    -0.031 C 
ATOM     12  C   UNL     1     168.179 183.997  33.212  1.00  0.00    -0.027 C 
BRANCH  12  13
ATOM     13  C   UNL     1     167.544 183.534  34.495  1.00  0.00     0.054 C 
BRANCH  13  14
ATOM     14  C   UNL     1     166.049 183.478  34.372  1.00  0.00    -0.027 C 
ATOM     15  C   UNL     1     165.368 182.350  34.633  1.00  0.00    -0.031 C 
BRANCH  15  16
ATOM     16  C   UNL     1     163.871 182.286  34.505  1.00  0.00     0.027 C 
BRANCH  16  17
ATOM     17  C   UNL     1     163.424 182.591  33.068  1.00  0.00     0.004 C 
BRANCH  17  18
ATOM     18  C   UNL     1     163.956 181.571  32.047  1.00  0.00     0.000 C 
BRANCH  18  19
ATOM     19  C   UNL     1     165.005 182.155  31.078  1.00  0.00    -0.003 C 
ATOM     20  C   UNL     1     164.620 183.545  30.570  1.00  0.00     0.004 C 
ENDBRANCH  18  19
ENDBRANCH  17  18
ENDBRANCH  16  17
ENDBRANCH  15  16
ENDBRANCH  13  14
ENDBRANCH  12  13
ENDBRANCH   1  11
TORSDOF 14
ENDMDL
MODEL 6
REMARK VINA RESULT:    -3.733      1.778      2.279
REMARK INTER + INTRA:          -8.423
REMARK INTER:                  -5.811
REMARK INTRA:                  -2.612
REMARK UNBOUND:                -1.635
REMARK SMILES CCCCCC=CCC=CCCCCCCCC(=O)[O-]
REMARK SMILES IDX 11 1 12 2 13 3 14 4 15 5 16 6 17 7 18 8 19 9 20 10 10 11
REMARK SMILES IDX 9 12 8 13 7 14 6 15 5 16 4 17 3 18 2 19 1 20
REMARK H PARENT
REMARK Flexibility Score: inf
ROOT
ATOM      1  C   UNL     1     168.863 185.763  30.434  1.00  0.00     0.027 C 
ENDROOT
BRANCH   1   2
ATOM      2  C   UNL     1     169.986 185.030  31.185  1.00  0.00     0.004 C 
BRANCH   2   3
ATOM      3  C   UNL     1     171.246 185.894  31.349  1.00  0.00     0.000 C 
BRANCH   3   4
ATOM      4  C   UNL     1     171.366 186.498  32.760  1.00  0.00     0.000 C 
BRANCH   4   5
ATOM      5  C   UNL     1     170.664 185.631  33.825  1.00  0.00     0.000 C 
BRANCH   5   6
ATOM      6  C   UNL     1     171.637 184.867  34.741  1.00  0.00     0.006 C 
BRANCH   6   7
ATOM      7  C   UNL     1     171.387 183.355  34.752  1.00  0.00     0.053 C 
BRANCH   7   8
ATOM      8  C   UNL     1     171.769 182.750  33.438  1.00  0.00     0.041 C 
ATOM      9  O   UNL     1     170.995 181.939  32.864  1.00  0.00    -0.550 OA
ATOM     10  O   UNL     1     172.960 183.117  32.823  1.00  0.00    -0.550 OA
ENDBRANCH   7   8
ENDBRANCH   6   7
ENDBRANCH   5   6
ENDBRANCH   4   5
ENDBRANCH   3   4
ENDBRANCH   2   3
ENDBRANCH   1   2
BRANCH   1  11
ATOM     11  C   UNL     1     167.867 186.355  31.394  1.00  0.00    -0.031 C 
ATOM     12  C   UNL     1     167.912 187.648  31.742  1.00  0.00    -0.027 C 
BRANCH  12  13
ATOM     13  C   UNL     1     166.909 188.218  32.707  1.00  0.00     0.054 C 
BRANCH  13  14
ATOM     14  C   UNL     1     166.228 187.131  33.488  1.00  0.00    -0.027 C 
ATOM     15  C   UNL     1     164.892 187.094  33.616  1.00  0.00    -0.031 C 
BRANCH  15  16
ATOM     16  C   UNL     1     164.205 186.012  34.403  1.00  0.00     0.027 C 
BRANCH  16  17
ATOM     17  C   UNL     1     164.129 184.706  33.601  1.00  0.00     0.004 C 
BRANCH  17  18
ATOM     18  C   UNL     1     165.120 183.639  34.099  1.00  0.00     0.000 C 
BRANCH  18  19
ATOM     19  C   UNL     1     166.343 183.454  33.178  1.00  0.00    -0.003 C 
ATOM     20  C   UNL     1     167.666 183.618  33.926  1.00  0.00     0.004 C 
ENDBRANCH  18  19
ENDBRANCH  17  18
ENDBRANCH  16  17
ENDBRANCH  15  16
ENDBRANCH  13  14
ENDBRANCH  12  13
ENDBRANCH   1  11
TORSDOF 14
ENDMDL
MODEL 7
REMARK VINA RESULT:    -3.730      3.550      7.446
REMARK INTER + INTRA:          -8.418
REMARK INTER:                  -6.242
REMARK INTRA:                  -2.176
REMARK UNBOUND:                -1.635
REMARK SMILES CCCCCC=CCC=CCCCCCCCC(=O)[O-]
REMARK SMILES IDX 11 1 12 2 13 3 14 4 15 5 16 6 17 7 18 8 19 9 20 10 10 11
REMARK SMILES IDX 9 12 8 13 7 14 6 15 5 16 4 17 3 18 2 19 1 20
REMARK H PARENT
REMARK Flexibility Score: inf
ROOT
ATOM      1  C   UNL     1     166.053 185.221  32.293  1.00  0.00     0.027 C 
ENDROOT
BRANCH   1   2
ATOM      2  C   UNL     1     166.036 184.871  33.790  1.00  0.00     0.004 C 
BRANCH   2   3
ATOM      3  C   UNL     1     164.616 184.856  34.376  1.00  0.00     0.000 C 
BRANCH   3   4
ATOM      4  C   UNL     1     163.760 183.705  33.819  1.00  0.00     0.000 C 
BRANCH   4   5
ATOM      5  C   UNL     1     164.512 182.358  33.843  1.00  0.00     0.000 C 
BRANCH   5   6
ATOM      6  C   UNL     1     164.163 181.432  32.664  1.00  0.00     0.006 C 
BRANCH   6   7
ATOM      7  C   UNL     1     164.948 181.765  31.389  1.00  0.00     0.053 C 
BRANCH   7   8
ATOM      8  C   UNL     1     164.043 182.358  30.356  1.00  0.00     0.041 C 
ATOM      9  O   UNL     1     162.892 181.881  30.172  1.00  0.00    -0.550 OA
ATOM     10  O   UNL     1     164.453 183.467  29.626  1.00  0.00    -0.550 OA
ENDBRANCH   7   8
ENDBRANCH   6   7
ENDBRANCH   5   6
ENDBRANCH   4   5
ENDBRANCH   3   4
ENDBRANCH   2   3
ENDBRANCH   1   2
BRANCH   1  11
ATOM     11  C   UNL     1     167.388 184.904  31.679  1.00  0.00    -0.031 C 
ATOM     12  C   UNL     1     168.009 185.770  30.866  1.00  0.00    -0.027 C 
BRANCH  12  13
ATOM     13  C   UNL     1     169.343 185.431  30.259  1.00  0.00     0.054 C 
BRANCH  13  14
ATOM     14  C   UNL     1     170.452 185.598  31.258  1.00  0.00    -0.027 C 
ATOM     15  C   UNL     1     170.948 184.548  31.933  1.00  0.00    -0.031 C 
BRANCH  15  16
ATOM     16  C   UNL     1     172.054 184.710  32.939  1.00  0.00     0.027 C 
BRANCH  16  17
ATOM     17  C   UNL     1     171.510 184.655  34.373  1.00  0.00     0.004 C 
BRANCH  17  18
ATOM     18  C   UNL     1     170.971 186.011  34.861  1.00  0.00     0.000 C 
BRANCH  18  19
ATOM     19  C   UNL     1     169.431 186.082  34.910  1.00  0.00    -0.003 C 
ATOM     20  C   UNL     1     168.880 187.307  34.179  1.00  0.00     0.004 C 
ENDBRANCH  18  19
ENDBRANCH  17  18
ENDBRANCH  16  17
ENDBRANCH  15  16
ENDBRANCH  13  14
ENDBRANCH  12  13
ENDBRANCH   1  11
TORSDOF 14
ENDMDL
MODEL 8
REMARK VINA RESULT:    -3.706     17.631     20.076
REMARK INTER + INTRA:          -8.375
REMARK INTER:                  -6.824
REMARK INTRA:                  -1.551
REMARK UNBOUND:                -1.635
REMARK SMILES CCCCCC=CCC=CCCCCCCCC(=O)[O-]
REMARK SMILES IDX 11 1 12 2 13 3 14 4 15 5 16 6 17 7 18 8 19 9 20 10 10 11
REMARK SMILES IDX 9 12 8 13 7 14 6 15 5 16 4 17 3 18 2 19 1 20
REMARK H PARENT
REMARK Flexibility Score: inf
ROOT
ATOM      1  C   UNL     1     159.151 174.171  21.722  1.00  0.00     0.027 C 
ENDROOT
BRANCH   1   2
ATOM      2  C   UNL     1     157.900 175.031  21.480  1.00  0.00     0.004 C 
BRANCH   2   3
ATOM      3  C   UNL     1     156.775 174.730  22.483  1.00  0.00     0.000 C 
BRANCH   3   4
ATOM      4  C   UNL     1     157.308 174.445  23.899  1.00  0.00     0.000 C 
BRANCH   4   5
ATOM      5  C   UNL     1     156.744 173.130  24.477  1.00  0.00     0.000 C 
BRANCH   5   6
ATOM      6  C   UNL     1     157.809 172.239  25.142  1.00  0.00     0.006 C 
BRANCH   6   7
ATOM      7  C   UNL     1     158.540 171.333  24.145  1.00  0.00     0.053 C 
BRANCH   7   8
ATOM      8  C   UNL     1     159.997 171.258  24.473  1.00  0.00     0.041 C 
ATOM      9  O   UNL     1     160.753 172.235  24.230  1.00  0.00    -0.550 OA
ATOM     10  O   UNL     1     160.514 170.125  25.091  1.00  0.00    -0.550 OA
ENDBRANCH   7   8
ENDBRANCH   6   7
ENDBRANCH   5   6
ENDBRANCH   4   5
ENDBRANCH   3   4
ENDBRANCH   2   3
ENDBRANCH   1   2
BRANCH   1  11
ATOM     11  C   UNL     1     159.126 172.930  20.873  1.00  0.00    -0.031 C 
ATOM     12  C   UNL     1     160.195 172.127  20.774  1.00  0.00    -0.027 C 
BRANCH  12  13
ATOM     13  C   UNL     1     160.150 170.893  19.915  1.00  0.00     0.054 C 
BRANCH  13  14
ATOM     14  C   UNL     1     161.409 170.745  19.110  1.00  0.00    -0.027 C 
ATOM     15  C   UNL     1     162.112 169.601  19.114  1.00  0.00    -0.031 C 
BRANCH  15  16
ATOM     16  C   UNL     1     163.377 169.450  18.316  1.00  0.00     0.027 C 
BRANCH  16  17
ATOM     17  C   UNL     1     163.637 170.690  17.449  1.00  0.00     0.004 C 
BRANCH  17  18
ATOM     18  C   UNL     1     164.501 170.386  16.213  1.00  0.00     0.000 C 
BRANCH  18  19
ATOM     19  C   UNL     1     163.770 170.622  14.875  1.00  0.00    -0.003 C 
ATOM     20  C   UNL     1     162.350 171.152  15.072  1.00  0.00     0.004 C 
ENDBRANCH  18  19
ENDBRANCH  17  18
ENDBRANCH  16  17
ENDBRANCH  15  16
ENDBRANCH  13  14
ENDBRANCH  12  13
ENDBRANCH   1  11
TORSDOF 14
ENDMDL
MODEL 9
REMARK VINA RESULT:    -3.695     16.737     20.352
REMARK INTER + INTRA:          -8.354
REMARK INTER:                  -7.022
REMARK INTRA:                  -1.332
REMARK UNBOUND:                -1.635
REMARK SMILES CCCCCC=CCC=CCCCCCCCC(=O)[O-]
REMARK SMILES IDX 11 1 12 2 13 3 14 4 15 5 16 6 17 7 18 8 19 9 20 10 10 11
REMARK SMILES IDX 9 12 8 13 7 14 6 15 5 16 4 17 3 18 2 19 1 20
REMARK H PARENT
REMARK Flexibility Score: inf
ROOT
ATOM      1  C   UNL     1     159.988 173.207  21.413  1.00  0.00     0.027 C 
ENDROOT
BRANCH   1   2
ATOM      2  C   UNL     1     158.634 173.759  20.938  1.00  0.00     0.004 C 
BRANCH   2   3
ATOM      3  C   UNL     1     158.234 175.049  21.671  1.00  0.00     0.000 C 
BRANCH   3   4
ATOM      4  C   UNL     1     156.710 175.178  21.850  1.00  0.00     0.000 C 
BRANCH   4   5
ATOM      5  C   UNL     1     156.212 174.455  23.119  1.00  0.00     0.000 C 
BRANCH   5   6
ATOM      6  C   UNL     1     157.146 174.619  24.331  1.00  0.00     0.006 C 
BRANCH   6   7
ATOM      7  C   UNL     1     157.808 173.304  24.759  1.00  0.00     0.053 C 
BRANCH   7   8
ATOM      8  C   UNL     1     159.284 173.488  24.920  1.00  0.00     0.041 C 
ATOM      9  O   UNL     1     159.782 174.644  24.922  1.00  0.00    -0.550 OA
ATOM     10  O   UNL     1     160.105 172.383  25.115  1.00  0.00    -0.550 OA
ENDBRANCH   7   8
ENDBRANCH   6   7
ENDBRANCH   5   6
ENDBRANCH   4   5
ENDBRANCH   3   4
ENDBRANCH   2   3
ENDBRANCH   1   2
BRANCH   1  11
ATOM     11  C   UNL     1     160.262 171.856  20.814  1.00  0.00    -0.031 C 
ATOM     12  C   UNL     1     159.685 171.467  19.668  1.00  0.00    -0.027 C 
BRANCH  12  13
ATOM     13  C   UNL     1     159.971 170.109  19.087  1.00  0.00     0.054 C 
BRANCH  13  14
ATOM     14  C   UNL     1     161.016 170.186  18.011  1.00  0.00    -0.027 C 
ATOM     15  C   UNL     1     160.685 170.140  16.711  1.00  0.00    -0.031 C 
BRANCH  15  16
ATOM     16  C   UNL     1     161.728 170.210  15.630  1.00  0.00     0.027 C 
BRANCH  16  17
ATOM     17  C   UNL     1     162.827 171.221  15.984  1.00  0.00     0.004 C 
BRANCH  17  18
ATOM     18  C   UNL     1     164.183 170.882  15.341  1.00  0.00     0.000 C 
BRANCH  18  19
ATOM     19  C   UNL     1     164.866 169.643  15.957  1.00  0.00    -0.003 C 
ATOM     20  C   UNL     1     164.827 169.655  17.485  1.00  0.00     0.004 C 
ENDBRANCH  18  19
ENDBRANCH  17  18
ENDBRANCH  16  17
ENDBRANCH  15  16
ENDBRANCH  13  14
ENDBRANCH  12  13
ENDBRANCH   1  11
TORSDOF 14
ENDMDL
