MODEL 1
REMARK VINA RESULT:    -4.274      0.000      0.000
REMARK INTER + INTRA:          -6.967
REMARK INTER:                  -6.523
REMARK INTRA:                  -0.444
REMARK UNBOUND:                -0.444
REMARK SMILES CCCCCCCCCC=CC(=O)[O-]
REMARK SMILES IDX 7 1 8 2 9 3 10 4 11 5 12 6 13 7 14 8 6 9 5 10 4 11 3 12 2 13
REMARK SMILES IDX 1 14
REMARK H PARENT
REMARK Flexibility Score: inf
ROOT
ATOM      1  C   UNL     1      34.521   6.203   9.741  1.00  0.00     0.000 C 
ENDROOT
BRANCH   1   2
ATOM      2  C   UNL     1      35.997   6.003   9.333  1.00  0.00     0.004 C 
BRANCH   2   3
ATOM      3  C   UNL     1      36.412   4.522   9.309  1.00  0.00     0.027 C 
BRANCH   3   4
ATOM      4  C   UNL     1      35.368   3.649   9.956  1.00  0.00    -0.025 C 
ATOM      5  C   UNL     1      35.137   2.353   9.689  1.00  0.00     0.020 C 
BRANCH   5   6
ATOM      6  C   UNL     1      35.897   1.498   8.756  1.00  0.00     0.064 C 
ATOM      7  O   UNL     1      36.491   0.484   9.206  1.00  0.00    -0.545 OA
ATOM      8  O   UNL     1      36.012   1.797   7.406  1.00  0.00    -0.545 OA
ENDBRANCH   5   6
ENDBRANCH   3   4
ENDBRANCH   2   3
ENDBRANCH   1   2
BRANCH   1   9
ATOM      9  C   UNL     1      33.955   7.590   9.391  1.00  0.00     0.000 C 
BRANCH   9  10
ATOM     10  C   UNL     1      32.501   7.535   8.899  1.00  0.00     0.000 C 
BRANCH  10  11
ATOM     11  C   UNL     1      31.556   6.880   9.920  1.00  0.00    -0.000 C 
BRANCH  11  12
ATOM     12  C   UNL     1      30.733   5.732   9.314  1.00  0.00    -0.000 C 
BRANCH  12  13
ATOM     13  C   UNL     1      29.256   5.850   9.711  1.00  0.00    -0.003 C 
ATOM     14  C   UNL     1      28.396   4.861   8.931  1.00  0.00     0.004 C 
ENDBRANCH  12  13
ENDBRANCH  11  12
ENDBRANCH  10  11
ENDBRANCH   9  10
ENDBRANCH   1   9
TORSDOF 9
ENDMDL
MODEL 2
REMARK VINA RESULT:    -4.198     17.928     20.228
REMARK INTER + INTRA:          -6.850
REMARK INTER:                  -6.342
REMARK INTRA:                  -0.509
REMARK UNBOUND:                -0.444
REMARK SMILES CCCCCCCCCC=CC(=O)[O-]
REMARK SMILES IDX 7 1 8 2 9 3 10 4 11 5 12 6 13 7 14 8 6 9 5 10 4 11 3 12 2 13
REMARK SMILES IDX 1 14
REMARK H PARENT
REMARK Flexibility Score: inf
ROOT
ATOM      1  C   UNL     1      37.660  -6.722  -6.488  1.00  0.00     0.000 C 
ENDROOT
BRANCH   1   2
ATOM      2  C   UNL     1      37.138  -5.574  -7.378  1.00  0.00     0.004 C 
BRANCH   2   3
ATOM      3  C   UNL     1      35.617  -5.636  -7.598  1.00  0.00     0.027 C 
BRANCH   3   4
ATOM      4  C   UNL     1      35.270  -5.559  -9.062  1.00  0.00    -0.025 C 
ATOM      5  C   UNL     1      34.700  -4.517  -9.691  1.00  0.00     0.020 C 
BRANCH   5   6
ATOM      6  C   UNL     1      34.354  -3.212  -9.095  1.00  0.00     0.064 C 
ATOM      7  O   UNL     1      33.144  -2.868  -9.044  1.00  0.00    -0.545 OA
ATOM      8  O   UNL     1      35.320  -2.334  -8.627  1.00  0.00    -0.545 OA
ENDBRANCH   5   6
ENDBRANCH   3   4
ENDBRANCH   2   3
ENDBRANCH   1   2
BRANCH   1   9
ATOM      9  C   UNL     1      39.124  -6.557  -6.045  1.00  0.00     0.000 C 
BRANCH   9  10
ATOM     10  C   UNL     1      39.790  -5.305  -6.635  1.00  0.00     0.000 C 
BRANCH  10  11
ATOM     11  C   UNL     1      40.906  -4.750  -5.736  1.00  0.00    -0.000 C 
BRANCH  11  12
ATOM     12  C   UNL     1      41.049  -5.530  -4.419  1.00  0.00    -0.000 C 
BRANCH  12  13
ATOM     13  C   UNL     1      41.361  -4.583  -3.254  1.00  0.00    -0.003 C 
ATOM     14  C   UNL     1      41.782  -5.361  -2.010  1.00  0.00     0.004 C 
ENDBRANCH  12  13
ENDBRANCH  11  12
ENDBRANCH  10  11
ENDBRANCH   9  10
ENDBRANCH   1   9
TORSDOF 9
ENDMDL
MODEL 3
REMARK VINA RESULT:    -4.124     14.645     17.719
REMARK INTER + INTRA:          -6.738
REMARK INTER:                  -6.376
REMARK INTRA:                  -0.362
REMARK UNBOUND:                -0.444
REMARK SMILES CCCCCCCCCC=CC(=O)[O-]
REMARK SMILES IDX 7 1 8 2 9 3 10 4 11 5 12 6 13 7 14 8 6 9 5 10 4 11 3 12 2 13
REMARK SMILES IDX 1 14
REMARK H PARENT
REMARK Flexibility Score: inf
ROOT
ATOM      1  C   UNL     1      41.459  -5.119  -3.474  1.00  0.00     0.000 C 
ENDROOT
BRANCH   1   2
ATOM      2  C   UNL     1      41.800  -6.123  -2.352  1.00  0.00     0.004 C 
BRANCH   2   3
ATOM      3  C   UNL     1      41.553  -5.551  -0.946  1.00  0.00     0.027 C 
BRANCH   3   4
ATOM      4  C   UNL     1      41.495  -6.646   0.089  1.00  0.00    -0.025 C 
ATOM      5  C   UNL     1      40.754  -6.643   1.209  1.00  0.00     0.020 C 
BRANCH   5   6
ATOM      6  C   UNL     1      39.797  -5.600   1.628  1.00  0.00     0.064 C 
ATOM      7  O   UNL     1      38.563  -5.832   1.531  1.00  0.00    -0.545 OA
ATOM      8  O   UNL     1      40.210  -4.358   2.087  1.00  0.00    -0.545 OA
ENDBRANCH   5   6
ENDBRANCH   3   4
ENDBRANCH   2   3
ENDBRANCH   1   2
BRANCH   1   9
ATOM      9  C   UNL     1      41.254  -5.765  -4.855  1.00  0.00     0.000 C 
BRANCH   9  10
ATOM     10  C   UNL     1      40.174  -5.061  -5.689  1.00  0.00     0.000 C 
BRANCH  10  11
ATOM     11  C   UNL     1      39.533  -5.991  -6.733  1.00  0.00    -0.000 C 
BRANCH  11  12
ATOM     12  C   UNL     1      38.313  -5.358  -7.420  1.00  0.00    -0.000 C 
BRANCH  12  13
ATOM     13  C   UNL     1      37.012  -6.004  -6.928  1.00  0.00    -0.003 C 
ATOM     14  C   UNL     1      37.290  -7.314  -6.197  1.00  0.00     0.004 C 
ENDBRANCH  12  13
ENDBRANCH  11  12
ENDBRANCH  10  11
ENDBRANCH   9  10
ENDBRANCH   1   9
TORSDOF 9
ENDMDL
MODEL 4
REMARK VINA RESULT:    -4.054      3.333      4.287
REMARK INTER + INTRA:          -6.631
REMARK INTER:                  -6.144
REMARK INTRA:                  -0.487
REMARK UNBOUND:                -0.444
REMARK SMILES CCCCCCCCCC=CC(=O)[O-]
REMARK SMILES IDX 7 1 8 2 9 3 10 4 11 5 12 6 13 7 14 8 6 9 5 10 4 11 3 12 2 13
REMARK SMILES IDX 1 14
REMARK H PARENT
REMARK Flexibility Score: inf
ROOT
ATOM      1  C   UNL     1      36.603   4.282   9.237  1.00  0.00     0.000 C 
ENDROOT
BRANCH   1   2
ATOM      2  C   UNL     1      37.064   4.597   7.798  1.00  0.00     0.004 C 
BRANCH   2   3
ATOM      3  C   UNL     1      38.596   4.634   7.659  1.00  0.00     0.027 C 
BRANCH   3   4
ATOM      4  C   UNL     1      39.025   5.582   6.569  1.00  0.00    -0.025 C 
ATOM      5  C   UNL     1      39.901   5.319   5.585  1.00  0.00     0.020 C 
BRANCH   5   6
ATOM      6  C   UNL     1      40.575   4.031   5.329  1.00  0.00     0.064 C 
ATOM      7  O   UNL     1      41.831   3.979   5.395  1.00  0.00    -0.545 OA
ATOM      8  O   UNL     1      39.874   2.886   4.979  1.00  0.00    -0.545 OA
ENDBRANCH   5   6
ENDBRANCH   3   4
ENDBRANCH   2   3
ENDBRANCH   1   2
BRANCH   1   9
ATOM      9  C   UNL     1      35.403   5.121   9.710  1.00  0.00     0.000 C 
BRANCH   9  10
ATOM     10  C   UNL     1      35.422   6.554   9.157  1.00  0.00     0.000 C 
BRANCH  10  11
ATOM     11  C   UNL     1      34.056   7.251   9.277  1.00  0.00    -0.000 C 
BRANCH  11  12
ATOM     12  C   UNL     1      32.936   6.290   9.704  1.00  0.00    -0.000 C 
BRANCH  12  13
ATOM     13  C   UNL     1      31.575   6.772   9.186  1.00  0.00    -0.003 C 
ATOM     14  C   UNL     1      30.513   5.687   9.338  1.00  0.00     0.004 C 
ENDBRANCH  12  13
ENDBRANCH  11  12
ENDBRANCH  10  11
ENDBRANCH   9  10
ENDBRANCH   1   9
TORSDOF 9
ENDMDL
MODEL 5
REMARK VINA RESULT:    -4.037      4.283      5.970
REMARK INTER + INTRA:          -6.605
REMARK INTER:                  -5.793
REMARK INTRA:                  -0.811
REMARK UNBOUND:                -0.444
REMARK SMILES CCCCCCCCCC=CC(=O)[O-]
REMARK SMILES IDX 7 1 8 2 9 3 10 4 11 5 12 6 13 7 14 8 6 9 5 10 4 11 3 12 2 13
REMARK SMILES IDX 1 14
REMARK H PARENT
REMARK Flexibility Score: inf
ROOT
ATOM      1  C   UNL     1      38.055   5.971   7.072  1.00  0.00     0.000 C 
ENDROOT
BRANCH   1   2
ATOM      2  C   UNL     1      39.155   6.106   8.147  1.00  0.00     0.004 C 
BRANCH   2   3
ATOM      3  C   UNL     1      40.493   5.484   7.711  1.00  0.00     0.027 C 
BRANCH   3   4
ATOM      4  C   UNL     1      40.827   5.845   6.287  1.00  0.00    -0.025 C 
ATOM      5  C   UNL     1      41.044   4.986   5.278  1.00  0.00     0.020 C 
BRANCH   5   6
ATOM      6  C   UNL     1      40.936   3.515   5.337  1.00  0.00     0.064 C 
ATOM      7  O   UNL     1      39.814   2.978   5.140  1.00  0.00    -0.545 OA
ATOM      8  O   UNL     1      42.021   2.705   5.642  1.00  0.00    -0.545 OA
ENDBRANCH   5   6
ENDBRANCH   3   4
ENDBRANCH   2   3
ENDBRANCH   1   2
BRANCH   1   9
ATOM      9  C   UNL     1      36.822   5.175   7.532  1.00  0.00     0.000 C 
BRANCH   9  10
ATOM     10  C   UNL     1      36.617   5.216   9.053  1.00  0.00     0.000 C 
BRANCH  10  11
ATOM     11  C   UNL     1      36.163   3.863   9.626  1.00  0.00    -0.000 C 
BRANCH  11  12
ATOM     12  C   UNL     1      36.650   2.672   8.785  1.00  0.00    -0.000 C 
BRANCH  12  13
ATOM     13  C   UNL     1      35.550   1.612   8.651  1.00  0.00    -0.003 C 
ATOM     14  C   UNL     1      34.611   1.637   9.853  1.00  0.00     0.004 C 
ENDBRANCH  12  13
ENDBRANCH  11  12
ENDBRANCH  10  11
ENDBRANCH   9  10
ENDBRANCH   1   9
TORSDOF 9
ENDMDL
MODEL 6
REMARK VINA RESULT:    -4.033      1.566      2.914
REMARK INTER + INTRA:          -6.599
REMARK INTER:                  -5.733
REMARK INTRA:                  -0.866
REMARK UNBOUND:                -0.444
REMARK SMILES CCCCCCCCCC=CC(=O)[O-]
REMARK SMILES IDX 7 1 8 2 9 3 10 4 11 5 12 6 13 7 14 8 6 9 5 10 4 11 3 12 2 13
REMARK SMILES IDX 1 14
REMARK H PARENT
REMARK Flexibility Score: inf
ROOT
ATOM      1  C   UNL     1      36.876   5.120   7.496  1.00  0.00     0.000 C 
ENDROOT
BRANCH   1   2
ATOM      2  C   UNL     1      38.376   4.771   7.607  1.00  0.00     0.004 C 
BRANCH   2   3
ATOM      3  C   UNL     1      38.620   3.283   7.917  1.00  0.00     0.027 C 
BRANCH   3   4
ATOM      4  C   UNL     1      38.350   2.974   9.367  1.00  0.00    -0.025 C 
ATOM      5  C   UNL     1      37.505   2.042   9.838  1.00  0.00     0.020 C 
BRANCH   5   6
ATOM      6  C   UNL     1      36.716   1.085   9.037  1.00  0.00     0.064 C 
ATOM      7  O   UNL     1      37.059  -0.126   9.024  1.00  0.00    -0.545 OA
ATOM      8  O   UNL     1      35.633   1.483   8.267  1.00  0.00    -0.545 OA
ENDBRANCH   5   6
ENDBRANCH   3   4
ENDBRANCH   2   3
ENDBRANCH   1   2
BRANCH   1   9
ATOM      9  C   UNL     1      36.369   6.065   8.599  1.00  0.00     0.000 C 
BRANCH   9  10
ATOM     10  C   UNL     1      35.549   5.341   9.676  1.00  0.00     0.000 C 
BRANCH  10  11
ATOM     11  C   UNL     1      34.171   5.984   9.903  1.00  0.00    -0.000 C 
BRANCH  11  12
ATOM     12  C   UNL     1      33.958   7.244   9.049  1.00  0.00    -0.000 C 
BRANCH  12  13
ATOM     13  C   UNL     1      32.469   7.598   8.959  1.00  0.00    -0.003 C 
ATOM     14  C   UNL     1      31.595   6.397   9.309  1.00  0.00     0.004 C 
ENDBRANCH  12  13
ENDBRANCH  11  12
ENDBRANCH  10  11
ENDBRANCH   9  10
ENDBRANCH   1   9
TORSDOF 9
ENDMDL
MODEL 7
REMARK VINA RESULT:    -3.973      3.360      6.437
REMARK INTER + INTRA:          -6.507
REMARK INTER:                  -5.870
REMARK INTRA:                  -0.638
REMARK UNBOUND:                -0.444
REMARK SMILES CCCCCCCCCC=CC(=O)[O-]
REMARK SMILES IDX 7 1 8 2 9 3 10 4 11 5 12 6 13 7 14 8 6 9 5 10 4 11 3 12 2 13
REMARK SMILES IDX 1 14
REMARK H PARENT
REMARK Flexibility Score: inf
ROOT
ATOM      1  C   UNL     1      36.542   6.073   8.769  1.00  0.00     0.000 C 
ENDROOT
BRANCH   1   2
ATOM      2  C   UNL     1      35.553   5.337   9.698  1.00  0.00     0.004 C 
BRANCH   2   3
ATOM      3  C   UNL     1      36.054   3.943  10.115  1.00  0.00     0.027 C 
BRANCH   3   4
ATOM      4  C   UNL     1      34.960   2.913  10.008  1.00  0.00    -0.025 C 
ATOM      5  C   UNL     1      35.035   1.737   9.363  1.00  0.00     0.020 C 
BRANCH   5   6
ATOM      6  C   UNL     1      36.221   1.182   8.681  1.00  0.00     0.064 C 
ATOM      7  O   UNL     1      36.748   0.132   9.134  1.00  0.00    -0.545 OA
ATOM      8  O   UNL     1      36.799   1.800   7.581  1.00  0.00    -0.545 OA
ENDBRANCH   5   6
ENDBRANCH   3   4
ENDBRANCH   2   3
ENDBRANCH   1   2
BRANCH   1   9
ATOM      9  C   UNL     1      36.933   5.278   7.511  1.00  0.00     0.000 C 
BRANCH   9  10
ATOM     10  C   UNL     1      38.417   4.883   7.491  1.00  0.00     0.000 C 
BRANCH  10  11
ATOM     11  C   UNL     1      39.279   5.866   6.682  1.00  0.00    -0.000 C 
BRANCH  11  12
ATOM     12  C   UNL     1      39.887   5.224   5.424  1.00  0.00    -0.000 C 
BRANCH  12  13
ATOM     13  C   UNL     1      40.653   3.944   5.780  1.00  0.00    -0.003 C 
ATOM     14  C   UNL     1      41.946   4.265   6.523  1.00  0.00     0.004 C 
ENDBRANCH  12  13
ENDBRANCH  11  12
ENDBRANCH  10  11
ENDBRANCH   9  10
ENDBRANCH   1   9
TORSDOF 9
ENDMDL
MODEL 8
REMARK VINA RESULT:    -3.922      3.791      5.590
REMARK INTER + INTRA:          -6.429
REMARK INTER:                  -5.208
REMARK INTRA:                  -1.221
REMARK UNBOUND:                -0.444
REMARK SMILES CCCCCCCCCC=CC(=O)[O-]
REMARK SMILES IDX 7 1 8 2 9 3 10 4 11 5 12 6 13 7 14 8 6 9 5 10 4 11 3 12 2 13
REMARK SMILES IDX 1 14
REMARK H PARENT
REMARK Flexibility Score: inf
ROOT
ATOM      1  C   UNL     1      36.600   3.601   8.503  1.00  0.00     0.000 C 
ENDROOT
BRANCH   1   2
ATOM      2  C   UNL     1      37.786   2.636   8.722  1.00  0.00     0.004 C 
BRANCH   2   3
ATOM      3  C   UNL     1      39.146   3.355   8.719  1.00  0.00     0.027 C 
BRANCH   3   4
ATOM      4  C   UNL     1      39.129   4.557   7.810  1.00  0.00    -0.025 C 
ATOM      5  C   UNL     1      39.692   4.643   6.593  1.00  0.00     0.020 C 
BRANCH   5   6
ATOM      6  C   UNL     1      40.387   3.562   5.868  1.00  0.00     0.064 C 
ATOM      7  O   UNL     1      39.796   2.991   4.914  1.00  0.00    -0.545 OA
ATOM      8  O   UNL     1      41.655   3.126   6.227  1.00  0.00    -0.545 OA
ENDBRANCH   5   6
ENDBRANCH   3   4
ENDBRANCH   2   3
ENDBRANCH   1   2
BRANCH   1   9
ATOM      9  C   UNL     1      35.726   3.815   9.751  1.00  0.00     0.000 C 
BRANCH   9  10
ATOM     10  C   UNL     1      35.188   5.249   9.864  1.00  0.00     0.000 C 
BRANCH  10  11
ATOM     11  C   UNL     1      36.186   6.298   9.346  1.00  0.00    -0.000 C 
BRANCH  11  12
ATOM     12  C   UNL     1      35.600   7.167   8.222  1.00  0.00    -0.000 C 
BRANCH  12  13
ATOM     13  C   UNL     1      36.503   7.137   6.982  1.00  0.00    -0.003 C 
ATOM     14  C   UNL     1      37.800   7.902   7.227  1.00  0.00     0.004 C 
ENDBRANCH  12  13
ENDBRANCH  11  12
ENDBRANCH  10  11
ENDBRANCH   9  10
ENDBRANCH   1   9
TORSDOF 9
ENDMDL
MODEL 9
REMARK VINA RESULT:    -3.914      1.848      2.641
REMARK INTER + INTRA:          -6.418
REMARK INTER:                  -5.571
REMARK INTRA:                  -0.847
REMARK UNBOUND:                -0.444
REMARK SMILES CCCCCCCCCC=CC(=O)[O-]
REMARK SMILES IDX 7 1 8 2 9 3 10 4 11 5 12 6 13 7 14 8 6 9 5 10 4 11 3 12 2 13
REMARK SMILES IDX 1 14
REMARK H PARENT
REMARK Flexibility Score: inf
ROOT
ATOM      1  C   UNL     1      36.476   8.689   7.643  1.00  0.00     0.000 C 
ENDROOT
BRANCH   1   2
ATOM      2  C   UNL     1      37.471   7.509   7.594  1.00  0.00     0.004 C 
BRANCH   2   3
ATOM      3  C   UNL     1      36.773   6.150   7.409  1.00  0.00     0.027 C 
BRANCH   3   4
ATOM      4  C   UNL     1      36.625   5.426   8.722  1.00  0.00    -0.025 C 
ATOM      5  C   UNL     1      36.837   4.117   8.937  1.00  0.00     0.020 C 
BRANCH   5   6
ATOM      6  C   UNL     1      37.319   3.130   7.951  1.00  0.00     0.064 C 
ATOM      7  O   UNL     1      36.649   2.081   7.763  1.00  0.00    -0.545 OA
ATOM      8  O   UNL     1      38.506   3.301   7.253  1.00  0.00    -0.545 OA
ENDBRANCH   5   6
ENDBRANCH   3   4
ENDBRANCH   2   3
ENDBRANCH   1   2
BRANCH   1   9
ATOM      9  C   UNL     1      35.019   8.295   7.343  1.00  0.00     0.000 C 
BRANCH   9  10
ATOM     10  C   UNL     1      34.026   8.847   8.376  1.00  0.00     0.000 C 
BRANCH  10  11
ATOM     11  C   UNL     1      33.944   7.977   9.641  1.00  0.00    -0.000 C 
BRANCH  11  12
ATOM     12  C   UNL     1      33.185   6.662   9.407  1.00  0.00    -0.000 C 
BRANCH  12  13
ATOM     13  C   UNL     1      31.669   6.896   9.428  1.00  0.00    -0.003 C 
ATOM     14  C   UNL     1      30.908   5.573   9.408  1.00  0.00     0.004 C 
ENDBRANCH  12  13
ENDBRANCH  11  12
ENDBRANCH  10  11
ENDBRANCH   9  10
ENDBRANCH   1   9
TORSDOF 9
ENDMDL
