MODEL 1
REMARK VINA RESULT:    -4.409      0.000      0.000
REMARK INTER + INTRA:          -8.846
REMARK INTER:                  -6.729
REMARK INTRA:                  -2.118
REMARK UNBOUND:                -2.118
REMARK SMILES CC(=O)CCC=C(C)CCC=C(C)CCC=C(C)C
REMARK SMILES IDX 10 1 11 2 12 3 13 4 14 5 15 6 16 7 18 8 17 9 19 10 9 11 7 12
REMARK SMILES IDX 6 13 8 14 5 15 4 16 2 17 3 18 1 19
REMARK H PARENT
REMARK Flexibility Score: inf
ROOT
ATOM      1  C   UNL     1      -5.925  30.718  47.264  1.00  0.00     0.032 C 
ENDROOT
BRANCH   1   2
ATOM      2  C   UNL     1      -6.185  29.253  47.034  1.00  0.00    -0.028 C 
ATOM      3  C   UNL     1      -5.327  28.403  46.424  1.00  0.00    -0.077 C 
ATOM      4  C   UNL     1      -3.959  28.845  45.960  1.00  0.00     0.039 C 
BRANCH   3   5
ATOM      5  C   UNL     1      -5.750  26.967  46.199  1.00  0.00     0.034 C 
BRANCH   5   6
ATOM      6  C   UNL     1      -7.136  26.873  45.548  1.00  0.00     0.032 C 
BRANCH   6   7
ATOM      7  C   UNL     1      -7.144  27.492  44.168  1.00  0.00    -0.028 C 
ATOM      8  C   UNL     1      -9.055  29.033  44.674  1.00  0.00     0.039 C 
ATOM      9  C   UNL     1      -8.022  28.434  43.753  1.00  0.00    -0.080 C 
ATOM     10  C   UNL     1      -7.963  28.885  42.317  1.00  0.00     0.039 C 
ENDBRANCH   6   7
ENDBRANCH   5   6
ENDBRANCH   3   5
ENDBRANCH   1   2
BRANCH   1  11
ATOM     11  C   UNL     1      -7.203  31.543  47.051  1.00  0.00     0.034 C 
BRANCH  11  12
ATOM     12  C   UNL     1      -7.024  32.537  45.920  1.00  0.00    -0.077 C 
ATOM     13  C   UNL     1      -7.034  33.878  46.119  1.00  0.00    -0.028 C 
ATOM     14  C   UNL     1      -6.816  32.015  44.522  1.00  0.00     0.039 C 
BRANCH  13  15
ATOM     15  C   UNL     1      -7.302  34.544  47.449  1.00  0.00     0.035 C 
BRANCH  15  16
ATOM     16  C   UNL     1      -6.012  35.125  48.036  1.00  0.00     0.079 C 
BRANCH  16  17
ATOM     17  C   UNL     1      -5.334  34.103  48.913  1.00  0.00     0.130 C 
ATOM     18  O   UNL     1      -4.260  33.631  48.567  1.00  0.00    -0.300 OA
ATOM     19  C   UNL     1      -5.937  33.664  50.214  1.00  0.00     0.087 C 
ENDBRANCH  16  17
ENDBRANCH  15  16
ENDBRANCH  13  15
ENDBRANCH  11  12
ENDBRANCH   1  11
TORSDOF 9
ENDMDL
MODEL 2
REMARK VINA RESULT:    -4.274      1.563      3.350
REMARK INTER + INTRA:          -8.640
REMARK INTER:                  -6.310
REMARK INTRA:                  -2.330
REMARK UNBOUND:                -2.118
REMARK SMILES CC(=O)CCC=C(C)CCC=C(C)CCC=C(C)C
REMARK SMILES IDX 10 1 11 2 12 3 13 4 14 5 15 6 16 7 18 8 17 9 19 10 9 11 7 12
REMARK SMILES IDX 6 13 8 14 5 15 4 16 2 17 3 18 1 19
REMARK H PARENT
REMARK Flexibility Score: inf
ROOT
ATOM      1  C   UNL     1      -8.036  30.284  46.881  1.00  0.00     0.032 C 
ENDROOT
BRANCH   1   2
ATOM      2  C   UNL     1      -8.525  30.377  45.459  1.00  0.00    -0.028 C 
ATOM      3  C   UNL     1      -8.612  29.333  44.604  1.00  0.00    -0.077 C 
ATOM      4  C   UNL     1      -8.278  27.922  45.027  1.00  0.00     0.039 C 
BRANCH   3   5
ATOM      5  C   UNL     1      -9.057  29.586  43.178  1.00  0.00     0.034 C 
BRANCH   5   6
ATOM      6  C   UNL     1      -7.955  30.254  42.345  1.00  0.00     0.032 C 
BRANCH   6   7
ATOM      7  C   UNL     1      -6.585  29.729  42.713  1.00  0.00    -0.028 C 
ATOM      8  C   UNL     1      -5.756  31.951  43.524  1.00  0.00     0.039 C 
ATOM      9  C   UNL     1      -5.579  30.487  43.208  1.00  0.00    -0.080 C 
ATOM     10  C   UNL     1      -4.240  29.838  43.438  1.00  0.00     0.039 C 
ENDBRANCH   6   7
ENDBRANCH   5   6
ENDBRANCH   3   5
ENDBRANCH   1   2
BRANCH   1  11
ATOM     11  C   UNL     1      -6.912  31.297  47.144  1.00  0.00     0.034 C 
BRANCH  11  12
ATOM     12  C   UNL     1      -5.552  30.645  46.997  1.00  0.00    -0.077 C 
ATOM     13  C   UNL     1      -4.401  31.360  46.947  1.00  0.00    -0.028 C 
ATOM     14  C   UNL     1      -5.471  29.142  46.915  1.00  0.00     0.039 C 
BRANCH  13  15
ATOM     15  C   UNL     1      -4.333  32.871  46.945  1.00  0.00     0.035 C 
BRANCH  15  16
ATOM     16  C   UNL     1      -4.043  33.403  48.353  1.00  0.00     0.079 C 
BRANCH  16  17
ATOM     17  C   UNL     1      -5.229  34.177  48.869  1.00  0.00     0.130 C 
ATOM     18  O   UNL     1      -5.686  35.094  48.202  1.00  0.00    -0.300 OA
ATOM     19  C   UNL     1      -5.876  33.837  50.178  1.00  0.00     0.087 C 
ENDBRANCH  16  17
ENDBRANCH  15  16
ENDBRANCH  13  15
ENDBRANCH  11  12
ENDBRANCH   1  11
TORSDOF 9
ENDMDL
MODEL 3
REMARK VINA RESULT:    -4.272      2.579      6.999
REMARK INTER + INTRA:          -8.637
REMARK INTER:                  -6.560
REMARK INTRA:                  -2.077
REMARK UNBOUND:                -2.118
REMARK SMILES CC(=O)CCC=C(C)CCC=C(C)CCC=C(C)C
REMARK SMILES IDX 10 1 11 2 12 3 13 4 14 5 15 6 16 7 18 8 17 9 19 10 9 11 7 12
REMARK SMILES IDX 6 13 8 14 5 15 4 16 2 17 3 18 1 19
REMARK H PARENT
REMARK Flexibility Score: inf
ROOT
ATOM      1  C   UNL     1      -5.179  29.384  46.660  1.00  0.00     0.032 C 
ENDROOT
BRANCH   1   2
ATOM      2  C   UNL     1      -5.697  30.738  46.251  1.00  0.00    -0.028 C 
ATOM      3  C   UNL     1      -6.963  31.171  46.448  1.00  0.00    -0.077 C 
ATOM      4  C   UNL     1      -7.990  30.336  47.175  1.00  0.00     0.039 C 
BRANCH   3   5
ATOM      5  C   UNL     1      -7.364  32.534  45.923  1.00  0.00     0.034 C 
BRANCH   5   6
ATOM      6  C   UNL     1      -6.464  33.647  46.473  1.00  0.00     0.032 C 
BRANCH   6   7
ATOM      7  C   UNL     1      -6.614  33.795  47.971  1.00  0.00    -0.028 C 
ATOM      8  C   UNL     1      -4.178  33.428  48.432  1.00  0.00     0.039 C 
ATOM      9  C   UNL     1      -5.605  33.662  48.862  1.00  0.00    -0.080 C 
ATOM     10  C   UNL     1      -5.930  33.744  50.330  1.00  0.00     0.039 C 
ENDBRANCH   6   7
ENDBRANCH   5   6
ENDBRANCH   3   5
ENDBRANCH   1   2
BRANCH   1  11
ATOM     11  C   UNL     1      -5.101  28.439  45.452  1.00  0.00     0.034 C 
BRANCH  11  12
ATOM     12  C   UNL     1      -6.181  27.378  45.524  1.00  0.00    -0.077 C 
ATOM     13  C   UNL     1      -7.287  27.408  44.740  1.00  0.00    -0.028 C 
ATOM     14  C   UNL     1      -6.017  26.239  46.497  1.00  0.00     0.039 C 
BRANCH  13  15
ATOM     15  C   UNL     1      -7.620  28.522  43.774  1.00  0.00     0.035 C 
BRANCH  15  16
ATOM     16  C   UNL     1      -9.055  29.016  43.989  1.00  0.00     0.079 C 
BRANCH  16  17
ATOM     17  C   UNL     1     -10.017  28.184  43.181  1.00  0.00     0.130 C 
ATOM     18  O   UNL     1     -10.662  27.304  43.733  1.00  0.00    -0.300 OA
ATOM     19  C   UNL     1     -10.219  28.424  41.715  1.00  0.00     0.087 C 
ENDBRANCH  16  17
ENDBRANCH  15  16
ENDBRANCH  13  15
ENDBRANCH  11  12
ENDBRANCH   1  11
TORSDOF 9
ENDMDL
MODEL 4
REMARK VINA RESULT:    -4.264      2.865      5.161
REMARK INTER + INTRA:          -8.625
REMARK INTER:                  -6.320
REMARK INTRA:                  -2.304
REMARK UNBOUND:                -2.118
REMARK SMILES CC(=O)CCC=C(C)CCC=C(C)CCC=C(C)C
REMARK SMILES IDX 10 1 11 2 12 3 13 4 14 5 15 6 16 7 18 8 17 9 19 10 9 11 7 12
REMARK SMILES IDX 6 13 8 14 5 15 4 16 2 17 3 18 1 19
REMARK H PARENT
REMARK Flexibility Score: inf
ROOT
ATOM      1  C   UNL     1      -7.928  30.765  46.777  1.00  0.00     0.032 C 
ENDROOT
BRANCH   1   2
ATOM      2  C   UNL     1      -8.218  29.706  45.746  1.00  0.00    -0.028 C 
ATOM      3  C   UNL     1      -8.041  29.859  44.413  1.00  0.00    -0.077 C 
ATOM      4  C   UNL     1      -7.460  31.122  43.823  1.00  0.00     0.039 C 
BRANCH   3   5
ATOM      5  C   UNL     1      -8.440  28.731  43.485  1.00  0.00     0.034 C 
BRANCH   5   6
ATOM      6  C   UNL     1      -9.155  27.599  44.233  1.00  0.00     0.032 C 
BRANCH   6   7
ATOM      7  C   UNL     1     -10.629  27.554  43.893  1.00  0.00    -0.028 C 
ATOM      8  C   UNL     1     -10.310  26.038  41.922  1.00  0.00     0.039 C 
ATOM      9  C   UNL     1     -11.155  26.888  42.839  1.00  0.00    -0.080 C 
ATOM     10  C   UNL     1     -12.632  27.014  42.577  1.00  0.00     0.039 C 
ENDBRANCH   6   7
ENDBRANCH   5   6
ENDBRANCH   3   5
ENDBRANCH   1   2
BRANCH   1  11
ATOM     11  C   UNL     1      -6.688  30.401  47.605  1.00  0.00     0.034 C 
BRANCH  11  12
ATOM     12  C   UNL     1      -5.420  30.855  46.909  1.00  0.00    -0.077 C 
ATOM     13  C   UNL     1      -4.541  29.985  46.353  1.00  0.00    -0.028 C 
ATOM     14  C   UNL     1      -5.128  32.331  46.822  1.00  0.00     0.039 C 
BRANCH  13  15
ATOM     15  C   UNL     1      -4.665  28.480  46.426  1.00  0.00     0.035 C 
BRANCH  15  16
ATOM     16  C   UNL     1      -4.948  27.891  45.040  1.00  0.00     0.079 C 
BRANCH  16  17
ATOM     17  C   UNL     1      -5.693  26.587  45.171  1.00  0.00     0.130 C 
ATOM     18  O   UNL     1      -5.620  25.760  44.274  1.00  0.00    -0.300 OA
ATOM     19  C   UNL     1      -6.508  26.271  46.389  1.00  0.00     0.087 C 
ENDBRANCH  16  17
ENDBRANCH  15  16
ENDBRANCH  13  15
ENDBRANCH  11  12
ENDBRANCH   1  11
TORSDOF 9
ENDMDL
MODEL 5
REMARK VINA RESULT:    -4.235      1.411      3.102
REMARK INTER + INTRA:          -8.582
REMARK INTER:                  -6.856
REMARK INTRA:                  -1.726
REMARK UNBOUND:                -2.118
REMARK SMILES CC(=O)CCC=C(C)CCC=C(C)CCC=C(C)C
REMARK SMILES IDX 10 1 11 2 12 3 13 4 14 5 15 6 16 7 18 8 17 9 19 10 9 11 7 12
REMARK SMILES IDX 6 13 8 14 5 15 4 16 2 17 3 18 1 19
REMARK H PARENT
REMARK Flexibility Score: inf
ROOT
ATOM      1  C   UNL     1      -7.621  31.460  46.792  1.00  0.00     0.032 C 
ENDROOT
BRANCH   1   2
ATOM      2  C   UNL     1      -8.422  30.365  46.138  1.00  0.00    -0.028 C 
ATOM      3  C   UNL     1      -8.331  30.017  44.834  1.00  0.00    -0.077 C 
ATOM      4  C   UNL     1      -7.342  30.671  43.898  1.00  0.00     0.039 C 
BRANCH   3   5
ATOM      5  C   UNL     1      -9.250  28.940  44.295  1.00  0.00     0.034 C 
BRANCH   5   6
ATOM      6  C   UNL     1      -8.506  27.621  44.054  1.00  0.00     0.032 C 
BRANCH   6   7
ATOM      7  C   UNL     1      -7.687  27.217  45.260  1.00  0.00    -0.028 C 
ATOM      8  C   UNL     1      -5.920  26.071  43.900  1.00  0.00     0.039 C 
ATOM      9  C   UNL     1      -6.546  26.491  45.206  1.00  0.00    -0.080 C 
ATOM     10  C   UNL     1      -5.893  26.086  46.501  1.00  0.00     0.039 C 
ENDBRANCH   6   7
ENDBRANCH   5   6
ENDBRANCH   3   5
ENDBRANCH   1   2
BRANCH   1  11
ATOM     11  C   UNL     1      -6.493  30.875  47.655  1.00  0.00     0.034 C 
BRANCH  11  12
ATOM     12  C   UNL     1      -5.178  30.878  46.900  1.00  0.00    -0.077 C 
ATOM     13  C   UNL     1      -4.440  32.001  46.725  1.00  0.00    -0.028 C 
ATOM     14  C   UNL     1      -4.664  29.580  46.332  1.00  0.00     0.039 C 
BRANCH  13  15
ATOM     15  C   UNL     1      -4.863  33.381  47.174  1.00  0.00     0.035 C 
BRANCH  15  16
ATOM     16  C   UNL     1      -4.478  33.618  48.638  1.00  0.00     0.079 C 
BRANCH  16  17
ATOM     17  C   UNL     1      -5.699  33.977  49.445  1.00  0.00     0.130 C 
ATOM     18  O   UNL     1      -5.756  33.659  50.624  1.00  0.00    -0.300 OA
ATOM     19  C   UNL     1      -6.843  34.734  48.839  1.00  0.00     0.087 C 
ENDBRANCH  16  17
ENDBRANCH  15  16
ENDBRANCH  13  15
ENDBRANCH  11  12
ENDBRANCH   1  11
TORSDOF 9
ENDMDL
MODEL 6
REMARK VINA RESULT:    -4.191      1.511      2.735
REMARK INTER + INTRA:          -8.514
REMARK INTER:                  -6.020
REMARK INTRA:                  -2.494
REMARK UNBOUND:                -2.118
REMARK SMILES CC(=O)CCC=C(C)CCC=C(C)CCC=C(C)C
REMARK SMILES IDX 10 1 11 2 12 3 13 4 14 5 15 6 16 7 18 8 17 9 19 10 9 11 7 12
REMARK SMILES IDX 6 13 8 14 5 15 4 16 2 17 3 18 1 19
REMARK H PARENT
REMARK Flexibility Score: inf
ROOT
ATOM      1  C   UNL     1      -4.544  32.438  43.908  1.00  0.00     0.032 C 
ENDROOT
BRANCH   1   2
ATOM      2  C   UNL     1      -4.277  31.428  44.993  1.00  0.00    -0.028 C 
ATOM      3  C   UNL     1      -4.138  30.098  44.791  1.00  0.00    -0.077 C 
ATOM      4  C   UNL     1      -4.174  29.491  43.408  1.00  0.00     0.039 C 
BRANCH   3   5
ATOM      5  C   UNL     1      -3.941  29.189  45.986  1.00  0.00     0.034 C 
BRANCH   5   6
ATOM      6  C   UNL     1      -5.169  29.179  46.906  1.00  0.00     0.032 C 
BRANCH   6   7
ATOM      7  C   UNL     1      -6.444  28.943  46.127  1.00  0.00    -0.028 C 
ATOM      8  C   UNL     1      -6.220  26.447  46.170  1.00  0.00     0.039 C 
ATOM      9  C   UNL     1      -6.907  27.726  45.759  1.00  0.00    -0.080 C 
ATOM     10  C   UNL     1      -8.143  27.658  44.903  1.00  0.00     0.039 C 
ENDBRANCH   6   7
ENDBRANCH   5   6
ENDBRANCH   3   5
ENDBRANCH   1   2
BRANCH   1  11
ATOM     11  C   UNL     1      -5.794  33.271  44.228  1.00  0.00     0.034 C 
BRANCH  11  12
ATOM     12  C   UNL     1      -6.999  32.377  44.443  1.00  0.00    -0.077 C 
ATOM     13  C   UNL     1      -7.712  32.378  45.596  1.00  0.00    -0.028 C 
ATOM     14  C   UNL     1      -7.430  31.458  43.329  1.00  0.00     0.039 C 
BRANCH  13  15
ATOM     15  C   UNL     1      -7.357  33.190  46.821  1.00  0.00     0.035 C 
BRANCH  15  16
ATOM     16  C   UNL     1      -6.558  32.346  47.819  1.00  0.00     0.079 C 
BRANCH  16  17
ATOM     17  C   UNL     1      -5.702  33.235  48.684  1.00  0.00     0.130 C 
ATOM     18  O   UNL     1      -6.141  33.639  49.751  1.00  0.00    -0.300 OA
ATOM     19  C   UNL     1      -4.312  33.621  48.275  1.00  0.00     0.087 C 
ENDBRANCH  16  17
ENDBRANCH  15  16
ENDBRANCH  13  15
ENDBRANCH  11  12
ENDBRANCH   1  11
TORSDOF 9
ENDMDL
MODEL 7
REMARK VINA RESULT:    -4.116      1.969      5.972
REMARK INTER + INTRA:          -8.399
REMARK INTER:                  -6.312
REMARK INTRA:                  -2.087
REMARK UNBOUND:                -2.118
REMARK SMILES CC(=O)CCC=C(C)CCC=C(C)CCC=C(C)C
REMARK SMILES IDX 10 1 11 2 12 3 13 4 14 5 15 6 16 7 18 8 17 9 19 10 9 11 7 12
REMARK SMILES IDX 6 13 8 14 5 15 4 16 2 17 3 18 1 19
REMARK H PARENT
REMARK Flexibility Score: inf
ROOT
ATOM      1  C   UNL     1      -7.304  27.347  45.742  1.00  0.00     0.032 C 
ENDROOT
BRANCH   1   2
ATOM      2  C   UNL     1      -6.369  28.429  46.214  1.00  0.00    -0.028 C 
ATOM      3  C   UNL     1      -6.747  29.686  46.542  1.00  0.00    -0.077 C 
ATOM      4  C   UNL     1      -8.195  30.115  46.525  1.00  0.00     0.039 C 
BRANCH   3   5
ATOM      5  C   UNL     1      -5.688  30.694  46.935  1.00  0.00     0.034 C 
BRANCH   5   6
ATOM      6  C   UNL     1      -6.185  32.137  46.784  1.00  0.00     0.032 C 
BRANCH   6   7
ATOM      7  C   UNL     1      -6.452  32.776  48.129  1.00  0.00    -0.028 C 
ATOM      8  C   UNL     1      -4.091  33.564  48.423  1.00  0.00     0.039 C 
ATOM      9  C   UNL     1      -5.514  33.386  48.890  1.00  0.00    -0.080 C 
ATOM     10  C   UNL     1      -5.914  33.893  50.250  1.00  0.00     0.039 C 
ENDBRANCH   6   7
ENDBRANCH   5   6
ENDBRANCH   3   5
ENDBRANCH   1   2
BRANCH   1  11
ATOM     11  C   UNL     1      -7.340  27.282  44.208  1.00  0.00     0.034 C 
BRANCH  11  12
ATOM     12  C   UNL     1      -8.484  28.112  43.659  1.00  0.00    -0.077 C 
ATOM     13  C   UNL     1      -8.294  29.123  42.776  1.00  0.00    -0.028 C 
ATOM     14  C   UNL     1      -9.889  27.796  44.102  1.00  0.00     0.039 C 
BRANCH  13  15
ATOM     15  C   UNL     1      -6.940  29.599  42.299  1.00  0.00     0.035 C 
BRANCH  15  16
ATOM     16  C   UNL     1      -6.577  30.939  42.948  1.00  0.00     0.079 C 
BRANCH  16  17
ATOM     17  C   UNL     1      -5.127  30.941  43.360  1.00  0.00     0.130 C 
ATOM     18  O   UNL     1      -4.539  29.878  43.496  1.00  0.00    -0.300 OA
ATOM     19  C   UNL     1      -4.380  32.221  43.589  1.00  0.00     0.087 C 
ENDBRANCH  16  17
ENDBRANCH  15  16
ENDBRANCH  13  15
ENDBRANCH  11  12
ENDBRANCH   1  11
TORSDOF 9
ENDMDL
MODEL 8
REMARK VINA RESULT:    -4.071      2.455      4.447
REMARK INTER + INTRA:          -8.331
REMARK INTER:                  -6.205
REMARK INTRA:                  -2.126
REMARK UNBOUND:                -2.118
REMARK SMILES CC(=O)CCC=C(C)CCC=C(C)CCC=C(C)C
REMARK SMILES IDX 10 1 11 2 12 3 13 4 14 5 15 6 16 7 18 8 17 9 19 10 9 11 7 12
REMARK SMILES IDX 6 13 8 14 5 15 4 16 2 17 3 18 1 19
REMARK H PARENT
REMARK Flexibility Score: inf
ROOT
ATOM      1  C   UNL     1      -6.378  26.834  45.303  1.00  0.00     0.032 C 
ENDROOT
BRANCH   1   2
ATOM      2  C   UNL     1      -7.762  27.369  45.044  1.00  0.00    -0.028 C 
ATOM      3  C   UNL     1      -8.094  28.178  44.011  1.00  0.00    -0.077 C 
ATOM      4  C   UNL     1      -7.092  28.579  42.955  1.00  0.00     0.039 C 
BRANCH   3   5
ATOM      5  C   UNL     1      -9.513  28.697  43.912  1.00  0.00     0.034 C 
BRANCH   5   6
ATOM      6  C   UNL     1     -10.545  27.564  43.998  1.00  0.00     0.032 C 
BRANCH   6   7
ATOM      7  C   UNL     1     -10.590  26.756  42.720  1.00  0.00    -0.028 C 
ATOM      8  C   UNL     1     -13.093  26.782  42.582  1.00  0.00     0.039 C 
ATOM      9  C   UNL     1     -11.726  26.368  42.096  1.00  0.00    -0.080 C 
ATOM     10  C   UNL     1     -11.610  25.486  40.881  1.00  0.00     0.039 C 
ENDBRANCH   6   7
ENDBRANCH   5   6
ENDBRANCH   3   5
ENDBRANCH   1   2
BRANCH   1  11
ATOM     11  C   UNL     1      -5.722  27.558  46.488  1.00  0.00     0.034 C 
BRANCH  11  12
ATOM     12  C   UNL     1      -5.050  28.839  46.034  1.00  0.00    -0.077 C 
ATOM     13  C   UNL     1      -5.394  30.056  46.522  1.00  0.00    -0.028 C 
ATOM     14  C   UNL     1      -3.949  28.757  45.009  1.00  0.00     0.039 C 
BRANCH  13  15
ATOM     15  C   UNL     1      -6.525  30.299  47.496  1.00  0.00     0.035 C 
BRANCH  15  16
ATOM     16  C   UNL     1      -7.833  30.582  46.750  1.00  0.00     0.079 C 
BRANCH  16  17
ATOM     17  C   UNL     1      -7.747  31.906  46.035  1.00  0.00     0.130 C 
ATOM     18  O   UNL     1      -7.594  32.931  46.684  1.00  0.00    -0.300 OA
ATOM     19  C   UNL     1      -7.827  31.995  44.541  1.00  0.00     0.087 C 
ENDBRANCH  16  17
ENDBRANCH  15  16
ENDBRANCH  13  15
ENDBRANCH  11  12
ENDBRANCH   1  11
TORSDOF 9
ENDMDL
MODEL 9
REMARK VINA RESULT:    -3.989      2.281      4.218
REMARK INTER + INTRA:          -8.205
REMARK INTER:                  -5.343
REMARK INTRA:                  -2.863
REMARK UNBOUND:                -2.118
REMARK SMILES CC(=O)CCC=C(C)CCC=C(C)CCC=C(C)C
REMARK SMILES IDX 10 1 11 2 12 3 13 4 14 5 15 6 16 7 18 8 17 9 19 10 9 11 7 12
REMARK SMILES IDX 6 13 8 14 5 15 4 16 2 17 3 18 1 19
REMARK H PARENT
REMARK Flexibility Score: inf
ROOT
ATOM      1  C   UNL     1      -7.629  30.809  47.247  1.00  0.00     0.032 C 
ENDROOT
BRANCH   1   2
ATOM      2  C   UNL     1      -7.785  29.888  46.065  1.00  0.00    -0.028 C 
ATOM      3  C   UNL     1      -8.338  30.239  44.881  1.00  0.00    -0.077 C 
ATOM      4  C   UNL     1      -8.805  31.649  44.604  1.00  0.00     0.039 C 
BRANCH   3   5
ATOM      5  C   UNL     1      -8.493  29.189  43.802  1.00  0.00     0.034 C 
BRANCH   5   6
ATOM      6  C   UNL     1      -8.506  27.769  44.383  1.00  0.00     0.032 C 
BRANCH   6   7
ATOM      7  C   UNL     1      -7.332  26.955  43.888  1.00  0.00    -0.028 C 
ATOM      8  C   UNL     1      -6.502  26.418  46.191  1.00  0.00     0.039 C 
ATOM      9  C   UNL     1      -6.406  26.375  44.686  1.00  0.00    -0.080 C 
ATOM     10  C   UNL     1      -5.240  25.675  44.041  1.00  0.00     0.039 C 
ENDBRANCH   6   7
ENDBRANCH   5   6
ENDBRANCH   3   5
ENDBRANCH   1   2
BRANCH   1  11
ATOM     11  C   UNL     1      -6.187  31.329  47.350  1.00  0.00     0.034 C 
BRANCH  11  12
ATOM     12  C   UNL     1      -6.079  32.737  46.798  1.00  0.00    -0.077 C 
ATOM     13  C   UNL     1      -5.271  33.052  45.757  1.00  0.00    -0.028 C 
ATOM     14  C   UNL     1      -6.910  33.828  47.423  1.00  0.00     0.039 C 
BRANCH  13  15
ATOM     15  C   UNL     1      -4.330  32.082  45.080  1.00  0.00     0.035 C 
BRANCH  15  16
ATOM     16  C   UNL     1      -4.981  31.475  43.832  1.00  0.00     0.079 C 
BRANCH  16  17
ATOM     17  C   UNL     1      -4.761  29.984  43.804  1.00  0.00     0.130 C 
ATOM     18  O   UNL     1      -5.029  29.356  42.790  1.00  0.00    -0.300 OA
ATOM     19  C   UNL     1      -4.200  29.253  44.987  1.00  0.00     0.087 C 
ENDBRANCH  16  17
ENDBRANCH  15  16
ENDBRANCH  13  15
ENDBRANCH  11  12
ENDBRANCH   1  11
TORSDOF 9
ENDMDL
