MODEL 1
REMARK VINA RESULT:    91.176      0.000      0.000
REMARK INTER + INTRA:          99.869
REMARK INTER:                  99.171
REMARK INTRA:                   0.698
REMARK UNBOUND:                 0.698
REMARK SMILES C[C@@H]1[C@@H](C)CC[C@]2(C(=O)[O-])CC[C@]3(C)C(=CC[C@@H]4[C@@]5(C)CC[C@@H](O)C(C)(C)[C@H]5CC[C@@]43C)[C@@H]12
REMARK SMILES IDX 7 1 6 2 11 3 33 4 5 5 12 6 15 7 2 8 3 9 13 10 16 11 1 12
REMARK SMILES IDX 4 13 14 14 31 15 17 16 18 17 30 18 32 19 19 20 29 21 28 22
REMARK SMILES IDX 21 23 20 24 25 25 22 26 23 27 26 28 27 29 8 30 9 31 10 32
REMARK SMILES IDX 24 33
REMARK H PARENT 24 34
REMARK Flexibility Score: inf
ROOT
ATOM      1  C   UNL     1      -8.122 -48.986   4.461  1.00  0.00     0.017 C 
ATOM      2  C   UNL     1      -9.030 -48.554   5.632  1.00  0.00     0.014 C 
ATOM      3  C   UNL     1      -9.025 -49.274   3.232  1.00  0.00     0.014 C 
ATOM      4  C   UNL     1      -7.389 -50.319   4.797  1.00  0.00     0.030 C 
ATOM      5  C   UNL     1      -8.228 -48.382   6.919  1.00  0.00     0.004 C 
ATOM      6  C   UNL     1      -8.195 -49.631   1.990  1.00  0.00     0.013 C 
ATOM      7  C   UNL     1      -6.509 -50.732   3.580  1.00  0.00    -0.063 C 
ATOM      8  C   UNL     1      -6.725 -50.366   6.228  1.00  0.00    -0.003 C 
ATOM      9  C   UNL     1      -7.615 -49.719   7.343  1.00  0.00    -0.011 C 
ATOM     10  C   UNL     1      -7.153 -50.807   2.170  1.00  0.00    -0.006 C 
ATOM     11  C   UNL     1      -5.295 -51.285   3.766  1.00  0.00    -0.027 C 
ATOM     12  C   UNL     1      -6.429 -51.834   6.654  1.00  0.00     0.008 C 
ATOM     13  C   UNL     1      -6.825 -49.522   8.649  1.00  0.00     0.008 C 
ATOM     14  C   UNL     1      -8.005 -52.121   2.184  1.00  0.00     0.017 C 
ATOM     15  C   UNL     1      -6.027 -50.804   0.952  1.00  0.00    -0.020 C 
ATOM     16  C   UNL     1      -4.649 -52.116   2.713  1.00  0.00     0.032 C 
ATOM     17  C   UNL     1      -4.583 -51.362   1.378  1.00  0.00     0.006 C 
ATOM     18  C   UNL     1      -5.849 -49.378   0.320  1.00  0.00     0.008 C 
ATOM     19  C   UNL     1      -6.548 -51.707  -0.217  1.00  0.00     0.012 C 
ATOM     20  C   UNL     1      -3.334 -50.369   1.292  1.00  0.00    -0.025 C 
ATOM     21  C   UNL     1      -4.701 -49.248  -0.676  1.00  0.00     0.005 C 
ATOM     22  C   UNL     1      -3.302 -49.593  -0.100  1.00  0.00     0.003 C 
ATOM     23  C   UNL     1      -1.999 -51.181   1.475  1.00  0.00     0.010 C 
ATOM     24  C   UNL     1      -3.360 -49.333   2.468  1.00  0.00     0.012 C 
ATOM     25  C   UNL     1      -2.311 -50.174  -1.197  1.00  0.00    -0.006 C 
ATOM     26  C   UNL     1      -0.776 -50.453   0.923  1.00  0.00     0.033 C 
ATOM     27  C   UNL     1      -0.851 -50.245  -0.606  1.00  0.00     0.120 C 
ATOM     28  C   UNL     1      -2.770 -51.558  -1.748  1.00  0.00     0.014 C 
ATOM     29  C   UNL     1      -2.259 -49.211  -2.416  1.00  0.00     0.014 C 
ENDROOT
BRANCH   1  30
ATOM     30  C   UNL     1      -7.157 -47.840   4.156  1.00  0.00     0.048 C 
ATOM     31  O   UNL     1      -5.971 -48.089   3.809  1.00  0.00    -0.550 OA
ATOM     32  O   UNL     1      -7.581 -46.518   4.181  1.00  0.00    -0.550 OA
ENDBRANCH   1  30
BRANCH  27  33
ATOM     33  O   UNL     1      -0.049 -51.182  -1.287  1.00  0.00    -0.393 OA
ATOM     34  H   UNL     1       0.632 -50.682  -1.808  1.00  0.00     0.210 HD
ENDBRANCH  27  33
TORSDOF 2
ENDMDL
