MODEL 1
REMARK VINA RESULT:    -2.838      0.000      0.000
REMARK INTER + INTRA:          -3.362
REMARK INTER:                  -3.253
REMARK INTRA:                  -0.109
REMARK UNBOUND:                -0.109
REMARK SMILES C=Cc1ccc(O)c(OC)c1
REMARK SMILES IDX 8 1 6 2 5 3 4 4 3 5 11 6 9 7 10 8 7 9 2 11 1 12
REMARK H PARENT 7 10
REMARK Flexibility Score: inf
ROOT
ATOM      1  C   UNL     1     118.526 111.914 108.256  1.00  0.00     0.161 A 
ATOM      2  C   UNL     1     118.645 111.430 109.565  1.00  0.00     0.157 A 
ATOM      3  C   UNL     1     119.134 110.138 109.794  1.00  0.00     0.051 A 
ATOM      4  C   UNL     1     119.501 109.324 108.723  1.00  0.00     0.012 A 
ATOM      5  C   UNL     1     119.375 109.781 107.402  1.00  0.00    -0.022 A 
ATOM      6  C   UNL     1     118.897 111.088 107.176  1.00  0.00     0.058 A 
ENDROOT
BRANCH   1   7
ATOM      7  O   UNL     1     118.041 113.218 108.068  1.00  0.00    -0.493 OA
ATOM      8  C   UNL     1     116.804 113.539 107.438  1.00  0.00     0.278 C 
ENDBRANCH   1   7
BRANCH   2   9
ATOM      9  O   UNL     1     118.278 112.242 110.636  1.00  0.00    -0.504 OA
ATOM     10  H   UNL     1     117.487 112.014 111.229  1.00  0.00     0.293 HD
ENDBRANCH   2   9
BRANCH   5  11
ATOM     11  C   UNL     1     119.785 108.876 106.299  1.00  0.00     0.000 C 
ATOM     12  C   UNL     1     120.927 108.188 106.280  1.00  0.00     0.009 C 
ENDBRANCH   5  11
TORSDOF 3
ENDMDL
MODEL 2
REMARK VINA RESULT:    -2.837      7.143      8.850
REMARK INTER + INTRA:          -3.360
REMARK INTER:                  -3.248
REMARK INTRA:                  -0.112
REMARK UNBOUND:                -0.109
REMARK SMILES C=Cc1ccc(O)c(OC)c1
REMARK SMILES IDX 8 1 6 2 5 3 4 4 3 5 11 6 9 7 10 8 7 9 2 11 1 12
REMARK H PARENT 7 10
REMARK Flexibility Score: inf
ROOT
ATOM      1  C   UNL     1     111.867 113.344 108.251  1.00  0.00     0.161 A 
ATOM      2  C   UNL     1     111.394 113.338 109.570  1.00  0.00     0.157 A 
ATOM      3  C   UNL     1     110.079 112.944 109.842  1.00  0.00     0.051 A 
ATOM      4  C   UNL     1     109.229 112.562 108.804  1.00  0.00     0.012 A 
ATOM      5  C   UNL     1     109.675 112.576 107.473  1.00  0.00    -0.022 A 
ATOM      6  C   UNL     1     111.005 112.958 107.204  1.00  0.00     0.058 A 
ENDROOT
BRANCH   1   7
ATOM      7  O   UNL     1     113.196 113.736 108.021  1.00  0.00    -0.493 OA
ATOM      8  C   UNL     1     113.591 115.025 107.563  1.00  0.00     0.278 C 
ENDBRANCH   1   7
BRANCH   2   9
ATOM      9  O   UNL     1     112.241 113.721 110.608  1.00  0.00    -0.504 OA
ATOM     10  H   UNL     1     111.922 114.321 111.360  1.00  0.00     0.293 HD
ENDBRANCH   2   9
BRANCH   5  11
ATOM     11  C   UNL     1     108.732 112.153 106.407  1.00  0.00     0.000 C 
ATOM     12  C   UNL     1     107.925 111.095 106.497  1.00  0.00     0.009 C 
ENDBRANCH   5  11
TORSDOF 3
ENDMDL
MODEL 3
REMARK VINA RESULT:    -2.830      7.418      8.878
REMARK INTER + INTRA:          -3.352
REMARK INTER:                  -3.239
REMARK INTRA:                  -0.113
REMARK UNBOUND:                -0.109
REMARK SMILES C=Cc1ccc(O)c(OC)c1
REMARK SMILES IDX 8 1 6 2 5 3 4 4 3 5 11 6 9 7 10 8 7 9 2 11 1 12
REMARK H PARENT 7 10
REMARK Flexibility Score: inf
ROOT
ATOM      1  C   UNL     1     120.231 118.590 108.251  1.00  0.00     0.161 A 
ATOM      2  C   UNL     1     120.664 118.692 109.579  1.00  0.00     0.157 A 
ATOM      3  C   UNL     1     121.940 119.193 109.865  1.00  0.00     0.051 A 
ATOM      4  C   UNL     1     122.790 119.588 108.832  1.00  0.00     0.012 A 
ATOM      5  C   UNL     1     122.384 119.480 107.493  1.00  0.00    -0.022 A 
ATOM      6  C   UNL     1     121.093 118.990 107.209  1.00  0.00     0.058 A 
ENDROOT
BRANCH   1   7
ATOM      7  O   UNL     1     118.941 118.093 108.006  1.00  0.00    -0.493 OA
ATOM      8  C   UNL     1     118.660 116.810 107.453  1.00  0.00     0.278 C 
ENDBRANCH   1   7
BRANCH   2   9
ATOM      9  O   UNL     1     119.817 118.296 110.612  1.00  0.00    -0.504 OA
ATOM     10  H   UNL     1     118.972 118.812 110.834  1.00  0.00     0.293 HD
ENDBRANCH   2   9
BRANCH   5  11
ATOM     11  C   UNL     1     123.324 119.920 106.432  1.00  0.00     0.000 C 
ATOM     12  C   UNL     1     124.128 120.980 106.536  1.00  0.00     0.009 C 
ENDBRANCH   5  11
TORSDOF 3
ENDMDL
MODEL 4
REMARK VINA RESULT:    -2.825      9.016     12.518
REMARK INTER + INTRA:          -3.347
REMARK INTER:                  -3.231
REMARK INTRA:                  -0.116
REMARK UNBOUND:                -0.109
REMARK SMILES C=Cc1ccc(O)c(OC)c1
REMARK SMILES IDX 8 1 6 2 5 3 4 4 3 5 11 6 9 7 10 8 7 9 2 11 1 12
REMARK H PARENT 7 10
REMARK Flexibility Score: inf
ROOT
ATOM      1  C   UNL     1     113.368 120.148 108.247  1.00  0.00     0.161 A 
ATOM      2  C   UNL     1     113.309 120.622 109.564  1.00  0.00     0.157 A 
ATOM      3  C   UNL     1     112.852 121.919 109.823  1.00  0.00     0.051 A 
ATOM      4  C   UNL     1     112.458 122.751 108.775  1.00  0.00     0.012 A 
ATOM      5  C   UNL     1     112.524 122.304 107.446  1.00  0.00    -0.022 A 
ATOM      6  C   UNL     1     112.970 120.992 107.189  1.00  0.00     0.058 A 
ENDROOT
BRANCH   1   7
ATOM      7  O   UNL     1     113.823 118.838 108.028  1.00  0.00    -0.493 OA
ATOM      8  C   UNL     1     115.137 118.499 107.598  1.00  0.00     0.278 C 
ENDBRANCH   1   7
BRANCH   2   9
ATOM      9  O   UNL     1     113.703 119.793 110.612  1.00  0.00    -0.504 OA
ATOM     10  H   UNL     1     114.498 120.021 111.199  1.00  0.00     0.293 HD
ENDBRANCH   2   9
BRANCH   5  11
ATOM     11  C   UNL     1     112.087 123.227 106.368  1.00  0.00     0.000 C 
ATOM     12  C   UNL     1     111.185 124.197 106.532  1.00  0.00     0.009 C 
ENDBRANCH   5  11
TORSDOF 3
ENDMDL
MODEL 5
REMARK VINA RESULT:    -2.720     10.717     11.952
REMARK INTER + INTRA:          -3.226
REMARK INTER:                  -3.117
REMARK INTRA:                  -0.109
REMARK UNBOUND:                -0.109
REMARK SMILES C=Cc1ccc(O)c(OC)c1
REMARK SMILES IDX 8 1 6 2 5 3 4 4 3 5 11 6 9 7 10 8 7 9 2 11 1 12
REMARK H PARENT 7 10
REMARK Flexibility Score: inf
ROOT
ATOM      1  C   UNL     1     123.578 120.136 108.186  1.00  0.00     0.161 A 
ATOM      2  C   UNL     1     123.450 120.453 109.544  1.00  0.00     0.157 A 
ATOM      3  C   UNL     1     124.106 121.573 110.069  1.00  0.00     0.051 A 
ATOM      4  C   UNL     1     124.894 122.377 109.246  1.00  0.00     0.012 A 
ATOM      5  C   UNL     1     125.051 122.071 107.885  1.00  0.00    -0.022 A 
ATOM      6  C   UNL     1     124.376 120.951 107.357  1.00  0.00     0.058 A 
ENDROOT
BRANCH   1   7
ATOM      7  O   UNL     1     122.897 119.010 107.696  1.00  0.00    -0.493 OA
ATOM      8  C   UNL     1     121.618 119.047 107.071  1.00  0.00     0.278 C 
ENDBRANCH   1   7
BRANCH   2   9
ATOM      9  O   UNL     1     122.665 119.649 110.368  1.00  0.00    -0.504 OA
ATOM     10  H   UNL     1     121.998 120.047 111.020  1.00  0.00     0.293 HD
ENDBRANCH   2   9
BRANCH   5  11
ATOM     11  C   UNL     1     125.895 122.963 107.053  1.00  0.00     0.000 C 
ATOM     12  C   UNL     1     126.125 124.249 107.327  1.00  0.00     0.009 C 
ENDBRANCH   5  11
TORSDOF 3
ENDMDL
MODEL 6
REMARK VINA RESULT:    -2.714      2.828      3.863
REMARK INTER + INTRA:          -3.219
REMARK INTER:                  -3.102
REMARK INTRA:                  -0.117
REMARK UNBOUND:                -0.109
REMARK SMILES C=Cc1ccc(O)c(OC)c1
REMARK SMILES IDX 8 1 6 2 5 3 4 4 3 5 11 6 9 7 10 8 7 9 2 11 1 12
REMARK H PARENT 7 10
REMARK Flexibility Score: inf
ROOT
ATOM      1  C   UNL     1     120.132 108.408 108.176  1.00  0.00     0.161 A 
ATOM      2  C   UNL     1     120.422 108.600 109.533  1.00  0.00     0.157 A 
ATOM      3  C   UNL     1     121.539 107.981 110.107  1.00  0.00     0.051 A 
ATOM      4  C   UNL     1     122.367 107.166 109.334  1.00  0.00     0.012 A 
ATOM      5  C   UNL     1     122.088 106.946 107.977  1.00  0.00    -0.022 A 
ATOM      6  C   UNL     1     120.971 107.583 107.399  1.00  0.00     0.058 A 
ENDROOT
BRANCH   1   7
ATOM      7  O   UNL     1     119.008 109.054 107.636  1.00  0.00    -0.493 OA
ATOM      8  C   UNL     1     119.060 110.220 106.820  1.00  0.00     0.278 C 
ENDBRANCH   1   7
BRANCH   2   9
ATOM      9  O   UNL     1     119.594 109.412 110.306  1.00  0.00    -0.504 OA
ATOM     10  H   UNL     1     119.062 110.172 109.897  1.00  0.00     0.293 HD
ENDBRANCH   2   9
BRANCH   5  11
ATOM     11  C   UNL     1     123.004 106.076 107.199  1.00  0.00     0.000 C 
ATOM     12  C   UNL     1     124.288 105.878 107.503  1.00  0.00     0.009 C 
ENDBRANCH   5  11
TORSDOF 3
ENDMDL
MODEL 7
REMARK VINA RESULT:    -2.706     13.675     15.996
REMARK INTER + INTRA:          -3.211
REMARK INTER:                  -3.106
REMARK INTRA:                  -0.105
REMARK UNBOUND:                -0.109
REMARK SMILES C=Cc1ccc(O)c(OC)c1
REMARK SMILES IDX 8 1 6 2 5 3 4 4 3 5 11 6 9 7 10 8 7 9 2 11 1 12
REMARK H PARENT 7 10
REMARK Flexibility Score: inf
ROOT
ATOM      1  C   UNL     1     111.848 123.620 108.187  1.00  0.00     0.161 A 
ATOM      2  C   UNL     1     111.497 123.465 109.535  1.00  0.00     0.157 A 
ATOM      3  C   UNL     1     110.366 124.112 110.045  1.00  0.00     0.051 A 
ATOM      4  C   UNL     1     109.582 124.919 109.218  1.00  0.00     0.012 A 
ATOM      5  C   UNL     1     109.923 125.102 107.869  1.00  0.00    -0.022 A 
ATOM      6  C   UNL     1     111.054 124.437 107.355  1.00  0.00     0.058 A 
ENDROOT
BRANCH   1   7
ATOM      7  O   UNL     1     112.984 122.947 107.712  1.00  0.00    -0.493 OA
ATOM      8  C   UNL     1     114.264 123.547 107.534  1.00  0.00     0.278 C 
ENDBRANCH   1   7
BRANCH   2   9
ATOM      9  O   UNL     1     112.280 122.662 110.362  1.00  0.00    -0.504 OA
ATOM     10  H   UNL     1     112.037 122.505 111.334  1.00  0.00     0.293 HD
ENDBRANCH   2   9
BRANCH   5  11
ATOM     11  C   UNL     1     109.052 125.965 107.032  1.00  0.00     0.000 C 
ATOM     12  C   UNL     1     107.779 125.690 106.744  1.00  0.00     0.009 C 
ENDBRANCH   5  11
TORSDOF 3
ENDMDL
MODEL 8
REMARK VINA RESULT:    -2.706      9.732     11.173
REMARK INTER + INTRA:          -3.210
REMARK INTER:                  -3.100
REMARK INTRA:                  -0.110
REMARK UNBOUND:                -0.109
REMARK SMILES C=Cc1ccc(O)c(OC)c1
REMARK SMILES IDX 8 1 6 2 5 3 4 4 3 5 11 6 9 7 10 8 7 9 2 11 1 12
REMARK H PARENT 7 10
REMARK Flexibility Score: inf
ROOT
ATOM      1  C   UNL     1     108.424 111.877 108.163  1.00  0.00     0.161 A 
ATOM      2  C   UNL     1     108.567 111.526 109.512  1.00  0.00     0.157 A 
ATOM      3  C   UNL     1     107.918 110.392 110.015  1.00  0.00     0.051 A 
ATOM      4  C   UNL     1     107.120 109.609 109.180  1.00  0.00     0.012 A 
ATOM      5  C   UNL     1     106.948 109.950 107.830  1.00  0.00    -0.022 A 
ATOM      6  C   UNL     1     107.616 111.084 107.323  1.00  0.00     0.058 A 
ENDROOT
BRANCH   1   7
ATOM      7  O   UNL     1     109.099 113.016 107.695  1.00  0.00    -0.493 OA
ATOM      8  C   UNL     1     110.331 112.988 106.980  1.00  0.00     0.278 C 
ENDBRANCH   1   7
BRANCH   2   9
ATOM      9  O   UNL     1     109.362 112.308 110.347  1.00  0.00    -0.504 OA
ATOM     10  H   UNL     1     110.374 112.302 110.277  1.00  0.00     0.293 HD
ENDBRANCH   2   9
BRANCH   5  11
ATOM     11  C   UNL     1     106.094 109.079 106.984  1.00  0.00     0.000 C 
ATOM     12  C   UNL     1     106.178 107.748 106.956  1.00  0.00     0.009 C 
ENDBRANCH   5  11
TORSDOF 3
ENDMDL
MODEL 9
REMARK VINA RESULT:    -2.679      8.082      9.501
REMARK INTER + INTRA:          -3.179
REMARK INTER:                  -3.062
REMARK INTRA:                  -0.117
REMARK UNBOUND:                -0.109
REMARK SMILES C=Cc1ccc(O)c(OC)c1
REMARK SMILES IDX 8 1 6 2 5 3 4 4 3 5 11 6 9 7 10 8 7 9 2 11 1 12
REMARK H PARENT 7 10
REMARK Flexibility Score: inf
ROOT
ATOM      1  C   UNL     1     123.106 117.472 107.851  1.00  0.00     0.161 A 
ATOM      2  C   UNL     1     122.014 117.233 108.695  1.00  0.00     0.157 A 
ATOM      3  C   UNL     1     121.608 118.211 109.611  1.00  0.00     0.051 A 
ATOM      4  C   UNL     1     122.289 119.425 109.694  1.00  0.00     0.012 A 
ATOM      5  C   UNL     1     123.397 119.680 108.870  1.00  0.00    -0.022 A 
ATOM      6  C   UNL     1     123.793 118.700 107.938  1.00  0.00     0.058 A 
ENDROOT
BRANCH   1   7
ATOM      7  O   UNL     1     123.476 116.470 106.939  1.00  0.00    -0.493 OA
ATOM      8  C   UNL     1     124.564 115.569 107.124  1.00  0.00     0.278 C 
ENDBRANCH   1   7
BRANCH   2   9
ATOM      9  O   UNL     1     121.333 116.020 108.614  1.00  0.00    -0.504 OA
ATOM     10  H   UNL     1     120.477 115.926 108.079  1.00  0.00     0.293 HD
ENDBRANCH   2   9
BRANCH   5  11
ATOM     11  C   UNL     1     124.082 120.991 108.995  1.00  0.00     0.000 C 
ATOM     12  C   UNL     1     124.045 121.755 110.087  1.00  0.00     0.009 C 
ENDBRANCH   5  11
TORSDOF 3
ENDMDL
