MODEL 1
REMARK VINA RESULT:    -6.479      0.000      0.000
REMARK INTER + INTRA:         -10.103
REMARK INTER:                  -8.752
REMARK INTRA:                  -1.351
REMARK UNBOUND:                -1.351
REMARK SMILES CC(=O)CCC=C(C)CCC=C(C)C
REMARK SMILES IDX 7 1 6 2 8 3 9 4 10 5 11 6 13 7 12 8 14 9 5 10 4 11 2 12 3 13
REMARK SMILES IDX 1 14
REMARK H PARENT
REMARK Flexibility Score: inf
ROOT
ATOM      1  C   UNL     1     108.142  51.135  63.267  1.00  0.00    -0.077 C 
ATOM      2  C   UNL     1     107.267  50.528  64.102  1.00  0.00    -0.028 C 
ATOM      3  C   UNL     1     107.598  52.086  62.232  1.00  0.00     0.039 C 
ENDROOT
BRANCH   1   4
ATOM      4  C   UNL     1     109.644  50.926  63.351  1.00  0.00     0.034 C 
BRANCH   4   5
ATOM      5  C   UNL     1     110.233  50.461  62.010  1.00  0.00     0.032 C 
BRANCH   5   6
ATOM      6  C   UNL     1     110.231  48.957  61.885  1.00  0.00    -0.028 C 
ATOM      7  C   UNL     1     108.068  48.895  60.622  1.00  0.00     0.039 C 
ATOM      8  C   UNL     1     109.287  48.245  61.230  1.00  0.00    -0.080 C 
ATOM      9  C   UNL     1     109.408  46.745  61.142  1.00  0.00     0.039 C 
ENDBRANCH   5   6
ENDBRANCH   4   5
ENDBRANCH   1   4
BRANCH   2  10
ATOM     10  C   UNL     1     107.639  49.509  65.149  1.00  0.00     0.035 C 
BRANCH  10  11
ATOM     11  C   UNL     1     107.831  48.127  64.515  1.00  0.00     0.079 C 
BRANCH  11  12
ATOM     12  C   UNL     1     108.977  47.397  65.165  1.00  0.00     0.130 C 
ATOM     13  O   UNL     1     109.516  47.880  66.150  1.00  0.00    -0.300 OA
ATOM     14  C   UNL     1     109.482  46.093  64.623  1.00  0.00     0.087 C 
ENDBRANCH  11  12
ENDBRANCH  10  11
ENDBRANCH   2  10
TORSDOF 6
ENDMDL
MODEL 2
REMARK VINA RESULT:    -6.213      0.966      3.390
REMARK INTER + INTRA:          -9.743
REMARK INTER:                  -8.746
REMARK INTRA:                  -0.998
REMARK UNBOUND:                -1.351
REMARK SMILES CC(=O)CCC=C(C)CCC=C(C)C
REMARK SMILES IDX 7 1 6 2 8 3 9 4 10 5 11 6 13 7 12 8 14 9 5 10 4 11 2 12 3 13
REMARK SMILES IDX 1 14
REMARK H PARENT
REMARK Flexibility Score: inf
ROOT
ATOM      1  C   UNL     1     109.139  48.227  61.476  1.00  0.00    -0.077 C 
ATOM      2  C   UNL     1     109.004  47.114  62.232  1.00  0.00    -0.028 C 
ATOM      3  C   UNL     1     108.149  48.460  60.363  1.00  0.00     0.039 C 
ENDROOT
BRANCH   1   4
ATOM      4  C   UNL     1     110.220  49.266  61.722  1.00  0.00     0.034 C 
BRANCH   4   5
ATOM      5  C   UNL     1     109.721  50.410  62.618  1.00  0.00     0.032 C 
BRANCH   5   6
ATOM      6  C   UNL     1     109.124  51.538  61.812  1.00  0.00    -0.028 C 
ATOM      7  C   UNL     1     106.768  50.971  62.446  1.00  0.00     0.039 C 
ATOM      8  C   UNL     1     107.804  51.826  61.759  1.00  0.00    -0.080 C 
ATOM      9  C   UNL     1     107.326  53.001  60.944  1.00  0.00     0.039 C 
ENDBRANCH   5   6
ENDBRANCH   4   5
ENDBRANCH   1   4
BRANCH   2  10
ATOM     10  C   UNL     1     109.940  46.705  63.341  1.00  0.00     0.035 C 
BRANCH  10  11
ATOM     11  C   UNL     1     109.160  46.405  64.625  1.00  0.00     0.079 C 
BRANCH  11  12
ATOM     12  C   UNL     1     108.921  47.668  65.410  1.00  0.00     0.130 C 
ATOM     13  O   UNL     1     109.641  47.930  66.361  1.00  0.00    -0.300 OA
ATOM     14  C   UNL     1     107.808  48.610  65.055  1.00  0.00     0.087 C 
ENDBRANCH  11  12
ENDBRANCH  10  11
ENDBRANCH   2  10
TORSDOF 6
ENDMDL
MODEL 3
REMARK VINA RESULT:    -5.820      1.597      4.353
REMARK INTER + INTRA:          -9.212
REMARK INTER:                  -8.020
REMARK INTRA:                  -1.192
REMARK UNBOUND:                -1.351
REMARK SMILES CC(=O)CCC=C(C)CCC=C(C)C
REMARK SMILES IDX 7 1 6 2 8 3 9 4 10 5 11 6 13 7 12 8 14 9 5 10 4 11 2 12 3 13
REMARK SMILES IDX 1 14
REMARK H PARENT
REMARK Flexibility Score: inf
ROOT
ATOM      1  C   UNL     1     108.908  47.622  65.038  1.00  0.00    -0.077 C 
ATOM      2  C   UNL     1     109.610  46.728  64.306  1.00  0.00    -0.028 C 
ATOM      3  C   UNL     1     109.482  48.073  66.358  1.00  0.00     0.039 C 
ENDROOT
BRANCH   1   4
ATOM      4  C   UNL     1     107.590  48.216  64.574  1.00  0.00     0.034 C 
BRANCH   4   5
ATOM      5  C   UNL     1     107.625  49.753  64.568  1.00  0.00     0.032 C 
BRANCH   5   6
ATOM      6  C   UNL     1     107.171  50.322  63.245  1.00  0.00    -0.028 C 
ATOM      7  C   UNL     1     108.929  52.106  63.217  1.00  0.00     0.039 C 
ATOM      8  C   UNL     1     107.773  51.352  62.609  1.00  0.00    -0.080 C 
ATOM      9  C   UNL     1     107.250  51.813  61.272  1.00  0.00     0.039 C 
ENDBRANCH   5   6
ENDBRANCH   4   5
ENDBRANCH   1   4
BRANCH   2  10
ATOM     10  C   UNL     1     109.151  46.133  62.998  1.00  0.00     0.035 C 
BRANCH  10  11
ATOM     11  C   UNL     1     109.975  46.690  61.833  1.00  0.00     0.079 C 
BRANCH  11  12
ATOM     12  C   UNL     1     109.438  48.025  61.390  1.00  0.00     0.130 C 
ATOM     13  O   UNL     1     110.040  49.045  61.691  1.00  0.00    -0.300 OA
ATOM     14  C   UNL     1     108.170  48.133  60.596  1.00  0.00     0.087 C 
ENDBRANCH  11  12
ENDBRANCH  10  11
ENDBRANCH   2  10
TORSDOF 6
ENDMDL
MODEL 4
REMARK VINA RESULT:    -5.793      1.663      3.554
REMARK INTER + INTRA:          -9.176
REMARK INTER:                  -8.109
REMARK INTRA:                  -1.067
REMARK UNBOUND:                -1.351
REMARK SMILES CC(=O)CCC=C(C)CCC=C(C)C
REMARK SMILES IDX 7 1 6 2 8 3 9 4 10 5 11 6 13 7 12 8 14 9 5 10 4 11 2 12 3 13
REMARK SMILES IDX 1 14
REMARK H PARENT
REMARK Flexibility Score: inf
ROOT
ATOM      1  C   UNL     1     107.634  50.743  61.405  1.00  0.00    -0.077 C 
ATOM      2  C   UNL     1     108.183  49.693  60.750  1.00  0.00    -0.028 C 
ATOM      3  C   UNL     1     108.182  52.120  61.132  1.00  0.00     0.039 C 
ENDROOT
BRANCH   1   4
ATOM      4  C   UNL     1     106.472  50.596  62.371  1.00  0.00     0.034 C 
BRANCH   4   5
ATOM      5  C   UNL     1     106.892  50.894  63.820  1.00  0.00     0.032 C 
BRANCH   5   6
ATOM      6  C   UNL     1     107.414  49.662  64.519  1.00  0.00    -0.028 C 
ATOM      7  C   UNL     1     109.817  50.254  64.131  1.00  0.00     0.039 C 
ATOM      8  C   UNL     1     108.724  49.383  64.701  1.00  0.00    -0.080 C 
ATOM      9  C   UNL     1     109.127  48.136  65.446  1.00  0.00     0.039 C 
ENDBRANCH   5   6
ENDBRANCH   4   5
ENDBRANCH   1   4
BRANCH   2  10
ATOM     10  C   UNL     1     107.793  48.251  60.952  1.00  0.00     0.035 C 
BRANCH  10  11
ATOM     11  C   UNL     1     108.992  47.328  60.710  1.00  0.00     0.079 C 
BRANCH  11  12
ATOM     12  C   UNL     1     109.783  47.139  61.977  1.00  0.00     0.130 C 
ATOM     13  O   UNL     1     110.681  47.922  62.248  1.00  0.00    -0.300 OA
ATOM     14  C   UNL     1     109.500  46.001  62.913  1.00  0.00     0.087 C 
ENDBRANCH  11  12
ENDBRANCH  10  11
ENDBRANCH   2  10
TORSDOF 6
ENDMDL
MODEL 5
REMARK VINA RESULT:    -5.760      2.300      4.458
REMARK INTER + INTRA:          -9.131
REMARK INTER:                  -8.173
REMARK INTRA:                  -0.958
REMARK UNBOUND:                -1.351
REMARK SMILES CC(=O)CCC=C(C)CCC=C(C)C
REMARK SMILES IDX 7 1 6 2 8 3 9 4 10 5 11 6 13 7 12 8 14 9 5 10 4 11 2 12 3 13
REMARK SMILES IDX 1 14
REMARK H PARENT
REMARK Flexibility Score: inf
ROOT
ATOM      1  C   UNL     1     108.487  48.944  61.218  1.00  0.00    -0.077 C 
ATOM      2  C   UNL     1     107.275  49.476  61.498  1.00  0.00    -0.028 C 
ATOM      3  C   UNL     1     108.538  47.633  60.475  1.00  0.00     0.039 C 
ENDROOT
BRANCH   1   4
ATOM      4  C   UNL     1     109.793  49.626  61.587  1.00  0.00     0.034 C 
BRANCH   4   5
ATOM      5  C   UNL     1     110.065  49.562  63.098  1.00  0.00     0.032 C 
BRANCH   5   6
ATOM      6  C   UNL     1     110.042  48.144  63.615  1.00  0.00    -0.028 C 
ATOM      7  C   UNL     1     107.992  48.505  65.009  1.00  0.00     0.039 C 
ATOM      8  C   UNL     1     109.094  47.645  64.441  1.00  0.00    -0.080 C 
ATOM      9  C   UNL     1     109.157  46.200  64.865  1.00  0.00     0.039 C 
ENDBRANCH   5   6
ENDBRANCH   4   5
ENDBRANCH   1   4
BRANCH   2  10
ATOM     10  C   UNL     1     107.049  50.744  62.281  1.00  0.00     0.035 C 
BRANCH  10  11
ATOM     11  C   UNL     1     107.210  51.973  61.379  1.00  0.00     0.079 C 
BRANCH  11  12
ATOM     12  C   UNL     1     108.436  52.758  61.763  1.00  0.00     0.130 C 
ATOM     13  O   UNL     1     109.212  53.125  60.894  1.00  0.00    -0.300 OA
ATOM     14  C   UNL     1     108.734  53.092  63.195  1.00  0.00     0.087 C 
ENDBRANCH  11  12
ENDBRANCH  10  11
ENDBRANCH   2  10
TORSDOF 6
ENDMDL
MODEL 6
REMARK VINA RESULT:    -5.710      1.502      3.057
REMARK INTER + INTRA:          -9.064
REMARK INTER:                  -8.265
REMARK INTRA:                  -0.799
REMARK UNBOUND:                -1.351
REMARK SMILES CC(=O)CCC=C(C)CCC=C(C)C
REMARK SMILES IDX 7 1 6 2 8 3 9 4 10 5 11 6 13 7 12 8 14 9 5 10 4 11 2 12 3 13
REMARK SMILES IDX 1 14
REMARK H PARENT
REMARK Flexibility Score: inf
ROOT
ATOM      1  C   UNL     1     109.612  50.214  63.725  1.00  0.00    -0.077 C 
ATOM      2  C   UNL     1     108.859  49.574  64.648  1.00  0.00    -0.028 C 
ATOM      3  C   UNL     1     110.149  51.581  64.064  1.00  0.00     0.039 C 
ENDROOT
BRANCH   1   4
ATOM      4  C   UNL     1     109.969  49.602  62.381  1.00  0.00     0.034 C 
BRANCH   4   5
ATOM      5  C   UNL     1     108.796  49.676  61.390  1.00  0.00     0.032 C 
BRANCH   5   6
ATOM      6  C   UNL     1     108.372  51.100  61.125  1.00  0.00    -0.028 C 
ATOM      7  C   UNL     1     106.290  50.916  62.505  1.00  0.00     0.039 C 
ATOM      8  C   UNL     1     107.271  51.681  61.652  1.00  0.00    -0.080 C 
ATOM      9  C   UNL     1     106.965  53.124  61.342  1.00  0.00     0.039 C 
ENDBRANCH   5   6
ENDBRANCH   4   5
ENDBRANCH   1   4
BRANCH   2  10
ATOM     10  C   UNL     1     108.201  48.232  64.445  1.00  0.00     0.035 C 
BRANCH  10  11
ATOM     11  C   UNL     1     109.079  47.109  65.006  1.00  0.00     0.079 C 
BRANCH  11  12
ATOM     12  C   UNL     1     109.272  46.022  63.982  1.00  0.00     0.130 C 
ATOM     13  O   UNL     1     109.023  44.864  64.280  1.00  0.00    -0.300 OA
ATOM     14  C   UNL     1     109.774  46.329  62.602  1.00  0.00     0.087 C 
ENDBRANCH  11  12
ENDBRANCH  10  11
ENDBRANCH   2  10
TORSDOF 6
ENDMDL
MODEL 7
REMARK VINA RESULT:    -5.684      1.517      3.782
REMARK INTER + INTRA:          -9.029
REMARK INTER:                  -8.130
REMARK INTRA:                  -0.899
REMARK UNBOUND:                -1.351
REMARK SMILES CC(=O)CCC=C(C)CCC=C(C)C
REMARK SMILES IDX 7 1 6 2 8 3 9 4 10 5 11 6 13 7 12 8 14 9 5 10 4 11 2 12 3 13
REMARK SMILES IDX 1 14
REMARK H PARENT
REMARK Flexibility Score: inf
ROOT
ATOM      1  C   UNL     1     108.810  51.356  63.404  1.00  0.00    -0.077 C 
ATOM      2  C   UNL     1     110.061  50.937  63.103  1.00  0.00    -0.028 C 
ATOM      3  C   UNL     1     108.604  52.813  63.731  1.00  0.00     0.039 C 
ENDROOT
BRANCH   1   4
ATOM      4  C   UNL     1     107.605  50.432  63.394  1.00  0.00     0.034 C 
BRANCH   4   5
ATOM      5  C   UNL     1     107.565  49.530  64.638  1.00  0.00     0.032 C 
BRANCH   5   6
ATOM      6  C   UNL     1     107.931  48.103  64.310  1.00  0.00    -0.028 C 
ATOM      7  C   UNL     1     109.553  47.904  66.208  1.00  0.00     0.039 C 
ATOM      8  C   UNL     1     108.792  47.348  65.031  1.00  0.00    -0.080 C 
ATOM      9  C   UNL     1     109.055  45.921  64.626  1.00  0.00     0.039 C 
ENDBRANCH   5   6
ENDBRANCH   4   5
ENDBRANCH   1   4
BRANCH   2  10
ATOM     10  C   UNL     1     110.445  49.508  62.812  1.00  0.00     0.035 C 
BRANCH  10  11
ATOM     11  C   UNL     1     110.259  49.190  61.324  1.00  0.00     0.079 C 
BRANCH  11  12
ATOM     12  C   UNL     1     109.366  47.991  61.144  1.00  0.00     0.130 C 
ATOM     13  O   UNL     1     109.766  46.888  61.484  1.00  0.00    -0.300 OA
ATOM     14  C   UNL     1     107.998  48.119  60.543  1.00  0.00     0.087 C 
ENDBRANCH  11  12
ENDBRANCH  10  11
ENDBRANCH   2  10
TORSDOF 6
ENDMDL
MODEL 8
REMARK VINA RESULT:    -5.632      1.520      3.963
REMARK INTER + INTRA:          -8.959
REMARK INTER:                  -7.923
REMARK INTRA:                  -1.036
REMARK UNBOUND:                -1.351
REMARK SMILES CC(=O)CCC=C(C)CCC=C(C)C
REMARK SMILES IDX 7 1 6 2 8 3 9 4 10 5 11 6 13 7 12 8 14 9 5 10 4 11 2 12 3 13
REMARK SMILES IDX 1 14
REMARK H PARENT
REMARK Flexibility Score: inf
ROOT
ATOM      1  C   UNL     1     108.609  49.120  60.917  1.00  0.00    -0.077 C 
ATOM      2  C   UNL     1     107.985  50.315  60.802  1.00  0.00    -0.028 C 
ATOM      3  C   UNL     1     107.869  47.882  60.476  1.00  0.00     0.039 C 
ENDROOT
BRANCH   1   4
ATOM      4  C   UNL     1     110.029  48.976  61.436  1.00  0.00     0.034 C 
BRANCH   4   5
ATOM      5  C   UNL     1     110.203  47.705  62.282  1.00  0.00     0.032 C 
BRANCH   5   6
ATOM      6  C   UNL     1     109.884  47.949  63.737  1.00  0.00    -0.028 C 
ATOM      7  C   UNL     1     109.213  45.574  64.164  1.00  0.00     0.039 C 
ATOM      8  C   UNL     1     109.477  46.993  64.602  1.00  0.00    -0.080 C 
ATOM      9  C   UNL     1     109.220  47.349  66.044  1.00  0.00     0.039 C 
ENDBRANCH   5   6
ENDBRANCH   4   5
ENDBRANCH   1   4
BRANCH   2  10
ATOM     10  C   UNL     1     108.560  51.635  61.249  1.00  0.00     0.035 C 
BRANCH  10  11
ATOM     11  C   UNL     1     107.912  52.090  62.562  1.00  0.00     0.079 C 
BRANCH  11  12
ATOM     12  C   UNL     1     108.396  51.249  63.713  1.00  0.00     0.130 C 
ATOM     13  O   UNL     1     109.571  51.302  64.045  1.00  0.00    -0.300 OA
ATOM     14  C   UNL     1     107.468  50.336  64.459  1.00  0.00     0.087 C 
ENDBRANCH  11  12
ENDBRANCH  10  11
ENDBRANCH   2  10
TORSDOF 6
ENDMDL
MODEL 9
REMARK VINA RESULT:    -5.592      1.837      4.801
REMARK INTER + INTRA:          -8.905
REMARK INTER:                  -7.828
REMARK INTRA:                  -1.077
REMARK UNBOUND:                -1.351
REMARK SMILES CC(=O)CCC=C(C)CCC=C(C)C
REMARK SMILES IDX 7 1 6 2 8 3 9 4 10 5 11 6 13 7 12 8 14 9 5 10 4 11 2 12 3 13
REMARK SMILES IDX 1 14
REMARK H PARENT
REMARK Flexibility Score: inf
ROOT
ATOM      1  C   UNL     1     108.973  48.598  61.408  1.00  0.00    -0.077 C 
ATOM      2  C   UNL     1     110.109  49.294  61.640  1.00  0.00    -0.028 C 
ATOM      3  C   UNL     1     109.070  47.311  60.628  1.00  0.00     0.039 C 
ENDROOT
BRANCH   1   4
ATOM      4  C   UNL     1     107.614  49.037  61.927  1.00  0.00     0.034 C 
BRANCH   4   5
ATOM      5  C   UNL     1     107.122  48.139  63.073  1.00  0.00     0.032 C 
BRANCH   5   6
ATOM      6  C   UNL     1     107.876  48.398  64.355  1.00  0.00    -0.028 C 
ATOM      7  C   UNL     1     109.123  46.228  64.259  1.00  0.00     0.039 C 
ATOM      8  C   UNL     1     108.806  47.567  64.877  1.00  0.00    -0.080 C 
ATOM      9  C   UNL     1     109.520  47.949  66.149  1.00  0.00     0.039 C 
ENDBRANCH   5   6
ENDBRANCH   4   5
ENDBRANCH   1   4
BRANCH   2  10
ATOM     10  C   UNL     1     110.177  50.623  62.349  1.00  0.00     0.035 C 
BRANCH  10  11
ATOM     11  C   UNL     1     109.612  51.739  61.462  1.00  0.00     0.079 C 
BRANCH  11  12
ATOM     12  C   UNL     1     108.485  52.453  62.160  1.00  0.00     0.130 C 
ATOM     13  O   UNL     1     108.560  52.668  63.360  1.00  0.00    -0.300 OA
ATOM     14  C   UNL     1     107.262  52.900  61.414  1.00  0.00     0.087 C 
ENDBRANCH  11  12
ENDBRANCH  10  11
ENDBRANCH   2  10
TORSDOF 6
ENDMDL
