MODEL 1
REMARK VINA RESULT:    -3.311      0.000      0.000
REMARK INTER + INTRA:         -13.107
REMARK INTER:                  -8.634
REMARK INTRA:                  -4.473
REMARK UNBOUND:                -4.473
REMARK SMILES CCCCCCCCCCCCCCCCCCCCCCCCCCCCCO
REMARK SMILES IDX 16 1 15 2 14 3 13 4 12 5 11 6 10 7 9 8 8 9 7 10 6 11 5 12
REMARK SMILES IDX 4 13 3 14 2 15 1 16 17 17 18 18 19 19 20 20 21 21 22 22
REMARK SMILES IDX 23 23 24 24 25 25 26 26 27 27 28 28 29 29 30 30
REMARK H PARENT 30 31
REMARK Flexibility Score: inf
ROOT
ATOM      1  C   UNL     1     168.957 161.673 172.922  1.00  0.00     0.000 C 
ENDROOT
BRANCH   1   2
ATOM      2  C   UNL     1     170.221 160.848 172.631  1.00  0.00     0.000 C 
BRANCH   2   3
ATOM      3  C   UNL     1     170.557 160.777 171.132  1.00  0.00     0.000 C 
BRANCH   3   4
ATOM      4  C   UNL     1     171.186 159.431 170.729  1.00  0.00     0.000 C 
BRANCH   4   5
ATOM      5  C   UNL     1     171.549 159.360 169.233  1.00  0.00     0.000 C 
BRANCH   5   6
ATOM      6  C   UNL     1     171.638 157.941 168.640  1.00  0.00     0.000 C 
BRANCH   6   7
ATOM      7  C   UNL     1     170.928 156.884 169.502  1.00  0.00     0.000 C 
BRANCH   7   8
ATOM      8  C   UNL     1     169.880 156.068 168.722  1.00  0.00    -0.000 C 
BRANCH   8   9
ATOM      9  C   UNL     1     169.334 156.735 167.445  1.00  0.00    -0.000 C 
BRANCH   9  10
ATOM     10  C   UNL     1     167.940 157.354 167.634  1.00  0.00    -0.000 C 
BRANCH  10  11
ATOM     11  C   UNL     1     167.975 158.891 167.694  1.00  0.00    -0.000 C 
BRANCH  11  12
ATOM     12  C   UNL     1     167.868 159.457 169.126  1.00  0.00    -0.000 C 
BRANCH  12  13
ATOM     13  C   UNL     1     167.520 158.370 170.153  1.00  0.00    -0.000 C 
BRANCH  13  14
ATOM     14  C   UNL     1     166.249 158.732 170.930  1.00  0.00    -0.000 C 
BRANCH  14  15
ATOM     15  C   UNL     1     166.498 158.695 172.442  1.00  0.00    -0.003 C 
ATOM     16  C   UNL     1     167.839 158.044 172.763  1.00  0.00     0.004 C 
ENDBRANCH  14  15
ENDBRANCH  13  14
ENDBRANCH  12  13
ENDBRANCH  11  12
ENDBRANCH  10  11
ENDBRANCH   9  10
ENDBRANCH   8   9
ENDBRANCH   7   8
ENDBRANCH   6   7
ENDBRANCH   5   6
ENDBRANCH   4   5
ENDBRANCH   3   4
ENDBRANCH   2   3
ENDBRANCH   1   2
BRANCH   1  17
ATOM     17  C   UNL     1     168.110 161.847 171.656  1.00  0.00     0.000 C 
BRANCH  17  18
ATOM     18  C   UNL     1     166.862 162.696 171.944  1.00  0.00     0.000 C 
BRANCH  18  19
ATOM     19  C   UNL     1     167.138 163.836 172.938  1.00  0.00     0.000 C 
BRANCH  19  20
ATOM     20  C   UNL     1     166.928 165.227 172.312  1.00  0.00     0.000 C 
BRANCH  20  21
ATOM     21  C   UNL     1     168.044 165.607 171.326  1.00  0.00     0.000 C 
BRANCH  21  22
ATOM     22  C   UNL     1     167.499 166.126 169.984  1.00  0.00     0.000 C 
BRANCH  22  23
ATOM     23  C   UNL     1     166.650 165.079 169.240  1.00  0.00     0.000 C 
BRANCH  23  24
ATOM     24  C   UNL     1     165.618 165.659 168.252  1.00  0.00     0.000 C 
BRANCH  24  25
ATOM     25  C   UNL     1     164.152 165.608 168.729  1.00  0.00     0.000 C 
BRANCH  25  26
ATOM     26  C   UNL     1     163.935 164.919 170.088  1.00  0.00     0.000 C 
BRANCH  26  27
ATOM     27  C   UNL     1     162.452 164.684 170.409  1.00  0.00     0.002 C 
BRANCH  27  28
ATOM     28  C   UNL     1     161.991 163.311 169.901  1.00  0.00     0.028 C 
BRANCH  28  29
ATOM     29  C   UNL     1     160.775 163.425 168.976  1.00  0.00     0.156 C 
BRANCH  29  30
ATOM     30  O   UNL     1     159.733 164.124 169.603  1.00  0.00    -0.396 OA
ATOM     31  H   UNL     1     158.895 163.861 169.140  1.00  0.00     0.210 HD
ENDBRANCH  29  30
ENDBRANCH  28  29
ENDBRANCH  27  28
ENDBRANCH  26  27
ENDBRANCH  25  26
ENDBRANCH  24  25
ENDBRANCH  23  24
ENDBRANCH  22  23
ENDBRANCH  21  22
ENDBRANCH  20  21
ENDBRANCH  19  20
ENDBRANCH  18  19
ENDBRANCH  17  18
ENDBRANCH   1  17
TORSDOF 28
ENDMDL
MODEL 2
REMARK VINA RESULT:    -3.277      5.650      8.745
REMARK INTER + INTRA:         -13.018
REMARK INTER:                  -9.261
REMARK INTRA:                  -3.758
REMARK UNBOUND:                -4.473
REMARK SMILES CCCCCCCCCCCCCCCCCCCCCCCCCCCCCO
REMARK SMILES IDX 16 1 15 2 14 3 13 4 12 5 11 6 10 7 9 8 8 9 7 10 6 11 5 12
REMARK SMILES IDX 4 13 3 14 2 15 1 16 17 17 18 18 19 19 20 20 21 21 22 22
REMARK SMILES IDX 23 23 24 24 25 25 26 26 27 27 28 28 29 29 30 30
REMARK H PARENT 30 31
REMARK Flexibility Score: inf
ROOT
ATOM      1  C   UNL     1     161.189 164.525 173.390  1.00  0.00     0.000 C 
ENDROOT
BRANCH   1   2
ATOM      2  C   UNL     1     160.886 163.098 172.906  1.00  0.00     0.000 C 
BRANCH   2   3
ATOM      3  C   UNL     1     159.721 163.040 171.905  1.00  0.00     0.000 C 
BRANCH   3   4
ATOM      4  C   UNL     1     160.170 162.618 170.496  1.00  0.00     0.000 C 
BRANCH   4   5
ATOM      5  C   UNL     1     160.128 163.774 169.478  1.00  0.00     0.000 C 
BRANCH   5   6
ATOM      6  C   UNL     1     161.481 164.146 168.843  1.00  0.00     0.000 C 
BRANCH   6   7
ATOM      7  C   UNL     1     162.658 164.034 169.826  1.00  0.00     0.000 C 
BRANCH   7   8
ATOM      8  C   UNL     1     163.553 165.287 169.847  1.00  0.00    -0.000 C 
BRANCH   8   9
ATOM      9  C   UNL     1     164.223 165.650 168.508  1.00  0.00    -0.000 C 
BRANCH   9  10
ATOM     10  C   UNL     1     165.742 165.854 168.628  1.00  0.00    -0.000 C 
BRANCH  10  11
ATOM     11  C   UNL     1     166.394 164.889 169.633  1.00  0.00    -0.000 C 
BRANCH  11  12
ATOM     12  C   UNL     1     167.057 165.599 170.833  1.00  0.00    -0.000 C 
BRANCH  12  13
ATOM     13  C   UNL     1     167.642 166.965 170.445  1.00  0.00    -0.000 C 
BRANCH  13  14
ATOM     14  C   UNL     1     169.135 167.043 170.789  1.00  0.00    -0.000 C 
BRANCH  14  15
ATOM     15  C   UNL     1     169.991 167.088 169.518  1.00  0.00    -0.003 C 
ATOM     16  C   UNL     1     170.430 168.514 169.201  1.00  0.00     0.004 C 
ENDBRANCH  14  15
ENDBRANCH  13  14
ENDBRANCH  12  13
ENDBRANCH  11  12
ENDBRANCH  10  11
ENDBRANCH   9  10
ENDBRANCH   8   9
ENDBRANCH   7   8
ENDBRANCH   6   7
ENDBRANCH   5   6
ENDBRANCH   4   5
ENDBRANCH   3   4
ENDBRANCH   2   3
ENDBRANCH   1   2
BRANCH   1  17
ATOM     17  C   UNL     1     160.257 165.542 172.722  1.00  0.00     0.000 C 
BRANCH  17  18
ATOM     18  C   UNL     1     161.050 166.747 172.192  1.00  0.00     0.000 C 
BRANCH  18  19
ATOM     19  C   UNL     1     161.084 167.917 173.189  1.00  0.00     0.000 C 
BRANCH  19  20
ATOM     20  C   UNL     1     162.515 168.416 173.462  1.00  0.00     0.000 C 
BRANCH  20  21
ATOM     21  C   UNL     1     163.573 167.657 172.645  1.00  0.00     0.000 C 
BRANCH  21  22
ATOM     22  C   UNL     1     164.110 168.479 171.459  1.00  0.00     0.000 C 
BRANCH  22  23
ATOM     23  C   UNL     1     164.278 169.972 171.797  1.00  0.00     0.000 C 
BRANCH  23  24
ATOM     24  C   UNL     1     163.585 170.944 170.821  1.00  0.00     0.000 C 
BRANCH  24  25
ATOM     25  C   UNL     1     162.172 171.398 171.240  1.00  0.00     0.000 C 
BRANCH  25  26
ATOM     26  C   UNL     1     161.187 171.611 170.077  1.00  0.00     0.000 C 
BRANCH  26  27
ATOM     27  C   UNL     1     159.774 171.099 170.390  1.00  0.00     0.002 C 
BRANCH  27  28
ATOM     28  C   UNL     1     158.715 172.145 170.014  1.00  0.00     0.028 C 
BRANCH  28  29
ATOM     29  C   UNL     1     158.597 172.314 168.495  1.00  0.00     0.156 C 
BRANCH  29  30
ATOM     30  O   UNL     1     158.544 171.068 167.856  1.00  0.00    -0.396 OA
ATOM     31  H   UNL     1     157.751 171.087 167.259  1.00  0.00     0.210 HD
ENDBRANCH  29  30
ENDBRANCH  28  29
ENDBRANCH  27  28
ENDBRANCH  26  27
ENDBRANCH  25  26
ENDBRANCH  24  25
ENDBRANCH  23  24
ENDBRANCH  22  23
ENDBRANCH  21  22
ENDBRANCH  20  21
ENDBRANCH  19  20
ENDBRANCH  18  19
ENDBRANCH  17  18
ENDBRANCH   1  17
TORSDOF 28
ENDMDL
MODEL 3
REMARK VINA RESULT:    -3.277      5.269      8.443
REMARK INTER + INTRA:         -13.017
REMARK INTER:                  -9.178
REMARK INTRA:                  -3.839
REMARK UNBOUND:                -4.473
REMARK SMILES CCCCCCCCCCCCCCCCCCCCCCCCCCCCCO
REMARK SMILES IDX 16 1 15 2 14 3 13 4 12 5 11 6 10 7 9 8 8 9 7 10 6 11 5 12
REMARK SMILES IDX 4 13 3 14 2 15 1 16 17 17 18 18 19 19 20 20 21 21 22 22
REMARK SMILES IDX 23 23 24 24 25 25 26 26 27 27 28 28 29 29 30 30
REMARK H PARENT 30 31
REMARK Flexibility Score: inf
ROOT
ATOM      1  C   UNL     1     159.949 165.501 171.398  1.00  0.00     0.000 C 
ENDROOT
BRANCH   1   2
ATOM      2  C   UNL     1     159.091 164.239 171.217  1.00  0.00     0.000 C 
BRANCH   2   3
ATOM      3  C   UNL     1     159.908 162.941 171.317  1.00  0.00     0.000 C 
BRANCH   3   4
ATOM      4  C   UNL     1     161.132 162.938 170.384  1.00  0.00     0.000 C 
BRANCH   4   5
ATOM      5  C   UNL     1     160.751 162.913 168.891  1.00  0.00     0.000 C 
BRANCH   5   6
ATOM      6  C   UNL     1     161.271 164.098 168.056  1.00  0.00     0.000 C 
BRANCH   6   7
ATOM      7  C   UNL     1     162.465 164.815 168.707  1.00  0.00     0.000 C 
BRANCH   7   8
ATOM      8  C   UNL     1     163.322 165.605 167.700  1.00  0.00    -0.000 C 
BRANCH   8   9
ATOM      9  C   UNL     1     164.635 166.189 168.255  1.00  0.00    -0.000 C 
BRANCH   9  10
ATOM     10  C   UNL     1     165.344 165.250 169.244  1.00  0.00    -0.000 C 
BRANCH  10  11
ATOM     11  C   UNL     1     166.877 165.319 169.134  1.00  0.00    -0.000 C 
BRANCH  11  12
ATOM     12  C   UNL     1     167.506 166.459 169.962  1.00  0.00    -0.000 C 
BRANCH  12  13
ATOM     13  C   UNL     1     167.336 166.239 171.472  1.00  0.00    -0.000 C 
BRANCH  13  14
ATOM     14  C   UNL     1     167.788 164.831 171.879  1.00  0.00    -0.000 C 
BRANCH  14  15
ATOM     15  C   UNL     1     166.647 164.059 172.551  1.00  0.00    -0.003 C 
ATOM     16  C   UNL     1     166.241 164.713 173.868  1.00  0.00     0.004 C 
ENDBRANCH  14  15
ENDBRANCH  13  14
ENDBRANCH  12  13
ENDBRANCH  11  12
ENDBRANCH  10  11
ENDBRANCH   9  10
ENDBRANCH   8   9
ENDBRANCH   7   8
ENDBRANCH   6   7
ENDBRANCH   5   6
ENDBRANCH   4   5
ENDBRANCH   3   4
ENDBRANCH   2   3
ENDBRANCH   1   2
BRANCH   1  17
ATOM     17  C   UNL     1     160.018 165.914 172.873  1.00  0.00     0.000 C 
BRANCH  17  18
ATOM     18  C   UNL     1     161.421 166.424 173.235  1.00  0.00     0.000 C 
BRANCH  18  19
ATOM     19  C   UNL     1     162.524 165.777 172.381  1.00  0.00     0.000 C 
BRANCH  19  20
ATOM     20  C   UNL     1     163.661 166.760 172.045  1.00  0.00     0.000 C 
BRANCH  20  21
ATOM     21  C   UNL     1     163.263 168.227 172.276  1.00  0.00     0.000 C 
BRANCH  21  22
ATOM     22  C   UNL     1     163.676 169.145 171.112  1.00  0.00     0.000 C 
BRANCH  22  23
ATOM     23  C   UNL     1     163.991 170.581 171.569  1.00  0.00     0.000 C 
BRANCH  23  24
ATOM     24  C   UNL     1     163.865 171.657 170.471  1.00  0.00     0.000 C 
BRANCH  24  25
ATOM     25  C   UNL     1     162.901 171.309 169.319  1.00  0.00     0.000 C 
BRANCH  25  26
ATOM     26  C   UNL     1     161.757 172.316 169.103  1.00  0.00     0.000 C 
BRANCH  26  27
ATOM     27  C   UNL     1     160.770 172.361 170.278  1.00  0.00     0.002 C 
BRANCH  27  28
ATOM     28  C   UNL     1     159.641 171.338 170.086  1.00  0.00     0.028 C 
BRANCH  28  29
ATOM     29  C   UNL     1     158.563 171.855 169.128  1.00  0.00     0.156 C 
BRANCH  29  30
ATOM     30  O   UNL     1     158.650 171.213 167.884  1.00  0.00    -0.396 OA
ATOM     31  H   UNL     1     158.047 171.705 167.267  1.00  0.00     0.210 HD
ENDBRANCH  29  30
ENDBRANCH  28  29
ENDBRANCH  27  28
ENDBRANCH  26  27
ENDBRANCH  25  26
ENDBRANCH  24  25
ENDBRANCH  23  24
ENDBRANCH  22  23
ENDBRANCH  21  22
ENDBRANCH  20  21
ENDBRANCH  19  20
ENDBRANCH  18  19
ENDBRANCH  17  18
ENDBRANCH   1  17
TORSDOF 28
ENDMDL
MODEL 4
REMARK VINA RESULT:    -3.240      1.844      4.438
REMARK INTER + INTRA:         -12.922
REMARK INTER:                  -8.417
REMARK INTRA:                  -4.505
REMARK UNBOUND:                -4.473
REMARK SMILES CCCCCCCCCCCCCCCCCCCCCCCCCCCCCO
REMARK SMILES IDX 16 1 15 2 14 3 13 4 12 5 11 6 10 7 9 8 8 9 7 10 6 11 5 12
REMARK SMILES IDX 4 13 3 14 2 15 1 16 17 17 18 18 19 19 20 20 21 21 22 22
REMARK SMILES IDX 23 23 24 24 25 25 26 26 27 27 28 28 29 29 30 30
REMARK H PARENT 30 31
REMARK Flexibility Score: inf
ROOT
ATOM      1  C   UNL     1     166.057 162.270 173.342  1.00  0.00     0.000 C 
ENDROOT
BRANCH   1   2
ATOM      2  C   UNL     1     164.960 161.926 172.321  1.00  0.00     0.000 C 
BRANCH   2   3
ATOM      3  C   UNL     1     164.937 160.435 171.947  1.00  0.00     0.000 C 
BRANCH   3   4
ATOM      4  C   UNL     1     164.822 159.517 173.177  1.00  0.00     0.000 C 
BRANCH   4   5
ATOM      5  C   UNL     1     165.086 158.035 172.850  1.00  0.00     0.000 C 
BRANCH   5   6
ATOM      6  C   UNL     1     165.705 157.763 171.466  1.00  0.00     0.000 C 
BRANCH   6   7
ATOM      7  C   UNL     1     167.056 157.031 171.545  1.00  0.00     0.000 C 
BRANCH   7   8
ATOM      8  C   UNL     1     167.849 157.358 172.824  1.00  0.00    -0.000 C 
BRANCH   8   9
ATOM      9  C   UNL     1     169.053 158.302 172.637  1.00  0.00    -0.000 C 
BRANCH   9  10
ATOM     10  C   UNL     1     168.649 159.781 172.518  1.00  0.00    -0.000 C 
BRANCH  10  11
ATOM     11  C   UNL     1     169.118 160.420 171.200  1.00  0.00    -0.000 C 
BRANCH  11  12
ATOM     12  C   UNL     1     168.072 160.340 170.067  1.00  0.00    -0.000 C 
BRANCH  12  13
ATOM     13  C   UNL     1     168.480 159.342 168.973  1.00  0.00    -0.000 C 
BRANCH  13  14
ATOM     14  C   UNL     1     169.974 159.009 169.059  1.00  0.00    -0.000 C 
BRANCH  14  15
ATOM     15  C   UNL     1     170.199 157.494 169.103  1.00  0.00    -0.003 C 
ATOM     16  C   UNL     1     169.067 156.749 168.403  1.00  0.00     0.004 C 
ENDBRANCH  14  15
ENDBRANCH  13  14
ENDBRANCH  12  13
ENDBRANCH  11  12
ENDBRANCH  10  11
ENDBRANCH   9  10
ENDBRANCH   8   9
ENDBRANCH   7   8
ENDBRANCH   6   7
ENDBRANCH   5   6
ENDBRANCH   4   5
ENDBRANCH   3   4
ENDBRANCH   2   3
ENDBRANCH   1   2
BRANCH   1  17
ATOM     17  C   UNL     1     166.990 163.359 172.800  1.00  0.00     0.000 C 
BRANCH  17  18
ATOM     18  C   UNL     1     166.878 163.468 171.272  1.00  0.00     0.000 C 
BRANCH  18  19
ATOM     19  C   UNL     1     167.155 164.891 170.758  1.00  0.00     0.000 C 
BRANCH  19  20
ATOM     20  C   UNL     1     166.435 165.188 169.430  1.00  0.00     0.000 C 
BRANCH  20  21
ATOM     21  C   UNL     1     165.167 166.035 169.621  1.00  0.00     0.000 C 
BRANCH  21  22
ATOM     22  C   UNL     1     163.879 165.259 169.289  1.00  0.00     0.000 C 
BRANCH  22  23
ATOM     23  C   UNL     1     163.223 164.633 170.533  1.00  0.00     0.000 C 
BRANCH  23  24
ATOM     24  C   UNL     1     162.239 163.482 170.242  1.00  0.00     0.000 C 
BRANCH  24  25
ATOM     25  C   UNL     1     161.022 163.863 169.375  1.00  0.00     0.000 C 
BRANCH  25  26
ATOM     26  C   UNL     1     159.655 163.682 170.058  1.00  0.00     0.000 C 
BRANCH  26  27
ATOM     27  C   UNL     1     158.725 162.730 169.293  1.00  0.00     0.002 C 
BRANCH  27  28
ATOM     28  C   UNL     1     158.781 161.315 169.883  1.00  0.00     0.028 C 
BRANCH  28  29
ATOM     29  C   UNL     1     158.271 160.264 168.891  1.00  0.00     0.156 C 
BRANCH  29  30
ATOM     30  O   UNL     1     159.307 159.406 168.494  1.00  0.00    -0.396 OA
ATOM     31  H   UNL     1     158.898 158.716 167.909  1.00  0.00     0.210 HD
ENDBRANCH  29  30
ENDBRANCH  28  29
ENDBRANCH  27  28
ENDBRANCH  26  27
ENDBRANCH  25  26
ENDBRANCH  24  25
ENDBRANCH  23  24
ENDBRANCH  22  23
ENDBRANCH  21  22
ENDBRANCH  20  21
ENDBRANCH  19  20
ENDBRANCH  18  19
ENDBRANCH  17  18
ENDBRANCH   1  17
TORSDOF 28
ENDMDL
MODEL 5
REMARK VINA RESULT:    -3.232      5.567      9.588
REMARK INTER + INTRA:         -12.900
REMARK INTER:                  -7.263
REMARK INTRA:                  -5.637
REMARK UNBOUND:                -4.473
REMARK SMILES CCCCCCCCCCCCCCCCCCCCCCCCCCCCCO
REMARK SMILES IDX 16 1 15 2 14 3 13 4 12 5 11 6 10 7 9 8 8 9 7 10 6 11 5 12
REMARK SMILES IDX 4 13 3 14 2 15 1 16 17 17 18 18 19 19 20 20 21 21 22 22
REMARK SMILES IDX 23 23 24 24 25 25 26 26 27 27 28 28 29 29 30 30
REMARK H PARENT 30 31
REMARK Flexibility Score: inf
ROOT
ATOM      1  C   UNL     1     168.672 168.518 171.115  1.00  0.00     0.000 C 
ENDROOT
BRANCH   1   2
ATOM      2  C   UNL     1     169.481 167.945 169.941  1.00  0.00     0.000 C 
BRANCH   2   3
ATOM      3  C   UNL     1     168.776 166.770 169.245  1.00  0.00     0.000 C 
BRANCH   3   4
ATOM      4  C   UNL     1     167.493 166.332 169.975  1.00  0.00     0.000 C 
BRANCH   4   5
ATOM      5  C   UNL     1     166.756 165.184 169.262  1.00  0.00     0.000 C 
BRANCH   5   6
ATOM      6  C   UNL     1     165.685 165.617 168.242  1.00  0.00     0.000 C 
BRANCH   6   7
ATOM      7  C   UNL     1     164.276 165.707 168.852  1.00  0.00     0.000 C 
BRANCH   7   8
ATOM      8  C   UNL     1     164.188 165.107 170.268  1.00  0.00    -0.000 C 
BRANCH   8   9
ATOM      9  C   UNL     1     163.791 166.091 171.385  1.00  0.00    -0.000 C 
BRANCH   9  10
ATOM     10  C   UNL     1     164.358 167.504 171.175  1.00  0.00    -0.000 C 
BRANCH  10  11
ATOM     11  C   UNL     1     163.426 168.604 171.712  1.00  0.00    -0.000 C 
BRANCH  11  12
ATOM     12  C   UNL     1     163.813 169.110 173.119  1.00  0.00    -0.000 C 
BRANCH  12  13
ATOM     13  C   UNL     1     163.920 170.641 173.174  1.00  0.00    -0.000 C 
BRANCH  13  14
ATOM     14  C   UNL     1     164.525 171.198 171.879  1.00  0.00    -0.000 C 
BRANCH  14  15
ATOM     15  C   UNL     1     166.054 171.094 171.897  1.00  0.00    -0.003 C 
ATOM     16  C   UNL     1     166.630 171.669 173.188  1.00  0.00     0.004 C 
ENDBRANCH  14  15
ENDBRANCH  13  14
ENDBRANCH  12  13
ENDBRANCH  11  12
ENDBRANCH  10  11
ENDBRANCH   9  10
ENDBRANCH   8   9
ENDBRANCH   7   8
ENDBRANCH   6   7
ENDBRANCH   5   6
ENDBRANCH   4   5
ENDBRANCH   3   4
ENDBRANCH   2   3
ENDBRANCH   1   2
BRANCH   1  17
ATOM     17  C   UNL     1     169.543 168.652 172.370  1.00  0.00     0.000 C 
BRANCH  17  18
ATOM     18  C   UNL     1     168.728 168.356 173.638  1.00  0.00     0.000 C 
BRANCH  18  19
ATOM     19  C   UNL     1     167.259 168.021 173.332  1.00  0.00     0.000 C 
BRANCH  19  20
ATOM     20  C   UNL     1     166.752 166.807 174.132  1.00  0.00     0.000 C 
BRANCH  20  21
ATOM     21  C   UNL     1     166.925 165.483 173.371  1.00  0.00     0.000 C 
BRANCH  21  22
ATOM     22  C   UNL     1     168.145 164.676 173.853  1.00  0.00     0.000 C 
BRANCH  22  23
ATOM     23  C   UNL     1     168.952 164.066 172.692  1.00  0.00     0.000 C 
BRANCH  23  24
ATOM     24  C   UNL     1     170.132 164.927 172.195  1.00  0.00     0.000 C 
BRANCH  24  25
ATOM     25  C   UNL     1     171.105 165.402 173.293  1.00  0.00     0.000 C 
BRANCH  25  26
ATOM     26  C   UNL     1     172.186 166.390 172.819  1.00  0.00     0.000 C 
BRANCH  26  27
ATOM     27  C   UNL     1     172.475 166.282 171.315  1.00  0.00     0.002 C 
BRANCH  27  28
ATOM     28  C   UNL     1     173.630 167.209 170.910  1.00  0.00     0.028 C 
BRANCH  28  29
ATOM     29  C   UNL     1     173.158 168.338 169.989  1.00  0.00     0.156 C 
BRANCH  29  30
ATOM     30  O   UNL     1     173.076 167.899 168.660  1.00  0.00    -0.396 OA
ATOM     31  H   UNL     1     172.161 167.532 168.537  1.00  0.00     0.210 HD
ENDBRANCH  29  30
ENDBRANCH  28  29
ENDBRANCH  27  28
ENDBRANCH  26  27
ENDBRANCH  25  26
ENDBRANCH  24  25
ENDBRANCH  23  24
ENDBRANCH  22  23
ENDBRANCH  21  22
ENDBRANCH  20  21
ENDBRANCH  19  20
ENDBRANCH  18  19
ENDBRANCH  17  18
ENDBRANCH   1  17
TORSDOF 28
ENDMDL
MODEL 6
REMARK VINA RESULT:    -3.228      5.803      8.356
REMARK INTER + INTRA:         -12.890
REMARK INTER:                  -9.562
REMARK INTRA:                  -3.328
REMARK UNBOUND:                -4.473
REMARK SMILES CCCCCCCCCCCCCCCCCCCCCCCCCCCCCO
REMARK SMILES IDX 16 1 15 2 14 3 13 4 12 5 11 6 10 7 9 8 8 9 7 10 6 11 5 12
REMARK SMILES IDX 4 13 3 14 2 15 1 16 17 17 18 18 19 19 20 20 21 21 22 22
REMARK SMILES IDX 23 23 24 24 25 25 26 26 27 27 28 28 29 29 30 30
REMARK H PARENT 30 31
REMARK Flexibility Score: inf
ROOT
ATOM      1  C   UNL     1     163.276 166.647 173.281  1.00  0.00     0.000 C 
ENDROOT
BRANCH   1   2
ATOM      2  C   UNL     1     162.208 165.563 173.068  1.00  0.00     0.000 C 
BRANCH   2   3
ATOM      3  C   UNL     1     162.788 164.139 173.091  1.00  0.00     0.000 C 
BRANCH   3   4
ATOM      4  C   UNL     1     163.392 163.724 171.738  1.00  0.00     0.000 C 
BRANCH   4   5
ATOM      5  C   UNL     1     162.489 164.075 170.541  1.00  0.00     0.000 C 
BRANCH   5   6
ATOM      6  C   UNL     1     163.169 164.865 169.408  1.00  0.00     0.000 C 
BRANCH   6   7
ATOM      7  C   UNL     1     164.682 165.043 169.622  1.00  0.00     0.000 C 
BRANCH   7   8
ATOM      8  C   UNL     1     165.392 165.697 168.422  1.00  0.00    -0.000 C 
BRANCH   8   9
ATOM      9  C   UNL     1     166.930 165.604 168.427  1.00  0.00    -0.000 C 
BRANCH   9  10
ATOM     10  C   UNL     1     167.546 165.844 169.815  1.00  0.00    -0.000 C 
BRANCH  10  11
ATOM     11  C   UNL     1     168.489 167.060 169.845  1.00  0.00    -0.000 C 
BRANCH  11  12
ATOM     12  C   UNL     1     169.729 166.904 168.939  1.00  0.00    -0.000 C 
BRANCH  12  13
ATOM     13  C   UNL     1     170.850 167.881 169.321  1.00  0.00    -0.000 C 
BRANCH  13  14
ATOM     14  C   UNL     1     171.215 167.750 170.805  1.00  0.00    -0.000 C 
BRANCH  14  15
ATOM     15  C   UNL     1     172.079 166.508 171.052  1.00  0.00    -0.003 C 
ATOM     16  C   UNL     1     173.543 166.888 171.254  1.00  0.00     0.004 C 
ENDBRANCH  14  15
ENDBRANCH  13  14
ENDBRANCH  12  13
ENDBRANCH  11  12
ENDBRANCH  10  11
ENDBRANCH   9  10
ENDBRANCH   8   9
ENDBRANCH   7   8
ENDBRANCH   6   7
ENDBRANCH   5   6
ENDBRANCH   4   5
ENDBRANCH   3   4
ENDBRANCH   2   3
ENDBRANCH   1   2
BRANCH   1  17
ATOM     17  C   UNL     1     163.393 167.552 172.049  1.00  0.00     0.000 C 
BRANCH  17  18
ATOM     18  C   UNL     1     164.865 167.759 171.658  1.00  0.00     0.000 C 
BRANCH  18  19
ATOM     19  C   UNL     1     165.755 168.103 172.864  1.00  0.00     0.000 C 
BRANCH  19  20
ATOM     20  C   UNL     1     165.753 169.609 173.185  1.00  0.00     0.000 C 
BRANCH  20  21
ATOM     21  C   UNL     1     166.470 170.444 172.111  1.00  0.00     0.000 C 
BRANCH  21  22
ATOM     22  C   UNL     1     165.628 171.637 171.626  1.00  0.00     0.000 C 
BRANCH  22  23
ATOM     23  C   UNL     1     164.117 171.424 171.836  1.00  0.00     0.000 C 
BRANCH  23  24
ATOM     24  C   UNL     1     163.360 170.873 170.611  1.00  0.00     0.000 C 
BRANCH  24  25
ATOM     25  C   UNL     1     163.157 171.878 169.458  1.00  0.00     0.000 C 
BRANCH  25  26
ATOM     26  C   UNL     1     161.693 172.268 169.188  1.00  0.00     0.000 C 
BRANCH  26  27
ATOM     27  C   UNL     1     160.785 172.067 170.410  1.00  0.00     0.002 C 
BRANCH  27  28
ATOM     28  C   UNL     1     159.431 171.474 169.997  1.00  0.00     0.028 C 
BRANCH  28  29
ATOM     29  C   UNL     1     158.944 172.044 168.660  1.00  0.00     0.156 C 
BRANCH  29  30
ATOM     30  O   UNL     1     158.352 171.043 167.876  1.00  0.00    -0.396 OA
ATOM     31  H   UNL     1     157.381 171.059 168.080  1.00  0.00     0.210 HD
ENDBRANCH  29  30
ENDBRANCH  28  29
ENDBRANCH  27  28
ENDBRANCH  26  27
ENDBRANCH  25  26
ENDBRANCH  24  25
ENDBRANCH  23  24
ENDBRANCH  22  23
ENDBRANCH  21  22
ENDBRANCH  20  21
ENDBRANCH  19  20
ENDBRANCH  18  19
ENDBRANCH  17  18
ENDBRANCH   1  17
TORSDOF 28
ENDMDL
MODEL 7
REMARK VINA RESULT:    -3.174      6.978     13.020
REMARK INTER + INTRA:         -12.751
REMARK INTER:                  -7.896
REMARK INTRA:                  -4.854
REMARK UNBOUND:                -4.473
REMARK SMILES CCCCCCCCCCCCCCCCCCCCCCCCCCCCCO
REMARK SMILES IDX 16 1 15 2 14 3 13 4 12 5 11 6 10 7 9 8 8 9 7 10 6 11 5 12
REMARK SMILES IDX 4 13 3 14 2 15 1 16 17 17 18 18 19 19 20 20 21 21 22 22
REMARK SMILES IDX 23 23 24 24 25 25 26 26 27 27 28 28 29 29 30 30
REMARK H PARENT 30 31
REMARK Flexibility Score: inf
ROOT
ATOM      1  C   UNL     1     164.796 172.525 173.030  1.00  0.00     0.000 C 
ENDROOT
BRANCH   1   2
ATOM      2  C   UNL     1     164.477 173.915 172.457  1.00  0.00     0.000 C 
BRANCH   2   3
ATOM      3  C   UNL     1     163.066 174.403 172.820  1.00  0.00     0.000 C 
BRANCH   3   4
ATOM      4  C   UNL     1     162.488 175.376 171.778  1.00  0.00     0.000 C 
BRANCH   4   5
ATOM      5  C   UNL     1     161.020 175.076 171.421  1.00  0.00     0.000 C 
BRANCH   5   6
ATOM      6  C   UNL     1     160.697 175.044 169.915  1.00  0.00     0.000 C 
BRANCH   6   7
ATOM      7  C   UNL     1     161.953 175.109 169.030  1.00  0.00     0.000 C 
BRANCH   7   8
ATOM      8  C   UNL     1     161.948 174.070 167.892  1.00  0.00    -0.000 C 
BRANCH   8   9
ATOM      9  C   UNL     1     163.123 173.075 167.894  1.00  0.00    -0.000 C 
BRANCH   9  10
ATOM     10  C   UNL     1     163.456 172.533 169.294  1.00  0.00    -0.000 C 
BRANCH  10  11
ATOM     11  C   UNL     1     162.689 171.242 169.629  1.00  0.00    -0.000 C 
BRANCH  11  12
ATOM     12  C   UNL     1     162.025 171.261 171.022  1.00  0.00    -0.000 C 
BRANCH  12  13
ATOM     13  C   UNL     1     160.500 171.418 170.934  1.00  0.00    -0.000 C 
BRANCH  13  14
ATOM     14  C   UNL     1     160.026 171.382 169.476  1.00  0.00    -0.000 C 
BRANCH  14  15
ATOM     15  C   UNL     1     158.641 172.024 169.332  1.00  0.00    -0.003 C 
ATOM     16  C   UNL     1     158.093 172.459 170.687  1.00  0.00     0.004 C 
ENDBRANCH  14  15
ENDBRANCH  13  14
ENDBRANCH  12  13
ENDBRANCH  11  12
ENDBRANCH  10  11
ENDBRANCH   9  10
ENDBRANCH   8   9
ENDBRANCH   7   8
ENDBRANCH   6   7
ENDBRANCH   5   6
ENDBRANCH   4   5
ENDBRANCH   3   4
ENDBRANCH   2   3
ENDBRANCH   1   2
BRANCH   1  17
ATOM     17  C   UNL     1     166.041 171.928 172.364  1.00  0.00     0.000 C 
BRANCH  17  18
ATOM     18  C   UNL     1     165.818 170.451 172.007  1.00  0.00     0.000 C 
BRANCH  18  19
ATOM     19  C   UNL     1     164.739 169.788 172.880  1.00  0.00     0.000 C 
BRANCH  19  20
ATOM     20  C   UNL     1     164.610 168.277 172.611  1.00  0.00     0.000 C 
BRANCH  20  21
ATOM     21  C   UNL     1     164.003 167.972 171.232  1.00  0.00     0.000 C 
BRANCH  21  22
ATOM     22  C   UNL     1     164.081 166.479 170.866  1.00  0.00     0.000 C 
BRANCH  22  23
ATOM     23  C   UNL     1     164.627 166.240 169.446  1.00  0.00     0.000 C 
BRANCH  23  24
ATOM     24  C   UNL     1     166.070 165.702 169.384  1.00  0.00     0.000 C 
BRANCH  24  25
ATOM     25  C   UNL     1     166.814 165.662 170.734  1.00  0.00     0.000 C 
BRANCH  25  26
ATOM     26  C   UNL     1     167.779 166.836 170.979  1.00  0.00     0.000 C 
BRANCH  26  27
ATOM     27  C   UNL     1     169.113 166.678 170.236  1.00  0.00     0.002 C 
BRANCH  27  28
ATOM     28  C   UNL     1     169.566 168.014 169.631  1.00  0.00     0.028 C 
BRANCH  28  29
ATOM     29  C   UNL     1     170.486 167.810 168.423  1.00  0.00     0.156 C 
BRANCH  29  30
ATOM     30  O   UNL     1     171.824 167.697 168.826  1.00  0.00    -0.396 OA
ATOM     31  H   UNL     1     172.371 167.678 167.997  1.00  0.00     0.210 HD
ENDBRANCH  29  30
ENDBRANCH  28  29
ENDBRANCH  27  28
ENDBRANCH  26  27
ENDBRANCH  25  26
ENDBRANCH  24  25
ENDBRANCH  23  24
ENDBRANCH  22  23
ENDBRANCH  21  22
ENDBRANCH  20  21
ENDBRANCH  19  20
ENDBRANCH  18  19
ENDBRANCH  17  18
ENDBRANCH   1  17
TORSDOF 28
ENDMDL
MODEL 8
REMARK VINA RESULT:    -3.146      7.042     13.143
REMARK INTER + INTRA:         -12.677
REMARK INTER:                  -7.828
REMARK INTRA:                  -4.848
REMARK UNBOUND:                -4.473
REMARK SMILES CCCCCCCCCCCCCCCCCCCCCCCCCCCCCO
REMARK SMILES IDX 16 1 15 2 14 3 13 4 12 5 11 6 10 7 9 8 8 9 7 10 6 11 5 12
REMARK SMILES IDX 4 13 3 14 2 15 1 16 17 17 18 18 19 19 20 20 21 21 22 22
REMARK SMILES IDX 23 23 24 24 25 25 26 26 27 27 28 28 29 29 30 30
REMARK H PARENT 30 31
REMARK Flexibility Score: inf
ROOT
ATOM      1  C   UNL     1     163.112 171.243 169.465  1.00  0.00     0.000 C 
ENDROOT
BRANCH   1   2
ATOM      2  C   UNL     1     163.023 172.256 168.312  1.00  0.00     0.000 C 
BRANCH   2   3
ATOM      3  C   UNL     1     163.032 173.715 168.796  1.00  0.00     0.000 C 
BRANCH   3   4
ATOM      4  C   UNL     1     162.017 174.595 168.045  1.00  0.00     0.000 C 
BRANCH   4   5
ATOM      5  C   UNL     1     161.165 175.469 168.985  1.00  0.00     0.000 C 
BRANCH   5   6
ATOM      6  C   UNL     1     159.656 175.159 168.991  1.00  0.00     0.000 C 
BRANCH   6   7
ATOM      7  C   UNL     1     159.231 174.218 167.851  1.00  0.00     0.000 C 
BRANCH   7   8
ATOM      8  C   UNL     1     158.475 172.970 168.345  1.00  0.00    -0.000 C 
BRANCH   8   9
ATOM      9  C   UNL     1     159.341 171.718 168.583  1.00  0.00    -0.000 C 
BRANCH   9  10
ATOM     10  C   UNL     1     159.411 171.304 170.062  1.00  0.00    -0.000 C 
BRANCH  10  11
ATOM     11  C   UNL     1     158.536 172.186 170.968  1.00  0.00    -0.000 C 
BRANCH  11  12
ATOM     12  C   UNL     1     159.334 172.946 172.049  1.00  0.00    -0.000 C 
BRANCH  12  13
ATOM     13  C   UNL     1     160.847 172.715 171.920  1.00  0.00    -0.000 C 
BRANCH  13  14
ATOM     14  C   UNL     1     161.634 173.960 172.348  1.00  0.00    -0.000 C 
BRANCH  14  15
ATOM     15  C   UNL     1     161.901 173.950 173.857  1.00  0.00    -0.003 C 
ATOM     16  C   UNL     1     162.736 172.739 174.261  1.00  0.00     0.004 C 
ENDBRANCH  14  15
ENDBRANCH  13  14
ENDBRANCH  12  13
ENDBRANCH  11  12
ENDBRANCH  10  11
ENDBRANCH   9  10
ENDBRANCH   8   9
ENDBRANCH   7   8
ENDBRANCH   6   7
ENDBRANCH   5   6
ENDBRANCH   4   5
ENDBRANCH   3   4
ENDBRANCH   2   3
ENDBRANCH   1   2
BRANCH   1  17
ATOM     17  C   UNL     1     164.047 171.748 170.570  1.00  0.00     0.000 C 
BRANCH  17  18
ATOM     18  C   UNL     1     164.262 170.668 171.642  1.00  0.00     0.000 C 
BRANCH  18  19
ATOM     19  C   UNL     1     163.308 169.473 171.478  1.00  0.00     0.000 C 
BRANCH  19  20
ATOM     20  C   UNL     1     162.399 169.272 172.705  1.00  0.00     0.000 C 
BRANCH  20  21
ATOM     21  C   UNL     1     161.037 168.661 172.338  1.00  0.00     0.000 C 
BRANCH  21  22
ATOM     22  C   UNL     1     160.817 167.277 172.973  1.00  0.00     0.000 C 
BRANCH  22  23
ATOM     23  C   UNL     1     161.024 166.123 171.975  1.00  0.00     0.000 C 
BRANCH  23  24
ATOM     24  C   UNL     1     162.371 165.384 172.102  1.00  0.00     0.000 C 
BRANCH  24  25
ATOM     25  C   UNL     1     163.097 165.108 170.770  1.00  0.00     0.000 C 
BRANCH  25  26
ATOM     26  C   UNL     1     162.231 164.444 169.684  1.00  0.00     0.000 C 
BRANCH  26  27
ATOM     27  C   UNL     1     161.636 163.102 170.133  1.00  0.00     0.002 C 
BRANCH  27  28
ATOM     28  C   UNL     1     160.167 162.982 169.704  1.00  0.00     0.028 C 
BRANCH  28  29
ATOM     29  C   UNL     1     159.894 161.665 168.969  1.00  0.00     0.156 C 
BRANCH  29  30
ATOM     30  O   UNL     1     160.732 161.533 167.852  1.00  0.00    -0.396 OA
ATOM     31  H   UNL     1     160.422 162.198 167.183  1.00  0.00     0.210 HD
ENDBRANCH  29  30
ENDBRANCH  28  29
ENDBRANCH  27  28
ENDBRANCH  26  27
ENDBRANCH  25  26
ENDBRANCH  24  25
ENDBRANCH  23  24
ENDBRANCH  22  23
ENDBRANCH  21  22
ENDBRANCH  20  21
ENDBRANCH  19  20
ENDBRANCH  18  19
ENDBRANCH  17  18
ENDBRANCH   1  17
TORSDOF 28
ENDMDL
MODEL 9
REMARK VINA RESULT:    -3.101      7.050     12.215
REMARK INTER + INTRA:         -12.559
REMARK INTER:                  -7.398
REMARK INTRA:                  -5.162
REMARK UNBOUND:                -4.473
REMARK SMILES CCCCCCCCCCCCCCCCCCCCCCCCCCCCCO
REMARK SMILES IDX 16 1 15 2 14 3 13 4 12 5 11 6 10 7 9 8 8 9 7 10 6 11 5 12
REMARK SMILES IDX 4 13 3 14 2 15 1 16 17 17 18 18 19 19 20 20 21 21 22 22
REMARK SMILES IDX 23 23 24 24 25 25 26 26 27 27 28 28 29 29 30 30
REMARK H PARENT 30 31
REMARK Flexibility Score: inf
ROOT
ATOM      1  C   UNL     1     158.064 172.439 170.813  1.00  0.00     0.000 C 
ENDROOT
BRANCH   1   2
ATOM      2  C   UNL     1     158.809 173.036 172.017  1.00  0.00     0.000 C 
BRANCH   2   3
ATOM      3  C   UNL     1     160.269 172.563 172.112  1.00  0.00     0.000 C 
BRANCH   3   4
ATOM      4  C   UNL     1     160.556 171.784 173.408  1.00  0.00     0.000 C 
BRANCH   4   5
ATOM      5  C   UNL     1     160.025 170.339 173.373  1.00  0.00     0.000 C 
BRANCH   5   6
ATOM      6  C   UNL     1     160.708 169.407 172.354  1.00  0.00     0.000 C 
BRANCH   6   7
ATOM      7  C   UNL     1     161.212 168.097 172.981  1.00  0.00     0.000 C 
BRANCH   7   8
ATOM      8  C   UNL     1     162.380 168.305 173.964  1.00  0.00    -0.000 C 
BRANCH   8   9
ATOM      9  C   UNL     1     163.557 169.144 173.432  1.00  0.00    -0.000 C 
BRANCH   9  10
ATOM     10  C   UNL     1     164.881 168.365 173.382  1.00  0.00    -0.000 C 
BRANCH  10  11
ATOM     11  C   UNL     1     165.357 168.092 171.945  1.00  0.00    -0.000 C 
BRANCH  11  12
ATOM     12  C   UNL     1     164.250 167.541 171.021  1.00  0.00    -0.000 C 
BRANCH  12  13
ATOM     13  C   UNL     1     164.098 166.018 171.146  1.00  0.00    -0.000 C 
BRANCH  13  14
ATOM     14  C   UNL     1     164.163 165.343 169.770  1.00  0.00    -0.000 C 
BRANCH  14  15
ATOM     15  C   UNL     1     165.086 166.114 168.821  1.00  0.00    -0.003 C 
ATOM     16  C   UNL     1     166.308 165.282 168.444  1.00  0.00     0.004 C 
ENDBRANCH  14  15
ENDBRANCH  13  14
ENDBRANCH  12  13
ENDBRANCH  11  12
ENDBRANCH  10  11
ENDBRANCH   9  10
ENDBRANCH   8   9
ENDBRANCH   7   8
ENDBRANCH   6   7
ENDBRANCH   5   6
ENDBRANCH   4   5
ENDBRANCH   3   4
ENDBRANCH   2   3
ENDBRANCH   1   2
BRANCH   1  17
ATOM     17  C   UNL     1     159.013 171.621 169.929  1.00  0.00     0.000 C 
BRANCH  17  18
ATOM     18  C   UNL     1     158.881 172.032 168.455  1.00  0.00     0.000 C 
BRANCH  18  19
ATOM     19  C   UNL     1     158.825 173.558 168.269  1.00  0.00     0.000 C 
BRANCH  19  20
ATOM     20  C   UNL     1     160.207 174.166 167.966  1.00  0.00     0.000 C 
BRANCH  20  21
ATOM     21  C   UNL     1     160.859 174.799 169.205  1.00  0.00     0.000 C 
BRANCH  21  22
ATOM     22  C   UNL     1     162.225 174.174 169.541  1.00  0.00     0.000 C 
BRANCH  22  23
ATOM     23  C   UNL     1     162.613 173.036 168.579  1.00  0.00     0.000 C 
BRANCH  23  24
ATOM     24  C   UNL     1     162.530 171.618 169.178  1.00  0.00     0.000 C 
BRANCH  24  25
ATOM     25  C   UNL     1     163.221 171.441 170.545  1.00  0.00     0.000 C 
BRANCH  25  26
ATOM     26  C   UNL     1     164.721 171.784 170.564  1.00  0.00     0.000 C 
BRANCH  26  27
ATOM     27  C   UNL     1     165.253 172.062 171.977  1.00  0.00     0.002 C 
BRANCH  27  28
ATOM     28  C   UNL     1     164.402 173.127 172.684  1.00  0.00     0.028 C 
BRANCH  28  29
ATOM     29  C   UNL     1     164.670 174.530 172.130  1.00  0.00     0.156 C 
BRANCH  29  30
ATOM     30  O   UNL     1     165.986 174.639 171.658  1.00  0.00    -0.396 OA
ATOM     31  H   UNL     1     166.505 175.105 172.365  1.00  0.00     0.210 HD
ENDBRANCH  29  30
ENDBRANCH  28  29
ENDBRANCH  27  28
ENDBRANCH  26  27
ENDBRANCH  25  26
ENDBRANCH  24  25
ENDBRANCH  23  24
ENDBRANCH  22  23
ENDBRANCH  21  22
ENDBRANCH  20  21
ENDBRANCH  19  20
ENDBRANCH  18  19
ENDBRANCH  17  18
ENDBRANCH   1  17
TORSDOF 28
ENDMDL
