MODEL 1
REMARK VINA RESULT:    -4.379      0.000      0.000
REMARK INTER + INTRA:          -4.937
REMARK INTER:                  -4.763
REMARK INTRA:                  -0.174
REMARK UNBOUND:                -0.174
REMARK SMILES CC(C)(C)[C@@H]1C=C[C@@H](O)CC1
REMARK SMILES IDX 5 1 11 2 10 3 8 4 7 5 6 6 2 7 1 8 3 9 4 10 9 11
REMARK H PARENT 9 12
REMARK Flexibility Score: inf
ROOT
ATOM      1  C   UNL     1     136.623 133.737 149.006  1.00  0.00     0.017 C 
ATOM      2  C   UNL     1     135.749 132.896 148.027  1.00  0.00     0.011 C 
ATOM      3  C   UNL     1     135.913 131.382 148.211  1.00  0.00     0.037 C 
ATOM      4  C   UNL     1     135.598 130.966 149.649  1.00  0.00     0.137 C 
ATOM      5  C   UNL     1     136.350 131.815 150.639  1.00  0.00     0.000 C 
ATOM      6  C   UNL     1     136.754 133.068 150.372  1.00  0.00    -0.025 C 
ENDROOT
BRANCH   1   7
ATOM      7  C   UNL     1     138.012 134.216 148.420  1.00  0.00    -0.032 C 
ATOM      8  C   UNL     1     137.838 135.036 147.124  1.00  0.00     0.011 C 
ATOM      9  C   UNL     1     138.770 135.081 149.459  1.00  0.00     0.011 C 
ATOM     10  C   UNL     1     138.917 132.998 148.104  1.00  0.00     0.011 C 
ENDBRANCH   1   7
BRANCH   4  11
ATOM     11  O   UNL     1     134.218 131.081 149.880  1.00  0.00    -0.389 OA
ATOM     12  H   UNL     1     134.047 130.708 150.785  1.00  0.00     0.211 HD
ENDBRANCH   4  11
TORSDOF 2
ENDMDL
MODEL 2
REMARK VINA RESULT:    -4.049     13.852     15.181
REMARK INTER + INTRA:          -4.578
REMARK INTER:                  -4.290
REMARK INTRA:                  -0.288
REMARK UNBOUND:                -0.174
REMARK SMILES CC(C)(C)[C@@H]1C=C[C@@H](O)CC1
REMARK SMILES IDX 5 1 11 2 10 3 8 4 7 5 6 6 2 7 1 8 3 9 4 10 9 11
REMARK H PARENT 9 12
REMARK Flexibility Score: inf
ROOT
ATOM      1  C   UNL     1     130.354 139.368 136.919  1.00  0.00     0.017 C 
ATOM      2  C   UNL     1     130.714 140.440 137.993  1.00  0.00     0.011 C 
ATOM      3  C   UNL     1     132.217 140.529 138.286  1.00  0.00     0.037 C 
ATOM      4  C   UNL     1     133.010 140.812 137.008  1.00  0.00     0.137 C 
ATOM      5  C   UNL     1     132.629 139.857 135.908  1.00  0.00     0.000 C 
ATOM      6  C   UNL     1     131.427 139.262 135.839  1.00  0.00    -0.025 C 
ENDROOT
BRANCH   1   7
ATOM      7  C   UNL     1     129.922 137.960 137.498  1.00  0.00    -0.032 C 
ATOM      8  C   UNL     1     131.124 137.002 137.639  1.00  0.00     0.011 C 
ATOM      9  C   UNL     1     129.252 138.128 138.885  1.00  0.00     0.011 C 
ATOM     10  C   UNL     1     128.875 137.291 136.571  1.00  0.00     0.011 C 
ENDBRANCH   1   7
BRANCH   4  11
ATOM     11  O   UNL     1     132.775 142.131 136.591  1.00  0.00    -0.389 OA
ATOM     12  H   UNL     1     132.275 142.077 135.735  1.00  0.00     0.211 HD
ENDBRANCH   4  11
TORSDOF 2
ENDMDL
MODEL 3
REMARK VINA RESULT:    -4.048     13.906     14.938
REMARK INTER + INTRA:          -4.577
REMARK INTER:                  -4.477
REMARK INTRA:                  -0.100
REMARK UNBOUND:                -0.174
REMARK SMILES CC(C)(C)[C@@H]1C=C[C@@H](O)CC1
REMARK SMILES IDX 5 1 11 2 10 3 8 4 7 5 6 6 2 7 1 8 3 9 4 10 9 11
REMARK H PARENT 9 12
REMARK Flexibility Score: inf
ROOT
ATOM      1  C   UNL     1     131.580 139.165 136.155  1.00  0.00     0.017 C 
ATOM      2  C   UNL     1     130.032 138.976 136.133  1.00  0.00     0.011 C 
ATOM      3  C   UNL     1     129.403 138.932 137.531  1.00  0.00     0.037 C 
ATOM      4  C   UNL     1     129.744 140.194 138.326  1.00  0.00     0.137 C 
ATOM      5  C   UNL     1     131.223 140.472 138.299  1.00  0.00     0.000 C 
ATOM      6  C   UNL     1     132.027 140.064 137.304  1.00  0.00    -0.025 C 
ENDROOT
BRANCH   1   7
ATOM      7  C   UNL     1     132.419 137.827 136.058  1.00  0.00    -0.032 C 
ATOM      8  C   UNL     1     131.663 136.628 136.670  1.00  0.00     0.011 C 
ATOM      9  C   UNL     1     132.753 137.504 134.580  1.00  0.00     0.011 C 
ATOM     10  C   UNL     1     133.770 137.978 136.802  1.00  0.00     0.011 C 
ENDBRANCH   1   7
BRANCH   4  11
ATOM     11  O   UNL     1     129.047 141.289 137.791  1.00  0.00    -0.389 OA
ATOM     12  H   UNL     1     128.158 140.951 137.505  1.00  0.00     0.211 HD
ENDBRANCH   4  11
TORSDOF 2
ENDMDL
MODEL 4
REMARK VINA RESULT:    -4.034     13.850     14.705
REMARK INTER + INTRA:          -4.562
REMARK INTER:                  -4.349
REMARK INTRA:                  -0.213
REMARK UNBOUND:                -0.174
REMARK SMILES CC(C)(C)[C@@H]1C=C[C@@H](O)CC1
REMARK SMILES IDX 5 1 11 2 10 3 8 4 7 5 6 6 2 7 1 8 3 9 4 10 9 11
REMARK H PARENT 9 12
REMARK Flexibility Score: inf
ROOT
ATOM      1  C   UNL     1     131.585 138.590 137.684  1.00  0.00     0.017 C 
ATOM      2  C   UNL     1     132.620 139.756 137.667  1.00  0.00     0.011 C 
ATOM      3  C   UNL     1     131.975 141.143 137.549  1.00  0.00     0.037 C 
ATOM      4  C   UNL     1     130.971 141.379 138.679  1.00  0.00     0.137 C 
ATOM      5  C   UNL     1     130.003 140.232 138.796  1.00  0.00     0.000 C 
ATOM      6  C   UNL     1     130.299 138.981 138.407  1.00  0.00    -0.025 C 
ENDROOT
BRANCH   1   7
ATOM      7  C   UNL     1     131.319 137.911 136.280  1.00  0.00    -0.032 C 
ATOM      8  C   UNL     1     132.222 138.500 135.175  1.00  0.00     0.011 C 
ATOM      9  C   UNL     1     131.564 136.383 136.362  1.00  0.00     0.011 C 
ATOM     10  C   UNL     1     129.842 138.107 135.853  1.00  0.00     0.011 C 
ENDBRANCH   1   7
BRANCH   4  11
ATOM     11  O   UNL     1     131.658 141.544 139.892  1.00  0.00    -0.389 OA
ATOM     12  H   UNL     1     132.246 142.337 139.782  1.00  0.00     0.211 HD
ENDBRANCH   4  11
TORSDOF 2
ENDMDL
MODEL 5
REMARK VINA RESULT:    -3.877     11.420     13.489
REMARK INTER + INTRA:          -4.392
REMARK INTER:                  -4.125
REMARK INTRA:                  -0.267
REMARK UNBOUND:                -0.174
REMARK SMILES CC(C)(C)[C@@H]1C=C[C@@H](O)CC1
REMARK SMILES IDX 5 1 11 2 10 3 8 4 7 5 6 6 2 7 1 8 3 9 4 10 9 11
REMARK H PARENT 9 12
REMARK Flexibility Score: inf
ROOT
ATOM      1  C   UNL     1     147.489 138.157 144.998  1.00  0.00     0.017 C 
ATOM      2  C   UNL     1     146.551 138.546 143.815  1.00  0.00     0.011 C 
ATOM      3  C   UNL     1     146.704 140.007 143.372  1.00  0.00     0.037 C 
ATOM      4  C   UNL     1     148.153 140.316 142.988  1.00  0.00     0.137 C 
ATOM      5  C   UNL     1     149.108 139.870 144.063  1.00  0.00     0.000 C 
ATOM      6  C   UNL     1     148.835 138.872 144.919  1.00  0.00    -0.025 C 
ENDROOT
BRANCH   1   7
ATOM      7  C   UNL     1     146.828 138.247 146.433  1.00  0.00    -0.032 C 
ATOM      8  C   UNL     1     146.801 139.696 146.964  1.00  0.00     0.011 C 
ATOM      9  C   UNL     1     145.378 137.702 146.397  1.00  0.00     0.011 C 
ATOM     10  C   UNL     1     147.611 137.374 147.447  1.00  0.00     0.011 C 
ENDBRANCH   1   7
BRANCH   4  11
ATOM     11  O   UNL     1     148.467 139.671 141.781  1.00  0.00    -0.389 OA
ATOM     12  H   UNL     1     149.143 138.976 141.995  1.00  0.00     0.211 HD
ENDBRANCH   4  11
TORSDOF 2
ENDMDL
MODEL 6
REMARK VINA RESULT:    -3.871     10.577     12.314
REMARK INTER + INTRA:          -4.384
REMARK INTER:                  -4.116
REMARK INTRA:                  -0.268
REMARK UNBOUND:                -0.174
REMARK SMILES CC(C)(C)[C@@H]1C=C[C@@H](O)CC1
REMARK SMILES IDX 5 1 11 2 10 3 8 4 7 5 6 6 2 7 1 8 3 9 4 10 9 11
REMARK H PARENT 9 12
REMARK Flexibility Score: inf
ROOT
ATOM      1  C   UNL     1     145.955 139.697 144.112  1.00  0.00     0.017 C 
ATOM      2  C   UNL     1     144.893 138.590 144.394  1.00  0.00     0.011 C 
ATOM      3  C   UNL     1     145.395 137.491 145.340  1.00  0.00     0.037 C 
ATOM      4  C   UNL     1     145.868 138.084 146.668  1.00  0.00     0.137 C 
ATOM      5  C   UNL     1     146.828 139.222 146.446  1.00  0.00     0.000 C 
ATOM      6  C   UNL     1     146.826 139.975 145.334  1.00  0.00    -0.025 C 
ENDROOT
BRANCH   1   7
ATOM      7  C   UNL     1     146.797 139.494 142.789  1.00  0.00    -0.032 C 
ATOM      8  C   UNL     1     148.226 138.991 143.087  1.00  0.00     0.011 C 
ATOM      9  C   UNL     1     146.096 138.479 141.851  1.00  0.00     0.011 C 
ATOM     10  C   UNL     1     146.908 140.827 142.006  1.00  0.00     0.011 C 
ENDBRANCH   1   7
BRANCH   4  11
ATOM     11  O   UNL     1     144.761 138.535 147.403  1.00  0.00    -0.389 OA
ATOM     12  H   UNL     1     143.971 138.463 146.804  1.00  0.00     0.211 HD
ENDBRANCH   4  11
TORSDOF 2
ENDMDL
MODEL 7
REMARK VINA RESULT:    -3.860     13.698     14.713
REMARK INTER + INTRA:          -4.373
REMARK INTER:                  -4.265
REMARK INTRA:                  -0.108
REMARK UNBOUND:                -0.174
REMARK SMILES CC(C)(C)[C@@H]1C=C[C@@H](O)CC1
REMARK SMILES IDX 5 1 11 2 10 3 8 4 7 5 6 6 2 7 1 8 3 9 4 10 9 11
REMARK H PARENT 9 12
REMARK Flexibility Score: inf
ROOT
ATOM      1  C   UNL     1     132.003 139.503 136.271  1.00  0.00     0.017 C 
ATOM      2  C   UNL     1     130.523 139.013 136.315  1.00  0.00     0.011 C 
ATOM      3  C   UNL     1     129.944 138.949 137.734  1.00  0.00     0.037 C 
ATOM      4  C   UNL     1     130.044 140.308 138.429  1.00  0.00     0.137 C 
ATOM      5  C   UNL     1     131.438 140.869 138.332  1.00  0.00     0.000 C 
ATOM      6  C   UNL     1     132.287 140.554 137.340  1.00  0.00    -0.025 C 
ENDROOT
BRANCH   1   7
ATOM      7  C   UNL     1     133.088 138.352 136.236  1.00  0.00    -0.032 C 
ATOM      8  C   UNL     1     133.690 138.171 134.826  1.00  0.00     0.011 C 
ATOM      9  C   UNL     1     134.234 138.658 137.233  1.00  0.00     0.011 C 
ATOM     10  C   UNL     1     132.462 137.003 136.672  1.00  0.00     0.011 C 
ENDBRANCH   1   7
BRANCH   4  11
ATOM     11  O   UNL     1     129.133 141.203 137.845  1.00  0.00    -0.389 OA
ATOM     12  H   UNL     1     129.558 141.542 137.013  1.00  0.00     0.211 HD
ENDBRANCH   4  11
TORSDOF 2
ENDMDL
MODEL 8
REMARK VINA RESULT:    -3.851     10.873     12.695
REMARK INTER + INTRA:          -4.363
REMARK INTER:                  -4.126
REMARK INTRA:                  -0.236
REMARK UNBOUND:                -0.174
REMARK SMILES CC(C)(C)[C@@H]1C=C[C@@H](O)CC1
REMARK SMILES IDX 5 1 11 2 10 3 8 4 7 5 6 6 2 7 1 8 3 9 4 10 9 11
REMARK H PARENT 9 12
REMARK Flexibility Score: inf
ROOT
ATOM      1  C   UNL     1     147.001 138.518 144.115  1.00  0.00     0.017 C 
ATOM      2  C   UNL     1     147.967 139.195 145.134  1.00  0.00     0.011 C 
ATOM      3  C   UNL     1     147.240 139.907 146.283  1.00  0.00     0.037 C 
ATOM      4  C   UNL     1     146.317 138.942 147.030  1.00  0.00     0.137 C 
ATOM      5  C   UNL     1     145.426 138.192 146.077  1.00  0.00     0.000 C 
ATOM      6  C   UNL     1     145.757 137.954 144.797  1.00  0.00    -0.025 C 
ENDROOT
BRANCH   1   7
ATOM      7  C   UNL     1     146.662 139.385 142.836  1.00  0.00    -0.032 C 
ATOM      8  C   UNL     1     147.919 140.062 142.250  1.00  0.00     0.011 C 
ATOM      9  C   UNL     1     146.013 138.503 141.740  1.00  0.00     0.011 C 
ATOM     10  C   UNL     1     145.636 140.492 143.188  1.00  0.00     0.011 C 
ENDBRANCH   1   7
BRANCH   4  11
ATOM     11  O   UNL     1     147.089 138.032 147.771  1.00  0.00    -0.389 OA
ATOM     12  H   UNL     1     146.941 137.137 147.367  1.00  0.00     0.211 HD
ENDBRANCH   4  11
TORSDOF 2
ENDMDL
MODEL 9
REMARK VINA RESULT:    -3.762      2.156      3.287
REMARK INTER + INTRA:          -4.267
REMARK INTER:                  -4.105
REMARK INTRA:                  -0.162
REMARK UNBOUND:                -0.174
REMARK SMILES CC(C)(C)[C@@H]1C=C[C@@H](O)CC1
REMARK SMILES IDX 5 1 11 2 10 3 8 4 7 5 6 6 2 7 1 8 3 9 4 10 9 11
REMARK H PARENT 9 12
REMARK Flexibility Score: inf
ROOT
ATOM      1  C   UNL     1     139.553 134.952 148.395  1.00  0.00     0.017 C 
ATOM      2  C   UNL     1     139.510 133.681 147.492  1.00  0.00     0.011 C 
ATOM      3  C   UNL     1     138.759 132.505 148.131  1.00  0.00     0.037 C 
ATOM      4  C   UNL     1     137.331 132.904 148.505  1.00  0.00     0.137 C 
ATOM      5  C   UNL     1     137.313 134.182 149.301  1.00  0.00     0.000 C 
ATOM      6  C   UNL     1     138.272 135.117 149.208  1.00  0.00    -0.025 C 
ENDROOT
BRANCH   1   7
ATOM      7  C   UNL     1     140.862 135.106 149.271  1.00  0.00    -0.032 C 
ATOM      8  C   UNL     1     141.665 136.368 148.888  1.00  0.00     0.011 C 
ATOM      9  C   UNL     1     140.501 135.181 150.776  1.00  0.00     0.011 C 
ATOM     10  C   UNL     1     141.783 133.873 149.091  1.00  0.00     0.011 C 
ENDBRANCH   1   7
BRANCH   4  11
ATOM     11  O   UNL     1     136.566 133.064 147.338  1.00  0.00    -0.389 OA
ATOM     12  H   UNL     1     136.958 132.460 146.654  1.00  0.00     0.211 HD
ENDBRANCH   4  11
TORSDOF 2
ENDMDL
