MODEL 1
REMARK VINA RESULT:    -3.281      0.000      0.000
REMARK INTER + INTRA:          -6.609
REMARK INTER:                  -5.391
REMARK INTRA:                  -1.219
REMARK UNBOUND:                -1.219
REMARK SMILES CCCCCCCCCCCC(=O)OC
REMARK SMILES IDX 7 1 6 2 5 3 4 4 3 5 2 6 1 7 8 8 9 9 10 10 11 11 12 12 13 13
REMARK SMILES IDX 14 14 15 15
REMARK H PARENT
REMARK Flexibility Score: inf
ROOT
ATOM      1  C   UNL     1     203.950 198.434 216.683  1.00  0.00     0.000 C 
ENDROOT
BRANCH   1   2
ATOM      2  C   UNL     1     205.368 198.015 217.106  1.00  0.00     0.000 C 
BRANCH   2   3
ATOM      3  C   UNL     1     206.166 199.177 217.724  1.00  0.00    -0.000 C 
BRANCH   3   4
ATOM      4  C   UNL     1     207.435 199.520 216.925  1.00  0.00    -0.000 C 
BRANCH   4   5
ATOM      5  C   UNL     1     207.361 200.828 216.114  1.00  0.00    -0.000 C 
BRANCH   5   6
ATOM      6  C   UNL     1     206.597 200.693 214.781  1.00  0.00    -0.003 C 
ATOM      7  C   UNL     1     205.675 201.883 214.512  1.00  0.00     0.004 C 
ENDBRANCH   5   6
ENDBRANCH   4   5
ENDBRANCH   3   4
ENDBRANCH   2   3
ENDBRANCH   1   2
BRANCH   1   8
ATOM      8  C   UNL     1     203.645 199.906 217.012  1.00  0.00     0.000 C 
BRANCH   8   9
ATOM      9  C   UNL     1     202.471 200.462 216.190  1.00  0.00     0.001 C 
BRANCH   9  10
ATOM     10  C   UNL     1     201.330 201.001 217.071  1.00  0.00     0.012 C 
BRANCH  10  11
ATOM     11  C   UNL     1     201.148 200.176 218.353  1.00  0.00     0.123 C 
BRANCH  11  12
ATOM     12  C   UNL     1     200.193 199.041 218.148  1.00  0.00     0.305 C 
ATOM     13  O   UNL     1     200.635 197.869 218.003  1.00  0.00    -0.252 OA
BRANCH  12  14
ATOM     14  O   UNL     1     198.821 199.301 218.080  1.00  0.00    -0.469 OA
ATOM     15  C   UNL     1     198.135 200.060 219.069  1.00  0.00     0.282 C 
ENDBRANCH  12  14
ENDBRANCH  11  12
ENDBRANCH  10  11
ENDBRANCH   9  10
ENDBRANCH   8   9
ENDBRANCH   1   8
TORSDOF 11
ENDMDL
MODEL 2
REMARK VINA RESULT:    -3.281      3.030      7.255
REMARK INTER + INTRA:          -6.609
REMARK INTER:                  -5.895
REMARK INTRA:                  -0.714
REMARK UNBOUND:                -1.219
REMARK SMILES CCCCCCCCCCCC(=O)OC
REMARK SMILES IDX 7 1 6 2 5 3 4 4 3 5 2 6 1 7 8 8 9 9 10 10 11 11 12 12 13 13
REMARK SMILES IDX 14 14 15 15
REMARK H PARENT
REMARK Flexibility Score: inf
ROOT
ATOM      1  C   UNL     1     201.675 200.689 217.375  1.00  0.00     0.000 C 
ENDROOT
BRANCH   1   2
ATOM      2  C   UNL     1     201.326 200.281 218.815  1.00  0.00     0.000 C 
BRANCH   2   3
ATOM      3  C   UNL     1     199.835 199.943 218.989  1.00  0.00    -0.000 C 
BRANCH   3   4
ATOM      4  C   UNL     1     198.965 200.482 217.841  1.00  0.00    -0.000 C 
BRANCH   4   5
ATOM      5  C   UNL     1     197.448 200.465 218.110  1.00  0.00    -0.000 C 
BRANCH   5   6
ATOM      6  C   UNL     1     197.080 200.229 219.590  1.00  0.00    -0.003 C 
ATOM      7  C   UNL     1     196.245 201.370 220.174  1.00  0.00     0.004 C 
ENDBRANCH   5   6
ENDBRANCH   4   5
ENDBRANCH   3   4
ENDBRANCH   2   3
ENDBRANCH   1   2
BRANCH   1   8
ATOM      8  C   UNL     1     203.120 200.327 216.990  1.00  0.00     0.000 C 
BRANCH   8   9
ATOM      9  C   UNL     1     203.361 198.809 216.964  1.00  0.00     0.001 C 
BRANCH   9  10
ATOM     10  C   UNL     1     204.786 198.425 217.398  1.00  0.00     0.012 C 
BRANCH  10  11
ATOM     11  C   UNL     1     205.625 199.651 217.783  1.00  0.00     0.123 C 
BRANCH  11  12
ATOM     12  C   UNL     1     206.877 199.742 216.966  1.00  0.00     0.305 C 
ATOM     13  O   UNL     1     207.764 198.853 217.079  1.00  0.00    -0.252 OA
BRANCH  12  14
ATOM     14  O   UNL     1     207.065 200.835 216.114  1.00  0.00    -0.469 OA
ATOM     15  C   UNL     1     206.254 201.060 214.967  1.00  0.00     0.282 C 
ENDBRANCH  12  14
ENDBRANCH  11  12
ENDBRANCH  10  11
ENDBRANCH   9  10
ENDBRANCH   8   9
ENDBRANCH   1   8
TORSDOF 11
ENDMDL
MODEL 3
REMARK VINA RESULT:    -3.259      8.457     11.203
REMARK INTER + INTRA:          -6.573
REMARK INTER:                  -5.493
REMARK INTRA:                  -1.080
REMARK UNBOUND:                -1.219
REMARK SMILES CCCCCCCCCCCC(=O)OC
REMARK SMILES IDX 7 1 6 2 5 3 4 4 3 5 2 6 1 7 8 8 9 9 10 10 11 11 12 12 13 13
REMARK SMILES IDX 14 14 15 15
REMARK H PARENT
REMARK Flexibility Score: inf
ROOT
ATOM      1  C   UNL     1     194.899 207.191 215.834  1.00  0.00     0.000 C 
ENDROOT
BRANCH   1   2
ATOM      2  C   UNL     1     194.831 206.395 217.147  1.00  0.00     0.000 C 
BRANCH   2   3
ATOM      3  C   UNL     1     195.933 206.800 218.141  1.00  0.00    -0.000 C 
BRANCH   3   4
ATOM      4  C   UNL     1     197.049 205.748 218.255  1.00  0.00    -0.000 C 
BRANCH   4   5
ATOM      5  C   UNL     1     196.819 204.462 217.437  1.00  0.00    -0.000 C 
BRANCH   5   6
ATOM      6  C   UNL     1     197.752 204.324 216.217  1.00  0.00    -0.003 C 
ATOM      7  C   UNL     1     198.807 205.430 216.160  1.00  0.00     0.004 C 
ENDBRANCH   5   6
ENDBRANCH   4   5
ENDBRANCH   3   4
ENDBRANCH   2   3
ENDBRANCH   1   2
BRANCH   1   8
ATOM      8  C   UNL     1     196.238 207.928 215.658  1.00  0.00     0.000 C 
BRANCH   8   9
ATOM      9  C   UNL     1     196.083 209.261 214.908  1.00  0.00     0.001 C 
BRANCH   9  10
ATOM     10  C   UNL     1     197.435 209.887 214.522  1.00  0.00     0.012 C 
BRANCH  10  11
ATOM     11  C   UNL     1     198.600 208.902 214.691  1.00  0.00     0.123 C 
BRANCH  11  12
ATOM     12  C   UNL     1     199.223 208.552 213.375  1.00  0.00     0.305 C 
ATOM     13  O   UNL     1     198.541 207.952 212.500  1.00  0.00    -0.252 OA
BRANCH  12  14
ATOM     14  O   UNL     1     200.567 208.860 213.146  1.00  0.00    -0.469 OA
ATOM     15  C   UNL     1     201.097 209.046 211.839  1.00  0.00     0.282 C 
ENDBRANCH  12  14
ENDBRANCH  11  12
ENDBRANCH  10  11
ENDBRANCH   9  10
ENDBRANCH   8   9
ENDBRANCH   1   8
TORSDOF 11
ENDMDL
MODEL 4
REMARK VINA RESULT:    -3.244      9.171     11.478
REMARK INTER + INTRA:          -6.549
REMARK INTER:                  -4.904
REMARK INTRA:                  -1.646
REMARK UNBOUND:                -1.219
REMARK SMILES CCCCCCCCCCCC(=O)OC
REMARK SMILES IDX 7 1 6 2 5 3 4 4 3 5 2 6 1 7 8 8 9 9 10 10 11 11 12 12 13 13
REMARK SMILES IDX 14 14 15 15
REMARK H PARENT
REMARK Flexibility Score: inf
ROOT
ATOM      1  C   UNL     1     197.845 205.938 216.180  1.00  0.00     0.000 C 
ENDROOT
BRANCH   1   2
ATOM      2  C   UNL     1     197.143 205.137 217.288  1.00  0.00     0.000 C 
BRANCH   2   3
ATOM      3  C   UNL     1     196.905 205.971 218.559  1.00  0.00    -0.000 C 
BRANCH   3   4
ATOM      4  C   UNL     1     195.564 206.723 218.536  1.00  0.00    -0.000 C 
BRANCH   4   5
ATOM      5  C   UNL     1     194.348 205.875 218.115  1.00  0.00    -0.000 C 
BRANCH   5   6
ATOM      6  C   UNL     1     193.601 206.426 216.883  1.00  0.00    -0.003 C 
ATOM      7  C   UNL     1     193.427 205.376 215.786  1.00  0.00     0.004 C 
ENDBRANCH   5   6
ENDBRANCH   4   5
ENDBRANCH   3   4
ENDBRANCH   2   3
ENDBRANCH   1   2
BRANCH   1   8
ATOM      8  C   UNL     1     197.047 205.951 214.864  1.00  0.00     0.000 C 
BRANCH   8   9
ATOM      9  C   UNL     1     196.337 207.292 214.619  1.00  0.00     0.001 C 
BRANCH   9  10
ATOM     10  C   UNL     1     196.880 208.425 215.508  1.00  0.00     0.012 C 
BRANCH  10  11
ATOM     11  C   UNL     1     197.604 209.505 214.692  1.00  0.00     0.123 C 
BRANCH  11  12
ATOM     12  C   UNL     1     198.894 208.998 214.125  1.00  0.00     0.305 C 
ATOM     13  O   UNL     1     199.803 208.595 214.902  1.00  0.00    -0.252 OA
BRANCH  12  14
ATOM     14  O   UNL     1     199.091 209.014 212.742  1.00  0.00    -0.469 OA
ATOM     15  C   UNL     1     198.081 209.427 211.829  1.00  0.00     0.282 C 
ENDBRANCH  12  14
ENDBRANCH  11  12
ENDBRANCH  10  11
ENDBRANCH   9  10
ENDBRANCH   8   9
ENDBRANCH   1   8
TORSDOF 11
ENDMDL
MODEL 5
REMARK VINA RESULT:    -3.227      3.109      6.380
REMARK INTER + INTRA:          -6.520
REMARK INTER:                  -5.323
REMARK INTRA:                  -1.197
REMARK UNBOUND:                -1.219
REMARK SMILES CCCCCCCCCCCC(=O)OC
REMARK SMILES IDX 7 1 6 2 5 3 4 4 3 5 2 6 1 7 8 8 9 9 10 10 11 11 12 12 13 13
REMARK SMILES IDX 14 14 15 15
REMARK H PARENT
REMARK Flexibility Score: inf
ROOT
ATOM      1  C   UNL     1     203.913 201.090 215.223  1.00  0.00     0.000 C 
ENDROOT
BRANCH   1   2
ATOM      2  C   UNL     1     202.469 200.636 215.489  1.00  0.00     0.000 C 
BRANCH   2   3
ATOM      3  C   UNL     1     201.826 201.377 216.675  1.00  0.00    -0.000 C 
BRANCH   3   4
ATOM      4  C   UNL     1     202.133 200.714 218.029  1.00  0.00    -0.000 C 
BRANCH   4   5
ATOM      5  C   UNL     1     200.917 200.088 218.738  1.00  0.00    -0.000 C 
BRANCH   5   6
ATOM      6  C   UNL     1     200.191 199.015 217.901  1.00  0.00    -0.003 C 
ATOM      7  C   UNL     1     201.000 197.724 217.776  1.00  0.00     0.004 C 
ENDBRANCH   5   6
ENDBRANCH   4   5
ENDBRANCH   3   4
ENDBRANCH   2   3
ENDBRANCH   1   2
BRANCH   1   8
ATOM      8  C   UNL     1     204.936 199.959 215.434  1.00  0.00     0.000 C 
BRANCH   8   9
ATOM      9  C   UNL     1     204.275 198.637 215.853  1.00  0.00     0.001 C 
BRANCH   9  10
ATOM     10  C   UNL     1     204.612 198.236 217.300  1.00  0.00     0.012 C 
BRANCH  10  11
ATOM     11  C   UNL     1     205.935 198.849 217.779  1.00  0.00     0.123 C 
BRANCH  11  12
ATOM     12  C   UNL     1     207.099 197.959 217.470  1.00  0.00     0.305 C 
ATOM     13  O   UNL     1     206.920 196.719 217.333  1.00  0.00    -0.252 OA
BRANCH  12  14
ATOM     14  O   UNL     1     208.380 198.511 217.376  1.00  0.00    -0.469 OA
ATOM     15  C   UNL     1     209.561 197.738 217.555  1.00  0.00     0.282 C 
ENDBRANCH  12  14
ENDBRANCH  11  12
ENDBRANCH  10  11
ENDBRANCH   9  10
ENDBRANCH   8   9
ENDBRANCH   1   8
TORSDOF 11
ENDMDL
MODEL 6
REMARK VINA RESULT:    -3.226      1.583      2.293
REMARK INTER + INTRA:          -6.520
REMARK INTER:                  -4.898
REMARK INTRA:                  -1.622
REMARK UNBOUND:                -1.219
REMARK SMILES CCCCCCCCCCCC(=O)OC
REMARK SMILES IDX 7 1 6 2 5 3 4 4 3 5 2 6 1 7 8 8 9 9 10 10 11 11 12 12 13 13
REMARK SMILES IDX 14 14 15 15
REMARK H PARENT
REMARK Flexibility Score: inf
ROOT
ATOM      1  C   UNL     1     204.382 198.582 214.783  1.00  0.00     0.000 C 
ENDROOT
BRANCH   1   2
ATOM      2  C   UNL     1     204.110 197.448 215.784  1.00  0.00     0.000 C 
BRANCH   2   3
ATOM      3  C   UNL     1     204.419 197.855 217.236  1.00  0.00    -0.000 C 
BRANCH   3   4
ATOM      4  C   UNL     1     205.897 198.228 217.448  1.00  0.00    -0.000 C 
BRANCH   4   5
ATOM      5  C   UNL     1     206.156 199.715 217.758  1.00  0.00    -0.000 C 
BRANCH   5   6
ATOM      6  C   UNL     1     207.033 200.426 216.707  1.00  0.00    -0.003 C 
ATOM      7  C   UNL     1     207.901 199.451 215.912  1.00  0.00     0.004 C 
ENDBRANCH   5   6
ENDBRANCH   4   5
ENDBRANCH   3   4
ENDBRANCH   2   3
ENDBRANCH   1   2
BRANCH   1   8
ATOM      8  C   UNL     1     203.208 199.571 214.676  1.00  0.00     0.000 C 
BRANCH   8   9
ATOM      9  C   UNL     1     203.477 200.888 215.423  1.00  0.00     0.001 C 
BRANCH   9  10
ATOM     10  C   UNL     1     202.301 201.314 216.320  1.00  0.00     0.012 C 
BRANCH  10  11
ATOM     11  C   UNL     1     202.433 200.767 217.748  1.00  0.00     0.123 C 
BRANCH  11  12
ATOM     12  C   UNL     1     201.226 199.978 218.151  1.00  0.00     0.305 C 
ATOM     13  O   UNL     1     200.674 200.204 219.262  1.00  0.00    -0.252 OA
BRANCH  12  14
ATOM     14  O   UNL     1     200.749 198.971 217.307  1.00  0.00    -0.469 OA
ATOM     15  C   UNL     1     200.761 197.597 217.672  1.00  0.00     0.282 C 
ENDBRANCH  12  14
ENDBRANCH  11  12
ENDBRANCH  10  11
ENDBRANCH   9  10
ENDBRANCH   8   9
ENDBRANCH   1   8
TORSDOF 11
ENDMDL
MODEL 7
REMARK VINA RESULT:    -3.210      2.399      6.130
REMARK INTER + INTRA:          -6.493
REMARK INTER:                  -5.366
REMARK INTRA:                  -1.127
REMARK UNBOUND:                -1.219
REMARK SMILES CCCCCCCCCCCC(=O)OC
REMARK SMILES IDX 7 1 6 2 5 3 4 4 3 5 2 6 1 7 8 8 9 9 10 10 11 11 12 12 13 13
REMARK SMILES IDX 14 14 15 15
REMARK H PARENT
REMARK Flexibility Score: inf
ROOT
ATOM      1  C   UNL     1     203.223 200.680 214.370  1.00  0.00     0.000 C 
ENDROOT
BRANCH   1   2
ATOM      2  C   UNL     1     201.895 201.088 215.029  1.00  0.00     0.000 C 
BRANCH   2   3
ATOM      3  C   UNL     1     202.098 201.762 216.397  1.00  0.00    -0.000 C 
BRANCH   3   4
ATOM      4  C   UNL     1     202.577 200.781 217.480  1.00  0.00    -0.000 C 
BRANCH   4   5
ATOM      5  C   UNL     1     201.584 199.653 217.822  1.00  0.00    -0.000 C 
BRANCH   5   6
ATOM      6  C   UNL     1     200.581 200.022 218.934  1.00  0.00    -0.003 C 
ATOM      7  C   UNL     1     199.153 200.173 218.408  1.00  0.00     0.004 C 
ENDBRANCH   5   6
ENDBRANCH   4   5
ENDBRANCH   3   4
ENDBRANCH   2   3
ENDBRANCH   1   2
BRANCH   1   8
ATOM      8  C   UNL     1     204.221 201.848 214.278  1.00  0.00     0.000 C 
BRANCH   8   9
ATOM      9  C   UNL     1     205.584 201.510 214.904  1.00  0.00     0.001 C 
BRANCH   9  10
ATOM     10  C   UNL     1     205.638 200.083 215.477  1.00  0.00     0.012 C 
BRANCH  10  11
ATOM     11  C   UNL     1     206.438 200.013 216.785  1.00  0.00     0.123 C 
BRANCH  11  12
ATOM     12  C   UNL     1     206.227 198.710 217.492  1.00  0.00     0.305 C 
ATOM     13  O   UNL     1     205.055 198.317 217.743  1.00  0.00    -0.252 OA
BRANCH  12  14
ATOM     14  O   UNL     1     207.334 197.963 217.904  1.00  0.00    -0.469 OA
ATOM     15  C   UNL     1     208.618 198.106 217.308  1.00  0.00     0.282 C 
ENDBRANCH  12  14
ENDBRANCH  11  12
ENDBRANCH  10  11
ENDBRANCH   9  10
ENDBRANCH   8   9
ENDBRANCH   1   8
TORSDOF 11
ENDMDL
MODEL 8
REMARK VINA RESULT:    -3.204      8.039     10.661
REMARK INTER + INTRA:          -6.482
REMARK INTER:                  -4.975
REMARK INTRA:                  -1.507
REMARK UNBOUND:                -1.219
REMARK SMILES CCCCCCCCCCCC(=O)OC
REMARK SMILES IDX 7 1 6 2 5 3 4 4 3 5 2 6 1 7 8 8 9 9 10 10 11 11 12 12 13 13
REMARK SMILES IDX 14 14 15 15
REMARK H PARENT
REMARK Flexibility Score: inf
ROOT
ATOM      1  C   UNL     1     197.060 203.525 217.076  1.00  0.00     0.000 C 
ENDROOT
BRANCH   1   2
ATOM      2  C   UNL     1     196.153 204.208 218.114  1.00  0.00     0.000 C 
BRANCH   2   3
ATOM      3  C   UNL     1     196.728 205.545 218.611  1.00  0.00    -0.000 C 
BRANCH   3   4
ATOM      4  C   UNL     1     195.825 206.744 218.275  1.00  0.00    -0.000 C 
BRANCH   4   5
ATOM      5  C   UNL     1     194.603 206.413 217.396  1.00  0.00    -0.000 C 
BRANCH   5   6
ATOM      6  C   UNL     1     194.616 207.113 216.022  1.00  0.00    -0.003 C 
ATOM      7  C   UNL     1     194.287 206.157 214.875  1.00  0.00     0.004 C 
ENDBRANCH   5   6
ENDBRANCH   4   5
ENDBRANCH   3   4
ENDBRANCH   2   3
ENDBRANCH   1   2
BRANCH   1   8
ATOM      8  C   UNL     1     197.353 204.426 215.863  1.00  0.00     0.000 C 
BRANCH   8   9
ATOM      9  C   UNL     1     198.852 204.721 215.696  1.00  0.00     0.001 C 
BRANCH   9  10
ATOM     10  C   UNL     1     199.187 206.213 215.863  1.00  0.00     0.012 C 
BRANCH  10  11
ATOM     11  C   UNL     1     198.174 207.119 215.150  1.00  0.00     0.123 C 
BRANCH  11  12
ATOM     12  C   UNL     1     198.801 208.401 214.697  1.00  0.00     0.305 C 
ATOM     13  O   UNL     1     198.077 209.412 214.487  1.00  0.00    -0.252 OA
BRANCH  12  14
ATOM     14  O   UNL     1     200.180 208.450 214.473  1.00  0.00    -0.469 OA
ATOM     15  C   UNL     1     200.743 208.472 213.167  1.00  0.00     0.282 C 
ENDBRANCH  12  14
ENDBRANCH  11  12
ENDBRANCH  10  11
ENDBRANCH   9  10
ENDBRANCH   8   9
ENDBRANCH   1   8
TORSDOF 11
ENDMDL
MODEL 9
REMARK VINA RESULT:    -3.175      1.116      2.073
REMARK INTER + INTRA:          -6.435
REMARK INTER:                  -5.070
REMARK INTRA:                  -1.365
REMARK UNBOUND:                -1.219
REMARK SMILES CCCCCCCCCCCC(=O)OC
REMARK SMILES IDX 7 1 6 2 5 3 4 4 3 5 2 6 1 7 8 8 9 9 10 10 11 11 12 12 13 13
REMARK SMILES IDX 14 14 15 15
REMARK H PARENT
REMARK Flexibility Score: inf
ROOT
ATOM      1  C   UNL     1     205.854 199.471 217.615  1.00  0.00     0.000 C 
ENDROOT
BRANCH   1   2
ATOM      2  C   UNL     1     207.235 199.144 217.022  1.00  0.00     0.000 C 
BRANCH   2   3
ATOM      3  C   UNL     1     207.676 200.163 215.957  1.00  0.00    -0.000 C 
BRANCH   3   4
ATOM      4  C   UNL     1     206.633 200.348 214.841  1.00  0.00    -0.000 C 
BRANCH   4   5
ATOM      5  C   UNL     1     206.065 201.775 214.712  1.00  0.00    -0.000 C 
BRANCH   5   6
ATOM      6  C   UNL     1     204.562 201.817 214.368  1.00  0.00    -0.003 C 
ATOM      7  C   UNL     1     204.043 200.478 213.845  1.00  0.00     0.004 C 
ENDBRANCH   5   6
ENDBRANCH   4   5
ENDBRANCH   3   4
ENDBRANCH   2   3
ENDBRANCH   1   2
BRANCH   1   8
ATOM      8  C   UNL     1     204.852 198.314 217.455  1.00  0.00     0.000 C 
BRANCH   8   9
ATOM      9  C   UNL     1     203.454 198.799 217.039  1.00  0.00     0.001 C 
BRANCH   9  10
ATOM     10  C   UNL     1     203.167 200.243 217.486  1.00  0.00     0.012 C 
BRANCH  10  11
ATOM     11  C   UNL     1     201.792 200.734 217.013  1.00  0.00     0.123 C 
BRANCH  11  12
ATOM     12  C   UNL     1     200.693 200.235 217.898  1.00  0.00     0.305 C 
ATOM     13  O   UNL     1     200.825 200.289 219.151  1.00  0.00    -0.252 OA
BRANCH  12  14
ATOM     14  O   UNL     1     199.546 199.677 217.324  1.00  0.00    -0.469 OA
ATOM     15  C   UNL     1     198.346 199.470 218.059  1.00  0.00     0.282 C 
ENDBRANCH  12  14
ENDBRANCH  11  12
ENDBRANCH  10  11
ENDBRANCH   9  10
ENDBRANCH   8   9
ENDBRANCH   1   8
TORSDOF 11
ENDMDL
