MODEL 1
REMARK VINA RESULT:    -2.469      0.000      0.000
REMARK INTER + INTRA:          -4.534
REMARK INTER:                  -3.767
REMARK INTRA:                  -0.767
REMARK UNBOUND:                -0.767
REMARK SMILES O=C([O-])CCCCCCCCC(=O)[O-]
REMARK SMILES IDX 7 1 6 2 5 3 4 4 2 5 1 6 3 7 8 8 9 9 10 10 11 11 12 12 13 13
REMARK SMILES IDX 14 14
REMARK H PARENT
REMARK Flexibility Score: inf
ROOT
ATOM      1  C   UNL     1      -0.693  14.811  -2.269  1.00  0.00     0.000 C 
ENDROOT
BRANCH   1   2
ATOM      2  C   UNL     1       0.114  14.549  -3.550  1.00  0.00     0.000 C 
BRANCH   2   3
ATOM      3  C   UNL     1      -0.412  13.313  -4.288  1.00  0.00     0.006 C 
BRANCH   3   4
ATOM      4  C   UNL     1      -0.030  13.353  -5.770  1.00  0.00     0.053 C 
BRANCH   4   5
ATOM      5  C   UNL     1       1.456  13.295  -5.929  1.00  0.00     0.041 C 
ATOM      6  O   UNL     1       2.053  14.155  -6.629  1.00  0.00    -0.550 OA
ATOM      7  O   UNL     1       2.178  12.263  -5.345  1.00  0.00    -0.550 OA
ENDBRANCH   4   5
ENDBRANCH   3   4
ENDBRANCH   2   3
ENDBRANCH   1   2
BRANCH   1   8
ATOM      8  C   UNL     1      -1.730  13.712  -1.987  1.00  0.00     0.000 C 
BRANCH   8   9
ATOM      9  C   UNL     1      -1.907  13.436  -0.486  1.00  0.00     0.000 C 
BRANCH   9  10
ATOM     10  C   UNL     1      -1.272  12.093  -0.096  1.00  0.00     0.006 C 
BRANCH  10  11
ATOM     11  C   UNL     1       0.233  12.219   0.175  1.00  0.00     0.053 C 
BRANCH  11  12
ATOM     12  C   UNL     1       1.032  11.288  -0.684  1.00  0.00     0.041 C 
ATOM     13  O   UNL     1       1.179  10.084  -0.348  1.00  0.00    -0.550 OA
ATOM     14  O   UNL     1       1.588  11.743  -1.872  1.00  0.00    -0.550 OA
ENDBRANCH  11  12
ENDBRANCH  10  11
ENDBRANCH   9  10
ENDBRANCH   8   9
ENDBRANCH   1   8
TORSDOF 9
ENDMDL
MODEL 2
REMARK VINA RESULT:    -2.445      1.386      1.767
REMARK INTER + INTRA:          -4.498
REMARK INTER:                  -3.833
REMARK INTRA:                  -0.665
REMARK UNBOUND:                -0.767
REMARK SMILES O=C([O-])CCCCCCCCC(=O)[O-]
REMARK SMILES IDX 7 1 6 2 5 3 4 4 2 5 1 6 3 7 8 8 9 9 10 10 11 11 12 12 13 13
REMARK SMILES IDX 14 14
REMARK H PARENT
REMARK Flexibility Score: inf
ROOT
ATOM      1  C   UNL     1       0.611  15.335  -2.805  1.00  0.00     0.000 C 
ENDROOT
BRANCH   1   2
ATOM      2  C   UNL     1       0.746  15.343  -4.335  1.00  0.00     0.000 C 
BRANCH   2   3
ATOM      3  C   UNL     1       1.087  13.944  -4.863  1.00  0.00     0.006 C 
BRANCH   3   4
ATOM      4  C   UNL     1      -0.126  13.302  -5.542  1.00  0.00     0.053 C 
BRANCH   4   5
ATOM      5  C   UNL     1       0.032  13.328  -7.030  1.00  0.00     0.041 C 
ATOM      6  O   UNL     1      -0.914  12.956  -7.774  1.00  0.00    -0.550 OA
ATOM      7  O   UNL     1       1.240  13.714  -7.594  1.00  0.00    -0.550 OA
ENDBRANCH   4   5
ENDBRANCH   3   4
ENDBRANCH   2   3
ENDBRANCH   1   2
BRANCH   1   8
ATOM      8  C   UNL     1      -0.844  15.167  -2.338  1.00  0.00     0.000 C 
BRANCH   8   9
ATOM      9  C   UNL     1      -1.150  13.740  -1.858  1.00  0.00     0.000 C 
BRANCH   9  10
ATOM     10  C   UNL     1       0.128  13.036  -1.380  1.00  0.00     0.006 C 
BRANCH  10  11
ATOM     11  C   UNL     1      -0.120  12.152  -0.151  1.00  0.00     0.053 C 
BRANCH  11  12
ATOM     12  C   UNL     1       0.657  10.873  -0.220  1.00  0.00     0.041 C 
ATOM     13  O   UNL     1       0.292   9.872   0.450  1.00  0.00    -0.550 OA
ATOM     14  O   UNL     1       1.767  10.779  -1.050  1.00  0.00    -0.550 OA
ENDBRANCH  11  12
ENDBRANCH  10  11
ENDBRANCH   9  10
ENDBRANCH   8   9
ENDBRANCH   1   8
TORSDOF 9
ENDMDL
MODEL 3
REMARK VINA RESULT:    -2.437      2.174      3.088
REMARK INTER + INTRA:          -4.486
REMARK INTER:                  -3.635
REMARK INTRA:                  -0.851
REMARK UNBOUND:                -0.767
REMARK SMILES O=C([O-])CCCCCCCCC(=O)[O-]
REMARK SMILES IDX 7 1 6 2 5 3 4 4 2 5 1 6 3 7 8 8 9 9 10 10 11 11 12 12 13 13
REMARK SMILES IDX 14 14
REMARK H PARENT
REMARK Flexibility Score: inf
ROOT
ATOM      1  C   UNL     1       0.954  15.558  -4.152  1.00  0.00     0.000 C 
ENDROOT
BRANCH   1   2
ATOM      2  C   UNL     1       1.589  14.223  -3.732  1.00  0.00     0.000 C 
BRANCH   2   3
ATOM      3  C   UNL     1       1.240  13.112  -4.730  1.00  0.00     0.006 C 
BRANCH   3   4
ATOM      4  C   UNL     1      -0.087  13.404  -5.436  1.00  0.00     0.053 C 
BRANCH   4   5
ATOM      5  C   UNL     1       0.072  13.285  -6.919  1.00  0.00     0.041 C 
ATOM      6  O   UNL     1      -0.922  13.011  -7.642  1.00  0.00    -0.550 OA
ATOM      7  O   UNL     1       1.326  13.427  -7.498  1.00  0.00    -0.550 OA
ENDBRANCH   4   5
ENDBRANCH   3   4
ENDBRANCH   2   3
ENDBRANCH   1   2
BRANCH   1   8
ATOM      8  C   UNL     1       0.367  16.336  -2.963  1.00  0.00     0.000 C 
BRANCH   8   9
ATOM      9  C   UNL     1      -0.018  15.422  -1.789  1.00  0.00     0.000 C 
BRANCH   9  10
ATOM     10  C   UNL     1      -1.514  15.076  -1.831  1.00  0.00     0.006 C 
BRANCH  10  11
ATOM     11  C   UNL     1      -1.758  13.563  -1.903  1.00  0.00     0.053 C 
BRANCH  11  12
ATOM     12  C   UNL     1      -2.180  13.005  -0.578  1.00  0.00     0.041 C 
ATOM     13  O   UNL     1      -3.140  13.521   0.051  1.00  0.00    -0.550 OA
ATOM     14  O   UNL     1      -1.531  11.895  -0.053  1.00  0.00    -0.550 OA
ENDBRANCH  11  12
ENDBRANCH  10  11
ENDBRANCH   9  10
ENDBRANCH   8   9
ENDBRANCH   1   8
TORSDOF 9
ENDMDL
MODEL 4
REMARK VINA RESULT:    -2.427      6.677      7.741
REMARK INTER + INTRA:          -4.471
REMARK INTER:                  -3.660
REMARK INTRA:                  -0.811
REMARK UNBOUND:                -0.767
REMARK SMILES O=C([O-])CCCCCCCCC(=O)[O-]
REMARK SMILES IDX 7 1 6 2 5 3 4 4 2 5 1 6 3 7 8 8 9 9 10 10 11 11 12 12 13 13
REMARK SMILES IDX 14 14
REMARK H PARENT
REMARK Flexibility Score: inf
ROOT
ATOM      1  C   UNL     1      -2.343  10.638 -11.145  1.00  0.00     0.000 C 
ENDROOT
BRANCH   1   2
ATOM      2  C   UNL     1      -3.219  11.898 -11.227  1.00  0.00     0.000 C 
BRANCH   2   3
ATOM      3  C   UNL     1      -2.423  13.146 -10.827  1.00  0.00     0.006 C 
BRANCH   3   4
ATOM      4  C   UNL     1      -0.938  12.818 -10.649  1.00  0.00     0.053 C 
BRANCH   4   5
ATOM      5  C   UNL     1      -0.454  13.293  -9.316  1.00  0.00     0.041 C 
ATOM      6  O   UNL     1       0.585  14.002  -9.235  1.00  0.00    -0.550 OA
ATOM      7  O   UNL     1      -1.119  12.914  -8.158  1.00  0.00    -0.550 OA
ENDBRANCH   4   5
ENDBRANCH   3   4
ENDBRANCH   2   3
ENDBRANCH   1   2
BRANCH   1   8
ATOM      8  C   UNL     1      -3.009   9.503 -10.351  1.00  0.00     0.000 C 
BRANCH   8   9
ATOM      9  C   UNL     1      -2.950   9.729  -8.832  1.00  0.00     0.000 C 
BRANCH   9  10
ATOM     10  C   UNL     1      -1.548   9.423  -8.286  1.00  0.00     0.006 C 
BRANCH  10  11
ATOM     11  C   UNL     1      -1.118   7.977  -8.568  1.00  0.00     0.053 C 
BRANCH  11  12
ATOM     12  C   UNL     1      -1.604   7.037  -7.507  1.00  0.00     0.041 C 
ATOM     13  O   UNL     1      -2.640   6.349  -7.695  1.00  0.00    -0.550 OA
ATOM     14  O   UNL     1      -0.891   6.898  -6.323  1.00  0.00    -0.550 OA
ENDBRANCH  11  12
ENDBRANCH  10  11
ENDBRANCH   9  10
ENDBRANCH   8   9
ENDBRANCH   1   8
TORSDOF 9
ENDMDL
MODEL 5
REMARK VINA RESULT:    -2.419      1.960      2.566
REMARK INTER + INTRA:          -4.458
REMARK INTER:                  -3.501
REMARK INTRA:                  -0.957
REMARK UNBOUND:                -0.767
REMARK SMILES O=C([O-])CCCCCCCCC(=O)[O-]
REMARK SMILES IDX 7 1 6 2 5 3 4 4 2 5 1 6 3 7 8 8 9 9 10 10 11 11 12 12 13 13
REMARK SMILES IDX 14 14
REMARK H PARENT
REMARK Flexibility Score: inf
ROOT
ATOM      1  C   UNL     1       0.877  15.705  -3.615  1.00  0.00     0.000 C 
ENDROOT
BRANCH   1   2
ATOM      2  C   UNL     1       1.248  15.051  -4.955  1.00  0.00     0.000 C 
BRANCH   2   3
ATOM      3  C   UNL     1       0.311  13.880  -5.272  1.00  0.00     0.006 C 
BRANCH   3   4
ATOM      4  C   UNL     1       0.910  12.973  -6.351  1.00  0.00     0.053 C 
BRANCH   4   5
ATOM      5  C   UNL     1       0.298  13.270  -7.683  1.00  0.00     0.041 C 
ATOM      6  O   UNL     1       0.981  13.825  -8.585  1.00  0.00    -0.550 OA
ATOM      7  O   UNL     1      -1.040  12.979  -7.915  1.00  0.00    -0.550 OA
ENDBRANCH   4   5
ENDBRANCH   3   4
ENDBRANCH   2   3
ENDBRANCH   1   2
BRANCH   1   8
ATOM      8  C   UNL     1      -0.309  15.013  -2.925  1.00  0.00     0.000 C 
BRANCH   8   9
ATOM      9  C   UNL     1       0.091  14.322  -1.612  1.00  0.00     0.000 C 
BRANCH   9  10
ATOM     10  C   UNL     1       0.210  12.803  -1.806  1.00  0.00     0.006 C 
BRANCH  10  11
ATOM     11  C   UNL     1       1.611  12.282  -1.458  1.00  0.00     0.053 C 
BRANCH  11  12
ATOM     12  C   UNL     1       2.565  12.448  -2.601  1.00  0.00     0.041 C 
ATOM     13  O   UNL     1       3.362  13.421  -2.626  1.00  0.00    -0.550 OA
ATOM     14  O   UNL     1       2.594  11.508  -3.624  1.00  0.00    -0.550 OA
ENDBRANCH  11  12
ENDBRANCH  10  11
ENDBRANCH   9  10
ENDBRANCH   8   9
ENDBRANCH   1   8
TORSDOF 9
ENDMDL
MODEL 6
REMARK VINA RESULT:    -2.419      2.672      3.360
REMARK INTER + INTRA:          -4.458
REMARK INTER:                  -3.596
REMARK INTRA:                  -0.862
REMARK UNBOUND:                -0.767
REMARK SMILES O=C([O-])CCCCCCCCC(=O)[O-]
REMARK SMILES IDX 7 1 6 2 5 3 4 4 2 5 1 6 3 7 8 8 9 9 10 10 11 11 12 12 13 13
REMARK SMILES IDX 14 14
REMARK H PARENT
REMARK Flexibility Score: inf
ROOT
ATOM      1  C   UNL     1       1.118  16.161  -3.467  1.00  0.00     0.000 C 
ENDROOT
BRANCH   1   2
ATOM      2  C   UNL     1       1.050  15.542  -4.872  1.00  0.00     0.000 C 
BRANCH   2   3
ATOM      3  C   UNL     1       1.090  14.011  -4.800  1.00  0.00     0.006 C 
BRANCH   3   4
ATOM      4  C   UNL     1      -0.180  13.400  -5.398  1.00  0.00     0.053 C 
BRANCH   4   5
ATOM      5  C   UNL     1       0.075  12.925  -6.794  1.00  0.00     0.041 C 
ATOM      6  O   UNL     1       1.182  12.406  -7.094  1.00  0.00    -0.550 OA
ATOM      7  O   UNL     1      -0.891  13.102  -7.775  1.00  0.00    -0.550 OA
ENDBRANCH   4   5
ENDBRANCH   3   4
ENDBRANCH   2   3
ENDBRANCH   1   2
BRANCH   1   8
ATOM      8  C   UNL     1      -0.135  15.866  -2.627  1.00  0.00     0.000 C 
BRANCH   8   9
ATOM      9  C   UNL     1       0.193  15.156  -1.304  1.00  0.00     0.000 C 
BRANCH   9  10
ATOM     10  C   UNL     1      -0.390  13.735  -1.286  1.00  0.00     0.006 C 
BRANCH  10  11
ATOM     11  C   UNL     1      -1.768  13.664  -1.957  1.00  0.00     0.053 C 
BRANCH  11  12
ATOM     12  C   UNL     1      -2.869  14.014  -1.004  1.00  0.00     0.041 C 
ATOM     13  O   UNL     1      -3.096  13.288  -0.002  1.00  0.00    -0.550 OA
ATOM     14  O   UNL     1      -3.625  15.162  -1.207  1.00  0.00    -0.550 OA
ENDBRANCH  11  12
ENDBRANCH  10  11
ENDBRANCH   9  10
ENDBRANCH   8   9
ENDBRANCH   1   8
TORSDOF 9
ENDMDL
MODEL 7
REMARK VINA RESULT:    -2.386      6.396      7.944
REMARK INTER + INTRA:          -4.408
REMARK INTER:                  -3.592
REMARK INTRA:                  -0.816
REMARK UNBOUND:                -0.767
REMARK SMILES O=C([O-])CCCCCCCCC(=O)[O-]
REMARK SMILES IDX 7 1 6 2 5 3 4 4 2 5 1 6 3 7 8 8 9 9 10 10 11 11 12 12 13 13
REMARK SMILES IDX 14 14
REMARK H PARENT
REMARK Flexibility Score: inf
ROOT
ATOM      1  C   UNL     1      -3.992   7.996  -9.181  1.00  0.00     0.000 C 
ENDROOT
BRANCH   1   2
ATOM      2  C   UNL     1      -4.117   9.521  -9.324  1.00  0.00     0.000 C 
BRANCH   2   3
ATOM      3  C   UNL     1      -2.776  10.145  -9.728  1.00  0.00     0.006 C 
BRANCH   3   4
ATOM      4  C   UNL     1      -1.930  10.475  -8.495  1.00  0.00     0.053 C 
BRANCH   4   5
ATOM      5  C   UNL     1      -1.370  11.858  -8.599  1.00  0.00     0.041 C 
ATOM      6  O   UNL     1      -1.763  12.634  -9.510  1.00  0.00    -0.550 OA
ATOM      7  O   UNL     1      -0.379  12.275  -7.720  1.00  0.00    -0.550 OA
ENDBRANCH   4   5
ENDBRANCH   3   4
ENDBRANCH   2   3
ENDBRANCH   1   2
BRANCH   1   8
ATOM      8  C   UNL     1      -2.981   7.388 -10.166  1.00  0.00     0.000 C 
BRANCH   8   9
ATOM      9  C   UNL     1      -1.929   6.511  -9.469  1.00  0.00     0.000 C 
BRANCH   9  10
ATOM     10  C   UNL     1      -1.957   6.726  -7.948  1.00  0.00     0.006 C 
BRANCH  10  11
ATOM     11  C   UNL     1      -0.586   7.136  -7.395  1.00  0.00     0.053 C 
BRANCH  11  12
ATOM     12  C   UNL     1      -0.089   6.166  -6.368  1.00  0.00     0.041 C 
ATOM     13  O   UNL     1       0.541   6.577  -5.358  1.00  0.00    -0.550 OA
ATOM     14  O   UNL     1      -0.350   4.809  -6.510  1.00  0.00    -0.550 OA
ENDBRANCH  11  12
ENDBRANCH  10  11
ENDBRANCH   9  10
ENDBRANCH   8   9
ENDBRANCH   1   8
TORSDOF 9
ENDMDL
MODEL 8
REMARK VINA RESULT:    -2.365      6.387      7.735
REMARK INTER + INTRA:          -4.376
REMARK INTER:                  -3.631
REMARK INTRA:                  -0.746
REMARK UNBOUND:                -0.767
REMARK SMILES O=C([O-])CCCCCCCCC(=O)[O-]
REMARK SMILES IDX 7 1 6 2 5 3 4 4 2 5 1 6 3 7 8 8 9 9 10 10 11 11 12 12 13 13
REMARK SMILES IDX 14 14
REMARK H PARENT
REMARK Flexibility Score: inf
ROOT
ATOM      1  C   UNL     1      -0.974   7.857  -9.539  1.00  0.00     0.000 C 
ENDROOT
BRANCH   1   2
ATOM      2  C   UNL     1      -1.042   9.259  -8.916  1.00  0.00     0.000 C 
BRANCH   2   3
ATOM      3  C   UNL     1      -1.234  10.332  -9.995  1.00  0.00     0.006 C 
BRANCH   3   4
ATOM      4  C   UNL     1      -0.289  11.515  -9.768  1.00  0.00     0.053 C 
BRANCH   4   5
ATOM      5  C   UNL     1      -1.023  12.657  -9.138  1.00  0.00     0.041 C 
ATOM      6  O   UNL     1      -1.755  13.403  -9.840  1.00  0.00    -0.550 OA
ATOM      7  O   UNL     1      -0.859  12.928  -7.786  1.00  0.00    -0.550 OA
ENDBRANCH   4   5
ENDBRANCH   3   4
ENDBRANCH   2   3
ENDBRANCH   1   2
BRANCH   1   8
ATOM      8  C   UNL     1       0.467   7.395  -9.806  1.00  0.00     0.000 C 
BRANCH   8   9
ATOM      9  C   UNL     1       1.437   7.804  -8.686  1.00  0.00     0.000 C 
BRANCH   9  10
ATOM     10  C   UNL     1       2.084   6.569  -8.043  1.00  0.00     0.006 C 
BRANCH  10  11
ATOM     11  C   UNL     1       1.056   5.680  -7.331  1.00  0.00     0.053 C 
BRANCH  11  12
ATOM     12  C   UNL     1       0.482   6.353  -6.123  1.00  0.00     0.041 C 
ATOM     13  O   UNL     1       1.206   6.584  -5.120  1.00  0.00    -0.550 OA
ATOM     14  O   UNL     1      -0.848   6.755  -6.119  1.00  0.00    -0.550 OA
ENDBRANCH  11  12
ENDBRANCH  10  11
ENDBRANCH   9  10
ENDBRANCH   8   9
ENDBRANCH   1   8
TORSDOF 9
ENDMDL
MODEL 9
REMARK VINA RESULT:    -2.360      6.240      8.574
REMARK INTER + INTRA:          -4.368
REMARK INTER:                  -3.738
REMARK INTRA:                  -0.630
REMARK UNBOUND:                -0.767
REMARK SMILES O=C([O-])CCCCCCCCC(=O)[O-]
REMARK SMILES IDX 7 1 6 2 5 3 4 4 2 5 1 6 3 7 8 8 9 9 10 10 11 11 12 12 13 13
REMARK SMILES IDX 14 14
REMARK H PARENT
REMARK Flexibility Score: inf
ROOT
ATOM      1  C   UNL     1      -3.321   7.994  -8.728  1.00  0.00     0.000 C 
ENDROOT
BRANCH   1   2
ATOM      2  C   UNL     1      -1.963   7.344  -9.032  1.00  0.00     0.000 C 
BRANCH   2   3
ATOM      3  C   UNL     1      -0.969   7.589  -7.891  1.00  0.00     0.006 C 
BRANCH   3   4
ATOM      4  C   UNL     1      -1.142   6.549  -6.780  1.00  0.00     0.053 C 
BRANCH   4   5
ATOM      5  C   UNL     1       0.191   6.048  -6.320  1.00  0.00     0.041 C 
ATOM      6  O   UNL     1       0.723   5.054  -6.882  1.00  0.00    -0.550 OA
ATOM      7  O   UNL     1       0.824   6.647  -5.239  1.00  0.00    -0.550 OA
ENDBRANCH   4   5
ENDBRANCH   3   4
ENDBRANCH   2   3
ENDBRANCH   1   2
BRANCH   1   8
ATOM      8  C   UNL     1      -3.295   9.523  -8.881  1.00  0.00     0.000 C 
BRANCH   8   9
ATOM      9  C   UNL     1      -2.982   9.969 -10.318  1.00  0.00     0.000 C 
BRANCH   9  10
ATOM     10  C   UNL     1      -2.085  11.216 -10.322  1.00  0.00     0.006 C 
BRANCH  10  11
ATOM     11  C   UNL     1      -1.220  11.313  -9.059  1.00  0.00     0.053 C 
BRANCH  11  12
ATOM     12  C   UNL     1      -0.934  12.736  -8.690  1.00  0.00     0.041 C 
ATOM     13  O   UNL     1      -0.911  13.629  -9.576  1.00  0.00    -0.550 OA
ATOM     14  O   UNL     1      -0.723  13.080  -7.361  1.00  0.00    -0.550 OA
ENDBRANCH  11  12
ENDBRANCH  10  11
ENDBRANCH   9  10
ENDBRANCH   8   9
ENDBRANCH   1   8
TORSDOF 9
ENDMDL
