MODEL 1
REMARK VINA RESULT:    -5.528      0.000      0.000
REMARK INTER + INTRA:         -10.392
REMARK INTER:                  -8.759
REMARK INTRA:                  -1.632
REMARK UNBOUND:                -1.632
REMARK SMILES CCCCCCCCCCCC(=O)[O-]
REMARK SMILES IDX 7 1 8 2 9 3 10 4 11 5 12 6 13 7 14 8 6 9 5 10 4 11 3 12 2 13
REMARK SMILES IDX 1 14
REMARK H PARENT
REMARK Flexibility Score: inf
ROOT
ATOM      1  C   UNL     1      -4.241  34.550 100.111  1.00  0.00     0.000 C 
ENDROOT
BRANCH   1   2
ATOM      2  C   UNL     1      -5.365  35.524 100.497  1.00  0.00     0.000 C 
BRANCH   2   3
ATOM      3  C   UNL     1      -4.889  36.633 101.450  1.00  0.00     0.000 C 
BRANCH   3   4
ATOM      4  C   UNL     1      -3.364  36.618 101.660  1.00  0.00     0.006 C 
BRANCH   4   5
ATOM      5  C   UNL     1      -2.699  37.910 101.165  1.00  0.00     0.053 C 
BRANCH   5   6
ATOM      6  C   UNL     1      -2.792  39.008 102.180  1.00  0.00     0.041 C 
ATOM      7  O   UNL     1      -2.810  40.211 101.811  1.00  0.00    -0.550 OA
ATOM      8  O   UNL     1      -2.829  38.703 103.535  1.00  0.00    -0.550 OA
ENDBRANCH   5   6
ENDBRANCH   4   5
ENDBRANCH   3   4
ENDBRANCH   2   3
ENDBRANCH   1   2
BRANCH   1   9
ATOM      9  C   UNL     1      -4.029  34.533  98.592  1.00  0.00     0.000 C 
BRANCH   9  10
ATOM     10  C   UNL     1      -2.794  35.351  98.199  1.00  0.00    -0.000 C 
BRANCH  10  11
ATOM     11  C   UNL     1      -3.197  36.641  97.475  1.00  0.00    -0.000 C 
BRANCH  11  12
ATOM     12  C   UNL     1      -4.657  36.576  97.003  1.00  0.00    -0.000 C 
BRANCH  12  13
ATOM     13  C   UNL     1      -5.472  37.805  97.432  1.00  0.00    -0.003 C 
ATOM     14  C   UNL     1      -4.678  38.760  98.321  1.00  0.00     0.004 C 
ENDBRANCH  12  13
ENDBRANCH  11  12
ENDBRANCH  10  11
ENDBRANCH   9  10
ENDBRANCH   1   9
TORSDOF 10
ENDMDL
MODEL 2
REMARK VINA RESULT:    -5.357      2.227      4.646
REMARK INTER + INTRA:         -10.121
REMARK INTER:                  -8.977
REMARK INTRA:                  -1.144
REMARK UNBOUND:                -1.632
REMARK SMILES CCCCCCCCCCCC(=O)[O-]
REMARK SMILES IDX 7 1 8 2 9 3 10 4 11 5 12 6 13 7 14 8 6 9 5 10 4 11 3 12 2 13
REMARK SMILES IDX 1 14
REMARK H PARENT
REMARK Flexibility Score: inf
ROOT
ATOM      1  C   UNL     1      -4.106  34.785 100.405  1.00  0.00     0.000 C 
ENDROOT
BRANCH   1   2
ATOM      2  C   UNL     1      -4.057  34.592  98.881  1.00  0.00     0.000 C 
BRANCH   2   3
ATOM      3  C   UNL     1      -2.854  35.296  98.232  1.00  0.00     0.000 C 
BRANCH   3   4
ATOM      4  C   UNL     1      -3.254  36.577  97.480  1.00  0.00     0.006 C 
BRANCH   4   5
ATOM      5  C   UNL     1      -4.722  36.551  97.033  1.00  0.00     0.053 C 
BRANCH   5   6
ATOM      6  C   UNL     1      -5.452  37.792  97.448  1.00  0.00     0.041 C 
ATOM      7  O   UNL     1      -4.909  38.615  98.231  1.00  0.00    -0.550 OA
ATOM      8  O   UNL     1      -6.744  38.026  96.992  1.00  0.00    -0.550 OA
ENDBRANCH   5   6
ENDBRANCH   4   5
ENDBRANCH   3   4
ENDBRANCH   2   3
ENDBRANCH   1   2
BRANCH   1   9
ATOM      9  C   UNL     1      -4.870  36.064 100.770  1.00  0.00     0.000 C 
BRANCH   9  10
ATOM     10  C   UNL     1      -4.146  36.840 101.877  1.00  0.00    -0.000 C 
BRANCH  10  11
ATOM     11  C   UNL     1      -2.693  37.133 101.485  1.00  0.00    -0.000 C 
BRANCH  11  12
ATOM     12  C   UNL     1      -2.534  38.582 101.001  1.00  0.00    -0.000 C 
BRANCH  12  13
ATOM     13  C   UNL     1      -1.782  39.462 102.010  1.00  0.00    -0.003 C 
ATOM     14  C   UNL     1      -2.720  40.293 102.885  1.00  0.00     0.004 C 
ENDBRANCH  12  13
ENDBRANCH  11  12
ENDBRANCH  10  11
ENDBRANCH   9  10
ENDBRANCH   1   9
TORSDOF 10
ENDMDL
MODEL 3
REMARK VINA RESULT:    -5.231      1.174      2.338
REMARK INTER + INTRA:          -9.921
REMARK INTER:                  -8.678
REMARK INTRA:                  -1.244
REMARK UNBOUND:                -1.632
REMARK SMILES CCCCCCCCCCCC(=O)[O-]
REMARK SMILES IDX 7 1 8 2 9 3 10 4 11 5 12 6 13 7 14 8 6 9 5 10 4 11 3 12 2 13
REMARK SMILES IDX 1 14
REMARK H PARENT
REMARK Flexibility Score: inf
ROOT
ATOM      1  C   UNL     1      -5.118  36.567 101.355  1.00  0.00     0.000 C 
ENDROOT
BRANCH   1   2
ATOM      2  C   UNL     1      -4.452  37.679 100.530  1.00  0.00     0.000 C 
BRANCH   2   3
ATOM      3  C   UNL     1      -3.027  38.002 101.010  1.00  0.00     0.000 C 
BRANCH   3   4
ATOM      4  C   UNL     1      -2.790  37.593 102.475  1.00  0.00     0.006 C 
BRANCH   4   5
ATOM      5  C   UNL     1      -2.875  38.791 103.431  1.00  0.00     0.053 C 
BRANCH   5   6
ATOM      6  C   UNL     1      -2.234  40.014 102.851  1.00  0.00     0.041 C 
ATOM      7  O   UNL     1      -0.980  40.091 102.764  1.00  0.00    -0.550 OA
ATOM      8  O   UNL     1      -3.020  41.080 102.432  1.00  0.00    -0.550 OA
ENDBRANCH   5   6
ENDBRANCH   4   5
ENDBRANCH   3   4
ENDBRANCH   2   3
ENDBRANCH   1   2
BRANCH   1   9
ATOM      9  C   UNL     1      -5.480  35.369 100.468  1.00  0.00     0.000 C 
BRANCH   9  10
ATOM     10  C   UNL     1      -4.234  34.551 100.111  1.00  0.00    -0.000 C 
BRANCH  10  11
ATOM     11  C   UNL     1      -4.006  34.527  98.595  1.00  0.00    -0.000 C 
BRANCH  11  12
ATOM     12  C   UNL     1      -2.814  35.413  98.203  1.00  0.00    -0.000 C 
BRANCH  12  13
ATOM     13  C   UNL     1      -3.221  36.585  97.297  1.00  0.00    -0.003 C 
ATOM     14  C   UNL     1      -4.717  36.598  96.984  1.00  0.00     0.004 C 
ENDBRANCH  12  13
ENDBRANCH  11  12
ENDBRANCH  10  11
ENDBRANCH   9  10
ENDBRANCH   1   9
TORSDOF 10
ENDMDL
MODEL 4
REMARK VINA RESULT:    -5.013      1.255      1.775
REMARK INTER + INTRA:          -9.576
REMARK INTER:                  -8.284
REMARK INTRA:                  -1.292
REMARK UNBOUND:                -1.632
REMARK SMILES CCCCCCCCCCCC(=O)[O-]
REMARK SMILES IDX 7 1 8 2 9 3 10 4 11 5 12 6 13 7 14 8 6 9 5 10 4 11 3 12 2 13
REMARK SMILES IDX 1 14
REMARK H PARENT
REMARK Flexibility Score: inf
ROOT
ATOM      1  C   UNL     1      -2.469  35.776 100.040  1.00  0.00     0.000 C 
ENDROOT
BRANCH   1   2
ATOM      2  C   UNL     1      -3.464  35.911 101.204  1.00  0.00     0.000 C 
BRANCH   2   3
ATOM      3  C   UNL     1      -3.310  37.238 101.964  1.00  0.00     0.000 C 
BRANCH   3   4
ATOM      4  C   UNL     1      -2.281  38.178 101.312  1.00  0.00     0.006 C 
BRANCH   4   5
ATOM      5  C   UNL     1      -2.707  39.650 101.395  1.00  0.00     0.053 C 
BRANCH   5   6
ATOM      6  C   UNL     1      -2.220  40.301 102.654  1.00  0.00     0.041 C 
ATOM      7  O   UNL     1      -0.985  40.404 102.876  1.00  0.00    -0.550 OA
ATOM      8  O   UNL     1      -3.129  40.766 103.595  1.00  0.00    -0.550 OA
ENDBRANCH   5   6
ENDBRANCH   4   5
ENDBRANCH   3   4
ENDBRANCH   2   3
ENDBRANCH   1   2
BRANCH   1   9
ATOM      9  C   UNL     1      -3.064  34.931  98.906  1.00  0.00     0.000 C 
BRANCH   9  10
ATOM     10  C   UNL     1      -4.552  34.657  99.146  1.00  0.00    -0.000 C 
BRANCH  10  11
ATOM     11  C   UNL     1      -5.381  34.985  97.898  1.00  0.00    -0.000 C 
BRANCH  11  12
ATOM     12  C   UNL     1      -4.970  36.342  97.306  1.00  0.00    -0.000 C 
BRANCH  12  13
ATOM     13  C   UNL     1      -5.542  37.529  98.095  1.00  0.00    -0.003 C 
ATOM     14  C   UNL     1      -4.495  38.602  98.392  1.00  0.00     0.004 C 
ENDBRANCH  12  13
ENDBRANCH  11  12
ENDBRANCH  10  11
ENDBRANCH   9  10
ENDBRANCH   1   9
TORSDOF 10
ENDMDL
MODEL 5
REMARK VINA RESULT:    -5.000      0.723      2.876
REMARK INTER + INTRA:          -9.555
REMARK INTER:                  -8.127
REMARK INTRA:                  -1.428
REMARK UNBOUND:                -1.632
REMARK SMILES CCCCCCCCCCCC(=O)[O-]
REMARK SMILES IDX 7 1 8 2 9 3 10 4 11 5 12 6 13 7 14 8 6 9 5 10 4 11 3 12 2 13
REMARK SMILES IDX 1 14
REMARK H PARENT
REMARK Flexibility Score: inf
ROOT
ATOM      1  C   UNL     1      -5.484  37.899  97.607  1.00  0.00     0.000 C 
ENDROOT
BRANCH   1   2
ATOM      2  C   UNL     1      -4.383  38.790  98.203  1.00  0.00     0.000 C 
BRANCH   2   3
ATOM      3  C   UNL     1      -4.283  38.666  99.733  1.00  0.00     0.000 C 
BRANCH   3   4
ATOM      4  C   UNL     1      -2.831  38.512 100.220  1.00  0.00     0.006 C 
BRANCH   4   5
ATOM      5  C   UNL     1      -2.752  37.854 101.604  1.00  0.00     0.053 C 
BRANCH   5   6
ATOM      6  C   UNL     1      -2.473  38.856 102.682  1.00  0.00     0.041 C 
ATOM      7  O   UNL     1      -2.920  38.675 103.845  1.00  0.00    -0.550 OA
ATOM      8  O   UNL     1      -1.745  40.003 102.395  1.00  0.00    -0.550 OA
ENDBRANCH   5   6
ENDBRANCH   4   5
ENDBRANCH   3   4
ENDBRANCH   2   3
ENDBRANCH   1   2
BRANCH   1   9
ATOM      9  C   UNL     1      -4.906  36.564  97.123  1.00  0.00     0.000 C 
BRANCH   9  10
ATOM     10  C   UNL     1      -3.374  36.584  97.152  1.00  0.00    -0.000 C 
BRANCH  10  11
ATOM     11  C   UNL     1      -2.827  35.540  98.134  1.00  0.00    -0.000 C 
BRANCH  11  12
ATOM     12  C   UNL     1      -3.946  34.611  98.629  1.00  0.00    -0.000 C 
BRANCH  12  13
ATOM     13  C   UNL     1      -4.124  34.662 100.154  1.00  0.00    -0.003 C 
ATOM     14  C   UNL     1      -5.425  35.341 100.576  1.00  0.00     0.004 C 
ENDBRANCH  12  13
ENDBRANCH  11  12
ENDBRANCH  10  11
ENDBRANCH   9  10
ENDBRANCH   1   9
TORSDOF 10
ENDMDL
MODEL 6
REMARK VINA RESULT:    -4.971      2.822      5.246
REMARK INTER + INTRA:          -9.509
REMARK INTER:                  -8.790
REMARK INTRA:                  -0.718
REMARK UNBOUND:                -1.632
REMARK SMILES CCCCCCCCCCCC(=O)[O-]
REMARK SMILES IDX 7 1 8 2 9 3 10 4 11 5 12 6 13 7 14 8 6 9 5 10 4 11 3 12 2 13
REMARK SMILES IDX 1 14
REMARK H PARENT
REMARK Flexibility Score: inf
ROOT
ATOM      1  C   UNL     1      -2.619  36.248 101.257  1.00  0.00     0.000 C 
ENDROOT
BRANCH   1   2
ATOM      2  C   UNL     1      -2.684  35.245 100.095  1.00  0.00     0.000 C 
BRANCH   2   3
ATOM      3  C   UNL     1      -4.023  34.491 100.035  1.00  0.00     0.000 C 
BRANCH   3   4
ATOM      4  C   UNL     1      -4.590  34.404  98.607  1.00  0.00     0.006 C 
BRANCH   4   5
ATOM      5  C   UNL     1      -5.492  35.599  98.269  1.00  0.00     0.053 C 
BRANCH   5   6
ATOM      6  C   UNL     1      -4.889  36.469  97.209  1.00  0.00     0.041 C 
ATOM      7  O   UNL     1      -5.622  37.001  96.334  1.00  0.00    -0.550 OA
ATOM      8  O   UNL     1      -3.515  36.670  97.171  1.00  0.00    -0.550 OA
ENDBRANCH   5   6
ENDBRANCH   4   5
ENDBRANCH   3   4
ENDBRANCH   2   3
ENDBRANCH   1   2
BRANCH   1   9
ATOM      9  C   UNL     1      -3.685  37.338 101.100  1.00  0.00     0.000 C 
BRANCH   9  10
ATOM     10  C   UNL     1      -3.060  38.659 100.638  1.00  0.00    -0.000 C 
BRANCH  10  11
ATOM     11  C   UNL     1      -1.950  39.107 101.596  1.00  0.00    -0.000 C 
BRANCH  11  12
ATOM     12  C   UNL     1      -2.541  39.712 102.879  1.00  0.00    -0.000 C 
BRANCH  12  13
ATOM     13  C   UNL     1      -2.164  41.190 103.063  1.00  0.00    -0.003 C 
ATOM     14  C   UNL     1      -3.361  42.064 103.436  1.00  0.00     0.004 C 
ENDBRANCH  12  13
ENDBRANCH  11  12
ENDBRANCH  10  11
ENDBRANCH   9  10
ENDBRANCH   1   9
TORSDOF 10
ENDMDL
MODEL 7
REMARK VINA RESULT:    -4.928      1.643      3.235
REMARK INTER + INTRA:          -9.441
REMARK INTER:                  -8.627
REMARK INTRA:                  -0.814
REMARK UNBOUND:                -1.632
REMARK SMILES CCCCCCCCCCCC(=O)[O-]
REMARK SMILES IDX 7 1 8 2 9 3 10 4 11 5 12 6 13 7 14 8 6 9 5 10 4 11 3 12 2 13
REMARK SMILES IDX 1 14
REMARK H PARENT
REMARK Flexibility Score: inf
ROOT
ATOM      1  C   UNL     1      -4.096  38.132  99.474  1.00  0.00     0.000 C 
ENDROOT
BRANCH   1   2
ATOM      2  C   UNL     1      -3.127  38.889 100.396  1.00  0.00     0.000 C 
BRANCH   2   3
ATOM      3  C   UNL     1      -2.801  38.111 101.681  1.00  0.00     0.000 C 
BRANCH   3   4
ATOM      4  C   UNL     1      -2.618  39.033 102.900  1.00  0.00     0.006 C 
BRANCH   4   5
ATOM      5  C   UNL     1      -1.488  40.050 102.692  1.00  0.00     0.053 C 
BRANCH   5   6
ATOM      6  C   UNL     1      -1.897  41.430 103.108  1.00  0.00     0.041 C 
ATOM      7  O   UNL     1      -1.033  42.252 103.511  1.00  0.00    -0.550 OA
ATOM      8  O   UNL     1      -3.236  41.799 103.076  1.00  0.00    -0.550 OA
ENDBRANCH   5   6
ENDBRANCH   4   5
ENDBRANCH   3   4
ENDBRANCH   2   3
ENDBRANCH   1   2
BRANCH   1   9
ATOM      9  C   UNL     1      -3.406  37.734  98.163  1.00  0.00     0.000 C 
BRANCH   9  10
ATOM     10  C   UNL     1      -4.258  36.733  97.374  1.00  0.00    -0.000 C 
BRANCH  10  11
ATOM     11  C   UNL     1      -5.471  36.276  98.194  1.00  0.00    -0.000 C 
BRANCH  11  12
ATOM     12  C   UNL     1      -5.377  34.780  98.530  1.00  0.00    -0.000 C 
BRANCH  12  13
ATOM     13  C   UNL     1      -3.950  34.346  98.896  1.00  0.00    -0.003 C 
ATOM     14  C   UNL     1      -3.601  34.627 100.357  1.00  0.00     0.004 C 
ENDBRANCH  12  13
ENDBRANCH  11  12
ENDBRANCH  10  11
ENDBRANCH   9  10
ENDBRANCH   1   9
TORSDOF 10
ENDMDL
MODEL 8
REMARK VINA RESULT:    -4.838      1.961      3.256
REMARK INTER + INTRA:          -9.299
REMARK INTER:                  -8.681
REMARK INTRA:                  -0.618
REMARK UNBOUND:                -1.632
REMARK SMILES CCCCCCCCCCCC(=O)[O-]
REMARK SMILES IDX 7 1 8 2 9 3 10 4 11 5 12 6 13 7 14 8 6 9 5 10 4 11 3 12 2 13
REMARK SMILES IDX 1 14
REMARK H PARENT
REMARK Flexibility Score: inf
ROOT
ATOM      1  C   UNL     1      -2.354  36.773 101.191  1.00  0.00     0.000 C 
ENDROOT
BRANCH   1   2
ATOM      2  C   UNL     1      -3.015  37.634 102.278  1.00  0.00     0.000 C 
BRANCH   2   3
ATOM      3  C   UNL     1      -2.875  39.142 102.008  1.00  0.00     0.000 C 
BRANCH   3   4
ATOM      4  C   UNL     1      -2.737  39.964 103.302  1.00  0.00     0.006 C 
BRANCH   4   5
ATOM      5  C   UNL     1      -2.782  41.475 103.035  1.00  0.00     0.053 C 
BRANCH   5   6
ATOM      6  C   UNL     1      -1.441  42.114 103.227  1.00  0.00     0.041 C 
ATOM      7  O   UNL     1      -1.358  43.340 103.501  1.00  0.00    -0.550 OA
ATOM      8  O   UNL     1      -0.283  41.362 103.076  1.00  0.00    -0.550 OA
ENDBRANCH   5   6
ENDBRANCH   4   5
ENDBRANCH   3   4
ENDBRANCH   2   3
ENDBRANCH   1   2
BRANCH   1   9
ATOM      9  C   UNL     1      -3.290  35.646 100.740  1.00  0.00     0.000 C 
BRANCH   9  10
ATOM     10  C   UNL     1      -4.731  36.148 100.601  1.00  0.00    -0.000 C 
BRANCH  10  11
ATOM     11  C   UNL     1      -5.581  35.166  99.787  1.00  0.00    -0.000 C 
BRANCH  11  12
ATOM     12  C   UNL     1      -5.052  35.039  98.350  1.00  0.00    -0.000 C 
BRANCH  12  13
ATOM     13  C   UNL     1      -4.976  36.391  97.628  1.00  0.00    -0.003 C 
ATOM     14  C   UNL     1      -3.580  36.693  97.082  1.00  0.00     0.004 C 
ENDBRANCH  12  13
ENDBRANCH  11  12
ENDBRANCH  10  11
ENDBRANCH   9  10
ENDBRANCH   1   9
TORSDOF 10
ENDMDL
MODEL 9
REMARK VINA RESULT:    -4.771      2.353      3.909
REMARK INTER + INTRA:          -9.192
REMARK INTER:                  -8.590
REMARK INTRA:                  -0.602
REMARK UNBOUND:                -1.632
REMARK SMILES CCCCCCCCCCCC(=O)[O-]
REMARK SMILES IDX 7 1 8 2 9 3 10 4 11 5 12 6 13 7 14 8 6 9 5 10 4 11 3 12 2 13
REMARK SMILES IDX 1 14
REMARK H PARENT
REMARK Flexibility Score: inf
ROOT
ATOM      1  C   UNL     1      -2.948  38.774 100.818  1.00  0.00     0.000 C 
ENDROOT
BRANCH   1   2
ATOM      2  C   UNL     1      -2.835  38.245 102.256  1.00  0.00     0.000 C 
BRANCH   2   3
ATOM      3  C   UNL     1      -2.692  39.372 103.293  1.00  0.00     0.000 C 
BRANCH   3   4
ATOM      4  C   UNL     1      -2.309  40.719 102.654  1.00  0.00     0.006 C 
BRANCH   4   5
ATOM      5  C   UNL     1      -3.060  41.896 103.290  1.00  0.00     0.053 C 
BRANCH   5   6
ATOM      6  C   UNL     1      -2.137  43.024 103.636  1.00  0.00     0.041 C 
ATOM      7  O   UNL     1      -0.958  43.036 103.193  1.00  0.00    -0.550 OA
ATOM      8  O   UNL     1      -2.569  44.047 104.469  1.00  0.00    -0.550 OA
ENDBRANCH   5   6
ENDBRANCH   4   5
ENDBRANCH   3   4
ENDBRANCH   2   3
ENDBRANCH   1   2
BRANCH   1   9
ATOM      9  C   UNL     1      -3.791  37.829  99.952  1.00  0.00     0.000 C 
BRANCH   9  10
ATOM     10  C   UNL     1      -3.389  37.929  98.476  1.00  0.00    -0.000 C 
BRANCH  10  11
ATOM     11  C   UNL     1      -3.430  36.554  97.800  1.00  0.00    -0.000 C 
BRANCH  11  12
ATOM     12  C   UNL     1      -2.974  35.451  98.767  1.00  0.00    -0.000 C 
BRANCH  12  13
ATOM     13  C   UNL     1      -3.998  34.312  98.889  1.00  0.00    -0.003 C 
ATOM     14  C   UNL     1      -5.427  34.768  98.599  1.00  0.00     0.004 C 
ENDBRANCH  12  13
ENDBRANCH  11  12
ENDBRANCH  10  11
ENDBRANCH   9  10
ENDBRANCH   1   9
TORSDOF 10
ENDMDL
