MODEL 1
REMARK VINA RESULT:    -4.412      0.000      0.000
REMARK INTER + INTRA:          -7.331
REMARK INTER:                  -6.733
REMARK INTRA:                  -0.598
REMARK UNBOUND:                -0.598
REMARK SMILES CCCCCCCCCCC(=O)[O-]
REMARK SMILES IDX 7 1 8 2 9 3 10 4 11 5 12 6 13 7 6 8 5 9 4 10 3 11 2 12 1 13
REMARK H PARENT
REMARK Flexibility Score: inf
ROOT
ATOM      1  C   UNL     1       5.981 -16.382   4.169  1.00  0.00     0.000 C 
ENDROOT
BRANCH   1   2
ATOM      2  C   UNL     1       6.537 -15.345   5.158  1.00  0.00     0.000 C 
BRANCH   2   3
ATOM      3  C   UNL     1       7.859 -15.791   5.802  1.00  0.00     0.006 C 
BRANCH   3   4
ATOM      4  C   UNL     1       8.182 -15.015   7.085  1.00  0.00     0.053 C 
BRANCH   4   5
ATOM      5  C   UNL     1       8.484 -13.584   6.768  1.00  0.00     0.041 C 
ATOM      6  O   UNL     1       9.431 -13.294   5.991  1.00  0.00    -0.550 OA
ATOM      7  O   UNL     1       7.751 -12.569   7.370  1.00  0.00    -0.550 OA
ENDBRANCH   4   5
ENDBRANCH   3   4
ENDBRANCH   2   3
ENDBRANCH   1   2
BRANCH   1   8
ATOM      8  C   UNL     1       4.594 -15.961   3.658  1.00  0.00     0.000 C 
BRANCH   8   9
ATOM      9  C   UNL     1       3.522 -17.036   3.894  1.00  0.00    -0.000 C 
BRANCH   9  10
ATOM     10  C   UNL     1       4.071 -18.464   3.732  1.00  0.00    -0.000 C 
BRANCH  10  11
ATOM     11  C   UNL     1       3.637 -19.127   2.412  1.00  0.00    -0.000 C 
BRANCH  11  12
ATOM     12  C   UNL     1       4.452 -18.708   1.175  1.00  0.00    -0.003 C 
ATOM     13  C   UNL     1       3.657 -17.836   0.203  1.00  0.00     0.004 C 
ENDBRANCH  11  12
ENDBRANCH  10  11
ENDBRANCH   9  10
ENDBRANCH   8   9
ENDBRANCH   1   8
TORSDOF 9
ENDMDL
MODEL 2
REMARK VINA RESULT:    -4.408      9.365     12.182
REMARK INTER + INTRA:          -7.325
REMARK INTER:                  -6.747
REMARK INTRA:                  -0.578
REMARK UNBOUND:                -0.598
REMARK SMILES CCCCCCCCCCC(=O)[O-]
REMARK SMILES IDX 7 1 8 2 9 3 10 4 11 5 12 6 13 7 6 8 5 9 4 10 3 11 2 12 1 13
REMARK H PARENT
REMARK Flexibility Score: inf
ROOT
ATOM      1  C   UNL     1      12.440  -8.826   0.366  1.00  0.00     0.000 C 
ENDROOT
BRANCH   1   2
ATOM      2  C   UNL     1      13.737  -9.100  -0.412  1.00  0.00     0.000 C 
BRANCH   2   3
ATOM      3  C   UNL     1      14.472  -7.810  -0.811  1.00  0.00     0.006 C 
BRANCH   3   4
ATOM      4  C   UNL     1      14.630  -7.665  -2.330  1.00  0.00     0.053 C 
BRANCH   4   5
ATOM      5  C   UNL     1      13.303  -7.399  -2.969  1.00  0.00     0.041 C 
ATOM      6  O   UNL     1      12.694  -6.322  -2.738  1.00  0.00    -0.550 OA
ATOM      7  O   UNL     1      12.717  -8.361  -3.781  1.00  0.00    -0.550 OA
ENDBRANCH   4   5
ENDBRANCH   3   4
ENDBRANCH   2   3
ENDBRANCH   1   2
BRANCH   1   8
ATOM      8  C   UNL     1      12.627  -9.129   1.862  1.00  0.00     0.000 C 
BRANCH   8   9
ATOM      9  C   UNL     1      12.184  -7.965   2.763  1.00  0.00    -0.000 C 
BRANCH   9  10
ATOM     10  C   UNL     1      12.255  -8.317   4.259  1.00  0.00    -0.000 C 
BRANCH  10  11
ATOM     11  C   UNL     1      13.141  -9.544   4.545  1.00  0.00    -0.000 C 
BRANCH  11  12
ATOM     12  C   UNL     1      12.470 -10.650   5.379  1.00  0.00    -0.003 C 
ATOM     13  C   UNL     1      11.074 -11.017   4.874  1.00  0.00     0.004 C 
ENDBRANCH  11  12
ENDBRANCH  10  11
ENDBRANCH   9  10
ENDBRANCH   8   9
ENDBRANCH   1   8
TORSDOF 9
ENDMDL
MODEL 3
REMARK VINA RESULT:    -4.358      3.470      6.878
REMARK INTER + INTRA:          -7.249
REMARK INTER:                  -6.757
REMARK INTRA:                  -0.491
REMARK UNBOUND:                -0.598
REMARK SMILES CCCCCCCCCCC(=O)[O-]
REMARK SMILES IDX 7 1 8 2 9 3 10 4 11 5 12 6 13 7 6 8 5 9 4 10 3 11 2 12 1 13
REMARK H PARENT
REMARK Flexibility Score: inf
ROOT
ATOM      1  C   UNL     1       4.530 -16.031   3.925  1.00  0.00     0.000 C 
ENDROOT
BRANCH   1   2
ATOM      2  C   UNL     1       3.486 -17.158   3.941  1.00  0.00     0.000 C 
BRANCH   2   3
ATOM      3  C   UNL     1       4.097 -18.535   3.636  1.00  0.00     0.006 C 
BRANCH   3   4
ATOM      4  C   UNL     1       3.601 -19.120   2.307  1.00  0.00     0.053 C 
BRANCH   4   5
ATOM      5  C   UNL     1       4.218 -18.393   1.154  1.00  0.00     0.041 C 
ATOM      6  O   UNL     1       3.507 -18.034   0.179  1.00  0.00    -0.550 OA
ATOM      7  O   UNL     1       5.586 -18.157   1.132  1.00  0.00    -0.550 OA
ENDBRANCH   4   5
ENDBRANCH   3   4
ENDBRANCH   2   3
ENDBRANCH   1   2
BRANCH   1   8
ATOM      8  C   UNL     1       5.848 -16.497   4.563  1.00  0.00     0.000 C 
BRANCH   8   9
ATOM      9  C   UNL     1       6.774 -15.328   4.936  1.00  0.00    -0.000 C 
BRANCH   9  10
ATOM     10  C   UNL     1       7.933 -15.761   5.850  1.00  0.00    -0.000 C 
BRANCH  10  11
ATOM     11  C   UNL     1       8.199 -14.764   6.993  1.00  0.00    -0.000 C 
BRANCH  11  12
ATOM     12  C   UNL     1       8.716 -13.385   6.546  1.00  0.00    -0.003 C 
ATOM     13  C   UNL     1       7.746 -12.249   6.871  1.00  0.00     0.004 C 
ENDBRANCH  11  12
ENDBRANCH  10  11
ENDBRANCH   9  10
ENDBRANCH   8   9
ENDBRANCH   1   8
TORSDOF 9
ENDMDL
MODEL 4
REMARK VINA RESULT:    -4.328      4.333      7.070
REMARK INTER + INTRA:          -7.202
REMARK INTER:                  -6.613
REMARK INTRA:                  -0.589
REMARK UNBOUND:                -0.598
REMARK SMILES CCCCCCCCCCC(=O)[O-]
REMARK SMILES IDX 7 1 8 2 9 3 10 4 11 5 12 6 13 7 6 8 5 9 4 10 3 11 2 12 1 13
REMARK H PARENT
REMARK Flexibility Score: inf
ROOT
ATOM      1  C   UNL     1      10.278 -11.760   4.146  1.00  0.00     0.000 C 
ENDROOT
BRANCH   1   2
ATOM      2  C   UNL     1      11.801 -11.559   4.179  1.00  0.00     0.000 C 
BRANCH   2   3
ATOM      3  C   UNL     1      12.237 -10.499   5.202  1.00  0.00     0.006 C 
BRANCH   3   4
ATOM      4  C   UNL     1      13.049  -9.363   4.566  1.00  0.00     0.053 C 
BRANCH   4   5
ATOM      5  C   UNL     1      12.214  -8.615   3.576  1.00  0.00     0.041 C 
ATOM      6  O   UNL     1      12.657  -8.385   2.420  1.00  0.00    -0.550 OA
ATOM      7  O   UNL     1      10.968  -8.126   3.945  1.00  0.00    -0.550 OA
ENDBRANCH   4   5
ENDBRANCH   3   4
ENDBRANCH   2   3
ENDBRANCH   1   2
BRANCH   1   8
ATOM      8  C   UNL     1       9.826 -12.705   5.271  1.00  0.00     0.000 C 
BRANCH   8   9
ATOM      9  C   UNL     1       8.846 -12.039   6.249  1.00  0.00    -0.000 C 
BRANCH   9  10
ATOM     10  C   UNL     1       8.031 -13.064   7.057  1.00  0.00    -0.000 C 
BRANCH  10  11
ATOM     11  C   UNL     1       8.667 -14.466   7.062  1.00  0.00    -0.000 C 
BRANCH  11  12
ATOM     12  C   UNL     1       7.685 -15.626   6.820  1.00  0.00    -0.003 C 
ATOM     13  C   UNL     1       7.272 -15.766   5.355  1.00  0.00     0.004 C 
ENDBRANCH  11  12
ENDBRANCH  10  11
ENDBRANCH   9  10
ENDBRANCH   8   9
ENDBRANCH   1   8
TORSDOF 9
ENDMDL
MODEL 5
REMARK VINA RESULT:    -4.311      3.514      6.871
REMARK INTER + INTRA:          -7.177
REMARK INTER:                  -6.725
REMARK INTRA:                  -0.451
REMARK UNBOUND:                -0.598
REMARK SMILES CCCCCCCCCCC(=O)[O-]
REMARK SMILES IDX 7 1 8 2 9 3 10 4 11 5 12 6 13 7 6 8 5 9 4 10 3 11 2 12 1 13
REMARK H PARENT
REMARK Flexibility Score: inf
ROOT
ATOM      1  C   UNL     1       5.824 -16.130   4.695  1.00  0.00     0.000 C 
ENDROOT
BRANCH   1   2
ATOM      2  C   UNL     1       5.216 -15.630   3.376  1.00  0.00     0.000 C 
BRANCH   2   3
ATOM      3  C   UNL     1       3.822 -16.218   3.106  1.00  0.00     0.006 C 
BRANCH   3   4
ATOM      4  C   UNL     1       3.525 -17.452   3.967  1.00  0.00     0.053 C 
BRANCH   4   5
ATOM      5  C   UNL     1       3.921 -18.701   3.245  1.00  0.00     0.041 C 
ATOM      6  O   UNL     1       4.613 -19.577   3.827  1.00  0.00    -0.550 OA
ATOM      7  O   UNL     1       3.570 -18.875   1.913  1.00  0.00    -0.550 OA
ENDBRANCH   4   5
ENDBRANCH   3   4
ENDBRANCH   2   3
ENDBRANCH   1   2
BRANCH   1   8
ATOM      8  C   UNL     1       6.902 -15.158   5.203  1.00  0.00     0.000 C 
BRANCH   8   9
ATOM      9  C   UNL     1       7.578 -15.643   6.495  1.00  0.00    -0.000 C 
BRANCH   9  10
ATOM     10  C   UNL     1       8.580 -14.620   7.057  1.00  0.00    -0.000 C 
BRANCH  10  11
ATOM     11  C   UNL     1       8.048 -13.176   7.017  1.00  0.00    -0.000 C 
BRANCH  11  12
ATOM     12  C   UNL     1       8.860 -12.208   6.138  1.00  0.00    -0.003 C 
ATOM     13  C   UNL     1       9.995 -12.897   5.380  1.00  0.00     0.004 C 
ENDBRANCH  11  12
ENDBRANCH  10  11
ENDBRANCH   9  10
ENDBRANCH   8   9
ENDBRANCH   1   8
TORSDOF 9
ENDMDL
MODEL 6
REMARK VINA RESULT:    -4.311     12.577     14.617
REMARK INTER + INTRA:          -7.177
REMARK INTER:                  -6.578
REMARK INTRA:                  -0.599
REMARK UNBOUND:                -0.598
REMARK SMILES CCCCCCCCCCC(=O)[O-]
REMARK SMILES IDX 7 1 8 2 9 3 10 4 11 5 12 6 13 7 6 8 5 9 4 10 3 11 2 12 1 13
REMARK H PARENT
REMARK Flexibility Score: inf
ROOT
ATOM      1  C   UNL     1      12.872  -9.320  -4.161  1.00  0.00     0.000 C 
ENDROOT
BRANCH   1   2
ATOM      2  C   UNL     1      12.085 -10.087  -5.235  1.00  0.00     0.000 C 
BRANCH   2   3
ATOM      3  C   UNL     1      12.190  -9.435  -6.623  1.00  0.00     0.006 C 
BRANCH   3   4
ATOM      4  C   UNL     1      11.777 -10.385  -7.754  1.00  0.00     0.053 C 
BRANCH   4   5
ATOM      5  C   UNL     1      10.293 -10.351  -7.950  1.00  0.00     0.041 C 
ATOM      6  O   UNL     1       9.731  -9.297  -8.347  1.00  0.00    -0.550 OA
ATOM      7  O   UNL     1       9.526 -11.467  -7.644  1.00  0.00    -0.550 OA
ENDBRANCH   4   5
ENDBRANCH   3   4
ENDBRANCH   2   3
ENDBRANCH   1   2
BRANCH   1   8
ATOM      8  C   UNL     1      12.171  -7.996  -3.811  1.00  0.00     0.000 C 
BRANCH   8   9
ATOM      9  C   UNL     1      13.024  -7.094  -2.905  1.00  0.00    -0.000 C 
BRANCH   9  10
ATOM     10  C   UNL     1      14.390  -7.716  -2.570  1.00  0.00    -0.000 C 
BRANCH  10  11
ATOM     11  C   UNL     1      14.655  -7.803  -1.056  1.00  0.00    -0.000 C 
BRANCH  11  12
ATOM     12  C   UNL     1      13.956  -8.973  -0.340  1.00  0.00    -0.003 C 
ATOM     13  C   UNL     1      12.856  -8.517   0.618  1.00  0.00     0.004 C 
ENDBRANCH  11  12
ENDBRANCH  10  11
ENDBRANCH   9  10
ENDBRANCH   8   9
ENDBRANCH   1   8
TORSDOF 9
ENDMDL
MODEL 7
REMARK VINA RESULT:    -4.308      3.971      7.925
REMARK INTER + INTRA:          -7.172
REMARK INTER:                  -6.534
REMARK INTRA:                  -0.638
REMARK UNBOUND:                -0.598
REMARK SMILES CCCCCCCCCCC(=O)[O-]
REMARK SMILES IDX 7 1 8 2 9 3 10 4 11 5 12 6 13 7 6 8 5 9 4 10 3 11 2 12 1 13
REMARK H PARENT
REMARK Flexibility Score: inf
ROOT
ATOM      1  C   UNL     1       8.774 -11.901   6.238  1.00  0.00     0.000 C 
ENDROOT
BRANCH   1   2
ATOM      2  C   UNL     1       7.932 -12.979   6.938  1.00  0.00     0.000 C 
BRANCH   2   3
ATOM      3  C   UNL     1       8.694 -14.302   7.115  1.00  0.00     0.006 C 
BRANCH   3   4
ATOM      4  C   UNL     1       7.802 -15.531   6.898  1.00  0.00     0.053 C 
BRANCH   4   5
ATOM      5  C   UNL     1       7.421 -15.651   5.455  1.00  0.00     0.041 C 
ATOM      6  O   UNL     1       6.207 -15.713   5.124  1.00  0.00    -0.550 OA
ATOM      7  O   UNL     1       8.406 -15.744   4.481  1.00  0.00    -0.550 OA
ENDBRANCH   4   5
ENDBRANCH   3   4
ENDBRANCH   2   3
ENDBRANCH   1   2
BRANCH   1   8
ATOM      8  C   UNL     1       9.300 -12.410   4.886  1.00  0.00     0.000 C 
BRANCH   8   9
ATOM      9  C   UNL     1      10.835 -12.452   4.823  1.00  0.00    -0.000 C 
BRANCH   9  10
ATOM     10  C   UNL     1      11.483 -11.153   5.331  1.00  0.00    -0.000 C 
BRANCH  10  11
ATOM     11  C   UNL     1      11.421 -10.010   4.301  1.00  0.00    -0.000 C 
BRANCH  11  12
ATOM     12  C   UNL     1      12.700  -9.159   4.197  1.00  0.00    -0.003 C 
ATOM     13  C   UNL     1      13.969  -9.942   4.532  1.00  0.00     0.004 C 
ENDBRANCH  11  12
ENDBRANCH  10  11
ENDBRANCH   9  10
ENDBRANCH   8   9
ENDBRANCH   1   8
TORSDOF 9
ENDMDL
MODEL 8
REMARK VINA RESULT:    -4.264      7.747     10.617
REMARK INTER + INTRA:          -7.105
REMARK INTER:                  -6.589
REMARK INTRA:                  -0.516
REMARK UNBOUND:                -0.598
REMARK SMILES CCCCCCCCCCC(=O)[O-]
REMARK SMILES IDX 7 1 8 2 9 3 10 4 11 5 12 6 13 7 6 8 5 9 4 10 3 11 2 12 1 13
REMARK H PARENT
REMARK Flexibility Score: inf
ROOT
ATOM      1  C   UNL     1       5.064 -17.543  -4.401  1.00  0.00     0.000 C 
ENDROOT
BRANCH   1   2
ATOM      2  C   UNL     1       3.763 -18.278  -4.757  1.00  0.00     0.000 C 
BRANCH   2   3
ATOM      3  C   UNL     1       3.084 -18.908  -3.531  1.00  0.00     0.006 C 
BRANCH   3   4
ATOM      4  C   UNL     1       2.108 -17.948  -2.839  1.00  0.00     0.053 C 
BRANCH   4   5
ATOM      5  C   UNL     1       2.770 -17.280  -1.674  1.00  0.00     0.041 C 
ATOM      6  O   UNL     1       3.015 -17.932  -0.625  1.00  0.00    -0.550 OA
ATOM      7  O   UNL     1       3.071 -15.926  -1.729  1.00  0.00    -0.550 OA
ENDBRANCH   4   5
ENDBRANCH   3   4
ENDBRANCH   2   3
ENDBRANCH   1   2
BRANCH   1   8
ATOM      8  C   UNL     1       5.558 -16.700  -5.588  1.00  0.00     0.000 C 
BRANCH   8   9
ATOM      9  C   UNL     1       4.655 -15.491  -5.876  1.00  0.00    -0.000 C 
BRANCH   9  10
ATOM     10  C   UNL     1       4.759 -15.009  -7.333  1.00  0.00    -0.000 C 
BRANCH  10  11
ATOM     11  C   UNL     1       5.991 -14.120  -7.584  1.00  0.00    -0.000 C 
BRANCH  11  12
ATOM     12  C   UNL     1       6.866 -14.543  -8.777  1.00  0.00    -0.003 C 
ATOM     13  C   UNL     1       6.941 -16.059  -8.956  1.00  0.00     0.004 C 
ENDBRANCH  11  12
ENDBRANCH  10  11
ENDBRANCH   9  10
ENDBRANCH   8   9
ENDBRANCH   1   8
TORSDOF 9
ENDMDL
MODEL 9
REMARK VINA RESULT:    -4.253      5.779      8.734
REMARK INTER + INTRA:          -7.088
REMARK INTER:                  -6.483
REMARK INTRA:                  -0.605
REMARK UNBOUND:                -0.598
REMARK SMILES CCCCCCCCCCC(=O)[O-]
REMARK SMILES IDX 7 1 8 2 9 3 10 4 11 5 12 6 13 7 6 8 5 9 4 10 3 11 2 12 1 13
REMARK H PARENT
REMARK Flexibility Score: inf
ROOT
ATOM      1  C   UNL     1       4.724 -19.016  -1.567  1.00  0.00     0.000 C 
ENDROOT
BRANCH   1   2
ATOM      2  C   UNL     1       4.324 -19.575  -2.941  1.00  0.00     0.000 C 
BRANCH   2   3
ATOM      3  C   UNL     1       3.206 -18.760  -3.610  1.00  0.00     0.006 C 
BRANCH   3   4
ATOM      4  C   UNL     1       3.599 -18.249  -5.002  1.00  0.00     0.053 C 
BRANCH   4   5
ATOM      5  C   UNL     1       4.450 -17.023  -4.887  1.00  0.00     0.041 C 
ATOM      6  O   UNL     1       4.068 -16.050  -4.186  1.00  0.00    -0.550 OA
ATOM      7  O   UNL     1       5.641 -16.935  -5.596  1.00  0.00    -0.550 OA
ENDBRANCH   4   5
ENDBRANCH   3   4
ENDBRANCH   2   3
ENDBRANCH   1   2
BRANCH   1   8
ATOM      8  C   UNL     1       3.851 -17.808  -1.193  1.00  0.00     0.000 C 
BRANCH   8   9
ATOM      9  C   UNL     1       3.487 -17.777   0.300  1.00  0.00    -0.000 C 
BRANCH   9  10
ATOM     10  C   UNL     1       4.360 -18.723   1.140  1.00  0.00    -0.000 C 
BRANCH  10  11
ATOM     11  C   UNL     1       3.733 -19.064   2.505  1.00  0.00    -0.000 C 
BRANCH  11  12
ATOM     12  C   UNL     1       4.191 -18.172   3.672  1.00  0.00    -0.003 C 
ATOM     13  C   UNL     1       3.182 -17.077   4.019  1.00  0.00     0.004 C 
ENDBRANCH  11  12
ENDBRANCH  10  11
ENDBRANCH   9  10
ENDBRANCH   8   9
ENDBRANCH   1   8
TORSDOF 9
ENDMDL
