MODEL 1
REMARK VINA RESULT:    -4.061      0.000      0.000
REMARK INTER + INTRA:          -4.734
REMARK INTER:                  -4.535
REMARK INTRA:                  -0.199
REMARK UNBOUND:                -0.199
REMARK SMILES O=C([O-])c1ccccc1C(=O)[O-]
REMARK SMILES IDX 4 1 9 2 5 3 8 4 6 5 7 6 2 7 1 8 3 9 10 10 11 11 12 12
REMARK H PARENT
REMARK Flexibility Score: inf
ROOT
ATOM      1  C   UNL     1      56.046  27.994  50.525  1.00  0.00     0.006 A 
ATOM      2  C   UNL     1      56.249  26.621  50.206  1.00  0.00     0.006 A 
ATOM      3  C   UNL     1      54.801  28.585  50.243  1.00  0.00     0.010 A 
ATOM      4  C   UNL     1      55.177  25.876  49.679  1.00  0.00     0.010 A 
ATOM      5  C   UNL     1      53.759  27.832  49.699  1.00  0.00     0.001 A 
ATOM      6  C   UNL     1      53.943  26.478  49.429  1.00  0.00     0.001 A 
ENDROOT
BRANCH   1   7
ATOM      7  C   UNL     1      57.066  28.823  51.206  1.00  0.00     0.072 C 
ATOM      8  O   UNL     1      57.010  29.025  52.448  1.00  0.00    -0.545 OA
ATOM      9  O   UNL     1      58.064  29.447  50.467  1.00  0.00    -0.545 OA
ENDBRANCH   1   7
BRANCH   2  10
ATOM     10  C   UNL     1      57.560  25.946  50.338  1.00  0.00     0.072 C 
ATOM     11  O   UNL     1      57.779  25.142  51.283  1.00  0.00    -0.545 OA
ATOM     12  O   UNL     1      58.590  26.244  49.454  1.00  0.00    -0.545 OA
ENDBRANCH   2  10
TORSDOF 2
ENDMDL
MODEL 2
REMARK VINA RESULT:    -4.049      0.044      2.876
REMARK INTER + INTRA:          -4.721
REMARK INTER:                  -4.529
REMARK INTRA:                  -0.192
REMARK UNBOUND:                -0.199
REMARK SMILES O=C([O-])c1ccccc1C(=O)[O-]
REMARK SMILES IDX 4 1 9 2 5 3 8 4 6 5 7 6 2 7 1 8 3 9 10 10 11 11 12 12
REMARK H PARENT
REMARK Flexibility Score: inf
ROOT
ATOM      1  C   UNL     1      56.235  26.624  50.182  1.00  0.00     0.006 A 
ATOM      2  C   UNL     1      56.032  27.998  50.495  1.00  0.00     0.006 A 
ATOM      3  C   UNL     1      55.159  25.871  49.677  1.00  0.00     0.010 A 
ATOM      4  C   UNL     1      54.779  28.582  50.230  1.00  0.00     0.010 A 
ATOM      5  C   UNL     1      53.918  26.466  49.443  1.00  0.00     0.001 A 
ATOM      6  C   UNL     1      53.733  27.821  49.707  1.00  0.00     0.001 A 
ENDROOT
BRANCH   1   7
ATOM      7  C   UNL     1      57.551  25.956  50.298  1.00  0.00     0.072 C 
ATOM      8  O   UNL     1      57.785  25.149  51.236  1.00  0.00    -0.545 OA
ATOM      9  O   UNL     1      58.571  26.266  49.405  1.00  0.00    -0.545 OA
ENDBRANCH   1   7
BRANCH   2  10
ATOM     10  C   UNL     1      57.059  28.837  51.156  1.00  0.00     0.072 C 
ATOM     11  O   UNL     1      57.012  29.057  52.394  1.00  0.00    -0.545 OA
ATOM     12  O   UNL     1      58.053  29.446  50.399  1.00  0.00    -0.545 OA
ENDBRANCH   2  10
TORSDOF 2
ENDMDL
MODEL 3
REMARK VINA RESULT:    -4.027     11.709     13.852
REMARK INTER + INTRA:          -4.697
REMARK INTER:                  -4.506
REMARK INTRA:                  -0.190
REMARK UNBOUND:                -0.199
REMARK SMILES O=C([O-])c1ccccc1C(=O)[O-]
REMARK SMILES IDX 4 1 9 2 5 3 8 4 6 5 7 6 2 7 1 8 3 9 10 10 11 11 12 12
REMARK H PARENT
REMARK Flexibility Score: inf
ROOT
ATOM      1  C   UNL     1      63.598  33.382  60.634  1.00  0.00     0.006 A 
ATOM      2  C   UNL     1      62.224  33.593  60.324  1.00  0.00     0.006 A 
ATOM      3  C   UNL     1      64.356  34.452  61.143  1.00  0.00     0.010 A 
ATOM      4  C   UNL     1      61.646  34.847  60.598  1.00  0.00     0.010 A 
ATOM      5  C   UNL     1      63.767  35.694  61.385  1.00  0.00     0.001 A 
ATOM      6  C   UNL     1      62.413  35.887  61.125  1.00  0.00     0.001 A 
ENDROOT
BRANCH   1   7
ATOM      7  C   UNL     1      64.259  32.063  60.509  1.00  0.00     0.072 C 
ATOM      8  O   UNL     1      65.047  31.824  59.556  1.00  0.00    -0.545 OA
ATOM      9  O   UNL     1      63.965  31.047  61.412  1.00  0.00    -0.545 OA
ENDBRANCH   1   7
BRANCH   2  10
ATOM     10  C   UNL     1      61.379  32.574  59.660  1.00  0.00     0.072 C 
ATOM     11  O   UNL     1      61.127  32.649  58.429  1.00  0.00    -0.545 OA
ATOM     12  O   UNL     1      60.800  31.554  60.406  1.00  0.00    -0.545 OA
ENDBRANCH   2  10
TORSDOF 2
ENDMDL
MODEL 4
REMARK VINA RESULT:    -4.018     11.644     13.715
REMARK INTER + INTRA:          -4.687
REMARK INTER:                  -4.487
REMARK INTRA:                  -0.200
REMARK UNBOUND:                -0.199
REMARK SMILES O=C([O-])c1ccccc1C(=O)[O-]
REMARK SMILES IDX 4 1 9 2 5 3 8 4 6 5 7 6 2 7 1 8 3 9 10 10 11 11 12 12
REMARK H PARENT
REMARK Flexibility Score: inf
ROOT
ATOM      1  C   UNL     1      62.201  33.555  60.254  1.00  0.00     0.006 A 
ATOM      2  C   UNL     1      63.571  33.357  60.591  1.00  0.00     0.006 A 
ATOM      3  C   UNL     1      61.607  34.804  60.512  1.00  0.00     0.010 A 
ATOM      4  C   UNL     1      64.309  34.436  61.112  1.00  0.00     0.010 A 
ATOM      5  C   UNL     1      62.353  35.853  61.050  1.00  0.00     0.001 A 
ATOM      6  C   UNL     1      63.704  35.673  61.337  1.00  0.00     0.001 A 
ENDROOT
BRANCH   1   7
ATOM      7  C   UNL     1      61.380  32.525  59.578  1.00  0.00     0.072 C 
ATOM      8  O   UNL     1      61.163  32.584  58.339  1.00  0.00    -0.545 OA
ATOM      9  O   UNL     1      60.781  31.514  60.319  1.00  0.00    -0.545 OA
ENDBRANCH   1   7
BRANCH   2  10
ATOM     10  C   UNL     1      64.248  32.044  60.485  1.00  0.00     0.072 C 
ATOM     11  O   UNL     1      65.039  31.802  59.536  1.00  0.00    -0.545 OA
ATOM     12  O   UNL     1      63.963  31.037  61.400  1.00  0.00    -0.545 OA
ENDBRANCH   2  10
TORSDOF 2
ENDMDL
MODEL 5
REMARK VINA RESULT:    -3.739      1.793      3.615
REMARK INTER + INTRA:          -4.375
REMARK INTER:                  -4.151
REMARK INTRA:                  -0.223
REMARK UNBOUND:                -0.199
REMARK SMILES O=C([O-])c1ccccc1C(=O)[O-]
REMARK SMILES IDX 4 1 9 2 5 3 8 4 6 5 7 6 2 7 1 8 3 9 10 10 11 11 12 12
REMARK H PARENT
REMARK Flexibility Score: inf
ROOT
ATOM      1  C   UNL     1      55.218  27.262  50.261  1.00  0.00     0.006 A 
ATOM      2  C   UNL     1      53.996  27.993  50.291  1.00  0.00     0.006 A 
ATOM      3  C   UNL     1      55.252  26.014  49.614  1.00  0.00     0.010 A 
ATOM      4  C   UNL     1      52.875  27.478  49.614  1.00  0.00     0.010 A 
ATOM      5  C   UNL     1      54.122  25.512  48.968  1.00  0.00     0.001 A 
ATOM      6  C   UNL     1      52.940  26.248  48.957  1.00  0.00     0.001 A 
ENDROOT
BRANCH   1   7
ATOM      7  C   UNL     1      56.484  27.783  50.826  1.00  0.00     0.072 C 
ATOM      8  O   UNL     1      57.262  28.483  50.127  1.00  0.00    -0.545 OA
ATOM      9  O   UNL     1      56.859  27.447  52.122  1.00  0.00    -0.545 OA
ENDBRANCH   1   7
BRANCH   2  10
ATOM     10  C   UNL     1      53.822  29.247  51.060  1.00  0.00     0.072 C 
ATOM     11  O   UNL     1      53.979  30.368  50.509  1.00  0.00    -0.545 OA
ATOM     12  O   UNL     1      53.548  29.197  52.422  1.00  0.00    -0.545 OA
ENDBRANCH   2  10
TORSDOF 2
ENDMDL
MODEL 6
REMARK VINA RESULT:    -3.664     11.294     13.302
REMARK INTER + INTRA:          -4.291
REMARK INTER:                  -4.140
REMARK INTRA:                  -0.151
REMARK UNBOUND:                -0.199
REMARK SMILES O=C([O-])c1ccccc1C(=O)[O-]
REMARK SMILES IDX 4 1 9 2 5 3 8 4 6 5 7 6 2 7 1 8 3 9 10 10 11 11 12 12
REMARK H PARENT
REMARK Flexibility Score: inf
ROOT
ATOM      1  C   UNL     1      63.336  32.244  60.574  1.00  0.00     0.006 A 
ATOM      2  C   UNL     1      61.982  32.612  60.331  1.00  0.00     0.006 A 
ATOM      3  C   UNL     1      64.279  33.251  60.849  1.00  0.00     0.010 A 
ATOM      4  C   UNL     1      61.612  33.965  60.438  1.00  0.00     0.010 A 
ATOM      5  C   UNL     1      63.894  34.589  60.928  1.00  0.00     0.001 A 
ATOM      6  C   UNL     1      62.561  34.944  60.735  1.00  0.00     0.001 A 
ENDROOT
BRANCH   1   7
ATOM      7  C   UNL     1      63.794  30.836  60.618  1.00  0.00     0.072 C 
ATOM      8  O   UNL     1      63.681  30.154  61.670  1.00  0.00    -0.545 OA
ATOM      9  O   UNL     1      64.419  30.272  59.512  1.00  0.00    -0.545 OA
ENDBRANCH   1   7
BRANCH   2  10
ATOM     10  C   UNL     1      60.946  31.644  59.901  1.00  0.00     0.072 C 
ATOM     11  O   UNL     1      60.460  31.695  58.741  1.00  0.00    -0.545 OA
ATOM     12  O   UNL     1      60.451  30.707  60.800  1.00  0.00    -0.545 OA
ENDBRANCH   2  10
TORSDOF 2
ENDMDL
MODEL 7
REMARK VINA RESULT:    -3.590      2.000      3.174
REMARK INTER + INTRA:          -4.209
REMARK INTER:                  -4.029
REMARK INTRA:                  -0.180
REMARK UNBOUND:                -0.199
REMARK SMILES O=C([O-])c1ccccc1C(=O)[O-]
REMARK SMILES IDX 4 1 9 2 5 3 8 4 6 5 7 6 2 7 1 8 3 9 10 10 11 11 12 12
REMARK H PARENT
REMARK Flexibility Score: inf
ROOT
ATOM      1  C   UNL     1      57.220  28.302  50.401  1.00  0.00     0.006 A 
ATOM      2  C   UNL     1      57.406  26.890  50.388  1.00  0.00     0.006 A 
ATOM      3  C   UNL     1      58.231  29.130  49.878  1.00  0.00     0.010 A 
ATOM      4  C   UNL     1      58.566  26.359  49.794  1.00  0.00     0.010 A 
ATOM      5  C   UNL     1      59.384  28.581  49.314  1.00  0.00     0.001 A 
ATOM      6  C   UNL     1      59.545  27.199  49.261  1.00  0.00     0.001 A 
ENDROOT
BRANCH   1   7
ATOM      7  C   UNL     1      55.977  28.948  50.879  1.00  0.00     0.072 C 
ATOM      8  O   UNL     1      55.943  29.539  51.991  1.00  0.00    -0.545 OA
ATOM      9  O   UNL     1      54.809  28.851  50.132  1.00  0.00    -0.545 OA
ENDBRANCH   1   7
BRANCH   2  10
ATOM     10  C   UNL     1      56.466  25.946  51.035  1.00  0.00     0.072 C 
ATOM     11  O   UNL     1      56.738  25.428  52.150  1.00  0.00    -0.545 OA
ATOM     12  O   UNL     1      55.298  25.569  50.383  1.00  0.00    -0.545 OA
ENDBRANCH   2  10
TORSDOF 2
ENDMDL
MODEL 8
REMARK VINA RESULT:    -3.585      1.988      4.295
REMARK INTER + INTRA:          -4.203
REMARK INTER:                  -4.034
REMARK INTRA:                  -0.169
REMARK UNBOUND:                -0.199
REMARK SMILES O=C([O-])c1ccccc1C(=O)[O-]
REMARK SMILES IDX 4 1 9 2 5 3 8 4 6 5 7 6 2 7 1 8 3 9 10 10 11 11 12 12
REMARK H PARENT
REMARK Flexibility Score: inf
ROOT
ATOM      1  C   UNL     1      57.447  26.925  50.360  1.00  0.00     0.006 A 
ATOM      2  C   UNL     1      57.232  28.332  50.418  1.00  0.00     0.006 A 
ATOM      3  C   UNL     1      58.622  26.438  49.759  1.00  0.00     0.010 A 
ATOM      4  C   UNL     1      58.230  29.197  49.932  1.00  0.00     0.010 A 
ATOM      5  C   UNL     1      59.589  27.314  49.264  1.00  0.00     0.001 A 
ATOM      6  C   UNL     1      59.398  28.691  49.362  1.00  0.00     0.001 A 
ENDROOT
BRANCH   1   7
ATOM      7  C   UNL     1      56.521  25.941  50.965  1.00  0.00     0.072 C 
ATOM      8  O   UNL     1      56.809  25.365  52.048  1.00  0.00    -0.545 OA
ATOM      9  O   UNL     1      55.348  25.592  50.307  1.00  0.00    -0.545 OA
ENDBRANCH   1   7
BRANCH   2  10
ATOM     10  C   UNL     1      55.970  28.937  50.905  1.00  0.00     0.072 C 
ATOM     11  O   UNL     1      54.935  28.931  50.189  1.00  0.00    -0.545 OA
ATOM     12  O   UNL     1      55.936  29.578  52.138  1.00  0.00    -0.545 OA
ENDBRANCH   2  10
TORSDOF 2
ENDMDL
MODEL 9
REMARK VINA RESULT:    -3.513     13.160     14.549
REMARK INTER + INTRA:          -4.123
REMARK INTER:                  -3.963
REMARK INTRA:                  -0.159
REMARK UNBOUND:                -0.199
REMARK SMILES O=C([O-])c1ccccc1C(=O)[O-]
REMARK SMILES IDX 4 1 9 2 5 3 8 4 6 5 7 6 2 7 1 8 3 9 10 10 11 11 12 12
REMARK H PARENT
REMARK Flexibility Score: inf
ROOT
ATOM      1  C   UNL     1      62.437  34.804  60.417  1.00  0.00     0.006 A 
ATOM      2  C   UNL     1      63.786  34.419  60.666  1.00  0.00     0.006 A 
ATOM      3  C   UNL     1      61.460  33.805  60.255  1.00  0.00     0.010 A 
ATOM      4  C   UNL     1      64.090  33.052  60.810  1.00  0.00     0.010 A 
ATOM      5  C   UNL     1      61.790  32.455  60.380  1.00  0.00     0.001 A 
ATOM      6  C   UNL     1      63.099  32.080  60.669  1.00  0.00     0.001 A 
ENDROOT
BRANCH   1   7
ATOM      7  C   UNL     1      61.994  36.216  60.384  1.00  0.00     0.072 C 
ATOM      8  O   UNL     1      61.987  36.914  61.432  1.00  0.00    -0.545 OA
ATOM      9  O   UNL     1      61.517  36.770  59.202  1.00  0.00    -0.545 OA
ENDBRANCH   1   7
BRANCH   2  10
ATOM     10  C   UNL     1      64.906  35.386  60.716  1.00  0.00     0.072 C 
ATOM     11  O   UNL     1      65.571  35.654  59.681  1.00  0.00    -0.545 OA
ATOM     12  O   UNL     1      65.279  35.960  61.926  1.00  0.00    -0.545 OA
ENDBRANCH   2  10
TORSDOF 2
ENDMDL
