MODEL 1
REMARK VINA RESULT:    -3.340      0.000      0.000
REMARK INTER + INTRA:          -4.517
REMARK INTER:                  -4.511
REMARK INTRA:                  -0.006
REMARK UNBOUND:                -0.006
REMARK SMILES O=c1c(-c2ccc(O)cc2)coc2c([C@H]3O[C@H](CO)[C@@H](O)[C@@H](O)[C@@H]3O)c(O)ccc12
REMARK SMILES IDX 3 1 11 2 12 3 13 4 30 5 2 6 1 7 29 8 28 9 26 10 14 11 4 12
REMARK SMILES IDX 5 13 6 14 7 15 10 16 9 17 8 18 15 20 24 21 16 22 22 23 17 24
REMARK SMILES IDX 20 25 25 26 23 28 18 30 19 31 21 33 27 35
REMARK H PARENT 8 19 25 27 23 29 19 32 21 34 27 36
REMARK Flexibility Score: inf
ROOT
ATOM      1  C   UNL     1       6.410   7.710  15.686  1.00  0.00     0.065 A 
ATOM      2  C   UNL     1       5.492   7.698  14.631  1.00  0.00     0.208 A 
ATOM      3  O   UNL     1       5.437   8.699  13.757  1.00  0.00    -0.463 OA
ATOM      4  C   UNL     1       6.228   9.767  13.802  1.00  0.00     0.147 A 
ATOM      5  C   UNL     1       7.162   9.870  14.862  1.00  0.00     0.066 A 
ATOM      6  C   UNL     1       7.260   8.820  15.793  1.00  0.00     0.200 A 
ATOM      7  O   UNL     1       8.125   8.870  16.712  1.00  0.00    -0.288 OA
ATOM      8  C   UNL     1       7.985  10.998  14.949  1.00  0.00     0.020 A 
ATOM      9  C   UNL     1       7.831  12.049  14.060  1.00  0.00     0.047 A 
ATOM     10  C   UNL     1       6.908  11.978  13.023  1.00  0.00     0.125 A 
ATOM     11  C   UNL     1       6.129  10.805  12.813  1.00  0.00     0.069 A 
ENDROOT
BRANCH   1  12
ATOM     12  C   UNL     1       6.530   6.539  16.595  1.00  0.00    -0.011 A 
ATOM     13  C   UNL     1       7.165   6.676  17.845  1.00  0.00     0.013 A 
ATOM     14  C   UNL     1       7.134   5.635  18.771  1.00  0.00     0.047 A 
ATOM     15  C   UNL     1       6.502   4.430  18.456  1.00  0.00     0.115 A 
ATOM     16  C   UNL     1       5.937   5.303  16.270  1.00  0.00     0.013 A 
ATOM     17  C   UNL     1       5.919   4.262  17.196  1.00  0.00     0.047 A 
BRANCH  15  18
ATOM     18  O   UNL     1       6.447   3.385  19.380  1.00  0.00    -0.508 OA
ATOM     19  H   UNL     1       6.376   3.566  20.371  1.00  0.00     0.293 HD
ENDBRANCH  15  18
ENDBRANCH   1  12
BRANCH  11  20
ATOM     20  C   UNL     1       5.246  10.733  11.539  1.00  0.00     0.188 C 
ATOM     21  C   UNL     1       5.888  10.054  10.269  1.00  0.00     0.179 C 
ATOM     22  O   UNL     1       4.796  12.050  11.243  1.00  0.00    -0.362 OA
ATOM     23  C   UNL     1       5.371  10.667   8.946  1.00  0.00     0.177 C 
ATOM     24  C   UNL     1       3.760  12.106  10.267  1.00  0.00     0.176 C 
ATOM     25  C   UNL     1       3.904  11.098   9.087  1.00  0.00     0.177 C 
BRANCH  21  26
ATOM     26  O   UNL     1       5.651   8.669  10.275  1.00  0.00    -0.387 OA
ATOM     27  H   UNL     1       4.668   8.513  10.330  1.00  0.00     0.211 HD
ENDBRANCH  21  26
BRANCH  23  28
ATOM     28  O   UNL     1       6.162  11.775   8.549  1.00  0.00    -0.387 OA
ATOM     29  H   UNL     1       6.700  11.510   7.753  1.00  0.00     0.211 HD
ENDBRANCH  23  28
BRANCH  24  30
ATOM     30  C   UNL     1       2.364  12.107  10.911  1.00  0.00     0.191 C 
BRANCH  30  31
ATOM     31  O   UNL     1       2.343  12.780  12.141  1.00  0.00    -0.394 OA
ATOM     32  H   UNL     1       1.889  12.175  12.787  1.00  0.00     0.210 HD
ENDBRANCH  30  31
ENDBRANCH  24  30
BRANCH  25  33
ATOM     33  O   UNL     1       3.424  11.640   7.875  1.00  0.00    -0.388 OA
ATOM     34  H   UNL     1       4.154  11.587   7.199  1.00  0.00     0.211 HD
ENDBRANCH  25  33
ENDBRANCH  11  20
BRANCH  10  35
ATOM     35  O   UNL     1       6.772  13.124  12.245  1.00  0.00    -0.507 OA
ATOM     36  H   UNL     1       7.239  14.001  12.456  1.00  0.00     0.293 HD
ENDBRANCH  10  35
TORSDOF 9
ENDMDL
MODEL 2
REMARK VINA RESULT:    -2.546      1.291      2.644
REMARK INTER + INTRA:          -3.444
REMARK INTER:                  -3.520
REMARK INTRA:                   0.076
REMARK UNBOUND:                -0.006
REMARK SMILES O=c1c(-c2ccc(O)cc2)coc2c([C@H]3O[C@H](CO)[C@@H](O)[C@@H](O)[C@@H]3O)c(O)ccc12
REMARK SMILES IDX 3 1 11 2 12 3 13 4 30 5 2 6 1 7 29 8 28 9 26 10 14 11 4 12
REMARK SMILES IDX 5 13 6 14 7 15 10 16 9 17 8 18 15 20 24 21 16 22 22 23 17 24
REMARK SMILES IDX 20 25 25 26 23 28 18 30 19 31 21 33 27 35
REMARK H PARENT 8 19 25 27 23 29 19 32 21 34 27 36
REMARK Flexibility Score: inf
ROOT
ATOM      1  C   UNL     1       6.276   7.083  15.530  1.00  0.00     0.065 A 
ATOM      2  C   UNL     1       5.533   7.405  14.390  1.00  0.00     0.208 A 
ATOM      3  O   UNL     1       5.660   8.590  13.799  1.00  0.00    -0.463 OA
ATOM      4  C   UNL     1       6.481   9.545  14.223  1.00  0.00     0.147 A 
ATOM      5  C   UNL     1       7.242   9.310  15.395  1.00  0.00     0.066 A 
ATOM      6  C   UNL     1       7.146   8.060  16.034  1.00  0.00     0.200 A 
ATOM      7  O   UNL     1       7.859   7.813  17.047  1.00  0.00    -0.288 OA
ATOM      8  C   UNL     1       8.090  10.310  15.879  1.00  0.00     0.020 A 
ATOM      9  C   UNL     1       8.124  11.556  15.274  1.00  0.00     0.047 A 
ATOM     10  C   UNL     1       7.372  11.816  14.134  1.00  0.00     0.125 A 
ATOM     11  C   UNL     1       6.583  10.798  13.526  1.00  0.00     0.069 A 
ENDROOT
BRANCH   1  12
ATOM     12  C   UNL     1       6.199   5.720  16.120  1.00  0.00    -0.011 A 
ATOM     13  C   UNL     1       5.495   4.699  15.453  1.00  0.00     0.013 A 
ATOM     14  C   UNL     1       5.557   3.383  15.908  1.00  0.00     0.047 A 
ATOM     15  C   UNL     1       6.293   3.068  17.052  1.00  0.00     0.115 A 
ATOM     16  C   UNL     1       6.899   5.398  17.299  1.00  0.00     0.013 A 
ATOM     17  C   UNL     1       6.949   4.083  17.757  1.00  0.00     0.047 A 
BRANCH  15  18
ATOM     18  O   UNL     1       6.380   1.752  17.510  1.00  0.00    -0.508 OA
ATOM     19  H   UNL     1       5.631   1.093  17.353  1.00  0.00     0.293 HD
ENDBRANCH  15  18
ENDBRANCH   1  12
BRANCH  11  20
ATOM     20  C   UNL     1       5.908  11.112  12.165  1.00  0.00     0.188 C 
ATOM     21  C   UNL     1       4.455  11.723  12.218  1.00  0.00     0.179 C 
ATOM     22  O   UNL     1       5.937   9.928  11.377  1.00  0.00    -0.362 OA
ATOM     23  C   UNL     1       3.590  11.299  11.008  1.00  0.00     0.177 C 
ATOM     24  C   UNL     1       5.602  10.131  10.007  1.00  0.00     0.176 C 
ATOM     25  C   UNL     1       4.458  11.157   9.749  1.00  0.00     0.177 C 
BRANCH  21  26
ATOM     26  O   UNL     1       4.510  13.125  12.295  1.00  0.00    -0.387 OA
ATOM     27  H   UNL     1       5.298  13.385  12.847  1.00  0.00     0.211 HD
ENDBRANCH  21  26
BRANCH  23  28
ATOM     28  O   UNL     1       2.910  10.082  11.264  1.00  0.00    -0.387 OA
ATOM     29  H   UNL     1       1.946  10.284  11.417  1.00  0.00     0.211 HD
ENDBRANCH  23  28
BRANCH  24  30
ATOM     30  C   UNL     1       6.850  10.367   9.141  1.00  0.00     0.191 C 
BRANCH  30  31
ATOM     31  O   UNL     1       7.406   9.171   8.666  1.00  0.00    -0.394 OA
ATOM     32  H   UNL     1       8.367   9.356   8.488  1.00  0.00     0.210 HD
ENDBRANCH  30  31
ENDBRANCH  24  30
BRANCH  25  33
ATOM     33  O   UNL     1       3.668  10.787   8.638  1.00  0.00    -0.388 OA
ATOM     34  H   UNL     1       3.205   9.932   8.855  1.00  0.00     0.211 HD
ENDBRANCH  25  33
ENDBRANCH  11  20
BRANCH  10  35
ATOM     35  O   UNL     1       7.410  13.125  13.661  1.00  0.00    -0.507 OA
ATOM     36  H   UNL     1       6.835  13.873  14.038  1.00  0.00     0.293 HD
ENDBRANCH  10  35
TORSDOF 9
ENDMDL
MODEL 3
REMARK VINA RESULT:    -1.646      1.801      2.663
REMARK INTER + INTRA:          -2.228
REMARK INTER:                  -1.639
REMARK INTRA:                  -0.590
REMARK UNBOUND:                -0.006
REMARK SMILES O=c1c(-c2ccc(O)cc2)coc2c([C@H]3O[C@H](CO)[C@@H](O)[C@@H](O)[C@@H]3O)c(O)ccc12
REMARK SMILES IDX 3 1 11 2 12 3 13 4 30 5 2 6 1 7 29 8 28 9 26 10 14 11 4 12
REMARK SMILES IDX 5 13 6 14 7 15 10 16 9 17 8 18 15 20 24 21 16 22 22 23 17 24
REMARK SMILES IDX 20 25 25 26 23 28 18 30 19 31 21 33 27 35
REMARK H PARENT 8 19 25 27 23 29 19 32 21 34 27 36
REMARK Flexibility Score: inf
ROOT
ATOM      1  C   UNL     1       5.821   7.724  15.075  1.00  0.00     0.065 A 
ATOM      2  C   UNL     1       6.493   7.848  13.855  1.00  0.00     0.208 A 
ATOM      3  O   UNL     1       6.145   8.778  12.970  1.00  0.00    -0.463 OA
ATOM      4  C   UNL     1       5.160   9.650  13.160  1.00  0.00     0.147 A 
ATOM      5  C   UNL     1       4.407   9.567  14.358  1.00  0.00     0.066 A 
ATOM      6  C   UNL     1       4.761   8.607  15.324  1.00  0.00     0.200 A 
ATOM      7  O   UNL     1       4.136   8.556  16.420  1.00  0.00    -0.288 OA
ATOM      8  C   UNL     1       3.347  10.454  14.568  1.00  0.00     0.020 A 
ATOM      9  C   UNL     1       2.974  11.350  13.579  1.00  0.00     0.047 A 
ATOM     10  C   UNL     1       3.687  11.436  12.388  1.00  0.00     0.125 A 
ATOM     11  C   UNL     1       4.849  10.643  12.169  1.00  0.00     0.069 A 
ENDROOT
BRANCH   1  12
ATOM     12  C   UNL     1       6.285   6.748  16.097  1.00  0.00    -0.011 A 
ATOM     13  C   UNL     1       7.102   7.174  17.162  1.00  0.00     0.013 A 
ATOM     14  C   UNL     1       7.403   6.308  18.212  1.00  0.00     0.047 A 
ATOM     15  C   UNL     1       6.925   4.996  18.202  1.00  0.00     0.115 A 
ATOM     16  C   UNL     1       5.848   5.409  16.074  1.00  0.00     0.013 A 
ATOM     17  C   UNL     1       6.162   4.544  17.121  1.00  0.00     0.047 A 
BRANCH  15  18
ATOM     18  O   UNL     1       7.202   4.122  19.255  1.00  0.00    -0.508 OA
ATOM     19  H   UNL     1       7.183   3.121  19.122  1.00  0.00     0.293 HD
ENDBRANCH  15  18
ENDBRANCH   1  12
BRANCH  11  20
ATOM     20  C   UNL     1       5.688  10.915  10.892  1.00  0.00     0.188 C 
ATOM     21  C   UNL     1       7.256  10.865  11.050  1.00  0.00     0.179 C 
ATOM     22  O   UNL     1       5.267  12.160  10.348  1.00  0.00    -0.362 OA
ATOM     23  C   UNL     1       7.978  11.839  10.088  1.00  0.00     0.177 C 
ATOM     24  C   UNL     1       5.749  12.413   9.032  1.00  0.00     0.176 C 
ATOM     25  C   UNL     1       7.213  11.952   8.762  1.00  0.00     0.177 C 
BRANCH  21  26
ATOM     26  O   UNL     1       7.733   9.559  10.851  1.00  0.00    -0.387 OA
ATOM     27  H   UNL     1       7.096   8.918  11.272  1.00  0.00     0.211 HD
ENDBRANCH  21  26
BRANCH  23  28
ATOM     28  O   UNL     1       8.124  13.123  10.672  1.00  0.00    -0.387 OA
ATOM     29  H   UNL     1       7.606  13.144  11.523  1.00  0.00     0.211 HD
ENDBRANCH  23  28
BRANCH  24  30
ATOM     30  C   UNL     1       4.751  11.958   7.957  1.00  0.00     0.191 C 
BRANCH  30  31
ATOM     31  O   UNL     1       3.579  11.420   8.508  1.00  0.00    -0.394 OA
ATOM     32  H   UNL     1       3.855  10.631   9.047  1.00  0.00     0.210 HD
ENDBRANCH  30  31
ENDBRANCH  24  30
BRANCH  25  33
ATOM     33  O   UNL     1       7.880  12.826   7.875  1.00  0.00    -0.388 OA
ATOM     34  H   UNL     1       8.408  12.275   7.233  1.00  0.00     0.211 HD
ENDBRANCH  25  33
ENDBRANCH  11  20
BRANCH  10  35
ATOM     35  O   UNL     1       3.173  12.304  11.429  1.00  0.00    -0.507 OA
ATOM     36  H   UNL     1       3.151  12.090  10.436  1.00  0.00     0.293 HD
ENDBRANCH  10  35
TORSDOF 9
ENDMDL
MODEL 4
REMARK VINA RESULT:    -1.058     18.915     23.441
REMARK INTER + INTRA:          -1.435
REMARK INTER:                  -0.733
REMARK INTRA:                  -0.702
REMARK UNBOUND:                -0.006
REMARK SMILES O=c1c(-c2ccc(O)cc2)coc2c([C@H]3O[C@H](CO)[C@@H](O)[C@@H](O)[C@@H]3O)c(O)ccc12
REMARK SMILES IDX 3 1 11 2 12 3 13 4 30 5 2 6 1 7 29 8 28 9 26 10 14 11 4 12
REMARK SMILES IDX 5 13 6 14 7 15 10 16 9 17 8 18 15 20 24 21 16 22 22 23 17 24
REMARK SMILES IDX 20 25 25 26 23 28 18 30 19 31 21 33 27 35
REMARK H PARENT 8 19 25 27 23 29 19 32 21 34 27 36
REMARK Flexibility Score: inf
ROOT
ATOM      1  C   UNL     1      -8.967  -0.763  25.445  1.00  0.00     0.065 A 
ATOM      2  C   UNL     1      -8.486  -1.677  24.502  1.00  0.00     0.208 A 
ATOM      3  O   UNL     1      -9.032  -2.884  24.376  1.00  0.00    -0.463 OA
ATOM      4  C   UNL     1     -10.053  -3.316  25.108  1.00  0.00     0.147 A 
ATOM      5  C   UNL     1     -10.574  -2.461  26.110  1.00  0.00     0.066 A 
ATOM      6  C   UNL     1     -10.034  -1.170  26.258  1.00  0.00     0.200 A 
ATOM      7  O   UNL     1     -10.523  -0.375  27.109  1.00  0.00    -0.288 OA
ATOM      8  C   UNL     1     -11.629  -2.904  26.914  1.00  0.00     0.020 A 
ATOM      9  C   UNL     1     -12.107  -4.199  26.797  1.00  0.00     0.047 A 
ATOM     10  C   UNL     1     -11.597  -5.062  25.833  1.00  0.00     0.125 A 
ATOM     11  C   UNL     1     -10.607  -4.627  24.907  1.00  0.00     0.069 A 
ENDROOT
BRANCH   1  12
ATOM     12  C   UNL     1      -8.416   0.618  25.506  1.00  0.00    -0.011 A 
ATOM     13  C   UNL     1      -7.808   1.084  26.688  1.00  0.00     0.013 A 
ATOM     14  C   UNL     1      -7.142   2.308  26.705  1.00  0.00     0.047 A 
ATOM     15  C   UNL     1      -7.098   3.102  25.556  1.00  0.00     0.115 A 
ATOM     16  C   UNL     1      -8.407   1.448  24.369  1.00  0.00     0.013 A 
ATOM     17  C   UNL     1      -7.749   2.676  24.394  1.00  0.00     0.047 A 
BRANCH  15  18
ATOM     18  O   UNL     1      -6.419   4.322  25.552  1.00  0.00    -0.508 OA
ATOM     19  H   UNL     1      -6.551   4.996  26.292  1.00  0.00     0.293 HD
ENDBRANCH  15  18
ENDBRANCH   1  12
BRANCH  11  20
ATOM     20  C   UNL     1     -10.211  -5.589  23.755  1.00  0.00     0.188 C 
ATOM     21  C   UNL     1      -8.689  -5.988  23.656  1.00  0.00     0.179 C 
ATOM     22  O   UNL     1     -10.673  -5.024  22.534  1.00  0.00    -0.362 OA
ATOM     23  C   UNL     1      -8.237  -6.238  22.197  1.00  0.00     0.177 C 
ATOM     24  C   UNL     1     -10.627  -5.917  21.425  1.00  0.00     0.176 C 
ATOM     25  C   UNL     1      -9.380  -6.851  21.376  1.00  0.00     0.177 C 
BRANCH  21  26
ATOM     26  O   UNL     1      -8.423  -7.125  24.437  1.00  0.00    -0.387 OA
ATOM     27  H   UNL     1      -8.055  -6.831  25.315  1.00  0.00     0.211 HD
ENDBRANCH  21  26
BRANCH  23  28
ATOM     28  O   UNL     1      -7.793  -5.038  21.585  1.00  0.00    -0.387 OA
ATOM     29  H   UNL     1      -8.587  -4.552  21.230  1.00  0.00     0.211 HD
ENDBRANCH  23  28
BRANCH  24  30
ATOM     30  C   UNL     1     -11.960  -6.657  21.228  1.00  0.00     0.191 C 
BRANCH  30  31
ATOM     31  O   UNL     1     -12.125  -7.123  19.915  1.00  0.00    -0.394 OA
ATOM     32  H   UNL     1     -12.953  -6.697  19.565  1.00  0.00     0.210 HD
ENDBRANCH  30  31
ENDBRANCH  24  30
BRANCH  25  33
ATOM     33  O   UNL     1      -8.965  -7.097  20.049  1.00  0.00    -0.388 OA
ATOM     34  H   UNL     1      -8.951  -6.229  19.561  1.00  0.00     0.211 HD
ENDBRANCH  25  33
ENDBRANCH  11  20
BRANCH  10  35
ATOM     35  O   UNL     1     -12.084  -6.366  25.861  1.00  0.00    -0.507 OA
ATOM     36  H   UNL     1     -12.866  -6.658  26.440  1.00  0.00     0.293 HD
ENDBRANCH  10  35
TORSDOF 9
ENDMDL
