MODEL 1
REMARK VINA RESULT:    -3.252      0.000      0.000
REMARK INTER + INTRA:          -4.224
REMARK INTER:                  -4.013
REMARK INTRA:                  -0.211
REMARK UNBOUND:                -0.211
REMARK SMILES CCCCC=CC(C)=O
REMARK SMILES IDX 4 1 3 2 2 3 1 4 5 5 6 6 7 7 9 8 8 9
REMARK H PARENT
REMARK Flexibility Score: inf
ROOT
ATOM      1  C   UNL     1      -3.601  -8.111   1.807  1.00  0.00     0.027 C 
ENDROOT
BRANCH   1   2
ATOM      2  C   UNL     1      -4.329  -9.182   0.979  1.00  0.00     0.004 C 
BRANCH   2   3
ATOM      3  C   UNL     1      -3.558  -9.644  -0.270  1.00  0.00    -0.003 C 
ATOM      4  C   UNL     1      -2.265 -10.384   0.071  1.00  0.00     0.004 C 
ENDBRANCH   2   3
ENDBRANCH   1   2
BRANCH   1   5
ATOM      5  C   UNL     1      -3.321  -6.878   0.994  1.00  0.00    -0.023 C 
ATOM      6  C   UNL     1      -4.077  -5.779   1.102  1.00  0.00     0.042 C 
BRANCH   6   7
ATOM      7  C   UNL     1      -3.794  -4.550   0.340  1.00  0.00     0.152 C 
ATOM      8  O   UNL     1      -4.705  -3.968  -0.310  1.00  0.00    -0.295 OA
ATOM      9  C   UNL     1      -2.411  -3.983   0.337  1.00  0.00     0.093 C 
ENDBRANCH   6   7
ENDBRANCH   1   5
TORSDOF 4
ENDMDL
MODEL 2
REMARK VINA RESULT:    -3.193      0.899      1.237
REMARK INTER + INTRA:          -4.150
REMARK INTER:                  -3.880
REMARK INTRA:                  -0.270
REMARK UNBOUND:                -0.211
REMARK SMILES CCCCC=CC(C)=O
REMARK SMILES IDX 4 1 3 2 2 3 1 4 5 5 6 6 7 7 9 8 8 9
REMARK H PARENT
REMARK Flexibility Score: inf
ROOT
ATOM      1  C   UNL     1      -2.794  -7.652   1.756  1.00  0.00     0.027 C 
ENDROOT
BRANCH   1   2
ATOM      2  C   UNL     1      -1.946  -8.626   0.923  1.00  0.00     0.004 C 
BRANCH   2   3
ATOM      3  C   UNL     1      -2.738  -9.809   0.339  1.00  0.00    -0.003 C 
ATOM      4  C   UNL     1      -3.919  -9.364  -0.525  1.00  0.00     0.004 C 
ENDBRANCH   2   3
ENDBRANCH   1   2
BRANCH   1   5
ATOM      5  C   UNL     1      -2.765  -6.262   1.185  1.00  0.00    -0.023 C 
ATOM      6  C   UNL     1      -3.823  -5.738   0.557  1.00  0.00     0.042 C 
BRANCH   6   7
ATOM      7  C   UNL     1      -3.823  -4.365   0.023  1.00  0.00     0.152 C 
ATOM      8  O   UNL     1      -4.906  -3.772  -0.236  1.00  0.00    -0.295 OA
ATOM      9  C   UNL     1      -2.525  -3.663  -0.213  1.00  0.00     0.093 C 
ENDBRANCH   6   7
ENDBRANCH   1   5
TORSDOF 4
ENDMDL
MODEL 3
REMARK VINA RESULT:    -3.182     16.019     17.018
REMARK INTER + INTRA:          -4.136
REMARK INTER:                  -3.858
REMARK INTRA:                  -0.279
REMARK UNBOUND:                -0.211
REMARK SMILES CCCCC=CC(C)=O
REMARK SMILES IDX 4 1 3 2 2 3 1 4 5 5 6 6 7 7 9 8 8 9
REMARK H PARENT
REMARK Flexibility Score: inf
ROOT
ATOM      1  C   UNL     1      -2.734  -6.631 -14.004  1.00  0.00     0.027 C 
ENDROOT
BRANCH   1   2
ATOM      2  C   UNL     1      -1.767  -5.438 -14.030  1.00  0.00     0.004 C 
BRANCH   2   3
ATOM      3  C   UNL     1      -1.970  -4.490 -15.225  1.00  0.00    -0.003 C 
ATOM      4  C   UNL     1      -3.391  -3.931 -15.305  1.00  0.00     0.004 C 
ENDBRANCH   2   3
ENDBRANCH   1   2
BRANCH   1   5
ATOM      5  C   UNL     1      -2.515  -7.549 -15.174  1.00  0.00    -0.023 C 
ATOM      6  C   UNL     1      -3.465  -7.753 -16.094  1.00  0.00     0.042 C 
BRANCH   6   7
ATOM      7  C   UNL     1      -3.254  -8.621 -17.266  1.00  0.00     0.152 C 
ATOM      8  O   UNL     1      -4.231  -9.039 -17.945  1.00  0.00    -0.295 OA
ATOM      9  C   UNL     1      -1.865  -9.010 -17.658  1.00  0.00     0.093 C 
ENDBRANCH   6   7
ENDBRANCH   1   5
TORSDOF 4
ENDMDL
MODEL 4
REMARK VINA RESULT:    -3.173      2.089      4.771
REMARK INTER + INTRA:          -4.126
REMARK INTER:                  -3.943
REMARK INTRA:                  -0.182
REMARK UNBOUND:                -0.211
REMARK SMILES CCCCC=CC(C)=O
REMARK SMILES IDX 4 1 3 2 2 3 1 4 5 5 6 6 7 7 9 8 8 9
REMARK H PARENT
REMARK Flexibility Score: inf
ROOT
ATOM      1  C   UNL     1      -4.140  -6.526   2.093  1.00  0.00     0.027 C 
ENDROOT
BRANCH   1   2
ATOM      2  C   UNL     1      -4.383  -5.093   1.596  1.00  0.00     0.004 C 
BRANCH   2   3
ATOM      3  C   UNL     1      -3.773  -4.794   0.215  1.00  0.00    -0.003 C 
ATOM      4  C   UNL     1      -4.384  -3.561  -0.450  1.00  0.00     0.004 C 
ENDBRANCH   2   3
ENDBRANCH   1   2
BRANCH   1   5
ATOM      5  C   UNL     1      -3.601  -7.408   1.002  1.00  0.00    -0.023 C 
ATOM      6  C   UNL     1      -3.871  -8.718   0.958  1.00  0.00     0.042 C 
BRANCH   6   7
ATOM      7  C   UNL     1      -3.380  -9.589  -0.124  1.00  0.00     0.152 C 
ATOM      8  O   UNL     1      -4.003  -9.675  -1.217  1.00  0.00    -0.295 OA
ATOM      9  C   UNL     1      -2.129 -10.381   0.074  1.00  0.00     0.093 C 
ENDBRANCH   6   7
ENDBRANCH   1   5
TORSDOF 4
ENDMDL
MODEL 5
REMARK VINA RESULT:    -3.017     15.863     16.398
REMARK INTER + INTRA:          -3.934
REMARK INTER:                  -3.741
REMARK INTRA:                  -0.192
REMARK UNBOUND:                -0.211
REMARK SMILES CCCCC=CC(C)=O
REMARK SMILES IDX 4 1 3 2 2 3 1 4 5 5 6 6 7 7 9 8 8 9
REMARK H PARENT
REMARK Flexibility Score: inf
ROOT
ATOM      1  C   UNL     1      -2.169  -5.074 -14.326  1.00  0.00     0.027 C 
ENDROOT
BRANCH   1   2
ATOM      2  C   UNL     1      -2.386  -6.547 -13.947  1.00  0.00     0.004 C 
BRANCH   2   3
ATOM      3  C   UNL     1      -2.825  -7.440 -15.121  1.00  0.00    -0.003 C 
ATOM      4  C   UNL     1      -2.111  -8.792 -15.139  1.00  0.00     0.004 C 
ENDBRANCH   2   3
ENDBRANCH   1   2
BRANCH   1   5
ATOM      5  C   UNL     1      -2.986  -4.683 -15.525  1.00  0.00    -0.023 C 
ATOM      6  C   UNL     1      -3.826  -3.642 -15.493  1.00  0.00     0.042 C 
BRANCH   6   7
ATOM      7  C   UNL     1      -4.608  -3.223 -16.670  1.00  0.00     0.152 C 
ATOM      8  O   UNL     1      -5.866  -3.154 -16.619  1.00  0.00    -0.295 OA
ATOM      9  C   UNL     1      -3.903  -2.875 -17.941  1.00  0.00     0.093 C 
ENDBRANCH   6   7
ENDBRANCH   1   5
TORSDOF 4
ENDMDL
MODEL 6
REMARK VINA RESULT:    -2.967     16.027     17.056
REMARK INTER + INTRA:          -3.871
REMARK INTER:                  -3.616
REMARK INTRA:                  -0.254
REMARK UNBOUND:                -0.211
REMARK SMILES CCCCC=CC(C)=O
REMARK SMILES IDX 4 1 3 2 2 3 1 4 5 5 6 6 7 7 9 8 8 9
REMARK H PARENT
REMARK Flexibility Score: inf
ROOT
ATOM      1  C   UNL     1      -2.743  -4.061 -14.854  1.00  0.00     0.027 C 
ENDROOT
BRANCH   1   2
ATOM      2  C   UNL     1      -3.692  -3.034 -15.491  1.00  0.00     0.004 C 
BRANCH   2   3
ATOM      3  C   UNL     1      -4.278  -3.474 -16.845  1.00  0.00    -0.003 C 
ATOM      4  C   UNL     1      -5.785  -3.238 -16.945  1.00  0.00     0.004 C 
ENDBRANCH   2   3
ENDBRANCH   1   2
BRANCH   1   5
ATOM      5  C   UNL     1      -2.849  -5.403 -15.523  1.00  0.00    -0.023 C 
ATOM      6  C   UNL     1      -2.687  -6.543 -14.840  1.00  0.00     0.042 C 
BRANCH   6   7
ATOM      7  C   UNL     1      -2.823  -7.867 -15.473  1.00  0.00     0.152 C 
ATOM      8  O   UNL     1      -2.230  -8.874 -14.998  1.00  0.00    -0.295 OA
ATOM      9  C   UNL     1      -3.673  -8.020 -16.692  1.00  0.00     0.093 C 
ENDBRANCH   6   7
ENDBRANCH   1   5
TORSDOF 4
ENDMDL
MODEL 7
REMARK VINA RESULT:    -2.911     15.510     16.052
REMARK INTER + INTRA:          -3.803
REMARK INTER:                  -3.523
REMARK INTRA:                  -0.280
REMARK UNBOUND:                -0.211
REMARK SMILES CCCCC=CC(C)=O
REMARK SMILES IDX 4 1 3 2 2 3 1 4 5 5 6 6 7 7 9 8 8 9
REMARK H PARENT
REMARK Flexibility Score: inf
ROOT
ATOM      1  C   UNL     1      -2.168  -6.384 -13.742  1.00  0.00     0.027 C 
ENDROOT
BRANCH   1   2
ATOM      2  C   UNL     1      -1.361  -7.456 -14.490  1.00  0.00     0.004 C 
BRANCH   2   3
ATOM      3  C   UNL     1      -2.219  -8.587 -15.085  1.00  0.00    -0.003 C 
ATOM      4  C   UNL     1      -2.746  -8.259 -16.482  1.00  0.00     0.004 C 
ENDBRANCH   2   3
ENDBRANCH   1   2
BRANCH   1   5
ATOM      5  C   UNL     1      -2.241  -5.101 -14.521  1.00  0.00    -0.023 C 
ATOM      6  C   UNL     1      -3.319  -4.780 -15.246  1.00  0.00     0.042 C 
BRANCH   6   7
ATOM      7  C   UNL     1      -3.422  -3.510 -15.986  1.00  0.00     0.152 C 
ATOM      8  O   UNL     1      -4.539  -2.951 -16.157  1.00  0.00    -0.295 OA
ATOM      9  C   UNL     1      -2.188  -2.875 -16.541  1.00  0.00     0.093 C 
ENDBRANCH   6   7
ENDBRANCH   1   5
TORSDOF 4
ENDMDL
MODEL 8
REMARK VINA RESULT:    -2.608     25.160     26.462
REMARK INTER + INTRA:          -3.429
REMARK INTER:                  -3.315
REMARK INTRA:                  -0.114
REMARK UNBOUND:                -0.211
REMARK SMILES CCCCC=CC(C)=O
REMARK SMILES IDX 4 1 3 2 2 3 1 4 5 5 6 6 7 7 9 8 8 9
REMARK H PARENT
REMARK Flexibility Score: inf
ROOT
ATOM      1  C   UNL     1     -18.434 -23.071 -13.426  1.00  0.00     0.027 C 
ENDROOT
BRANCH   1   2
ATOM      2  C   UNL     1     -19.688 -22.383 -12.865  1.00  0.00     0.004 C 
BRANCH   2   3
ATOM      3  C   UNL     1     -19.664 -22.179 -11.339  1.00  0.00    -0.003 C 
ATOM      4  C   UNL     1     -20.426 -20.931 -10.895  1.00  0.00     0.004 C 
ENDBRANCH   2   3
ENDBRANCH   1   2
BRANCH   1   5
ATOM      5  C   UNL     1     -18.229 -22.750 -14.880  1.00  0.00    -0.023 C 
ATOM      6  C   UNL     1     -17.043 -22.921 -15.476  1.00  0.00     0.042 C 
BRANCH   6   7
ATOM      7  C   UNL     1     -16.834 -22.646 -16.909  1.00  0.00     0.152 C 
ATOM      8  O   UNL     1     -15.799 -23.055 -17.501  1.00  0.00    -0.295 OA
ATOM      9  C   UNL     1     -17.862 -21.874 -17.671  1.00  0.00     0.093 C 
ENDBRANCH   6   7
ENDBRANCH   1   5
TORSDOF 4
ENDMDL
MODEL 9
REMARK VINA RESULT:    -2.530      1.575      2.138
REMARK INTER + INTRA:          -3.332
REMARK INTER:                  -3.207
REMARK INTRA:                  -0.124
REMARK UNBOUND:                -0.211
REMARK SMILES CCCCC=CC(C)=O
REMARK SMILES IDX 4 1 3 2 2 3 1 4 5 5 6 6 7 7 9 8 8 9
REMARK H PARENT
REMARK Flexibility Score: inf
ROOT
ATOM      1  C   UNL     1      -3.802  -9.257  -0.328  1.00  0.00     0.027 C 
ENDROOT
BRANCH   1   2
ATOM      2  C   UNL     1      -3.135 -10.318   0.561  1.00  0.00     0.004 C 
BRANCH   2   3
ATOM      3  C   UNL     1      -1.604 -10.386   0.419  1.00  0.00    -0.003 C 
ATOM      4  C   UNL     1      -0.875  -9.493   1.423  1.00  0.00     0.004 C 
ENDBRANCH   2   3
ENDBRANCH   1   2
BRANCH   1   5
ATOM      5  C   UNL     1      -4.250  -8.065   0.470  1.00  0.00    -0.023 C 
ATOM      6  C   UNL     1      -3.373  -7.202   0.996  1.00  0.00     0.042 C 
BRANCH   6   7
ATOM      7  C   UNL     1      -3.796  -6.009   1.750  1.00  0.00     0.152 C 
ATOM      8  O   UNL     1      -4.994  -5.870   2.122  1.00  0.00    -0.295 OA
ATOM      9  C   UNL     1      -2.796  -4.950   2.082  1.00  0.00     0.093 C 
ENDBRANCH   6   7
ENDBRANCH   1   5
TORSDOF 4
ENDMDL
