MODEL 1
REMARK VINA RESULT:    -5.928      0.000      0.000
REMARK INTER + INTRA:          -6.941
REMARK INTER:                  -6.794
REMARK INTRA:                  -0.146
REMARK UNBOUND:                -0.146
REMARK SMILES O=C([O-])C=Cc1ccc(O)cc1
REMARK SMILES IDX 6 1 7 2 12 3 8 4 11 5 9 6 5 7 4 8 2 9 1 10 3 11 10 12
REMARK H PARENT 10 13
REMARK Flexibility Score: inf
ROOT
ATOM      1  C   UNL     1      13.561 -13.119  28.374  1.00  0.00    -0.025 A 
ATOM      2  C   UNL     1      13.922 -13.790  29.555  1.00  0.00     0.012 A 
ATOM      3  C   UNL     1      13.930 -13.680  27.134  1.00  0.00     0.012 A 
ATOM      4  C   UNL     1      14.656 -14.979  29.503  1.00  0.00     0.047 A 
ATOM      5  C   UNL     1      14.664 -14.870  27.086  1.00  0.00     0.047 A 
ATOM      6  C   UNL     1      15.031 -15.521  28.270  1.00  0.00     0.115 A 
ENDROOT
BRANCH   1   7
ATOM      7  C   UNL     1      12.773 -11.866  28.481  1.00  0.00     0.010 C 
ATOM      8  C   UNL     1      11.842 -11.650  29.420  1.00  0.00     0.025 C 
BRANCH   8   9
ATOM      9  C   UNL     1      11.070 -10.397  29.487  1.00  0.00     0.064 C 
ATOM     10  O   UNL     1      11.598  -9.327  29.896  1.00  0.00    -0.545 OA
ATOM     11  O   UNL     1       9.738 -10.394  29.096  1.00  0.00    -0.545 OA
ENDBRANCH   8   9
ENDBRANCH   1   7
BRANCH   6  12
ATOM     12  O   UNL     1      15.761 -16.706  28.234  1.00  0.00    -0.508 OA
ATOM     13  H   UNL     1      16.709 -16.755  28.592  1.00  0.00     0.293 HD
ENDBRANCH   6  12
TORSDOF 3
ENDMDL
MODEL 2
REMARK VINA RESULT:    -5.707      1.151      5.696
REMARK INTER + INTRA:          -6.687
REMARK INTER:                  -6.535
REMARK INTRA:                  -0.152
REMARK UNBOUND:                -0.146
REMARK SMILES O=C([O-])C=Cc1ccc(O)cc1
REMARK SMILES IDX 6 1 7 2 12 3 8 4 11 5 9 6 5 7 4 8 2 9 1 10 3 11 10 12
REMARK H PARENT 10 13
REMARK Flexibility Score: inf
ROOT
ATOM      1  C   UNL     1      12.796 -12.838  28.554  1.00  0.00    -0.025 A 
ATOM      2  C   UNL     1      13.282 -12.313  29.764  1.00  0.00     0.012 A 
ATOM      3  C   UNL     1      11.779 -12.140  27.870  1.00  0.00     0.012 A 
ATOM      4  C   UNL     1      12.748 -11.134  30.294  1.00  0.00     0.047 A 
ATOM      5  C   UNL     1      11.248 -10.960  28.403  1.00  0.00     0.047 A 
ATOM      6  C   UNL     1      11.730 -10.456  29.617  1.00  0.00     0.115 A 
ENDROOT
BRANCH   1   7
ATOM      7  C   UNL     1      13.402 -14.086  28.027  1.00  0.00     0.010 C 
ATOM      8  C   UNL     1      14.419 -14.727  28.619  1.00  0.00     0.025 C 
BRANCH   8   9
ATOM      9  C   UNL     1      15.003 -15.959  28.059  1.00  0.00     0.064 C 
ATOM     10  O   UNL     1      15.388 -16.012  26.860  1.00  0.00    -0.545 OA
ATOM     11  O   UNL     1      15.128 -17.082  28.866  1.00  0.00    -0.545 OA
ENDBRANCH   8   9
ENDBRANCH   1   7
BRANCH   6  12
ATOM     12  O   UNL     1      11.209  -9.284  30.158  1.00  0.00    -0.508 OA
ATOM     13  H   UNL     1      11.166  -8.425  29.619  1.00  0.00     0.293 HD
ENDBRANCH   6  12
TORSDOF 3
ENDMDL
MODEL 3
REMARK VINA RESULT:    -3.737      2.923      3.640
REMARK INTER + INTRA:          -4.429
REMARK INTER:                  -4.286
REMARK INTRA:                  -0.144
REMARK UNBOUND:                -0.146
REMARK SMILES O=C([O-])C=Cc1ccc(O)cc1
REMARK SMILES IDX 6 1 7 2 12 3 8 4 11 5 9 6 5 7 4 8 2 9 1 10 3 11 10 12
REMARK H PARENT 10 13
REMARK Flexibility Score: inf
ROOT
ATOM      1  C   UNL     1      13.568 -12.328  29.312  1.00  0.00    -0.025 A 
ATOM      2  C   UNL     1      12.300 -11.965  28.826  1.00  0.00     0.012 A 
ATOM      3  C   UNL     1      14.249 -13.400  28.697  1.00  0.00     0.012 A 
ATOM      4  C   UNL     1      11.713 -12.669  27.770  1.00  0.00     0.047 A 
ATOM      5  C   UNL     1      13.659 -14.101  27.641  1.00  0.00     0.047 A 
ATOM      6  C   UNL     1      12.389 -13.739  27.176  1.00  0.00     0.115 A 
ENDROOT
BRANCH   1   7
ATOM      7  C   UNL     1      14.152 -11.544  30.428  1.00  0.00     0.010 C 
ATOM      8  C   UNL     1      13.462 -11.161  31.511  1.00  0.00     0.025 C 
BRANCH   8   9
ATOM      9  C   UNL     1      14.074 -10.372  32.594  1.00  0.00     0.064 C 
ATOM     10  O   UNL     1      13.461  -9.407  33.125  1.00  0.00    -0.545 OA
ATOM     11  O   UNL     1      15.350 -10.695  33.036  1.00  0.00    -0.545 OA
ENDBRANCH   8   9
ENDBRANCH   1   7
BRANCH   6  12
ATOM     12  O   UNL     1      11.792 -14.430  26.125  1.00  0.00    -0.508 OA
ATOM     13  H   UNL     1      11.158 -13.970  25.481  1.00  0.00     0.293 HD
ENDBRANCH   6  12
TORSDOF 3
ENDMDL
