MODEL 1
REMARK VINA RESULT:    -5.200      0.000      0.000
REMARK INTER + INTRA:          -5.602
REMARK INTER:                  -5.504
REMARK INTRA:                  -0.098
REMARK UNBOUND:                -0.098
REMARK SMILES C=C(C)[C@H]1CC=C(C)C(=O)C1
REMARK SMILES IDX 8 1 7 2 6 3 5 4 4 5 11 6 9 7 10 8 2 9 1 10 3 11
REMARK H PARENT
REMARK Flexibility Score: inf
ROOT
ATOM      1  C   UNL     1      -5.185  25.390 -15.562  1.00  0.00     0.048 C 
ATOM      2  C   UNL     1      -4.690  26.300 -16.652  1.00  0.00    -0.012 C 
ATOM      3  C   UNL     1      -3.532  26.028 -17.276  1.00  0.00    -0.019 C 
ATOM      4  C   UNL     1      -2.981  26.916 -18.361  1.00  0.00     0.036 C 
ATOM      5  C   UNL     1      -4.116  27.570 -19.170  1.00  0.00     0.025 C 
ATOM      6  C   UNL     1      -5.077  28.324 -18.232  1.00  0.00     0.089 C 
ATOM      7  C   UNL     1      -5.538  27.426 -17.117  1.00  0.00     0.158 C 
ATOM      8  O   UNL     1      -6.642  27.662 -16.556  1.00  0.00    -0.295 OA
ENDROOT
BRANCH   5   9
ATOM      9  C   UNL     1      -3.569  28.486 -20.257  1.00  0.00    -0.077 C 
ATOM     10  C   UNL     1      -2.414  29.144 -20.065  1.00  0.00     0.008 C 
ATOM     11  C   UNL     1      -4.298  28.678 -21.564  1.00  0.00     0.039 C 
ENDBRANCH   5   9
TORSDOF 1
ENDMDL
MODEL 2
REMARK VINA RESULT:    -4.975      6.178      9.239
REMARK INTER + INTRA:          -5.364
REMARK INTER:                  -5.268
REMARK INTRA:                  -0.096
REMARK UNBOUND:                -0.098
REMARK SMILES C=C(C)[C@H]1CC=C(C)C(=O)C1
REMARK SMILES IDX 8 1 7 2 6 3 5 4 4 5 11 6 9 7 10 8 2 9 1 10 3 11
REMARK H PARENT
REMARK Flexibility Score: inf
ROOT
ATOM      1  C   UNL     1      -5.977  31.980 -28.638  1.00  0.00     0.048 C 
ATOM      2  C   UNL     1      -5.707  31.461 -27.252  1.00  0.00    -0.012 C 
ATOM      3  C   UNL     1      -6.721  31.318 -26.382  1.00  0.00    -0.019 C 
ATOM      4  C   UNL     1      -6.503  30.821 -24.977  1.00  0.00     0.036 C 
ATOM      5  C   UNL     1      -5.338  29.815 -24.920  1.00  0.00     0.025 C 
ATOM      6  C   UNL     1      -4.065  30.435 -25.522  1.00  0.00     0.089 C 
ATOM      7  C   UNL     1      -4.346  30.993 -26.891  1.00  0.00     0.158 C 
ATOM      8  O   UNL     1      -3.400  31.093 -27.719  1.00  0.00    -0.295 OA
ENDROOT
BRANCH   5   9
ATOM      9  C   UNL     1      -5.097  29.321 -23.499  1.00  0.00    -0.077 C 
ATOM     10  C   UNL     1      -6.132  29.161 -22.658  1.00  0.00     0.008 C 
ATOM     11  C   UNL     1      -3.710  29.001 -23.003  1.00  0.00     0.039 C 
ENDBRANCH   5   9
TORSDOF 1
ENDMDL
MODEL 3
REMARK VINA RESULT:    -4.737      1.591      4.737
REMARK INTER + INTRA:          -5.112
REMARK INTER:                  -5.016
REMARK INTRA:                  -0.096
REMARK UNBOUND:                -0.098
REMARK SMILES C=C(C)[C@H]1CC=C(C)C(=O)C1
REMARK SMILES IDX 8 1 7 2 6 3 5 4 4 5 11 6 9 7 10 8 2 9 1 10 3 11
REMARK H PARENT
REMARK Flexibility Score: inf
ROOT
ATOM      1  C   UNL     1      -4.103  27.705 -19.638  1.00  0.00     0.048 C 
ATOM      2  C   UNL     1      -4.037  26.971 -18.326  1.00  0.00    -0.012 C 
ATOM      3  C   UNL     1      -2.857  26.516 -17.873  1.00  0.00    -0.019 C 
ATOM      4  C   UNL     1      -2.738  25.760 -16.576  1.00  0.00     0.036 C 
ATOM      5  C   UNL     1      -3.779  26.249 -15.552  1.00  0.00     0.025 C 
ATOM      6  C   UNL     1      -5.196  26.164 -16.147  1.00  0.00     0.089 C 
ATOM      7  C   UNL     1      -5.251  26.860 -17.480  1.00  0.00     0.158 C 
ATOM      8  O   UNL     1      -6.353  27.318 -17.888  1.00  0.00    -0.295 OA
ENDROOT
BRANCH   5   9
ATOM      9  C   UNL     1      -3.679  25.476 -14.243  1.00  0.00    -0.077 C 
ATOM     10  C   UNL     1      -3.869  24.147 -14.230  1.00  0.00     0.008 C 
ATOM     11  C   UNL     1      -3.368  26.172 -12.942  1.00  0.00     0.039 C 
ENDBRANCH   5   9
TORSDOF 1
ENDMDL
MODEL 4
REMARK VINA RESULT:    -4.715      8.902     11.630
REMARK INTER + INTRA:          -5.088
REMARK INTER:                  -5.001
REMARK INTRA:                  -0.087
REMARK UNBOUND:                -0.098
REMARK SMILES C=C(C)[C@H]1CC=C(C)C(=O)C1
REMARK SMILES IDX 8 1 7 2 6 3 5 4 4 5 11 6 9 7 10 8 2 9 1 10 3 11
REMARK H PARENT
REMARK Flexibility Score: inf
ROOT
ATOM      1  C   UNL     1       4.102  30.749 -28.784  1.00  0.00     0.048 C 
ATOM      2  C   UNL     1       3.672  30.621 -27.348  1.00  0.00    -0.012 C 
ATOM      3  C   UNL     1       4.470  30.001 -26.463  1.00  0.00    -0.019 C 
ATOM      4  C   UNL     1       4.079  29.830 -25.019  1.00  0.00     0.036 C 
ATOM      5  C   UNL     1       3.224  31.013 -24.532  1.00  0.00     0.025 C 
ATOM      6  C   UNL     1       2.000  31.202 -25.448  1.00  0.00     0.089 C 
ATOM      7  C   UNL     1       2.427  31.286 -26.888  1.00  0.00     0.158 C 
ATOM      8  O   UNL     1       1.694  31.899 -27.711  1.00  0.00    -0.295 OA
ENDROOT
BRANCH   5   9
ATOM      9  C   UNL     1       2.807  30.839 -23.078  1.00  0.00    -0.077 C 
ATOM     10  C   UNL     1       3.293  31.663 -22.135  1.00  0.00     0.008 C 
ATOM     11  C   UNL     1       1.849  29.752 -22.659  1.00  0.00     0.039 C 
ENDBRANCH   5   9
TORSDOF 1
ENDMDL
MODEL 5
REMARK VINA RESULT:    -4.708     16.556     18.065
REMARK INTER + INTRA:          -5.081
REMARK INTER:                  -4.985
REMARK INTRA:                  -0.097
REMARK UNBOUND:                -0.098
REMARK SMILES C=C(C)[C@H]1CC=C(C)C(=O)C1
REMARK SMILES IDX 8 1 7 2 6 3 5 4 4 5 11 6 9 7 10 8 2 9 1 10 3 11
REMARK H PARENT
REMARK Flexibility Score: inf
ROOT
ATOM      1  C   UNL     1      10.926  39.063 -13.866  1.00  0.00     0.048 C 
ATOM      2  C   UNL     1      10.692  37.638 -13.445  1.00  0.00    -0.012 C 
ATOM      3  C   UNL     1      11.550  37.040 -12.601  1.00  0.00    -0.019 C 
ATOM      4  C   UNL     1      11.373  35.610 -12.163  1.00  0.00     0.036 C 
ATOM      5  C   UNL     1       9.882  35.237 -12.080  1.00  0.00     0.025 C 
ATOM      6  C   UNL     1       9.183  35.525 -13.422  1.00  0.00     0.089 C 
ATOM      7  C   UNL     1       9.453  36.937 -13.864  1.00  0.00     0.158 C 
ATOM      8  O   UNL     1       8.629  37.509 -14.628  1.00  0.00    -0.295 OA
ENDROOT
BRANCH   5   9
ATOM      9  C   UNL     1       9.694  33.786 -11.656  1.00  0.00    -0.077 C 
ATOM     10  C   UNL     1      10.218  32.795 -12.396  1.00  0.00     0.008 C 
ATOM     11  C   UNL     1       8.924  33.425 -10.411  1.00  0.00     0.039 C 
ENDBRANCH   5   9
TORSDOF 1
ENDMDL
MODEL 6
REMARK VINA RESULT:    -4.629     16.717     17.942
REMARK INTER + INTRA:          -4.998
REMARK INTER:                  -4.903
REMARK INTRA:                  -0.095
REMARK UNBOUND:                -0.098
REMARK SMILES C=C(C)[C@H]1CC=C(C)C(=O)C1
REMARK SMILES IDX 8 1 7 2 6 3 5 4 4 5 11 6 9 7 10 8 2 9 1 10 3 11
REMARK H PARENT
REMARK Flexibility Score: inf
ROOT
ATOM      1  C   UNL     1      11.756  37.576 -15.256  1.00  0.00     0.048 C 
ATOM      2  C   UNL     1      11.068  36.618 -14.324  1.00  0.00    -0.012 C 
ATOM      3  C   UNL     1      11.773  35.640 -13.729  1.00  0.00    -0.019 C 
ATOM      4  C   UNL     1      11.129  34.643 -12.802  1.00  0.00     0.036 C 
ATOM      5  C   UNL     1       9.959  35.279 -12.029  1.00  0.00     0.025 C 
ATOM      6  C   UNL     1       8.947  35.902 -13.008  1.00  0.00     0.089 C 
ATOM      7  C   UNL     1       9.642  36.827 -13.968  1.00  0.00     0.158 C 
ATOM      8  O   UNL     1       8.988  37.767 -14.498  1.00  0.00    -0.295 OA
ENDROOT
BRANCH   5   9
ATOM      9  C   UNL     1       9.290  34.272 -11.103  1.00  0.00    -0.077 C 
ATOM     10  C   UNL     1       8.294  34.664 -10.292  1.00  0.00     0.008 C 
ATOM     11  C   UNL     1       9.719  32.827 -11.071  1.00  0.00     0.039 C 
ENDBRANCH   5   9
TORSDOF 1
ENDMDL
MODEL 7
REMARK VINA RESULT:    -4.582     16.319     17.648
REMARK INTER + INTRA:          -4.948
REMARK INTER:                  -4.850
REMARK INTRA:                  -0.099
REMARK UNBOUND:                -0.098
REMARK SMILES C=C(C)[C@H]1CC=C(C)C(=O)C1
REMARK SMILES IDX 8 1 7 2 6 3 5 4 4 5 11 6 9 7 10 8 2 9 1 10 3 11
REMARK H PARENT
REMARK Flexibility Score: inf
ROOT
ATOM      1  C   UNL     1      10.834  35.874 -12.793  1.00  0.00     0.048 C 
ATOM      2  C   UNL     1      10.361  34.824 -11.826  1.00  0.00    -0.012 C 
ATOM      3  C   UNL     1       9.107  34.873 -11.345  1.00  0.00    -0.019 C 
ATOM      4  C   UNL     1       8.589  33.859 -10.360  1.00  0.00     0.036 C 
ATOM      5  C   UNL     1       9.231  32.479 -10.596  1.00  0.00     0.025 C 
ATOM      6  C   UNL     1      10.766  32.591 -10.564  1.00  0.00     0.089 C 
ATOM      7  C   UNL     1      11.237  33.671 -11.500  1.00  0.00     0.158 C 
ATOM      8  O   UNL     1      12.401  33.604 -11.978  1.00  0.00    -0.295 OA
ENDROOT
BRANCH   5   9
ATOM      9  C   UNL     1       8.728  31.450  -9.592  1.00  0.00    -0.077 C 
ATOM     10  C   UNL     1       9.590  30.602  -9.009  1.00  0.00     0.008 C 
ATOM     11  C   UNL     1       7.267  31.357  -9.228  1.00  0.00     0.039 C 
ENDBRANCH   5   9
TORSDOF 1
ENDMDL
MODEL 8
REMARK VINA RESULT:    -4.524     16.682     18.189
REMARK INTER + INTRA:          -4.886
REMARK INTER:                  -4.789
REMARK INTRA:                  -0.097
REMARK UNBOUND:                -0.098
REMARK SMILES C=C(C)[C@H]1CC=C(C)C(=O)C1
REMARK SMILES IDX 8 1 7 2 6 3 5 4 4 5 11 6 9 7 10 8 2 9 1 10 3 11
REMARK H PARENT
REMARK Flexibility Score: inf
ROOT
ATOM      1  C   UNL     1      10.235  39.252 -14.474  1.00  0.00     0.048 C 
ATOM      2  C   UNL     1      10.108  37.872 -13.890  1.00  0.00    -0.012 C 
ATOM      3  C   UNL     1       9.075  37.088 -14.245  1.00  0.00    -0.019 C 
ATOM      4  C   UNL     1       8.891  35.706 -13.677  1.00  0.00     0.036 C 
ATOM      5  C   UNL     1      10.248  35.043 -13.380  1.00  0.00     0.025 C 
ATOM      6  C   UNL     1      11.094  35.942 -12.460  1.00  0.00     0.089 C 
ATOM      7  C   UNL     1      11.185  37.335 -13.022  1.00  0.00     0.158 C 
ATOM      8  O   UNL     1      12.172  38.057 -12.716  1.00  0.00    -0.295 OA
ENDROOT
BRANCH   5   9
ATOM      9  C   UNL     1      10.071  33.651 -12.786  1.00  0.00    -0.077 C 
ATOM     10  C   UNL     1       9.801  33.506 -11.479  1.00  0.00     0.008 C 
ATOM     11  C   UNL     1      10.192  32.412 -13.638  1.00  0.00     0.039 C 
ENDBRANCH   5   9
TORSDOF 1
ENDMDL
MODEL 9
REMARK VINA RESULT:    -4.455     16.758     17.666
REMARK INTER + INTRA:          -4.814
REMARK INTER:                  -4.716
REMARK INTRA:                  -0.098
REMARK UNBOUND:                -0.098
REMARK SMILES C=C(C)[C@H]1CC=C(C)C(=O)C1
REMARK SMILES IDX 8 1 7 2 6 3 5 4 4 5 11 6 9 7 10 8 2 9 1 10 3 11
REMARK H PARENT
REMARK Flexibility Score: inf
ROOT
ATOM      1  C   UNL     1      10.824  31.811  -9.649  1.00  0.00     0.048 C 
ATOM      2  C   UNL     1      10.472  32.873 -10.655  1.00  0.00    -0.012 C 
ATOM      3  C   UNL     1       9.416  33.675 -10.439  1.00  0.00    -0.019 C 
ATOM      4  C   UNL     1       9.009  34.741 -11.422  1.00  0.00     0.036 C 
ATOM      5  C   UNL     1      10.236  35.322 -12.149  1.00  0.00     0.025 C 
ATOM      6  C   UNL     1      11.047  34.194 -12.814  1.00  0.00     0.089 C 
ATOM      7  C   UNL     1      11.361  33.112 -11.819  1.00  0.00     0.158 C 
ATOM      8  O   UNL     1      12.373  32.382 -12.004  1.00  0.00    -0.295 OA
ENDROOT
BRANCH   5   9
ATOM      9  C   UNL     1       9.833  36.387 -13.160  1.00  0.00    -0.077 C 
ATOM     10  C   UNL     1       8.659  36.293 -13.805  1.00  0.00     0.008 C 
ATOM     11  C   UNL     1      10.728  37.563 -13.462  1.00  0.00     0.039 C 
ENDBRANCH   5   9
TORSDOF 1
ENDMDL
