MODEL 1
REMARK VINA RESULT:    -4.182      0.000      0.000
REMARK INTER + INTRA:          -4.445
REMARK INTER:                  -4.426
REMARK INTRA:                  -0.018
REMARK UNBOUND:                -0.018
REMARK SMILES O=C([O-])c1cccnc1
REMARK SMILES IDX 4 1 5 2 9 3 6 4 8 5 7 6 2 7 1 8 3 9
REMARK H PARENT
REMARK Flexibility Score: inf
ROOT
ATOM      1  C   UNL     1       6.665   6.950  13.217  1.00  0.00     0.016 A 
ATOM      2  C   UNL     1       6.630   5.547  13.207  1.00  0.00     0.013 A 
ATOM      3  C   UNL     1       5.532   7.650  12.767  1.00  0.00     0.120 A 
ATOM      4  C   UNL     1       5.490   4.877  12.759  1.00  0.00     0.021 A 
ATOM      5  N   UNL     1       4.434   6.973  12.335  1.00  0.00    -0.264 NA
ATOM      6  C   UNL     1       4.390   5.615  12.322  1.00  0.00     0.111 A 
ENDROOT
BRANCH   1   7
ATOM      7  C   UNL     1       7.867   7.671  13.689  1.00  0.00     0.073 C 
ATOM      8  O   UNL     1       8.986   7.476  13.144  1.00  0.00    -0.545 OA
ATOM      9  O   UNL     1       7.779   8.575  14.741  1.00  0.00    -0.545 OA
ENDBRANCH   1   7
TORSDOF 1
ENDMDL
MODEL 2
REMARK VINA RESULT:    -4.178      1.445      2.364
REMARK INTER + INTRA:          -4.441
REMARK INTER:                  -4.424
REMARK INTRA:                  -0.017
REMARK UNBOUND:                -0.018
REMARK SMILES O=C([O-])c1cccnc1
REMARK SMILES IDX 4 1 5 2 9 3 6 4 8 5 7 6 2 7 1 8 3 9
REMARK H PARENT
REMARK Flexibility Score: inf
ROOT
ATOM      1  C   UNL     1       6.512   7.323  12.497  1.00  0.00     0.016 A 
ATOM      2  C   UNL     1       6.355   8.372  11.578  1.00  0.00     0.013 A 
ATOM      3  C   UNL     1       5.371   6.846  13.168  1.00  0.00     0.120 A 
ATOM      4  C   UNL     1       5.091   8.917  11.345  1.00  0.00     0.021 A 
ATOM      5  N   UNL     1       4.152   7.396  12.924  1.00  0.00    -0.264 NA
ATOM      6  C   UNL     1       3.990   8.411  12.035  1.00  0.00     0.111 A 
ENDROOT
BRANCH   1   7
ATOM      7  C   UNL     1       7.846   6.737  12.752  1.00  0.00     0.073 C 
ATOM      8  O   UNL     1       8.104   5.555  12.402  1.00  0.00    -0.545 OA
ATOM      9  O   UNL     1       8.834   7.484  13.382  1.00  0.00    -0.545 OA
ENDBRANCH   1   7
TORSDOF 1
ENDMDL
MODEL 3
REMARK VINA RESULT:    -4.177      2.568      3.276
REMARK INTER + INTRA:          -4.439
REMARK INTER:                  -4.418
REMARK INTRA:                  -0.021
REMARK UNBOUND:                -0.018
REMARK SMILES O=C([O-])c1cccnc1
REMARK SMILES IDX 4 1 5 2 9 3 6 4 8 5 7 6 2 7 1 8 3 9
REMARK H PARENT
REMARK Flexibility Score: inf
ROOT
ATOM      1  C   UNL     1       5.615   7.135  12.256  1.00  0.00     0.016 A 
ATOM      2  C   UNL     1       7.005   7.201  12.074  1.00  0.00     0.013 A 
ATOM      3  C   UNL     1       5.060   5.938  12.740  1.00  0.00     0.120 A 
ATOM      4  C   UNL     1       7.804   6.095  12.371  1.00  0.00     0.021 A 
ATOM      5  N   UNL     1       5.860   4.875  13.021  1.00  0.00    -0.264 NA
ATOM      6  C   UNL     1       7.207   4.928  12.849  1.00  0.00     0.111 A 
ENDROOT
BRANCH   1   7
ATOM      7  C   UNL     1       4.758   8.300  11.944  1.00  0.00     0.073 C 
ATOM      8  O   UNL     1       3.741   8.552  12.643  1.00  0.00    -0.545 OA
ATOM      9  O   UNL     1       5.066   9.134  10.875  1.00  0.00    -0.545 OA
ENDBRANCH   1   7
TORSDOF 1
ENDMDL
MODEL 4
REMARK VINA RESULT:    -4.154      0.918      1.600
REMARK INTER + INTRA:          -4.415
REMARK INTER:                  -4.397
REMARK INTRA:                  -0.018
REMARK UNBOUND:                -0.018
REMARK SMILES O=C([O-])c1cccnc1
REMARK SMILES IDX 4 1 5 2 9 3 6 4 8 5 7 6 2 7 1 8 3 9
REMARK H PARENT
REMARK Flexibility Score: inf
ROOT
ATOM      1  C   UNL     1       6.633   6.941  13.222  1.00  0.00     0.016 A 
ATOM      2  C   UNL     1       5.516   7.632  12.726  1.00  0.00     0.013 A 
ATOM      3  C   UNL     1       6.581   5.537  13.276  1.00  0.00     0.120 A 
ATOM      4  C   UNL     1       4.389   6.927  12.299  1.00  0.00     0.021 A 
ATOM      5  N   UNL     1       5.471   4.875  12.855  1.00  0.00    -0.264 NA
ATOM      6  C   UNL     1       4.385   5.534  12.372  1.00  0.00     0.111 A 
ENDROOT
BRANCH   1   7
ATOM      7  C   UNL     1       7.833   7.677  13.677  1.00  0.00     0.073 C 
ATOM      8  O   UNL     1       8.949   7.486  13.125  1.00  0.00    -0.545 OA
ATOM      9  O   UNL     1       7.745   8.591  14.721  1.00  0.00    -0.545 OA
ENDBRANCH   1   7
TORSDOF 1
ENDMDL
MODEL 5
REMARK VINA RESULT:    -4.103      2.125      2.891
REMARK INTER + INTRA:          -4.361
REMARK INTER:                  -4.340
REMARK INTRA:                  -0.021
REMARK UNBOUND:                -0.018
REMARK SMILES O=C([O-])c1cccnc1
REMARK SMILES IDX 4 1 5 2 9 3 6 4 8 5 7 6 2 7 1 8 3 9
REMARK H PARENT
REMARK Flexibility Score: inf
ROOT
ATOM      1  C   UNL     1       6.194   6.584  12.600  1.00  0.00     0.016 A 
ATOM      2  C   UNL     1       4.799   6.663  12.734  1.00  0.00     0.013 A 
ATOM      3  C   UNL     1       6.866   7.646  11.969  1.00  0.00     0.120 A 
ATOM      4  C   UNL     1       4.110   7.776  12.249  1.00  0.00     0.021 A 
ATOM      5  N   UNL     1       6.171   8.718  11.504  1.00  0.00    -0.264 NA
ATOM      6  C   UNL     1       4.821   8.804  11.630  1.00  0.00     0.111 A 
ENDROOT
BRANCH   1   7
ATOM      7  C   UNL     1       6.935   5.410  13.110  1.00  0.00     0.073 C 
ATOM      8  O   UNL     1       6.614   4.877  14.205  1.00  0.00    -0.545 OA
ATOM      9  O   UNL     1       7.996   4.877  12.386  1.00  0.00    -0.545 OA
ENDBRANCH   1   7
TORSDOF 1
ENDMDL
MODEL 6
REMARK VINA RESULT:    -3.475      2.789      3.802
REMARK INTER + INTRA:          -3.696
REMARK INTER:                  -3.677
REMARK INTRA:                  -0.019
REMARK UNBOUND:                -0.018
REMARK SMILES O=C([O-])c1cccnc1
REMARK SMILES IDX 4 1 5 2 9 3 6 4 8 5 7 6 2 7 1 8 3 9
REMARK H PARENT
REMARK Flexibility Score: inf
ROOT
ATOM      1  C   UNL     1       6.365   6.687  13.029  1.00  0.00     0.016 A 
ATOM      2  C   UNL     1       6.566   7.544  14.123  1.00  0.00     0.013 A 
ATOM      3  C   UNL     1       7.460   6.398  12.197  1.00  0.00     0.120 A 
ATOM      4  C   UNL     1       7.829   8.088  14.365  1.00  0.00     0.021 A 
ATOM      5  N   UNL     1       8.680   6.941  12.454  1.00  0.00    -0.264 NA
ATOM      6  C   UNL     1       8.885   7.771  13.510  1.00  0.00     0.111 A 
ENDROOT
BRANCH   1   7
ATOM      7  C   UNL     1       5.031   6.105  12.763  1.00  0.00     0.073 C 
ATOM      8  O   UNL     1       4.907   4.877  12.513  1.00  0.00    -0.545 OA
ATOM      9  O   UNL     1       3.896   6.907  12.787  1.00  0.00    -0.545 OA
ENDBRANCH   1   7
TORSDOF 1
ENDMDL
MODEL 7
REMARK VINA RESULT:    -3.206      2.674      3.234
REMARK INTER + INTRA:          -3.412
REMARK INTER:                  -3.391
REMARK INTRA:                  -0.021
REMARK UNBOUND:                -0.018
REMARK SMILES O=C([O-])c1cccnc1
REMARK SMILES IDX 4 1 5 2 9 3 6 4 8 5 7 6 2 7 1 8 3 9
REMARK H PARENT
REMARK Flexibility Score: inf
ROOT
ATOM      1  C   UNL     1       5.642   7.160  12.259  1.00  0.00     0.016 A 
ATOM      2  C   UNL     1       5.143   5.940  12.743  1.00  0.00     0.013 A 
ATOM      3  C   UNL     1       7.025   7.274  12.034  1.00  0.00     0.120 A 
ATOM      4  C   UNL     1       6.012   4.875  12.989  1.00  0.00     0.021 A 
ATOM      5  N   UNL     1       7.849   6.222  12.283  1.00  0.00    -0.264 NA
ATOM      6  C   UNL     1       7.377   5.037  12.750  1.00  0.00     0.111 A 
ENDROOT
BRANCH   1   7
ATOM      7  C   UNL     1       4.731   8.295  11.996  1.00  0.00     0.073 C 
ATOM      8  O   UNL     1       3.723   8.489  12.725  1.00  0.00    -0.545 OA
ATOM      9  O   UNL     1       4.976   9.164  10.938  1.00  0.00    -0.545 OA
ENDBRANCH   1   7
TORSDOF 1
ENDMDL
MODEL 8
REMARK VINA RESULT:    -3.015      6.113      7.398
REMARK INTER + INTRA:          -3.209
REMARK INTER:                  -3.189
REMARK INTRA:                  -0.020
REMARK UNBOUND:                -0.018
REMARK SMILES O=C([O-])c1cccnc1
REMARK SMILES IDX 4 1 5 2 9 3 6 4 8 5 7 6 2 7 1 8 3 9
REMARK H PARENT
REMARK Flexibility Score: inf
ROOT
ATOM      1  C   UNL     1       3.618  12.281  11.966  1.00  0.00     0.016 A 
ATOM      2  C   UNL     1       3.980  13.087  10.875  1.00  0.00     0.013 A 
ATOM      3  C   UNL     1       3.448  12.893  13.221  1.00  0.00     0.120 A 
ATOM      4  C   UNL     1       4.162  14.460  11.047  1.00  0.00     0.021 A 
ATOM      5  N   UNL     1       3.632  14.232  13.362  1.00  0.00    -0.264 NA
ATOM      6  C   UNL     1       3.982  15.021  12.312  1.00  0.00     0.111 A 
ENDROOT
BRANCH   1   7
ATOM      7  C   UNL     1       3.422  10.825  11.796  1.00  0.00     0.073 C 
ATOM      8  O   UNL     1       2.440  10.244  12.328  1.00  0.00    -0.545 OA
ATOM      9  O   UNL     1       4.321  10.077  11.044  1.00  0.00    -0.545 OA
ENDBRANCH   1   7
TORSDOF 1
ENDMDL
MODEL 9
REMARK VINA RESULT:    -2.946      6.015      6.741
REMARK INTER + INTRA:          -3.136
REMARK INTER:                  -3.120
REMARK INTRA:                  -0.016
REMARK UNBOUND:                -0.018
REMARK SMILES O=C([O-])c1cccnc1
REMARK SMILES IDX 4 1 5 2 9 3 6 4 8 5 7 6 2 7 1 8 3 9
REMARK H PARENT
REMARK Flexibility Score: inf
ROOT
ATOM      1  C   UNL     1       3.110  12.636  12.442  1.00  0.00     0.016 A 
ATOM      2  C   UNL     1       4.005  11.673  11.948  1.00  0.00     0.013 A 
ATOM      3  C   UNL     1       1.747  12.507  12.124  1.00  0.00     0.120 A 
ATOM      4  C   UNL     1       3.536  10.618  11.163  1.00  0.00     0.021 A 
ATOM      5  N   UNL     1       1.316  11.471  11.357  1.00  0.00    -0.264 NA
ATOM      6  C   UNL     1       2.173  10.533  10.875  1.00  0.00     0.111 A 
ENDROOT
BRANCH   1   7
ATOM      7  C   UNL     1       3.596  13.758  13.274  1.00  0.00     0.073 C 
ATOM      8  O   UNL     1       3.990  14.828  12.740  1.00  0.00    -0.545 OA
ATOM      9  O   UNL     1       3.622  13.647  14.660  1.00  0.00    -0.545 OA
ENDBRANCH   1   7
TORSDOF 1
ENDMDL
