MODEL 1
REMARK VINA RESULT:    -2.747      0.000      0.000
REMARK INTER + INTRA:          -6.148
REMARK INTER:                  -4.995
REMARK INTRA:                  -1.152
REMARK UNBOUND:                -1.152
REMARK SMILES CCCCCCCCCCCCCCCC(=O)[O-]
REMARK SMILES IDX 9 1 10 2 11 3 12 4 13 5 14 6 15 7 16 8 17 9 18 10 8 11 7 12
REMARK SMILES IDX 6 13 5 14 4 15 3 16 2 17 1 18
REMARK H PARENT
REMARK Flexibility Score: inf
ROOT
ATOM      1  C   UNL     1      49.416  22.670  18.904  1.00  0.00     0.000 C 
ENDROOT
BRANCH   1   2
ATOM      2  C   UNL     1      48.006  23.052  18.431  1.00  0.00     0.000 C 
BRANCH   2   3
ATOM      3  C   UNL     1      47.342  21.954  17.579  1.00  0.00     0.000 C 
BRANCH   3   4
ATOM      4  C   UNL     1      47.586  22.072  16.061  1.00  0.00     0.000 C 
BRANCH   4   5
ATOM      5  C   UNL     1      48.584  21.053  15.477  1.00  0.00     0.000 C 
BRANCH   5   6
ATOM      6  C   UNL     1      49.993  21.608  15.202  1.00  0.00     0.006 C 
BRANCH   6   7
ATOM      7  C   UNL     1      50.991  20.521  14.788  1.00  0.00     0.053 C 
BRANCH   7   8
ATOM      8  C   UNL     1      52.375  20.891  15.220  1.00  0.00     0.041 C 
ATOM      9  O   UNL     1      53.124  21.550  14.451  1.00  0.00    -0.550 OA
ATOM     10  O   UNL     1      52.822  20.551  16.490  1.00  0.00    -0.550 OA
ENDBRANCH   7   8
ENDBRANCH   6   7
ENDBRANCH   5   6
ENDBRANCH   4   5
ENDBRANCH   3   4
ENDBRANCH   2   3
ENDBRANCH   1   2
BRANCH   1  11
ATOM     11  C   UNL     1      50.471  23.078  17.870  1.00  0.00     0.000 C 
BRANCH  11  12
ATOM     12  C   UNL     1      51.870  23.124  18.497  1.00  0.00    -0.000 C 
BRANCH  12  13
ATOM     13  C   UNL     1      51.799  22.903  20.015  1.00  0.00    -0.000 C 
BRANCH  13  14
ATOM     14  C   UNL     1      52.786  21.830  20.506  1.00  0.00    -0.000 C 
BRANCH  14  15
ATOM     15  C   UNL     1      52.099  20.736  21.343  1.00  0.00    -0.000 C 
BRANCH  15  16
ATOM     16  C   UNL     1      51.241  21.314  22.479  1.00  0.00    -0.000 C 
BRANCH  16  17
ATOM     17  C   UNL     1      49.735  21.131  22.238  1.00  0.00    -0.003 C 
ATOM     18  C   UNL     1      48.987  22.450  22.410  1.00  0.00     0.004 C 
ENDBRANCH  16  17
ENDBRANCH  15  16
ENDBRANCH  14  15
ENDBRANCH  13  14
ENDBRANCH  12  13
ENDBRANCH  11  12
ENDBRANCH   1  11
TORSDOF 14
ENDMDL
MODEL 2
REMARK VINA RESULT:    -2.648     14.133     16.536
REMARK INTER + INTRA:          -5.968
REMARK INTER:                  -5.138
REMARK INTRA:                  -0.830
REMARK UNBOUND:                -1.152
REMARK SMILES CCCCCCCCCCCCCCCC(=O)[O-]
REMARK SMILES IDX 9 1 10 2 11 3 12 4 13 5 14 6 15 7 16 8 17 9 18 10 8 11 7 12
REMARK SMILES IDX 6 13 5 14 4 15 3 16 2 17 1 18
REMARK H PARENT
REMARK Flexibility Score: inf
ROOT
ATOM      1  C   UNL     1      35.317  21.511  13.131  1.00  0.00     0.000 C 
ENDROOT
BRANCH   1   2
ATOM      2  C   UNL     1      33.978  22.260  13.206  1.00  0.00     0.000 C 
BRANCH   2   3
ATOM      3  C   UNL     1      33.667  23.060  11.928  1.00  0.00     0.000 C 
BRANCH   3   4
ATOM      4  C   UNL     1      33.100  22.227  10.761  1.00  0.00     0.000 C 
BRANCH   4   5
ATOM      5  C   UNL     1      33.283  22.848   9.362  1.00  0.00     0.000 C 
BRANCH   5   6
ATOM      6  C   UNL     1      34.297  22.124   8.458  1.00  0.00     0.006 C 
BRANCH   6   7
ATOM      7  C   UNL     1      35.696  22.749   8.514  1.00  0.00     0.053 C 
BRANCH   7   8
ATOM      8  C   UNL     1      36.577  21.975   9.443  1.00  0.00     0.041 C 
ATOM      9  O   UNL     1      37.306  22.577  10.274  1.00  0.00    -0.550 OA
ATOM     10  O   UNL     1      36.558  20.587   9.424  1.00  0.00    -0.550 OA
ENDBRANCH   7   8
ENDBRANCH   6   7
ENDBRANCH   5   6
ENDBRANCH   4   5
ENDBRANCH   3   4
ENDBRANCH   2   3
ENDBRANCH   1   2
BRANCH   1  11
ATOM     11  C   UNL     1      36.494  22.470  13.341  1.00  0.00     0.000 C 
BRANCH  11  12
ATOM     12  C   UNL     1      37.454  21.938  14.413  1.00  0.00    -0.000 C 
BRANCH  12  13
ATOM     13  C   UNL     1      36.741  21.793  15.765  1.00  0.00    -0.000 C 
BRANCH  13  14
ATOM     14  C   UNL     1      36.215  20.369  16.009  1.00  0.00    -0.000 C 
BRANCH  14  15
ATOM     15  C   UNL     1      34.697  20.336  16.264  1.00  0.00    -0.000 C 
BRANCH  15  16
ATOM     16  C   UNL     1      34.024  19.093  15.660  1.00  0.00    -0.000 C 
BRANCH  16  17
ATOM     17  C   UNL     1      32.879  18.555  16.529  1.00  0.00    -0.003 C 
ATOM     18  C   UNL     1      33.166  17.132  16.998  1.00  0.00     0.004 C 
ENDBRANCH  16  17
ENDBRANCH  15  16
ENDBRANCH  14  15
ENDBRANCH  13  14
ENDBRANCH  12  13
ENDBRANCH  11  12
ENDBRANCH   1  11
TORSDOF 14
ENDMDL
MODEL 3
REMARK VINA RESULT:    -2.603     13.667     17.096
REMARK INTER + INTRA:          -5.886
REMARK INTER:                  -5.416
REMARK INTRA:                  -0.470
REMARK UNBOUND:                -1.152
REMARK SMILES CCCCCCCCCCCCCCCC(=O)[O-]
REMARK SMILES IDX 9 1 10 2 11 3 12 4 13 5 14 6 15 7 16 8 17 9 18 10 8 11 7 12
REMARK SMILES IDX 6 13 5 14 4 15 3 16 2 17 1 18
REMARK H PARENT
REMARK Flexibility Score: inf
ROOT
ATOM      1  C   UNL     1      33.259  19.062  12.621  1.00  0.00     0.000 C 
ENDROOT
BRANCH   1   2
ATOM      2  C   UNL     1      34.065  19.229  13.918  1.00  0.00     0.000 C 
BRANCH   2   3
ATOM      3  C   UNL     1      33.311  18.719  15.160  1.00  0.00     0.000 C 
BRANCH   3   4
ATOM      4  C   UNL     1      33.952  19.099  16.510  1.00  0.00     0.000 C 
BRANCH   4   5
ATOM      5  C   UNL     1      34.652  20.472  16.541  1.00  0.00     0.000 C 
BRANCH   5   6
ATOM      6  C   UNL     1      35.894  20.588  15.639  1.00  0.00     0.006 C 
BRANCH   6   7
ATOM      7  C   UNL     1      36.246  22.040  15.295  1.00  0.00     0.053 C 
BRANCH   7   8
ATOM      8  C   UNL     1      37.626  22.120  14.723  1.00  0.00     0.041 C 
ATOM      9  O   UNL     1      38.606  21.654  15.362  1.00  0.00    -0.550 OA
ATOM     10  O   UNL     1      37.825  22.666  13.461  1.00  0.00    -0.550 OA
ENDBRANCH   7   8
ENDBRANCH   6   7
ENDBRANCH   5   6
ENDBRANCH   4   5
ENDBRANCH   3   4
ENDBRANCH   2   3
ENDBRANCH   1   2
BRANCH   1  11
ATOM     11  C   UNL     1      32.875  20.425  12.034  1.00  0.00     0.000 C 
BRANCH  11  12
ATOM     12  C   UNL     1      33.322  21.567  12.954  1.00  0.00    -0.000 C 
BRANCH  12  13
ATOM     13  C   UNL     1      33.525  22.866  12.159  1.00  0.00    -0.000 C 
BRANCH  13  14
ATOM     14  C   UNL     1      34.970  23.040  11.664  1.00  0.00    -0.000 C 
BRANCH  14  15
ATOM     15  C   UNL     1      35.565  21.733  11.107  1.00  0.00    -0.000 C 
BRANCH  15  16
ATOM     16  C   UNL     1      36.717  21.984  10.121  1.00  0.00    -0.000 C 
BRANCH  16  17
ATOM     17  C   UNL     1      36.233  22.515   8.764  1.00  0.00    -0.003 C 
ATOM     18  C   UNL     1      34.792  22.093   8.491  1.00  0.00     0.004 C 
ENDBRANCH  16  17
ENDBRANCH  15  16
ENDBRANCH  14  15
ENDBRANCH  13  14
ENDBRANCH  12  13
ENDBRANCH  11  12
ENDBRANCH   1  11
TORSDOF 14
ENDMDL
MODEL 4
REMARK VINA RESULT:    -2.480      2.897      6.149
REMARK INTER + INTRA:          -5.663
REMARK INTER:                  -4.473
REMARK INTRA:                  -1.190
REMARK UNBOUND:                -1.152
REMARK SMILES CCCCCCCCCCCCCCCC(=O)[O-]
REMARK SMILES IDX 9 1 10 2 11 3 12 4 13 5 14 6 15 7 16 8 17 9 18 10 8 11 7 12
REMARK SMILES IDX 6 13 5 14 4 15 3 16 2 17 1 18
REMARK H PARENT
REMARK Flexibility Score: inf
ROOT
ATOM      1  C   UNL     1      47.000  22.764  17.676  1.00  0.00     0.000 C 
ENDROOT
BRANCH   1   2
ATOM      2  C   UNL     1      47.870  23.108  18.894  1.00  0.00     0.000 C 
BRANCH   2   3
ATOM      3  C   UNL     1      49.375  22.925  18.625  1.00  0.00     0.000 C 
BRANCH   3   4
ATOM      4  C   UNL     1      50.285  23.124  19.854  1.00  0.00     0.000 C 
BRANCH   4   5
ATOM      5  C   UNL     1      51.015  21.858  20.342  1.00  0.00     0.000 C 
BRANCH   5   6
ATOM      6  C   UNL     1      52.549  21.970  20.389  1.00  0.00     0.006 C 
BRANCH   6   7
ATOM      7  C   UNL     1      53.048  22.819  21.565  1.00  0.00     0.053 C 
BRANCH   7   8
ATOM      8  C   UNL     1      52.699  22.166  22.865  1.00  0.00     0.041 C 
ATOM      9  O   UNL     1      53.123  21.010  23.128  1.00  0.00    -0.550 OA
ATOM     10  O   UNL     1      51.946  22.853  23.808  1.00  0.00    -0.550 OA
ENDBRANCH   7   8
ENDBRANCH   6   7
ENDBRANCH   5   6
ENDBRANCH   4   5
ENDBRANCH   3   4
ENDBRANCH   2   3
ENDBRANCH   1   2
BRANCH   1  11
ATOM     11  C   UNL     1      47.868  22.393  16.469  1.00  0.00     0.000 C 
BRANCH  11  12
ATOM     12  C   UNL     1      47.412  21.067  15.847  1.00  0.00    -0.000 C 
BRANCH  12  13
ATOM     13  C   UNL     1      48.555  20.406  15.063  1.00  0.00    -0.000 C 
BRANCH  13  14
ATOM     14  C   UNL     1      49.920  21.057  15.340  1.00  0.00    -0.000 C 
BRANCH  14  15
ATOM     15  C   UNL     1      50.933  20.807  14.208  1.00  0.00    -0.000 C 
BRANCH  15  16
ATOM     16  C   UNL     1      52.378  21.117  14.632  1.00  0.00    -0.000 C 
BRANCH  16  17
ATOM     17  C   UNL     1      52.460  22.213  15.705  1.00  0.00    -0.003 C 
ATOM     18  C   UNL     1      53.006  21.657  17.017  1.00  0.00     0.004 C 
ENDBRANCH  16  17
ENDBRANCH  15  16
ENDBRANCH  14  15
ENDBRANCH  13  14
ENDBRANCH  12  13
ENDBRANCH  11  12
ENDBRANCH   1  11
TORSDOF 14
ENDMDL
MODEL 5
REMARK VINA RESULT:    -2.234      2.562      5.474
REMARK INTER + INTRA:          -5.215
REMARK INTER:                  -4.168
REMARK INTRA:                  -1.047
REMARK UNBOUND:                -1.152
REMARK SMILES CCCCCCCCCCCCCCCC(=O)[O-]
REMARK SMILES IDX 9 1 10 2 11 3 12 4 13 5 14 6 15 7 16 8 17 9 18 10 8 11 7 12
REMARK SMILES IDX 6 13 5 14 4 15 3 16 2 17 1 18
REMARK H PARENT
REMARK Flexibility Score: inf
ROOT
ATOM      1  C   UNL     1      46.886  20.743  16.326  1.00  0.00     0.000 C 
ENDROOT
BRANCH   1   2
ATOM      2  C   UNL     1      45.854  21.879  16.372  1.00  0.00     0.000 C 
BRANCH   2   3
ATOM      3  C   UNL     1      46.290  23.048  17.275  1.00  0.00     0.000 C 
BRANCH   3   4
ATOM      4  C   UNL     1      47.738  22.960  17.797  1.00  0.00     0.000 C 
BRANCH   4   5
ATOM      5  C   UNL     1      47.896  23.121  19.322  1.00  0.00     0.000 C 
BRANCH   5   6
ATOM      6  C   UNL     1      49.344  23.043  19.837  1.00  0.00     0.006 C 
BRANCH   6   7
ATOM      7  C   UNL     1      49.436  23.116  21.367  1.00  0.00     0.053 C 
BRANCH   7   8
ATOM      8  C   UNL     1      50.298  22.010  21.890  1.00  0.00     0.041 C 
ATOM      9  O   UNL     1      50.380  20.920  21.265  1.00  0.00    -0.550 OA
ATOM     10  O   UNL     1      51.049  22.200  23.042  1.00  0.00    -0.550 OA
ENDBRANCH   7   8
ENDBRANCH   6   7
ENDBRANCH   5   6
ENDBRANCH   4   5
ENDBRANCH   3   4
ENDBRANCH   2   3
ENDBRANCH   1   2
BRANCH   1  11
ATOM     11  C   UNL     1      47.728  20.818  15.047  1.00  0.00     0.000 C 
BRANCH  11  12
ATOM     12  C   UNL     1      49.137  20.258  15.280  1.00  0.00    -0.000 C 
BRANCH  12  13
ATOM     13  C   UNL     1      50.192  21.370  15.188  1.00  0.00    -0.000 C 
BRANCH  13  14
ATOM     14  C   UNL     1      51.507  20.889  14.552  1.00  0.00    -0.000 C 
BRANCH  14  15
ATOM     15  C   UNL     1      52.746  21.537  15.196  1.00  0.00    -0.000 C 
BRANCH  15  16
ATOM     16  C   UNL     1      53.042  20.977  16.597  1.00  0.00    -0.000 C 
BRANCH  16  17
ATOM     17  C   UNL     1      53.124  22.074  17.669  1.00  0.00    -0.003 C 
ATOM     18  C   UNL     1      52.037  23.125  17.466  1.00  0.00     0.004 C 
ENDBRANCH  16  17
ENDBRANCH  15  16
ENDBRANCH  14  15
ENDBRANCH  13  14
ENDBRANCH  12  13
ENDBRANCH  11  12
ENDBRANCH   1  11
TORSDOF 14
ENDMDL
MODEL 6
REMARK VINA RESULT:    -2.066     14.700     16.916
REMARK INTER + INTRA:          -4.909
REMARK INTER:                  -4.214
REMARK INTRA:                  -0.695
REMARK UNBOUND:                -1.152
REMARK SMILES CCCCCCCCCCCCCCCC(=O)[O-]
REMARK SMILES IDX 9 1 10 2 11 3 12 4 13 5 14 6 15 7 16 8 17 9 18 10 8 11 7 12
REMARK SMILES IDX 6 13 5 14 4 15 3 16 2 17 1 18
REMARK H PARENT
REMARK Flexibility Score: inf
ROOT
ATOM      1  C   UNL     1      33.733  20.450  12.992  1.00  0.00     0.000 C 
ENDROOT
BRANCH   1   2
ATOM      2  C   UNL     1      33.142  20.914  11.653  1.00  0.00     0.000 C 
BRANCH   2   3
ATOM      3  C   UNL     1      33.305  22.427  11.419  1.00  0.00     0.000 C 
BRANCH   3   4
ATOM      4  C   UNL     1      32.875  22.920  10.023  1.00  0.00     0.000 C 
BRANCH   4   5
ATOM      5  C   UNL     1      34.025  23.125   9.017  1.00  0.00     0.000 C 
BRANCH   5   6
ATOM      6  C   UNL     1      35.437  23.081   9.627  1.00  0.00     0.006 C 
BRANCH   6   7
ATOM      7  C   UNL     1      36.437  22.308   8.758  1.00  0.00     0.053 C 
BRANCH   7   8
ATOM      8  C   UNL     1      36.740  20.977   9.370  1.00  0.00     0.041 C 
ATOM      9  O   UNL     1      37.566  20.201   8.821  1.00  0.00    -0.550 OA
ATOM     10  O   UNL     1      36.148  20.613  10.572  1.00  0.00    -0.550 OA
ENDBRANCH   7   8
ENDBRANCH   6   7
ENDBRANCH   5   6
ENDBRANCH   4   5
ENDBRANCH   3   4
ENDBRANCH   2   3
ENDBRANCH   1   2
BRANCH   1  11
ATOM     11  C   UNL     1      33.328  19.003  13.298  1.00  0.00     0.000 C 
BRANCH  11  12
ATOM     12  C   UNL     1      33.648  18.637  14.752  1.00  0.00    -0.000 C 
BRANCH  12  13
ATOM     13  C   UNL     1      33.175  19.737  15.713  1.00  0.00    -0.000 C 
BRANCH  13  14
ATOM     14  C   UNL     1      34.332  20.380  16.495  1.00  0.00    -0.000 C 
BRANCH  14  15
ATOM     15  C   UNL     1      35.712  19.890  16.018  1.00  0.00    -0.000 C 
BRANCH  15  16
ATOM     16  C   UNL     1      36.558  21.017  15.405  1.00  0.00    -0.000 C 
BRANCH  16  17
ATOM     17  C   UNL     1      35.994  21.525  14.070  1.00  0.00    -0.003 C 
ATOM     18  C   UNL     1      36.428  22.963  13.801  1.00  0.00     0.004 C 
ENDBRANCH  16  17
ENDBRANCH  15  16
ENDBRANCH  14  15
ENDBRANCH  13  14
ENDBRANCH  12  13
ENDBRANCH  11  12
ENDBRANCH   1  11
TORSDOF 14
ENDMDL
MODEL 7
REMARK VINA RESULT:    -2.021     14.420     17.079
REMARK INTER + INTRA:          -4.827
REMARK INTER:                  -4.057
REMARK INTRA:                  -0.770
REMARK UNBOUND:                -1.152
REMARK SMILES CCCCCCCCCCCCCCCC(=O)[O-]
REMARK SMILES IDX 9 1 10 2 11 3 12 4 13 5 14 6 15 7 16 8 17 9 18 10 8 11 7 12
REMARK SMILES IDX 6 13 5 14 4 15 3 16 2 17 1 18
REMARK H PARENT
REMARK Flexibility Score: inf
ROOT
ATOM      1  C   UNL     1      36.945  20.406  15.193  1.00  0.00     0.000 C 
ENDROOT
BRANCH   1   2
ATOM      2  C   UNL     1      37.736  21.584  14.604  1.00  0.00     0.000 C 
BRANCH   2   3
ATOM      3  C   UNL     1      36.830  22.656  13.971  1.00  0.00     0.000 C 
BRANCH   3   4
ATOM      4  C   UNL     1      37.261  23.125  12.567  1.00  0.00     0.000 C 
BRANCH   4   5
ATOM      5  C   UNL     1      36.168  23.039  11.483  1.00  0.00     0.000 C 
BRANCH   5   6
ATOM      6  C   UNL     1      36.006  21.653  10.834  1.00  0.00     0.006 C 
BRANCH   6   7
ATOM      7  C   UNL     1      35.712  21.730   9.331  1.00  0.00     0.053 C 
BRANCH   7   8
ATOM      8  C   UNL     1      34.257  21.985   9.096  1.00  0.00     0.041 C 
ATOM      9  O   UNL     1      33.395  21.511   9.882  1.00  0.00    -0.550 OA
ATOM     10  O   UNL     1      33.853  22.788   8.037  1.00  0.00    -0.550 OA
ENDBRANCH   7   8
ENDBRANCH   6   7
ENDBRANCH   5   6
ENDBRANCH   4   5
ENDBRANCH   3   4
ENDBRANCH   2   3
ENDBRANCH   1   2
BRANCH   1  11
ATOM     11  C   UNL     1      35.486  20.797  15.448  1.00  0.00     0.000 C 
BRANCH  11  12
ATOM     12  C   UNL     1      35.045  20.395  16.860  1.00  0.00    -0.000 C 
BRANCH  12  13
ATOM     13  C   UNL     1      33.644  19.766  16.841  1.00  0.00    -0.000 C 
BRANCH  13  14
ATOM     14  C   UNL     1      33.624  18.383  16.168  1.00  0.00    -0.000 C 
BRANCH  14  15
ATOM     15  C   UNL     1      32.898  18.399  14.810  1.00  0.00    -0.000 C 
BRANCH  15  16
ATOM     16  C   UNL     1      33.065  19.734  14.067  1.00  0.00    -0.000 C 
BRANCH  16  17
ATOM     17  C   UNL     1      33.423  19.549  12.585  1.00  0.00    -0.003 C 
ATOM     18  C   UNL     1      32.875  18.231  12.048  1.00  0.00     0.004 C 
ENDBRANCH  16  17
ENDBRANCH  15  16
ENDBRANCH  14  15
ENDBRANCH  13  14
ENDBRANCH  12  13
ENDBRANCH  11  12
ENDBRANCH   1  11
TORSDOF 14
ENDMDL
MODEL 8
REMARK VINA RESULT:    -1.402     13.619     16.994
REMARK INTER + INTRA:          -3.702
REMARK INTER:                  -2.640
REMARK INTRA:                  -1.062
REMARK UNBOUND:                -1.152
REMARK SMILES CCCCCCCCCCCCCCCC(=O)[O-]
REMARK SMILES IDX 9 1 10 2 11 3 12 4 13 5 14 6 15 7 16 8 17 9 18 10 8 11 7 12
REMARK SMILES IDX 6 13 5 14 4 15 3 16 2 17 1 18
REMARK H PARENT
REMARK Flexibility Score: inf
ROOT
ATOM      1  C   UNL     1      33.454  17.650  15.926  1.00  0.00     0.000 C 
ENDROOT
BRANCH   1   2
ATOM      2  C   UNL     1      34.496  18.770  16.060  1.00  0.00     0.000 C 
BRANCH   2   3
ATOM      3  C   UNL     1      33.928  20.039  16.721  1.00  0.00     0.000 C 
BRANCH   3   4
ATOM      4  C   UNL     1      34.780  21.310  16.528  1.00  0.00     0.000 C 
BRANCH   4   5
ATOM      5  C   UNL     1      35.088  21.676  15.062  1.00  0.00     0.000 C 
BRANCH   5   6
ATOM      6  C   UNL     1      36.200  22.723  14.875  1.00  0.00     0.006 C 
BRANCH   6   7
ATOM      7  C   UNL     1      37.599  22.162  15.157  1.00  0.00     0.053 C 
BRANCH   7   8
ATOM      8  C   UNL     1      38.584  22.689  14.162  1.00  0.00     0.041 C 
ATOM      9  O   UNL     1      38.189  23.116  13.045  1.00  0.00    -0.550 OA
ATOM     10  O   UNL     1      39.933  22.754  14.485  1.00  0.00    -0.550 OA
ENDBRANCH   7   8
ENDBRANCH   6   7
ENDBRANCH   5   6
ENDBRANCH   4   5
ENDBRANCH   3   4
ENDBRANCH   2   3
ENDBRANCH   1   2
BRANCH   1  11
ATOM     11  C   UNL     1      32.875  17.606  14.508  1.00  0.00     0.000 C 
BRANCH  11  12
ATOM     12  C   UNL     1      32.960  18.981  13.834  1.00  0.00    -0.000 C 
BRANCH  12  13
ATOM     13  C   UNL     1      32.886  18.850  12.306  1.00  0.00    -0.000 C 
BRANCH  13  14
ATOM     14  C   UNL     1      33.302  20.138  11.578  1.00  0.00    -0.000 C 
BRANCH  14  15
ATOM     15  C   UNL     1      34.755  20.546  11.884  1.00  0.00    -0.000 C 
BRANCH  15  16
ATOM     16  C   UNL     1      35.209  21.766  11.066  1.00  0.00    -0.000 C 
BRANCH  16  17
ATOM     17  C   UNL     1      34.249  22.101   9.916  1.00  0.00    -0.003 C 
ATOM     18  C   UNL     1      34.992  22.188   8.586  1.00  0.00     0.004 C 
ENDBRANCH  16  17
ENDBRANCH  15  16
ENDBRANCH  14  15
ENDBRANCH  13  14
ENDBRANCH  12  13
ENDBRANCH  11  12
ENDBRANCH   1  11
TORSDOF 14
ENDMDL
MODEL 9
REMARK VINA RESULT:    -0.136     15.243     17.843
REMARK INTER + INTRA:          -1.400
REMARK INTER:                  -0.000
REMARK INTRA:                  -1.400
REMARK UNBOUND:                -1.152
REMARK SMILES CCCCCCCCCCCCCCCC(=O)[O-]
REMARK SMILES IDX 9 1 10 2 11 3 12 4 13 5 14 6 15 7 16 8 17 9 18 10 8 11 7 12
REMARK SMILES IDX 6 13 5 14 4 15 3 16 2 17 1 18
REMARK H PARENT
REMARK Flexibility Score: inf
ROOT
ATOM      1  C   UNL     1      35.962  21.632  14.346  1.00  0.00     0.000 C 
ENDROOT
BRANCH   1   2
ATOM      2  C   UNL     1      35.042  22.861  14.396  1.00  0.00     0.000 C 
BRANCH   2   3
ATOM      3  C   UNL     1      33.775  22.695  13.537  1.00  0.00     0.000 C 
BRANCH   3   4
ATOM      4  C   UNL     1      32.884  21.495  13.917  1.00  0.00     0.000 C 
BRANCH   4   5
ATOM      5  C   UNL     1      32.948  20.298  12.948  1.00  0.00     0.000 C 
BRANCH   5   6
ATOM      6  C   UNL     1      33.779  19.103  13.447  1.00  0.00     0.006 C 
BRANCH   6   7
ATOM      7  C   UNL     1      33.035  18.252  14.484  1.00  0.00     0.053 C 
BRANCH   7   8
ATOM      8  C   UNL     1      33.490  18.598  15.866  1.00  0.00     0.041 C 
ATOM      9  O   UNL     1      32.876  18.145  16.868  1.00  0.00    -0.550 OA
ATOM     10  O   UNL     1      34.622  19.381  16.050  1.00  0.00    -0.550 OA
ENDBRANCH   7   8
ENDBRANCH   6   7
ENDBRANCH   5   6
ENDBRANCH   4   5
ENDBRANCH   3   4
ENDBRANCH   2   3
ENDBRANCH   1   2
BRANCH   1  11
ATOM     11  C   UNL     1      36.856  21.666  13.102  1.00  0.00     0.000 C 
BRANCH  11  12
ATOM     12  C   UNL     1      36.963  23.089  12.539  1.00  0.00    -0.000 C 
BRANCH  12  13
ATOM     13  C   UNL     1      36.558  23.125  11.058  1.00  0.00    -0.000 C 
BRANCH  13  14
ATOM     14  C   UNL     1      36.504  21.726  10.422  1.00  0.00    -0.000 C 
BRANCH  14  15
ATOM     15  C   UNL     1      35.372  21.591   9.387  1.00  0.00    -0.000 C 
BRANCH  15  16
ATOM     16  C   UNL     1      33.981  21.816  10.002  1.00  0.00    -0.000 C 
BRANCH  16  17
ATOM     17  C   UNL     1      33.110  22.768   9.169  1.00  0.00    -0.003 C 
ATOM     18  C   UNL     1      32.914  22.236   7.753  1.00  0.00     0.004 C 
ENDBRANCH  16  17
ENDBRANCH  15  16
ENDBRANCH  14  15
ENDBRANCH  13  14
ENDBRANCH  12  13
ENDBRANCH  11  12
ENDBRANCH   1  11
TORSDOF 14
ENDMDL
