MODEL 1
REMARK VINA RESULT:    -1.649      0.000      0.000
REMARK INTER + INTRA:          -2.029
REMARK INTER:                  -2.516
REMARK INTRA:                   0.488
REMARK UNBOUND:                 0.488
REMARK SMILES O=C([O-])CCCCCCCCC(=O)[O-]
REMARK SMILES IDX 7 1 6 2 5 3 4 4 2 5 1 6 3 7 8 8 9 9 10 10 11 11 12 12 13 13
REMARK SMILES IDX 14 14
REMARK H PARENT
REMARK Flexibility Score: inf
ROOT
ATOM      1  C   UNL     1      64.493 130.365  -7.312  1.00  0.00     0.000 C 
ENDROOT
BRANCH   1   2
ATOM      2  C   UNL     1      65.783 130.768  -8.049  1.00  0.00     0.000 C 
BRANCH   2   3
ATOM      3  C   UNL     1      67.001 129.947  -7.601  1.00  0.00     0.006 C 
BRANCH   3   4
ATOM      4  C   UNL     1      67.049 129.744  -6.080  1.00  0.00     0.053 C 
BRANCH   4   5
ATOM      5  C   UNL     1      66.401 128.449  -5.708  1.00  0.00     0.041 C 
ATOM      6  O   UNL     1      65.622 127.875  -6.513  1.00  0.00    -0.550 OA
ATOM      7  O   UNL     1      66.620 127.897  -4.452  1.00  0.00    -0.550 OA
ENDBRANCH   4   5
ENDBRANCH   3   4
ENDBRANCH   2   3
ENDBRANCH   1   2
BRANCH   1   8
ATOM      8  C   UNL     1      63.227 130.885  -8.011  1.00  0.00     0.000 C 
BRANCH   8   9
ATOM      9  C   UNL     1      61.962 130.123  -7.585  1.00  0.00     0.000 C 
BRANCH   9  10
ATOM     10  C   UNL     1      62.180 128.602  -7.482  1.00  0.00     0.006 C 
BRANCH  10  11
ATOM     11  C   UNL     1      61.924 128.028  -6.077  1.00  0.00     0.053 C 
BRANCH  11  12
ATOM     12  C   UNL     1      60.465 127.946  -5.743  1.00  0.00     0.041 C 
ATOM     13  O   UNL     1      59.600 127.970  -6.657  1.00  0.00    -0.550 OA
ATOM     14  O   UNL     1      60.059 127.875  -4.416  1.00  0.00    -0.550 OA
ENDBRANCH  11  12
ENDBRANCH  10  11
ENDBRANCH   9  10
ENDBRANCH   8   9
ENDBRANCH   1   8
TORSDOF 9
ENDMDL
MODEL 2
REMARK VINA RESULT:    -1.153     21.802     23.180
REMARK INTER + INTRA:          -1.272
REMARK INTER:                  -1.503
REMARK INTRA:                   0.231
REMARK UNBOUND:                 0.488
REMARK SMILES O=C([O-])CCCCCCCCC(=O)[O-]
REMARK SMILES IDX 7 1 6 2 5 3 4 4 2 5 1 6 3 7 8 8 9 9 10 10 11 11 12 12 13 13
REMARK SMILES IDX 14 14
REMARK H PARENT
REMARK Flexibility Score: inf
ROOT
ATOM      1  C   UNL     1      53.444 146.929   0.461  1.00  0.00     0.000 C 
ENDROOT
BRANCH   1   2
ATOM      2  C   UNL     1      52.972 147.824  -0.699  1.00  0.00     0.000 C 
BRANCH   2   3
ATOM      3  C   UNL     1      53.726 147.541  -2.008  1.00  0.00     0.006 C 
BRANCH   3   4
ATOM      4  C   UNL     1      53.014 148.123  -3.236  1.00  0.00     0.053 C 
BRANCH   4   5
ATOM      5  C   UNL     1      53.838 147.910  -4.465  1.00  0.00     0.041 C 
ATOM      6  O   UNL     1      55.074 147.690  -4.369  1.00  0.00    -0.550 OA
ATOM      7  O   UNL     1      53.251 148.000  -5.721  1.00  0.00    -0.550 OA
ENDBRANCH   4   5
ENDBRANCH   3   4
ENDBRANCH   2   3
ENDBRANCH   1   2
BRANCH   1   8
ATOM      8  C   UNL     1      52.344 146.693   1.508  1.00  0.00     0.000 C 
BRANCH   8   9
ATOM      9  C   UNL     1      51.360 147.872   1.605  1.00  0.00     0.000 C 
BRANCH   9  10
ATOM     10  C   UNL     1      50.297 147.863   0.491  1.00  0.00     0.006 C 
BRANCH  10  11
ATOM     11  C   UNL     1      48.866 148.125   0.993  1.00  0.00     0.053 C 
BRANCH  11  12
ATOM     12  C   UNL     1      47.821 147.535   0.096  1.00  0.00     0.041 C 
ATOM     13  O   UNL     1      47.634 148.003  -1.058  1.00  0.00    -0.550 OA
ATOM     14  O   UNL     1      47.029 146.486   0.547  1.00  0.00    -0.550 OA
ENDBRANCH  11  12
ENDBRANCH  10  11
ENDBRANCH   9  10
ENDBRANCH   8   9
ENDBRANCH   1   8
TORSDOF 9
ENDMDL
MODEL 3
REMARK VINA RESULT:    -0.878     21.515     22.919
REMARK INTER + INTRA:          -0.853
REMARK INTER:                  -1.046
REMARK INTRA:                   0.194
REMARK UNBOUND:                 0.488
REMARK SMILES O=C([O-])CCCCCCCCC(=O)[O-]
REMARK SMILES IDX 7 1 6 2 5 3 4 4 2 5 1 6 3 7 8 8 9 9 10 10 11 11 12 12 13 13
REMARK SMILES IDX 14 14
REMARK H PARENT
REMARK Flexibility Score: inf
ROOT
ATOM      1  C   UNL     1      53.692 146.775  -1.082  1.00  0.00     0.000 C 
ENDROOT
BRANCH   1   2
ATOM      2  C   UNL     1      54.193 147.103   0.337  1.00  0.00     0.000 C 
BRANCH   2   3
ATOM      3  C   UNL     1      53.079 147.641   1.248  1.00  0.00     0.006 C 
BRANCH   3   4
ATOM      4  C   UNL     1      51.855 148.125   0.459  1.00  0.00     0.053 C 
BRANCH   4   5
ATOM      5  C   UNL     1      50.610 147.945   1.268  1.00  0.00     0.041 C 
ATOM      6  O   UNL     1      50.685 147.663   2.492  1.00  0.00    -0.550 OA
ATOM      7  O   UNL     1      49.365 148.043   0.660  1.00  0.00    -0.550 OA
ENDBRANCH   4   5
ENDBRANCH   3   4
ENDBRANCH   2   3
ENDBRANCH   1   2
BRANCH   1   8
ATOM      8  C   UNL     1      53.663 148.011  -1.995  1.00  0.00     0.000 C 
BRANCH   8   9
ATOM      9  C   UNL     1      52.493 147.979  -2.993  1.00  0.00     0.000 C 
BRANCH   9  10
ATOM     10  C   UNL     1      52.945 148.120  -4.458  1.00  0.00     0.006 C 
BRANCH  10  11
ATOM     11  C   UNL     1      51.810 147.935  -5.481  1.00  0.00     0.053 C 
BRANCH  11  12
ATOM     12  C   UNL     1      52.316 147.591  -6.850  1.00  0.00     0.041 C 
ATOM     13  O   UNL     1      51.627 146.872  -7.620  1.00  0.00    -0.550 OA
ATOM     14  O   UNL     1      53.565 148.039  -7.262  1.00  0.00    -0.550 OA
ENDBRANCH  11  12
ENDBRANCH  10  11
ENDBRANCH   9  10
ENDBRANCH   8   9
ENDBRANCH   1   8
TORSDOF 9
ENDMDL
MODEL 4
REMARK VINA RESULT:    -0.815      1.076      1.552
REMARK INTER + INTRA:          -0.756
REMARK INTER:                  -0.944
REMARK INTRA:                   0.188
REMARK UNBOUND:                 0.488
REMARK SMILES O=C([O-])CCCCCCCCC(=O)[O-]
REMARK SMILES IDX 7 1 6 2 5 3 4 4 2 5 1 6 3 7 8 8 9 9 10 10 11 11 12 12 13 13
REMARK SMILES IDX 14 14
REMARK H PARENT
REMARK Flexibility Score: inf
ROOT
ATOM      1  C   UNL     1      63.704 131.209  -6.772  1.00  0.00     0.000 C 
ENDROOT
BRANCH   1   2
ATOM      2  C   UNL     1      64.702 131.055  -7.934  1.00  0.00     0.000 C 
BRANCH   2   3
ATOM      3  C   UNL     1      65.435 129.705  -7.909  1.00  0.00     0.006 C 
BRANCH   3   4
ATOM      4  C   UNL     1      66.587 129.678  -6.896  1.00  0.00     0.053 C 
BRANCH   4   5
ATOM      5  C   UNL     1      66.282 128.723  -5.786  1.00  0.00     0.041 C 
ATOM      6  O   UNL     1      67.120 128.532  -4.866  1.00  0.00    -0.550 OA
ATOM      7  O   UNL     1      65.091 128.009  -5.791  1.00  0.00    -0.550 OA
ENDBRANCH   4   5
ENDBRANCH   3   4
ENDBRANCH   2   3
ENDBRANCH   1   2
BRANCH   1   8
ATOM      8  C   UNL     1      62.822 129.964  -6.586  1.00  0.00     0.000 C 
BRANCH   8   9
ATOM      9  C   UNL     1      62.497 129.267  -7.918  1.00  0.00     0.000 C 
BRANCH   9  10
ATOM     10  C   UNL     1      61.829 127.892  -7.732  1.00  0.00     0.006 C 
BRANCH  10  11
ATOM     11  C   UNL     1      60.303 127.961  -7.544  1.00  0.00     0.053 C 
BRANCH  11  12
ATOM     12  C   UNL     1      59.894 127.914  -6.103  1.00  0.00     0.041 C 
ATOM     13  O   UNL     1      60.766 127.875  -5.195  1.00  0.00    -0.550 OA
ATOM     14  O   UNL     1      58.547 127.879  -5.763  1.00  0.00    -0.550 OA
ENDBRANCH  11  12
ENDBRANCH  10  11
ENDBRANCH   9  10
ENDBRANCH   8   9
ENDBRANCH   1   8
TORSDOF 9
ENDMDL
MODEL 5
REMARK VINA RESULT:    -0.541     21.003     22.499
REMARK INTER + INTRA:          -0.338
REMARK INTER:                  -0.106
REMARK INTRA:                  -0.232
REMARK UNBOUND:                 0.488
REMARK SMILES O=C([O-])CCCCCCCCC(=O)[O-]
REMARK SMILES IDX 7 1 6 2 5 3 4 4 2 5 1 6 3 7 8 8 9 9 10 10 11 11 12 12 13 13
REMARK SMILES IDX 14 14
REMARK H PARENT
REMARK Flexibility Score: inf
ROOT
ATOM      1  C   UNL     1      55.112 146.333  -2.047  1.00  0.00     0.000 C 
ENDROOT
BRANCH   1   2
ATOM      2  C   UNL     1      55.301 147.707  -2.713  1.00  0.00     0.000 C 
BRANCH   2   3
ATOM      3  C   UNL     1      54.088 148.125  -3.560  1.00  0.00     0.006 C 
BRANCH   3   4
ATOM      4  C   UNL     1      54.380 148.087  -5.066  1.00  0.00     0.053 C 
BRANCH   4   5
ATOM      5  C   UNL     1      53.108 147.945  -5.839  1.00  0.00     0.041 C 
ATOM      6  O   UNL     1      52.015 147.780  -5.236  1.00  0.00    -0.550 OA
ATOM      7  O   UNL     1      53.134 147.948  -7.228  1.00  0.00    -0.550 OA
ENDBRANCH   4   5
ENDBRANCH   3   4
ENDBRANCH   2   3
ENDBRANCH   1   2
BRANCH   1   8
ATOM      8  C   UNL     1      54.531 146.441  -0.628  1.00  0.00     0.000 C 
BRANCH   8   9
ATOM      9  C   UNL     1      54.152 147.884  -0.255  1.00  0.00     0.000 C 
BRANCH   9  10
ATOM     10  C   UNL     1      52.634 148.085  -0.089  1.00  0.00     0.006 C 
BRANCH  10  11
ATOM     11  C   UNL     1      52.154 148.028   1.372  1.00  0.00     0.053 C 
BRANCH  11  12
ATOM     12  C   UNL     1      50.661 148.078   1.493  1.00  0.00     0.041 C 
ATOM     13  O   UNL     1      50.114 148.113   2.626  1.00  0.00    -0.550 OA
ATOM     14  O   UNL     1      49.870 148.053   0.350  1.00  0.00    -0.550 OA
ENDBRANCH  11  12
ENDBRANCH  10  11
ENDBRANCH   9  10
ENDBRANCH   8   9
ENDBRANCH   1   8
TORSDOF 9
ENDMDL
MODEL 6
REMARK VINA RESULT:    -0.363     21.280     22.617
REMARK INTER + INTRA:          -0.066
REMARK INTER:                  -0.813
REMARK INTRA:                   0.747
REMARK UNBOUND:                 0.488
REMARK SMILES O=C([O-])CCCCCCCCC(=O)[O-]
REMARK SMILES IDX 7 1 6 2 5 3 4 4 2 5 1 6 3 7 8 8 9 9 10 10 11 11 12 12 13 13
REMARK SMILES IDX 14 14
REMARK H PARENT
REMARK Flexibility Score: inf
ROOT
ATOM      1  C   UNL     1      54.531 146.761  -0.269  1.00  0.00     0.000 C 
ENDROOT
BRANCH   1   2
ATOM      2  C   UNL     1      54.757 147.884   0.759  1.00  0.00     0.000 C 
BRANCH   2   3
ATOM      3  C   UNL     1      53.562 148.066   1.708  1.00  0.00     0.006 C 
BRANCH   3   4
ATOM      4  C   UNL     1      52.503 146.969   1.538  1.00  0.00     0.053 C 
BRANCH   4   5
ATOM      5  C   UNL     1      51.161 147.576   1.281  1.00  0.00     0.041 C 
ATOM      6  O   UNL     1      50.915 148.125   0.175  1.00  0.00    -0.550 OA
ATOM      7  O   UNL     1      50.196 147.579   2.280  1.00  0.00    -0.550 OA
ENDBRANCH   4   5
ENDBRANCH   3   4
ENDBRANCH   2   3
ENDBRANCH   1   2
BRANCH   1   8
ATOM      8  C   UNL     1      55.276 147.013  -1.590  1.00  0.00     0.000 C 
BRANCH   8   9
ATOM      9  C   UNL     1      54.587 148.077  -2.460  1.00  0.00     0.000 C 
BRANCH   9  10
ATOM     10  C   UNL     1      55.133 148.125  -3.900  1.00  0.00     0.006 C 
BRANCH  10  11
ATOM     11  C   UNL     1      54.115 147.689  -4.968  1.00  0.00     0.053 C 
BRANCH  11  12
ATOM     12  C   UNL     1      52.699 147.970  -4.566  1.00  0.00     0.041 C 
ATOM     13  O   UNL     1      52.389 148.065  -3.350  1.00  0.00    -0.550 OA
ATOM     14  O   UNL     1      51.713 148.095  -5.538  1.00  0.00    -0.550 OA
ENDBRANCH  11  12
ENDBRANCH  10  11
ENDBRANCH   9  10
ENDBRANCH   8   9
ENDBRANCH   1   8
TORSDOF 9
ENDMDL
