MODEL 1
REMARK VINA RESULT:    23.648      0.000      0.000
REMARK INTER + INTRA:          25.030
REMARK INTER:                  25.030
REMARK INTRA:                   0.000
REMARK UNBOUND:                 0.000
REMARK SMILES O=c1ccc2cc(O)c(O)cc2o1
REMARK SMILES IDX 4 1 3 2 2 3 1 4 13 5 12 6 11 7 9 8 7 9 6 10 5 11 8 12 10 14
REMARK H PARENT 8 13 10 15
REMARK Flexibility Score: inf
ROOT
ATOM      1  C   UNL     1      69.224   2.524  72.650  1.00  0.00     0.019 A 
ATOM      2  C   UNL     1      68.487   3.276  73.564  1.00  0.00     0.094 A 
ATOM      3  C   UNL     1      68.712   3.090  74.933  1.00  0.00     0.336 A 
ATOM      4  O   UNL     1      68.057   3.760  75.773  1.00  0.00    -0.246 OA
ATOM      5  O   UNL     1      69.617   2.210  75.353  1.00  0.00    -0.423 OA
ATOM      6  C   UNL     1      70.341   1.472  74.515  1.00  0.00     0.142 A 
ATOM      7  C   UNL     1      71.278   0.563  75.015  1.00  0.00     0.098 A 
ATOM      8  C   UNL     1      72.044  -0.218  74.136  1.00  0.00     0.161 A 
ATOM      9  C   UNL     1      71.871  -0.086  72.750  1.00  0.00     0.158 A 
ATOM     10  C   UNL     1      70.934   0.826  72.243  1.00  0.00     0.062 A 
ATOM     11  C   UNL     1      70.168   1.605  73.119  1.00  0.00     0.022 A 
ENDROOT
BRANCH   9  12
ATOM     12  O   UNL     1      72.637  -0.864  71.883  1.00  0.00    -0.504 OA
ATOM     13  H   UNL     1      73.598  -1.104  72.095  1.00  0.00     0.293 HD
ENDBRANCH   9  12
BRANCH   8  14
ATOM     14  O   UNL     1      72.978  -1.125  74.631  1.00  0.00    -0.504 OA
ATOM     15  H   UNL     1      73.966  -1.037  74.423  1.00  0.00     0.293 HD
ENDBRANCH   8  14
TORSDOF 2
ENDMDL
MODEL 2
REMARK VINA RESULT:    24.599      1.233      5.037
REMARK INTER + INTRA:          26.037
REMARK INTER:                  26.037
REMARK INTRA:                   0.000
REMARK UNBOUND:                 0.000
REMARK SMILES O=c1ccc2cc(O)c(O)cc2o1
REMARK SMILES IDX 4 1 3 2 2 3 1 4 13 5 12 6 11 7 9 8 7 9 6 10 5 11 8 12 10 14
REMARK H PARENT 8 13 10 15
REMARK Flexibility Score: inf
ROOT
ATOM      1  C   UNL     1      71.741  -0.187  74.838  1.00  0.00     0.019 A 
ATOM      2  C   UNL     1      72.641  -0.852  74.006  1.00  0.00     0.094 A 
ATOM      3  C   UNL     1      72.664  -0.534  72.643  1.00  0.00     0.336 A 
ATOM      4  O   UNL     1      73.469  -1.124  71.875  1.00  0.00    -0.246 OA
ATOM      5  O   UNL     1      71.842   0.389  72.152  1.00  0.00    -0.423 OA
ATOM      6  C   UNL     1      70.969   1.047  72.911  1.00  0.00     0.142 A 
ATOM      7  C   UNL     1      70.129   2.008  72.340  1.00  0.00     0.098 A 
ATOM      8  C   UNL     1      69.207   2.703  73.136  1.00  0.00     0.161 A 
ATOM      9  C   UNL     1      69.126   2.437  74.510  1.00  0.00     0.158 A 
ATOM     10  C   UNL     1      69.967   1.475  75.090  1.00  0.00     0.062 A 
ATOM     11  C   UNL     1      70.888   0.779  74.296  1.00  0.00     0.022 A 
ENDROOT
BRANCH   9  12
ATOM     12  O   UNL     1      68.208   3.133  75.294  1.00  0.00    -0.504 OA
ATOM     13  H   UNL     1      67.739   2.694  76.078  1.00  0.00     0.293 HD
ENDBRANCH   9  12
BRANCH   8  14
ATOM     14  O   UNL     1      68.369   3.661  72.569  1.00  0.00    -0.504 OA
ATOM     15  H   UNL     1      67.422   3.436  72.283  1.00  0.00     0.293 HD
ENDBRANCH   8  14
TORSDOF 2
ENDMDL
MODEL 3
REMARK VINA RESULT:    24.737      1.704      4.878
REMARK INTER + INTRA:          26.183
REMARK INTER:                  26.183
REMARK INTRA:                   0.000
REMARK UNBOUND:                 0.000
REMARK SMILES O=c1ccc2cc(O)c(O)cc2o1
REMARK SMILES IDX 4 1 3 2 2 3 1 4 13 5 12 6 11 7 9 8 7 9 6 10 5 11 8 12 10 14
REMARK H PARENT 8 13 10 15
REMARK Flexibility Score: inf
ROOT
ATOM      1  C   UNL     1      71.949   2.361  74.163  1.00  0.00     0.019 A 
ATOM      2  C   UNL     1      72.338   1.326  73.315  1.00  0.00     0.094 A 
ATOM      3  C   UNL     1      71.418   0.316  73.011  1.00  0.00     0.336 A 
ATOM      4  O   UNL     1      71.751  -0.627  72.247  1.00  0.00    -0.246 OA
ATOM      5  O   UNL     1      70.191   0.346  73.524  1.00  0.00    -0.423 OA
ATOM      6  C   UNL     1      69.779   1.316  74.338  1.00  0.00     0.142 A 
ATOM      7  C   UNL     1      68.477   1.295  74.847  1.00  0.00     0.098 A 
ATOM      8  C   UNL     1      68.038   2.314  75.705  1.00  0.00     0.161 A 
ATOM      9  C   UNL     1      68.906   3.359  76.054  1.00  0.00     0.158 A 
ATOM     10  C   UNL     1      70.213   3.386  75.545  1.00  0.00     0.062 A 
ATOM     11  C   UNL     1      70.653   2.368  74.689  1.00  0.00     0.022 A 
ENDROOT
BRANCH   9  12
ATOM     12  O   UNL     1      68.461   4.369  76.906  1.00  0.00    -0.504 OA
ATOM     13  H   UNL     1      69.110   4.945  77.430  1.00  0.00     0.293 HD
ENDBRANCH   9  12
BRANCH   8  14
ATOM     14  O   UNL     1      66.741   2.296  76.214  1.00  0.00    -0.504 OA
ATOM     15  H   UNL     1      65.996   1.786  75.752  1.00  0.00     0.293 HD
ENDBRANCH   8  14
TORSDOF 2
ENDMDL
MODEL 4
REMARK VINA RESULT:    25.079      1.354      4.485
REMARK INTER + INTRA:          26.545
REMARK INTER:                  26.545
REMARK INTRA:                   0.000
REMARK UNBOUND:                 0.000
REMARK SMILES O=c1ccc2cc(O)c(O)cc2o1
REMARK SMILES IDX 4 1 3 2 2 3 1 4 13 5 12 6 11 7 9 8 7 9 6 10 5 11 8 12 10 14
REMARK H PARENT 8 13 10 15
REMARK Flexibility Score: inf
ROOT
ATOM      1  C   UNL     1      71.388   0.444  71.961  1.00  0.00     0.019 A 
ATOM      2  C   UNL     1      72.227  -0.415  72.671  1.00  0.00     0.094 A 
ATOM      3  C   UNL     1      72.228  -0.358  74.069  1.00  0.00     0.336 A 
ATOM      4  O   UNL     1      72.978  -1.125  74.728  1.00  0.00    -0.246 OA
ATOM      5  O   UNL     1      71.438   0.501  74.710  1.00  0.00    -0.423 OA
ATOM      6  C   UNL     1      70.623   1.337  74.071  1.00  0.00     0.142 A 
ATOM      7  C   UNL     1      69.816   2.217  74.797  1.00  0.00     0.098 A 
ATOM      8  C   UNL     1      68.955   3.101  74.128  1.00  0.00     0.161 A 
ATOM      9  C   UNL     1      68.902   3.101  72.727  1.00  0.00     0.158 A 
ATOM     10  C   UNL     1      69.708   2.219  71.993  1.00  0.00     0.062 A 
ATOM     11  C   UNL     1      70.569   1.337  72.659  1.00  0.00     0.022 A 
ENDROOT
BRANCH   9  12
ATOM     12  O   UNL     1      68.043   3.981  72.070  1.00  0.00    -0.504 OA
ATOM     13  H   UNL     1      67.341   4.511  72.573  1.00  0.00     0.293 HD
ENDBRANCH   9  12
BRANCH   8  14
ATOM     14  O   UNL     1      68.150   3.980  74.849  1.00  0.00    -0.504 OA
ATOM     15  H   UNL     1      68.312   4.163  75.833  1.00  0.00     0.293 HD
ENDBRANCH   8  14
TORSDOF 2
ENDMDL
MODEL 5
REMARK VINA RESULT:    25.267      1.520      2.430
REMARK INTER + INTRA:          26.744
REMARK INTER:                  26.744
REMARK INTRA:                   0.000
REMARK UNBOUND:                 0.000
REMARK SMILES O=c1ccc2cc(O)c(O)cc2o1
REMARK SMILES IDX 4 1 3 2 2 3 1 4 13 5 12 6 11 7 9 8 7 9 6 10 5 11 8 12 10 14
REMARK H PARENT 8 13 10 15
REMARK Flexibility Score: inf
ROOT
ATOM      1  C   UNL     1      69.510   2.600  74.735  1.00  0.00     0.019 A 
ATOM      2  C   UNL     1      68.766   3.502  73.975  1.00  0.00     0.094 A 
ATOM      3  C   UNL     1      68.850   3.442  72.579  1.00  0.00     0.336 A 
ATOM      4  O   UNL     1      68.186   4.248  71.876  1.00  0.00    -0.246 OA
ATOM      5  O   UNL     1      69.626   2.537  71.989  1.00  0.00    -0.423 OA
ATOM      6  C   UNL     1      70.352   1.658  72.677  1.00  0.00     0.142 A 
ATOM      7  C   UNL     1      71.149   0.729  72.002  1.00  0.00     0.098 A 
ATOM      8  C   UNL     1      71.916  -0.199  72.723  1.00  0.00     0.161 A 
ATOM      9  C   UNL     1      71.883  -0.197  74.125  1.00  0.00     0.158 A 
ATOM     10  C   UNL     1      71.083   0.731  74.807  1.00  0.00     0.062 A 
ATOM     11  C   UNL     1      70.318   1.659  74.089  1.00  0.00     0.022 A 
ENDROOT
BRANCH   9  12
ATOM     12  O   UNL     1      72.647  -1.123  74.833  1.00  0.00    -0.504 OA
ATOM     13  H   UNL     1      73.503  -0.855  75.303  1.00  0.00     0.293 HD
ENDBRANCH   9  12
BRANCH   8  14
ATOM     14  O   UNL     1      72.712  -1.125  72.053  1.00  0.00    -0.504 OA
ATOM     15  H   UNL     1      72.446  -2.101  71.982  1.00  0.00     0.293 HD
ENDBRANCH   8  14
TORSDOF 2
ENDMDL
MODEL 6
REMARK VINA RESULT:    25.273      1.416      4.541
REMARK INTER + INTRA:          26.750
REMARK INTER:                  26.750
REMARK INTRA:                   0.000
REMARK UNBOUND:                 0.000
REMARK SMILES O=c1ccc2cc(O)c(O)cc2o1
REMARK SMILES IDX 4 1 3 2 2 3 1 4 13 5 12 6 11 7 9 8 7 9 6 10 5 11 8 12 10 14
REMARK H PARENT 8 13 10 15
REMARK Flexibility Score: inf
ROOT
ATOM      1  C   UNL     1      69.735   0.260  72.369  1.00  0.00     0.019 A 
ATOM      2  C   UNL     1      70.948  -0.217  71.875  1.00  0.00     0.094 A 
ATOM      3  C   UNL     1      72.137   0.175  72.503  1.00  0.00     0.336 A 
ATOM      4  O   UNL     1      73.242  -0.245  72.071  1.00  0.00    -0.246 OA
ATOM      5  O   UNL     1      72.106   0.989  73.555  1.00  0.00    -0.423 OA
ATOM      6  C   UNL     1      70.970   1.467  74.058  1.00  0.00     0.142 A 
ATOM      7  C   UNL     1      71.000   2.319  75.166  1.00  0.00     0.098 A 
ATOM      8  C   UNL     1      69.805   2.825  75.699  1.00  0.00     0.161 A 
ATOM      9  C   UNL     1      68.576   2.476  75.122  1.00  0.00     0.158 A 
ATOM     10  C   UNL     1      68.539   1.620  74.011  1.00  0.00     0.062 A 
ATOM     11  C   UNL     1      69.732   1.115  73.477  1.00  0.00     0.022 A 
ENDROOT
BRANCH   9  12
ATOM     12  O   UNL     1      67.393   2.982  75.659  1.00  0.00    -0.504 OA
ATOM     13  H   UNL     1      66.724   3.486  75.088  1.00  0.00     0.293 HD
ENDBRANCH   9  12
BRANCH   8  14
ATOM     14  O   UNL     1      69.832   3.674  76.803  1.00  0.00    -0.504 OA
ATOM     15  H   UNL     1      69.351   4.567  76.798  1.00  0.00     0.293 HD
ENDBRANCH   8  14
TORSDOF 2
ENDMDL
MODEL 7
REMARK VINA RESULT:    25.621      1.665      2.066
REMARK INTER + INTRA:          27.119
REMARK INTER:                  27.119
REMARK INTRA:                   0.000
REMARK UNBOUND:                 0.000
REMARK SMILES O=c1ccc2cc(O)c(O)cc2o1
REMARK SMILES IDX 4 1 3 2 2 3 1 4 13 5 12 6 11 7 9 8 7 9 6 10 5 11 8 12 10 14
REMARK H PARENT 8 13 10 15
REMARK Flexibility Score: inf
ROOT
ATOM      1  C   UNL     1      68.009   1.410  75.207  1.00  0.00     0.019 A 
ATOM      2  C   UNL     1      67.512   2.430  76.016  1.00  0.00     0.094 A 
ATOM      3  C   UNL     1      68.333   3.526  76.307  1.00  0.00     0.336 A 
ATOM      4  O   UNL     1      67.902   4.457  77.036  1.00  0.00    -0.246 OA
ATOM      5  O   UNL     1      69.569   3.590  75.817  1.00  0.00    -0.423 OA
ATOM      6  C   UNL     1      70.082   2.638  75.042  1.00  0.00     0.142 A 
ATOM      7  C   UNL     1      71.387   2.760  74.555  1.00  0.00     0.098 A 
ATOM      8  C   UNL     1      71.933   1.759  73.738  1.00  0.00     0.161 A 
ATOM      9  C   UNL     1      71.168   0.631  73.405  1.00  0.00     0.158 A 
ATOM     10  C   UNL     1      69.857   0.504  73.888  1.00  0.00     0.062 A 
ATOM     11  C   UNL     1      69.311   1.502  74.705  1.00  0.00     0.022 A 
ENDROOT
BRANCH   9  12
ATOM     12  O   UNL     1      71.717  -0.358  72.591  1.00  0.00    -0.504 OA
ATOM     13  H   UNL     1      71.133  -1.009  72.080  1.00  0.00     0.293 HD
ENDBRANCH   9  12
BRANCH   8  14
ATOM     14  O   UNL     1      73.233   1.878  73.252  1.00  0.00    -0.504 OA
ATOM     15  H   UNL     1      73.530   2.690  72.723  1.00  0.00     0.293 HD
ENDBRANCH   8  14
TORSDOF 2
ENDMDL
