MODEL 1
REMARK VINA RESULT:    -5.723      0.000      0.000
REMARK INTER + INTRA:          -6.853
REMARK INTER:                  -6.727
REMARK INTRA:                  -0.127
REMARK UNBOUND:                -0.127
REMARK SMILES O=C([O-])C=Cc1ccc(O)c(O)c1
REMARK SMILES IDX 6 1 13 2 7 3 11 4 8 5 9 6 5 7 4 8 2 9 1 10 3 11 12 12 10 14
REMARK H PARENT 12 13 10 15
REMARK Flexibility Score: inf
ROOT
ATOM      1  C   UNL     1       6.722   5.368  20.493  1.00  0.00    -0.022 A 
ATOM      2  C   UNL     1       7.704   4.622  21.167  1.00  0.00     0.058 A 
ATOM      3  C   UNL     1       5.781   4.688  19.697  1.00  0.00     0.012 A 
ATOM      4  C   UNL     1       7.734   3.223  21.072  1.00  0.00     0.157 A 
ATOM      5  C   UNL     1       5.811   3.294  19.600  1.00  0.00     0.051 A 
ATOM      6  C   UNL     1       6.780   2.557  20.286  1.00  0.00     0.157 A 
ENDROOT
BRANCH   1   7
ATOM      7  C   UNL     1       6.742   6.846  20.620  1.00  0.00     0.010 C 
ATOM      8  C   UNL     1       7.815   7.603  20.350  1.00  0.00     0.025 C 
BRANCH   8   9
ATOM      9  C   UNL     1       7.794   9.070  20.477  1.00  0.00     0.064 C 
ATOM     10  O   UNL     1       7.467   9.804  19.506  1.00  0.00    -0.545 OA
ATOM     11  O   UNL     1       8.140   9.656  21.688  1.00  0.00    -0.545 OA
ENDBRANCH   8   9
ENDBRANCH   1   7
BRANCH   4  12
ATOM     12  O   UNL     1       8.709   2.495  21.754  1.00  0.00    -0.504 OA
ATOM     13  H   UNL     1       9.611   2.897  21.979  1.00  0.00     0.293 HD
ENDBRANCH   4  12
BRANCH   6  14
ATOM     14  O   UNL     1       6.783   1.168  20.170  1.00  0.00    -0.504 OA
ATOM     15  H   UNL     1       6.065   0.668  19.658  1.00  0.00     0.293 HD
ENDBRANCH   6  14
TORSDOF 4
ENDMDL
MODEL 2
REMARK VINA RESULT:    -5.487      0.861      1.909
REMARK INTER + INTRA:          -6.576
REMARK INTER:                  -6.448
REMARK INTRA:                  -0.128
REMARK UNBOUND:                -0.127
REMARK SMILES O=C([O-])C=Cc1ccc(O)c(O)c1
REMARK SMILES IDX 6 1 13 2 7 3 11 4 8 5 9 6 5 7 4 8 2 9 1 10 3 11 12 12 10 14
REMARK H PARENT 12 13 10 15
REMARK Flexibility Score: inf
ROOT
ATOM      1  C   UNL     1       6.835   5.294  20.791  1.00  0.00    -0.022 A 
ATOM      2  C   UNL     1       5.686   4.721  20.220  1.00  0.00     0.058 A 
ATOM      3  C   UNL     1       7.872   4.445  21.226  1.00  0.00     0.012 A 
ATOM      4  C   UNL     1       5.580   3.332  20.059  1.00  0.00     0.157 A 
ATOM      5  C   UNL     1       7.766   3.061  21.068  1.00  0.00     0.051 A 
ATOM      6  C   UNL     1       6.628   2.499  20.484  1.00  0.00     0.157 A 
ENDROOT
BRANCH   1   7
ATOM      7  C   UNL     1       6.892   6.769  20.946  1.00  0.00     0.010 C 
ATOM      8  C   UNL     1       7.795   7.548  20.334  1.00  0.00     0.025 C 
BRANCH   8   9
ATOM      9  C   UNL     1       7.814   9.010  20.503  1.00  0.00     0.064 C 
ATOM     10  O   UNL     1       7.498   9.780  19.557  1.00  0.00    -0.545 OA
ATOM     11  O   UNL     1       8.184   9.551  21.728  1.00  0.00    -0.545 OA
ENDBRANCH   8   9
ENDBRANCH   1   7
BRANCH   4  12
ATOM     12  O   UNL     1       4.438   2.778  19.482  1.00  0.00    -0.504 OA
ATOM     13  H   UNL     1       4.496   2.135  18.701  1.00  0.00     0.293 HD
ENDBRANCH   4  12
BRANCH   6  14
ATOM     14  O   UNL     1       6.553   1.114  20.339  1.00  0.00    -0.504 OA
ATOM     15  H   UNL     1       5.667   0.627  20.268  1.00  0.00     0.293 HD
ENDBRANCH   6  14
TORSDOF 4
ENDMDL
MODEL 3
REMARK VINA RESULT:    -5.390      1.465      2.101
REMARK INTER + INTRA:          -6.462
REMARK INTER:                  -6.333
REMARK INTRA:                  -0.129
REMARK UNBOUND:                -0.127
REMARK SMILES O=C([O-])C=Cc1ccc(O)c(O)c1
REMARK SMILES IDX 6 1 13 2 7 3 11 4 8 5 9 6 5 7 4 8 2 9 1 10 3 11 12 12 10 14
REMARK H PARENT 12 13 10 15
REMARK Flexibility Score: inf
ROOT
ATOM      1  C   UNL     1       6.344   4.266  19.883  1.00  0.00    -0.022 A 
ATOM      2  C   UNL     1       7.034   3.042  19.899  1.00  0.00     0.058 A 
ATOM      3  C   UNL     1       4.977   4.278  20.223  1.00  0.00     0.012 A 
ATOM      4  C   UNL     1       6.385   1.856  20.270  1.00  0.00     0.157 A 
ATOM      5  C   UNL     1       4.329   3.097  20.592  1.00  0.00     0.051 A 
ATOM      6  C   UNL     1       5.025   1.886  20.620  1.00  0.00     0.157 A 
ENDROOT
BRANCH   1   7
ATOM      7  C   UNL     1       7.076   5.490  19.473  1.00  0.00     0.010 C 
ATOM      8  C   UNL     1       7.406   6.478  20.316  1.00  0.00     0.025 C 
BRANCH   8   9
ATOM      9  C   UNL     1       8.144   7.674  19.875  1.00  0.00     0.064 C 
ATOM     10  O   UNL     1       8.246   8.688  20.616  1.00  0.00    -0.545 OA
ATOM     11  O   UNL     1       8.739   7.684  18.620  1.00  0.00    -0.545 OA
ENDBRANCH   8   9
ENDBRANCH   1   7
BRANCH   4  12
ATOM     12  O   UNL     1       7.085   0.650  20.291  1.00  0.00    -0.504 OA
ATOM     13  H   UNL     1       7.131   0.076  21.124  1.00  0.00     0.293 HD
ENDBRANCH   4  12
BRANCH   6  14
ATOM     14  O   UNL     1       4.351   0.724  20.994  1.00  0.00    -0.504 OA
ATOM     15  H   UNL     1       4.278   0.431  21.961  1.00  0.00     0.293 HD
ENDBRANCH   6  14
TORSDOF 4
ENDMDL
MODEL 4
REMARK VINA RESULT:    -5.006      1.731      5.715
REMARK INTER + INTRA:          -6.011
REMARK INTER:                  -5.874
REMARK INTRA:                  -0.136
REMARK UNBOUND:                -0.127
REMARK SMILES O=C([O-])C=Cc1ccc(O)c(O)c1
REMARK SMILES IDX 6 1 13 2 7 3 11 4 8 5 9 6 5 7 4 8 2 9 1 10 3 11 12 12 10 14
REMARK H PARENT 12 13 10 15
REMARK Flexibility Score: inf
ROOT
ATOM      1  C   UNL     1       6.964   6.032  19.791  1.00  0.00    -0.022 A 
ATOM      2  C   UNL     1       7.313   7.086  20.652  1.00  0.00     0.058 A 
ATOM      3  C   UNL     1       7.452   6.044  18.470  1.00  0.00     0.012 A 
ATOM      4  C   UNL     1       8.155   8.120  20.216  1.00  0.00     0.157 A 
ATOM      5  C   UNL     1       8.289   7.074  18.034  1.00  0.00     0.051 A 
ATOM      6  C   UNL     1       8.646   8.111  18.900  1.00  0.00     0.157 A 
ENDROOT
BRANCH   1   7
ATOM      7  C   UNL     1       6.063   4.969  20.301  1.00  0.00     0.010 C 
ATOM      8  C   UNL     1       5.992   3.738  19.775  1.00  0.00     0.025 C 
BRANCH   8   9
ATOM      9  C   UNL     1       5.093   2.703  20.314  1.00  0.00     0.064 C 
ATOM     10  O   UNL     1       5.516   1.548  20.584  1.00  0.00    -0.545 OA
ATOM     11  O   UNL     1       3.755   3.007  20.530  1.00  0.00    -0.545 OA
ENDBRANCH   8   9
ENDBRANCH   1   7
BRANCH   4  12
ATOM     12  O   UNL     1       8.501   9.155  21.084  1.00  0.00    -0.504 OA
ATOM     13  H   UNL     1       7.821   9.578  21.704  1.00  0.00     0.293 HD
ENDBRANCH   4  12
BRANCH   6  14
ATOM     14  O   UNL     1       9.484   9.125  18.436  1.00  0.00    -0.504 OA
ATOM     15  H   UNL     1      10.416   9.265  18.807  1.00  0.00     0.293 HD
ENDBRANCH   6  14
TORSDOF 4
ENDMDL
MODEL 5
REMARK VINA RESULT:    -4.940      1.941      2.100
REMARK INTER + INTRA:          -5.933
REMARK INTER:                  -5.796
REMARK INTRA:                  -0.137
REMARK UNBOUND:                -0.127
REMARK SMILES O=C([O-])C=Cc1ccc(O)c(O)c1
REMARK SMILES IDX 6 1 13 2 7 3 11 4 8 5 9 6 5 7 4 8 2 9 1 10 3 11 12 12 10 14
REMARK H PARENT 12 13 10 15
REMARK Flexibility Score: inf
ROOT
ATOM      1  C   UNL     1       6.108   4.814  20.314  1.00  0.00    -0.022 A 
ATOM      2  C   UNL     1       7.274   4.371  20.962  1.00  0.00     0.058 A 
ATOM      3  C   UNL     1       5.280   3.865  19.683  1.00  0.00     0.012 A 
ATOM      4  C   UNL     1       7.597   3.007  21.006  1.00  0.00     0.157 A 
ATOM      5  C   UNL     1       5.603   2.506  19.724  1.00  0.00     0.051 A 
ATOM      6  C   UNL     1       6.754   2.071  20.384  1.00  0.00     0.157 A 
ENDROOT
BRANCH   1   7
ATOM      7  C   UNL     1       5.818   6.269  20.290  1.00  0.00     0.010 C 
ATOM      8  C   UNL     1       4.641   6.787  19.915  1.00  0.00     0.025 C 
BRANCH   8   9
ATOM      9  C   UNL     1       4.385   8.238  19.914  1.00  0.00     0.064 C 
ATOM     10  O   UNL     1       4.783   8.970  18.969  1.00  0.00    -0.545 OA
ATOM     11  O   UNL     1       3.693   8.809  20.974  1.00  0.00    -0.545 OA
ENDBRANCH   8   9
ENDBRANCH   1   7
BRANCH   4  12
ATOM     12  O   UNL     1       8.752   2.581  21.661  1.00  0.00    -0.504 OA
ATOM     13  H   UNL     1       8.770   2.436  22.664  1.00  0.00     0.293 HD
ENDBRANCH   4  12
BRANCH   6  14
ATOM     14  O   UNL     1       7.048   0.708  20.409  1.00  0.00    -0.504 OA
ATOM     15  H   UNL     1       7.879   0.344  20.862  1.00  0.00     0.293 HD
ENDBRANCH   6  14
TORSDOF 4
ENDMDL
MODEL 6
REMARK VINA RESULT:    -4.922     13.511     13.935
REMARK INTER + INTRA:          -5.912
REMARK INTER:                  -5.784
REMARK INTRA:                  -0.128
REMARK UNBOUND:                -0.127
REMARK SMILES O=C([O-])C=Cc1ccc(O)c(O)c1
REMARK SMILES IDX 6 1 13 2 7 3 11 4 8 5 9 6 5 7 4 8 2 9 1 10 3 11 12 12 10 14
REMARK H PARENT 12 13 10 15
REMARK Flexibility Score: inf
ROOT
ATOM      1  C   UNL     1      15.408  -5.665  17.672  1.00  0.00    -0.022 A 
ATOM      2  C   UNL     1      15.168  -5.681  19.056  1.00  0.00     0.058 A 
ATOM      3  C   UNL     1      14.545  -6.388  16.825  1.00  0.00     0.012 A 
ATOM      4  C   UNL     1      14.075  -6.380  19.587  1.00  0.00     0.157 A 
ATOM      5  C   UNL     1      13.456  -7.086  17.354  1.00  0.00     0.051 A 
ATOM      6  C   UNL     1      13.214  -7.084  18.730  1.00  0.00     0.157 A 
ENDROOT
BRANCH   1   7
ATOM      7  C   UNL     1      16.585  -4.918  17.163  1.00  0.00     0.010 C 
ATOM      8  C   UNL     1      16.571  -3.607  16.885  1.00  0.00     0.025 C 
BRANCH   8   9
ATOM      9  C   UNL     1      17.762  -2.896  16.392  1.00  0.00     0.064 C 
ATOM     10  O   UNL     1      18.909  -3.413  16.468  1.00  0.00    -0.545 OA
ATOM     11  O   UNL     1      17.620  -1.632  15.833  1.00  0.00    -0.545 OA
ENDBRANCH   8   9
ENDBRANCH   1   7
BRANCH   4  12
ATOM     12  O   UNL     1      13.843  -6.379  20.963  1.00  0.00    -0.504 OA
ATOM     13  H   UNL     1      13.463  -5.568  21.437  1.00  0.00     0.293 HD
ENDBRANCH   4  12
BRANCH   6  14
ATOM     14  O   UNL     1      12.118  -7.789  19.227  1.00  0.00    -0.504 OA
ATOM     15  H   UNL     1      11.816  -8.669  18.824  1.00  0.00     0.293 HD
ENDBRANCH   6  14
TORSDOF 4
ENDMDL
MODEL 7
REMARK VINA RESULT:    -4.909      5.095      8.390
REMARK INTER + INTRA:          -5.897
REMARK INTER:                  -5.771
REMARK INTRA:                  -0.126
REMARK UNBOUND:                -0.127
REMARK SMILES O=C([O-])C=Cc1ccc(O)c(O)c1
REMARK SMILES IDX 6 1 13 2 7 3 11 4 8 5 9 6 5 7 4 8 2 9 1 10 3 11 12 12 10 14
REMARK H PARENT 12 13 10 15
REMARK Flexibility Score: inf
ROOT
ATOM      1  C   UNL     1       4.131   0.614  23.145  1.00  0.00    -0.022 A 
ATOM      2  C   UNL     1       3.479   0.250  21.955  1.00  0.00     0.058 A 
ATOM      3  C   UNL     1       4.894   1.798  23.167  1.00  0.00     0.012 A 
ATOM      4  C   UNL     1       3.563   1.061  20.814  1.00  0.00     0.157 A 
ATOM      5  C   UNL     1       4.979   2.605  22.030  1.00  0.00     0.051 A 
ATOM      6  C   UNL     1       4.316   2.246  20.854  1.00  0.00     0.157 A 
ENDROOT
BRANCH   1   7
ATOM      7  C   UNL     1       4.017  -0.285  24.321  1.00  0.00     0.010 C 
ATOM      8  C   UNL     1       4.828  -1.329  24.540  1.00  0.00     0.025 C 
BRANCH   8   9
ATOM      9  C   UNL     1       4.693  -2.193  25.725  1.00  0.00     0.064 C 
ATOM     10  O   UNL     1       3.578  -2.356  26.290  1.00  0.00    -0.545 OA
ATOM     11  O   UNL     1       5.813  -2.842  26.228  1.00  0.00    -0.545 OA
ENDBRANCH   8   9
ENDBRANCH   1   7
BRANCH   4  12
ATOM     12  O   UNL     1       2.903   0.692  19.642  1.00  0.00    -0.504 OA
ATOM     13  H   UNL     1       2.869  -0.273  19.333  1.00  0.00     0.293 HD
ENDBRANCH   4  12
BRANCH   6  14
ATOM     14  O   UNL     1       4.419   3.073  19.736  1.00  0.00    -0.504 OA
ATOM     15  H   UNL     1       5.304   3.250  19.276  1.00  0.00     0.293 HD
ENDBRANCH   6  14
TORSDOF 4
ENDMDL
MODEL 8
REMARK VINA RESULT:    -4.908      2.011      5.711
REMARK INTER + INTRA:          -5.896
REMARK INTER:                  -5.772
REMARK INTRA:                  -0.124
REMARK UNBOUND:                -0.127
REMARK SMILES O=C([O-])C=Cc1ccc(O)c(O)c1
REMARK SMILES IDX 6 1 13 2 7 3 11 4 8 5 9 6 5 7 4 8 2 9 1 10 3 11 12 12 10 14
REMARK H PARENT 12 13 10 15
REMARK Flexibility Score: inf
ROOT
ATOM      1  C   UNL     1       6.525   5.769  20.238  1.00  0.00    -0.022 A 
ATOM      2  C   UNL     1       7.157   5.713  18.984  1.00  0.00     0.058 A 
ATOM      3  C   UNL     1       6.734   6.899  21.053  1.00  0.00     0.012 A 
ATOM      4  C   UNL     1       7.962   6.771  18.538  1.00  0.00     0.157 A 
ATOM      5  C   UNL     1       7.537   7.953  20.610  1.00  0.00     0.051 A 
ATOM      6  C   UNL     1       8.150   7.898  19.356  1.00  0.00     0.157 A 
ENDROOT
BRANCH   1   7
ATOM      7  C   UNL     1       5.692   4.618  20.666  1.00  0.00     0.010 C 
ATOM      8  C   UNL     1       6.158   3.589  21.386  1.00  0.00     0.025 C 
BRANCH   8   9
ATOM      9  C   UNL     1       5.299   2.468  21.803  1.00  0.00     0.064 C 
ATOM     10  O   UNL     1       4.951   2.325  23.005  1.00  0.00    -0.545 OA
ATOM     11  O   UNL     1       4.863   1.553  20.853  1.00  0.00    -0.545 OA
ENDBRANCH   8   9
ENDBRANCH   1   7
BRANCH   4  12
ATOM     12  O   UNL     1       8.576   6.706  17.287  1.00  0.00    -0.504 OA
ATOM     13  H   UNL     1       9.431   6.183  17.142  1.00  0.00     0.293 HD
ENDBRANCH   4  12
BRANCH   6  14
ATOM     14  O   UNL     1       8.944   8.966  18.941  1.00  0.00    -0.504 OA
ATOM     15  H   UNL     1       8.610   9.923  18.955  1.00  0.00     0.293 HD
ENDBRANCH   6  14
TORSDOF 4
ENDMDL
MODEL 9
REMARK VINA RESULT:    -4.795      2.734      3.481
REMARK INTER + INTRA:          -5.763
REMARK INTER:                  -5.624
REMARK INTRA:                  -0.139
REMARK UNBOUND:                -0.127
REMARK SMILES O=C([O-])C=Cc1ccc(O)c(O)c1
REMARK SMILES IDX 6 1 13 2 7 3 11 4 8 5 9 6 5 7 4 8 2 9 1 10 3 11 12 12 10 14
REMARK H PARENT 12 13 10 15
REMARK Flexibility Score: inf
ROOT
ATOM      1  C   UNL     1       5.505   3.155  20.570  1.00  0.00    -0.022 A 
ATOM      2  C   UNL     1       5.839   1.854  20.983  1.00  0.00     0.058 A 
ATOM      3  C   UNL     1       4.150   3.542  20.573  1.00  0.00     0.012 A 
ATOM      4  C   UNL     1       4.847   0.962  21.417  1.00  0.00     0.157 A 
ATOM      5  C   UNL     1       3.162   2.653  21.004  1.00  0.00     0.051 A 
ATOM      6  C   UNL     1       3.502   1.366  21.429  1.00  0.00     0.157 A 
ENDROOT
BRANCH   1   7
ATOM      7  C   UNL     1       6.591   4.056  20.111  1.00  0.00     0.010 C 
ATOM      8  C   UNL     1       6.384   5.161  19.381  1.00  0.00     0.025 C 
BRANCH   8   9
ATOM      9  C   UNL     1       7.487   6.037  18.952  1.00  0.00     0.064 C 
ATOM     10  O   UNL     1       7.757   6.197  17.732  1.00  0.00    -0.545 OA
ATOM     11  O   UNL     1       8.242   6.702  19.911  1.00  0.00    -0.545 OA
ENDBRANCH   8   9
ENDBRANCH   1   7
BRANCH   4  12
ATOM     12  O   UNL     1       5.195  -0.323  21.834  1.00  0.00    -0.504 OA
ATOM     13  H   UNL     1       5.627  -0.490  22.735  1.00  0.00     0.293 HD
ENDBRANCH   4  12
BRANCH   6  14
ATOM     14  O   UNL     1       2.494   0.503  21.855  1.00  0.00    -0.504 OA
ATOM     15  H   UNL     1       1.740   0.212  21.243  1.00  0.00     0.293 HD
ENDBRANCH   6  14
TORSDOF 4
ENDMDL
