MODEL 1
REMARK VINA RESULT:    16.146      0.000      0.000
REMARK INTER + INTRA:          17.562
REMARK INTER:                  17.562
REMARK INTRA:                   0.000
REMARK UNBOUND:                 0.000
REMARK SMILES Cc1cc(O)c2c(c1)C(=O)c1cc(O)cc(O)c1C2=O
REMARK SMILES IDX 1 1 2 2 8 3 7 4 6 5 4 6 3 7 19 8 20 9 18 10 11 11 9 12 10 13
REMARK SMILES IDX 12 14 13 15 15 16 16 17 5 18 17 20 14 22
REMARK H PARENT 5 19 17 21 14 23
REMARK Flexibility Score: inf
ROOT
ATOM      1  C   UNL     1       0.914  -1.503  -9.979  1.00  0.00     0.044 C 
ATOM      2  C   UNL     1       1.004  -0.741  -8.689  1.00  0.00    -0.047 A 
ATOM      3  C   UNL     1      -0.097  -0.014  -8.222  1.00  0.00     0.016 A 
ATOM      4  C   UNL     1      -0.013   0.735  -7.035  1.00  0.00     0.038 A 
ATOM      5  C   UNL     1       1.196   0.761  -6.308  1.00  0.00     0.076 A 
ATOM      6  C   UNL     1       2.315   0.048  -6.798  1.00  0.00     0.127 A 
ATOM      7  C   UNL     1       2.211  -0.691  -7.983  1.00  0.00     0.050 A 
ATOM      8  C   UNL     1       1.258   1.524  -5.034  1.00  0.00     0.201 C 
ATOM      9  O   UNL     1       2.173   1.273  -4.205  1.00  0.00    -0.288 OA
ATOM     10  C   UNL     1       0.181   2.493  -4.689  1.00  0.00     0.076 A 
ATOM     11  C   UNL     1      -1.046   2.412  -5.390  1.00  0.00     0.041 A 
ATOM     12  C   UNL     1      -1.184   1.494  -6.545  1.00  0.00     0.194 C 
ATOM     13  O   UNL     1      -2.299   1.373  -7.123  1.00  0.00    -0.289 OA
ATOM     14  C   UNL     1      -2.132   3.212  -4.993  1.00  0.00     0.059 A 
ATOM     15  C   UNL     1      -2.007   4.100  -3.922  1.00  0.00     0.120 A 
ATOM     16  C   UNL     1      -0.787   4.217  -3.259  1.00  0.00     0.093 A 
ATOM     17  C   UNL     1       0.317   3.454  -3.650  1.00  0.00     0.131 A 
ENDROOT
BRANCH   6  18
ATOM     18  O   UNL     1       3.532   0.081  -6.118  1.00  0.00    -0.507 OA
ATOM     19  H   UNL     1       4.408   0.252  -6.599  1.00  0.00     0.293 HD
ENDBRANCH   6  18
BRANCH  17  20
ATOM     20  O   UNL     1       1.529   3.712  -3.004  1.00  0.00    -0.507 OA
ATOM     21  H   UNL     1       1.709   3.483  -2.036  1.00  0.00     0.293 HD
ENDBRANCH  17  20
BRANCH  15  22
ATOM     22  O   UNL     1      -3.088   4.880  -3.517  1.00  0.00    -0.508 OA
ATOM     23  H   UNL     1      -3.701   4.587  -2.766  1.00  0.00     0.293 HD
ENDBRANCH  15  22
TORSDOF 3
ENDMDL
MODEL 2
REMARK VINA RESULT:    16.998      1.543      6.200
REMARK INTER + INTRA:          18.489
REMARK INTER:                  18.489
REMARK INTRA:                   0.000
REMARK UNBOUND:                 0.000
REMARK SMILES Cc1cc(O)c2c(c1)C(=O)c1cc(O)cc(O)c1C2=O
REMARK SMILES IDX 1 1 2 2 8 3 7 4 6 5 4 6 3 7 19 8 20 9 18 10 11 11 9 12 10 13
REMARK SMILES IDX 12 14 13 15 15 16 16 17 5 18 17 20 14 22
REMARK H PARENT 5 19 17 21 14 23
REMARK Flexibility Score: inf
ROOT
ATOM      1  C   UNL     1      -1.914   4.792  -3.112  1.00  0.00     0.044 C 
ATOM      2  C   UNL     1      -1.469   3.759  -4.107  1.00  0.00    -0.047 A 
ATOM      3  C   UNL     1      -0.195   3.189  -4.008  1.00  0.00     0.016 A 
ATOM      4  C   UNL     1       0.247   2.249  -4.955  1.00  0.00     0.038 A 
ATOM      5  C   UNL     1      -0.599   1.879  -6.022  1.00  0.00     0.076 A 
ATOM      6  C   UNL     1      -1.875   2.478  -6.134  1.00  0.00     0.127 A 
ATOM      7  C   UNL     1      -2.296   3.414  -5.180  1.00  0.00     0.050 A 
ATOM      8  C   UNL     1      -0.134   0.854  -6.992  1.00  0.00     0.201 C 
ATOM      9  O   UNL     1      -0.976   0.253  -7.711  1.00  0.00    -0.288 OA
ATOM     10  C   UNL     1       1.301   0.456  -7.031  1.00  0.00     0.076 A 
ATOM     11  C   UNL     1       2.120   0.785  -5.924  1.00  0.00     0.041 A 
ATOM     12  C   UNL     1       1.593   1.646  -4.838  1.00  0.00     0.194 C 
ATOM     13  O   UNL     1       2.301   1.880  -3.821  1.00  0.00    -0.289 OA
ATOM     14  C   UNL     1       3.438   0.301  -5.861  1.00  0.00     0.059 A 
ATOM     15  C   UNL     1       3.955  -0.491  -6.889  1.00  0.00     0.120 A 
ATOM     16  C   UNL     1       3.168  -0.778  -8.003  1.00  0.00     0.093 A 
ATOM     17  C   UNL     1       1.863  -0.287  -8.105  1.00  0.00     0.131 A 
ENDROOT
BRANCH   6  18
ATOM     18  O   UNL     1      -2.721   2.155  -7.195  1.00  0.00    -0.507 OA
ATOM     19  H   UNL     1      -3.481   2.764  -7.476  1.00  0.00     0.293 HD
ENDBRANCH   6  18
BRANCH  17  20
ATOM     20  O   UNL     1       1.183  -0.531  -9.301  1.00  0.00    -0.507 OA
ATOM     21  H   UNL     1       1.052   0.164 -10.023  1.00  0.00     0.293 HD
ENDBRANCH  17  20
BRANCH  15  22
ATOM     22  O   UNL     1       5.255  -0.986  -6.820  1.00  0.00    -0.508 OA
ATOM     23  H   UNL     1       5.677  -1.245  -5.936  1.00  0.00     0.293 HD
ENDBRANCH  15  22
TORSDOF 3
ENDMDL
