MODEL 1
REMARK VINA RESULT:    -5.039      0.000      0.000
REMARK INTER + INTRA:          -5.516
REMARK INTER:                  -5.480
REMARK INTRA:                  -0.036
REMARK UNBOUND:                -0.036
REMARK SMILES O=C([O-])c1ccc(O)cc1
REMARK SMILES IDX 7 1 6 2 9 3 5 4 10 5 4 6 8 7 2 9 1 10 3 11
REMARK H PARENT 8 8
REMARK Flexibility Score: inf
ROOT
ATOM      1  C   UNL     1      13.044   6.081  -9.601  1.00  0.00     0.115 A 
ATOM      2  C   UNL     1      13.276   6.185 -10.975  1.00  0.00     0.047 A 
ATOM      3  C   UNL     1      11.728   6.056  -9.120  1.00  0.00     0.047 A 
ATOM      4  C   UNL     1      12.203   6.263 -11.868  1.00  0.00     0.014 A 
ATOM      5  C   UNL     1      10.652   6.133 -10.009  1.00  0.00     0.014 A 
ATOM      6  C   UNL     1      10.878   6.238 -11.393  1.00  0.00    -0.003 A 
ENDROOT
BRANCH   1   7
ATOM      7  O   UNL     1      14.123   6.004  -8.725  1.00  0.00    -0.508 OA
ATOM      8  H   UNL     1      15.074   6.154  -9.041  1.00  0.00     0.293 HD
ENDBRANCH   1   7
BRANCH   6   9
ATOM      9  C   UNL     1       9.738   6.320 -12.333  1.00  0.00     0.071 C 
ATOM     10  O   UNL     1       8.556   6.386 -11.902  1.00  0.00    -0.545 OA
ATOM     11  O   UNL     1       9.955   6.325 -13.706  1.00  0.00    -0.545 OA
ENDBRANCH   6   9
TORSDOF 2
ENDMDL
MODEL 2
REMARK VINA RESULT:    -5.031      0.075      1.533
REMARK INTER + INTRA:          -5.508
REMARK INTER:                  -5.472
REMARK INTRA:                  -0.036
REMARK UNBOUND:                -0.036
REMARK SMILES O=C([O-])c1ccc(O)cc1
REMARK SMILES IDX 7 1 6 2 9 3 5 4 10 5 4 6 8 7 2 9 1 10 3 11
REMARK H PARENT 8 8
REMARK Flexibility Score: inf
ROOT
ATOM      1  C   UNL     1      13.028   6.093  -9.619  1.00  0.00     0.115 A 
ATOM      2  C   UNL     1      11.725   6.032  -9.118  1.00  0.00     0.047 A 
ATOM      3  C   UNL     1      13.237   6.249 -10.996  1.00  0.00     0.047 A 
ATOM      4  C   UNL     1      10.632   6.126  -9.985  1.00  0.00     0.014 A 
ATOM      5  C   UNL     1      12.146   6.343 -11.866  1.00  0.00     0.014 A 
ATOM      6  C   UNL     1      10.832   6.283 -11.370  1.00  0.00    -0.003 A 
ENDROOT
BRANCH   1   7
ATOM      7  O   UNL     1      14.107   5.998  -8.743  1.00  0.00    -0.508 OA
ATOM      8  H   UNL     1      13.971   5.891  -7.745  1.00  0.00     0.293 HD
ENDBRANCH   1   7
BRANCH   6   9
ATOM      9  C   UNL     1       9.679   6.383 -12.292  1.00  0.00     0.071 C 
ATOM     10  O   UNL     1       8.504   6.449 -11.843  1.00  0.00    -0.545 OA
ATOM     11  O   UNL     1       9.877   6.406 -13.667  1.00  0.00    -0.545 OA
ENDBRANCH   6   9
TORSDOF 2
ENDMDL
MODEL 3
REMARK VINA RESULT:    -5.005      1.685      4.336
REMARK INTER + INTRA:          -5.480
REMARK INTER:                  -5.450
REMARK INTRA:                  -0.030
REMARK UNBOUND:                -0.036
REMARK SMILES O=C([O-])c1ccc(O)cc1
REMARK SMILES IDX 7 1 6 2 9 3 5 4 10 5 4 6 8 7 2 9 1 10 3 11
REMARK H PARENT 8 8
REMARK Flexibility Score: inf
ROOT
ATOM      1  C   UNL     1      11.007   5.001 -13.617  1.00  0.00     0.115 A 
ATOM      2  C   UNL     1      12.403   4.941 -13.637  1.00  0.00     0.047 A 
ATOM      3  C   UNL     1      10.349   5.493 -12.482  1.00  0.00     0.047 A 
ATOM      4  C   UNL     1      13.142   5.370 -12.530  1.00  0.00     0.014 A 
ATOM      5  C   UNL     1      11.085   5.922 -11.374  1.00  0.00     0.014 A 
ATOM      6  C   UNL     1      12.490   5.865 -11.386  1.00  0.00    -0.003 A 
ENDROOT
BRANCH   1   7
ATOM      7  O   UNL     1      10.284   4.570 -14.727  1.00  0.00    -0.508 OA
ATOM      8  H   UNL     1      10.660   4.646 -15.665  1.00  0.00     0.293 HD
ENDBRANCH   1   7
BRANCH   6   9
ATOM      9  C   UNL     1      13.267   6.321 -10.212  1.00  0.00     0.071 C 
ATOM     10  O   UNL     1      14.205   7.151 -10.346  1.00  0.00    -0.545 OA
ATOM     11  O   UNL     1      12.973   5.838  -8.942  1.00  0.00    -0.545 OA
ENDBRANCH   6   9
TORSDOF 2
ENDMDL
MODEL 4
REMARK VINA RESULT:    -4.978      4.696      5.572
REMARK INTER + INTRA:          -5.451
REMARK INTER:                  -5.420
REMARK INTRA:                  -0.031
REMARK UNBOUND:                -0.036
REMARK SMILES O=C([O-])c1ccc(O)cc1
REMARK SMILES IDX 7 1 6 2 9 3 5 4 10 5 4 6 8 7 2 9 1 10 3 11
REMARK H PARENT 8 8
REMARK Flexibility Score: inf
ROOT
ATOM      1  C   UNL     1      12.005   5.750 -15.058  1.00  0.00     0.115 A 
ATOM      2  C   UNL     1      10.656   5.416 -15.207  1.00  0.00     0.047 A 
ATOM      3  C   UNL     1      12.485   6.955 -15.588  1.00  0.00     0.047 A 
ATOM      4  C   UNL     1       9.787   6.280 -15.879  1.00  0.00     0.014 A 
ATOM      5  C   UNL     1      11.618   7.821 -16.262  1.00  0.00     0.014 A 
ATOM      6  C   UNL     1      10.259   7.493 -16.414  1.00  0.00    -0.003 A 
ENDROOT
BRANCH   1   7
ATOM      7  O   UNL     1      12.859   4.879 -14.386  1.00  0.00    -0.508 OA
ATOM      8  H   UNL     1      13.783   4.662 -14.743  1.00  0.00     0.293 HD
ENDBRANCH   1   7
BRANCH   6   9
ATOM      9  C   UNL     1       9.344   8.411 -17.127  1.00  0.00     0.071 C 
ATOM     10  O   UNL     1       8.207   8.677 -16.655  1.00  0.00    -0.545 OA
ATOM     11  O   UNL     1       9.726   8.993 -18.330  1.00  0.00    -0.545 OA
ENDBRANCH   6   9
TORSDOF 2
ENDMDL
MODEL 5
REMARK VINA RESULT:    -4.972      4.083      6.034
REMARK INTER + INTRA:          -5.444
REMARK INTER:                  -5.410
REMARK INTRA:                  -0.033
REMARK UNBOUND:                -0.036
REMARK SMILES O=C([O-])c1ccc(O)cc1
REMARK SMILES IDX 7 1 6 2 9 3 5 4 10 5 4 6 8 7 2 9 1 10 3 11
REMARK H PARENT 8 8
REMARK Flexibility Score: inf
ROOT
ATOM      1  C   UNL     1      11.330   8.687 -16.907  1.00  0.00     0.115 A 
ATOM      2  C   UNL     1      12.614   8.252 -16.567  1.00  0.00     0.047 A 
ATOM      3  C   UNL     1      10.212   7.999 -16.417  1.00  0.00     0.047 A 
ATOM      4  C   UNL     1      12.785   7.138 -15.740  1.00  0.00     0.014 A 
ATOM      5  C   UNL     1      10.379   6.884 -15.591  1.00  0.00     0.014 A 
ATOM      6  C   UNL     1      11.667   6.441 -15.243  1.00  0.00    -0.003 A 
ENDROOT
BRANCH   1   7
ATOM      7  O   UNL     1      11.176   9.799 -17.731  1.00  0.00    -0.508 OA
ATOM      8  H   UNL     1      11.976  10.281 -18.125  1.00  0.00     0.293 HD
ENDBRANCH   1   7
BRANCH   6   9
ATOM      9  C   UNL     1      11.841   5.261 -14.368  1.00  0.00     0.071 C 
ATOM     10  O   UNL     1      12.835   5.175 -13.598  1.00  0.00    -0.545 OA
ATOM     11  O   UNL     1      10.910   4.229 -14.383  1.00  0.00    -0.545 OA
ENDBRANCH   6   9
TORSDOF 2
ENDMDL
MODEL 6
REMARK VINA RESULT:    -4.948      1.899      2.889
REMARK INTER + INTRA:          -5.417
REMARK INTER:                  -5.385
REMARK INTRA:                  -0.032
REMARK UNBOUND:                -0.036
REMARK SMILES O=C([O-])c1ccc(O)cc1
REMARK SMILES IDX 7 1 6 2 9 3 5 4 10 5 4 6 8 7 2 9 1 10 3 11
REMARK H PARENT 8 8
REMARK Flexibility Score: inf
ROOT
ATOM      1  C   UNL     1      11.065   6.308 -10.323  1.00  0.00     0.115 A 
ATOM      2  C   UNL     1       9.871   5.934 -10.946  1.00  0.00     0.047 A 
ATOM      3  C   UNL     1      12.261   6.301 -11.054  1.00  0.00     0.047 A 
ATOM      4  C   UNL     1       9.867   5.557 -12.292  1.00  0.00     0.014 A 
ATOM      5  C   UNL     1      12.260   5.924 -12.400  1.00  0.00     0.014 A 
ATOM      6  C   UNL     1      11.063   5.548 -13.034  1.00  0.00    -0.003 A 
ENDROOT
BRANCH   1   7
ATOM      7  O   UNL     1      11.054   6.681  -8.981  1.00  0.00    -0.508 OA
ATOM      8  H   UNL     1      10.863   6.009  -8.247  1.00  0.00     0.293 HD
ENDBRANCH   1   7
BRANCH   6   9
ATOM      9  C   UNL     1      11.064   5.150 -14.459  1.00  0.00     0.071 C 
ATOM     10  O   UNL     1      12.000   4.449 -14.928  1.00  0.00    -0.545 OA
ATOM     11  O   UNL     1      10.032   5.545 -15.302  1.00  0.00    -0.545 OA
ENDBRANCH   6   9
TORSDOF 2
ENDMDL
MODEL 7
REMARK VINA RESULT:    -4.911      1.071      4.231
REMARK INTER + INTRA:          -5.378
REMARK INTER:                  -5.343
REMARK INTRA:                  -0.035
REMARK UNBOUND:                -0.036
REMARK SMILES O=C([O-])c1ccc(O)cc1
REMARK SMILES IDX 7 1 6 2 9 3 5 4 10 5 4 6 8 7 2 9 1 10 3 11
REMARK H PARENT 8 8
REMARK Flexibility Score: inf
ROOT
ATOM      1  C   UNL     1       9.687   6.376 -12.357  1.00  0.00     0.115 A 
ATOM      2  C   UNL     1      10.932   6.703 -12.899  1.00  0.00     0.047 A 
ATOM      3  C   UNL     1       9.585   6.051 -10.997  1.00  0.00     0.047 A 
ATOM      4  C   UNL     1      12.073   6.709 -12.091  1.00  0.00     0.014 A 
ATOM      5  C   UNL     1      10.724   6.055 -10.187  1.00  0.00     0.014 A 
ATOM      6  C   UNL     1      11.981   6.384 -10.725  1.00  0.00    -0.003 A 
ENDROOT
BRANCH   1   7
ATOM      7  O   UNL     1       8.559   6.374 -13.174  1.00  0.00    -0.508 OA
ATOM      8  H   UNL     1       7.728   5.850 -12.928  1.00  0.00     0.293 HD
ENDBRANCH   1   7
BRANCH   6   9
ATOM      9  C   UNL     1      13.185   6.389  -9.865  1.00  0.00     0.071 C 
ATOM     10  O   UNL     1      14.219   7.017 -10.213  1.00  0.00    -0.545 OA
ATOM     11  O   UNL     1      13.192   5.698  -8.659  1.00  0.00    -0.545 OA
ENDBRANCH   6   9
TORSDOF 2
ENDMDL
MODEL 8
REMARK VINA RESULT:    -4.875      4.861      7.267
REMARK INTER + INTRA:          -5.339
REMARK INTER:                  -5.304
REMARK INTRA:                  -0.035
REMARK UNBOUND:                -0.036
REMARK SMILES O=C([O-])c1ccc(O)cc1
REMARK SMILES IDX 7 1 6 2 9 3 5 4 10 5 4 6 8 7 2 9 1 10 3 11
REMARK H PARENT 8 8
REMARK Flexibility Score: inf
ROOT
ATOM      1  C   UNL     1       9.502   8.551 -17.763  1.00  0.00     0.115 A 
ATOM      2  C   UNL     1       9.280   7.708 -16.671  1.00  0.00     0.047 A 
ATOM      3  C   UNL     1      10.775   9.101 -17.968  1.00  0.00     0.047 A 
ATOM      4  C   UNL     1      10.321   7.412 -15.786  1.00  0.00     0.014 A 
ATOM      5  C   UNL     1      11.818   8.807 -17.085  1.00  0.00     0.014 A 
ATOM      6  C   UNL     1      11.603   7.959 -15.985  1.00  0.00    -0.003 A 
ENDROOT
BRANCH   1   7
ATOM      7  O   UNL     1       8.455   8.837 -18.636  1.00  0.00    -0.508 OA
ATOM      8  H   UNL     1       8.498   8.582 -19.616  1.00  0.00     0.293 HD
ENDBRANCH   1   7
BRANCH   6   9
ATOM      9  C   UNL     1      12.708   7.650 -15.051  1.00  0.00     0.071 C 
ATOM     10  O   UNL     1      12.660   6.627 -14.317  1.00  0.00    -0.545 OA
ATOM     11  O   UNL     1      13.817   8.484 -14.971  1.00  0.00    -0.545 OA
ENDBRANCH   6   9
TORSDOF 2
ENDMDL
MODEL 9
REMARK VINA RESULT:    -4.830      4.932      5.800
REMARK INTER + INTRA:          -5.289
REMARK INTER:                  -5.253
REMARK INTRA:                  -0.036
REMARK UNBOUND:                -0.036
REMARK SMILES O=C([O-])c1ccc(O)cc1
REMARK SMILES IDX 7 1 6 2 9 3 5 4 10 5 4 6 8 7 2 9 1 10 3 11
REMARK H PARENT 8 8
REMARK Flexibility Score: inf
ROOT
ATOM      1  C   UNL     1      12.903   7.778 -16.214  1.00  0.00     0.115 A 
ATOM      2  C   UNL     1      12.226   8.680 -17.038  1.00  0.00     0.047 A 
ATOM      3  C   UNL     1      12.176   6.940 -15.357  1.00  0.00     0.047 A 
ATOM      4  C   UNL     1      10.830   8.748 -17.012  1.00  0.00     0.014 A 
ATOM      5  C   UNL     1      10.780   7.006 -15.328  1.00  0.00     0.014 A 
ATOM      6  C   UNL     1      10.092   7.910 -16.155  1.00  0.00    -0.003 A 
ENDROOT
BRANCH   1   7
ATOM      7  O   UNL     1      14.294   7.721 -16.251  1.00  0.00    -0.508 OA
ATOM      8  H   UNL     1      14.821   7.188 -15.569  1.00  0.00     0.293 HD
ENDBRANCH   1   7
BRANCH   6   9
ATOM      9  C   UNL     1       8.614   7.978 -16.123  1.00  0.00     0.071 C 
ATOM     10  O   UNL     1       7.993   8.783 -16.867  1.00  0.00    -0.545 OA
ATOM     11  O   UNL     1       7.889   7.154 -15.270  1.00  0.00    -0.545 OA
ENDBRANCH   6   9
TORSDOF 2
ENDMDL
