MODEL 1
REMARK VINA RESULT:    -6.785      0.000      0.000
REMARK INTER + INTRA:         -10.998
REMARK INTER:                  -8.966
REMARK INTRA:                  -2.032
REMARK UNBOUND:                -2.032
REMARK SMILES CC[C@H](C=C[C@H](C)[C@H]1CC[C@@H]2[C@H]3CC=C4C[C@H](O)CC[C@@]4(C)[C@@H]3CC[C@@]21C)C(C)C
REMARK SMILES IDX 6 1 7 2 5 3 4 4 3 5 2 6 1 7 28 8 29 9 30 10 8 11 9 12 26 13
REMARK SMILES IDX 10 14 11 15 25 16 27 17 12 18 24 19 23 20 13 21 21 22 14 23
REMARK SMILES IDX 15 24 20 25 22 26 16 27 19 28 17 29 18 30
REMARK H PARENT 18 31
REMARK Flexibility Score: inf
ROOT
ATOM      1  C   UNL     1     147.474 140.130 137.029  1.00  0.00     0.012 C 
ATOM      2  C   UNL     1     147.532 141.617 136.657  1.00  0.00     0.012 C 
ENDROOT
BRANCH   1   3
ATOM      3  C   UNL     1     148.730 139.724 137.788  1.00  0.00    -0.028 C 
ATOM      4  C   UNL     1     148.952 139.934 139.102  1.00  0.00    -0.027 C 
BRANCH   4   5
ATOM      5  C   UNL     1     148.042 140.695 140.056  1.00  0.00     0.014 C 
BRANCH   5   6
ATOM      6  C   UNL     1     147.987 140.004 141.445  1.00  0.00     0.004 C 
ATOM      7  C   UNL     1     149.077 138.968 141.732  1.00  0.00     0.004 C 
ENDBRANCH   5   6
BRANCH   5   8
ATOM      8  C   UNL     1     148.339 142.232 140.038  1.00  0.00    -0.011 C 
ATOM      9  C   UNL     1     147.407 143.019 140.970  1.00  0.00     0.008 C 
ATOM     10  C   UNL     1     149.810 142.621 140.281  1.00  0.00     0.008 C 
ENDBRANCH   5   8
ENDBRANCH   4   5
ENDBRANCH   1   3
BRANCH   1  11
ATOM     11  C   UNL     1     146.113 139.719 137.705  1.00  0.00     0.002 C 
ATOM     12  C   UNL     1     144.948 140.634 137.285  1.00  0.00     0.005 C 
ATOM     13  C   UNL     1     145.541 138.260 137.636  1.00  0.00    -0.026 C 
ATOM     14  C   UNL     1     143.669 139.800 137.378  1.00  0.00     0.005 C 
ATOM     15  C   UNL     1     144.051 138.465 138.044  1.00  0.00    -0.001 C 
ATOM     16  C   UNL     1     146.235 137.220 138.561  1.00  0.00     0.007 C 
ATOM     17  C   UNL     1     145.588 137.682 136.197  1.00  0.00     0.012 C 
ATOM     18  C   UNL     1     143.778 138.536 139.591  1.00  0.00     0.000 C 
ATOM     19  C   UNL     1     146.029 137.472 140.048  1.00  0.00     0.005 C 
ATOM     20  C   UNL     1     144.528 137.445 140.397  1.00  0.00     0.003 C 
ATOM     21  C   UNL     1     142.263 138.390 139.854  1.00  0.00     0.031 C 
ATOM     22  C   UNL     1     144.251 137.546 141.951  1.00  0.00    -0.008 C 
ATOM     23  C   UNL     1     141.915 138.260 141.307  1.00  0.00    -0.027 C 
ATOM     24  C   UNL     1     142.753 137.748 142.230  1.00  0.00    -0.065 C 
ATOM     25  C   UNL     1     144.703 136.214 142.633  1.00  0.00     0.014 C 
ATOM     26  C   UNL     1     145.022 138.737 142.587  1.00  0.00     0.016 C 
ATOM     27  C   UNL     1     142.232 137.541 143.642  1.00  0.00     0.063 C 
ATOM     28  C   UNL     1     144.253 136.079 144.096  1.00  0.00     0.033 C 
ATOM     29  C   UNL     1     142.727 136.206 144.215  1.00  0.00     0.118 C 
BRANCH  29  30
ATOM     30  O   UNL     1     142.320 136.060 145.552  1.00  0.00    -0.393 OA
ATOM     31  H   UNL     1     141.399 135.686 145.547  1.00  0.00     0.210 HD
ENDBRANCH  29  30
ENDBRANCH   1  11
TORSDOF 6
ENDMDL
MODEL 2
REMARK VINA RESULT:    -6.537      3.394      6.415
REMARK INTER + INTRA:         -10.670
REMARK INTER:                  -8.442
REMARK INTRA:                  -2.228
REMARK UNBOUND:                -2.032
REMARK SMILES CC[C@H](C=C[C@H](C)[C@H]1CC[C@@H]2[C@H]3CC=C4C[C@H](O)CC[C@@]4(C)[C@@H]3CC[C@@]21C)C(C)C
REMARK SMILES IDX 6 1 7 2 5 3 4 4 3 5 2 6 1 7 28 8 29 9 30 10 8 11 9 12 26 13
REMARK SMILES IDX 10 14 11 15 25 16 27 17 12 18 24 19 23 20 13 21 21 22 14 23
REMARK SMILES IDX 15 24 20 25 22 26 16 27 19 28 17 29 18 30
REMARK H PARENT 18 31
REMARK Flexibility Score: inf
ROOT
ATOM      1  C   UNL     1     146.050 134.484 138.696  1.00  0.00     0.012 C 
ATOM      2  C   UNL     1     145.873 133.671 137.407  1.00  0.00     0.012 C 
ENDROOT
BRANCH   1   3
ATOM      3  C   UNL     1     147.170 133.897 139.544  1.00  0.00    -0.028 C 
ATOM      4  C   UNL     1     148.489 134.083 139.335  1.00  0.00    -0.027 C 
BRANCH   4   5
ATOM      5  C   UNL     1     149.116 134.831 138.166  1.00  0.00     0.014 C 
BRANCH   5   6
ATOM      6  C   UNL     1     149.843 136.114 138.651  1.00  0.00     0.004 C 
ATOM      7  C   UNL     1     149.737 137.340 137.742  1.00  0.00     0.004 C 
ENDBRANCH   5   6
BRANCH   5   8
ATOM      8  C   UNL     1     149.920 133.871 137.227  1.00  0.00    -0.011 C 
ATOM      9  C   UNL     1     149.866 132.410 137.697  1.00  0.00     0.008 C 
ATOM     10  C   UNL     1     149.576 133.975 135.729  1.00  0.00     0.008 C 
ENDBRANCH   5   8
ENDBRANCH   4   5
ENDBRANCH   1   3
BRANCH   1  11
ATOM     11  C   UNL     1     146.139 136.034 138.437  1.00  0.00     0.002 C 
ATOM     12  C   UNL     1     146.124 136.382 136.938  1.00  0.00     0.005 C 
ATOM     13  C   UNL     1     145.164 137.061 139.112  1.00  0.00    -0.026 C 
ATOM     14  C   UNL     1     145.517 137.780 136.809  1.00  0.00     0.005 C 
ATOM     15  C   UNL     1     145.363 138.336 138.237  1.00  0.00    -0.001 C 
ATOM     16  C   UNL     1     145.439 137.365 140.612  1.00  0.00     0.007 C 
ATOM     17  C   UNL     1     143.683 136.614 139.009  1.00  0.00     0.012 C 
ATOM     18  C   UNL     1     146.609 139.221 138.608  1.00  0.00     0.000 C 
ATOM     19  C   UNL     1     146.749 138.095 140.871  1.00  0.00     0.005 C 
ATOM     20  C   UNL     1     146.768 139.448 140.133  1.00  0.00     0.003 C 
ATOM     21  C   UNL     1     146.489 140.595 137.914  1.00  0.00     0.031 C 
ATOM     22  C   UNL     1     148.036 140.328 140.483  1.00  0.00    -0.008 C 
ATOM     23  C   UNL     1     147.533 141.581 138.349  1.00  0.00    -0.027 C 
ATOM     24  C   UNL     1     148.128 141.551 139.558  1.00  0.00    -0.065 C 
ATOM     25  C   UNL     1     147.908 140.834 141.956  1.00  0.00     0.014 C 
ATOM     26  C   UNL     1     149.350 139.511 140.332  1.00  0.00     0.016 C 
ATOM     27  C   UNL     1     149.066 142.687 139.929  1.00  0.00     0.063 C 
ATOM     28  C   UNL     1     148.940 141.907 142.338  1.00  0.00     0.033 C 
ATOM     29  C   UNL     1     148.857 143.111 141.389  1.00  0.00     0.118 C 
BRANCH  29  30
ATOM     30  O   UNL     1     149.787 144.098 141.755  1.00  0.00    -0.393 OA
ATOM     31  H   UNL     1     150.056 144.580 140.929  1.00  0.00     0.210 HD
ENDBRANCH  29  30
ENDBRANCH   1  11
TORSDOF 6
ENDMDL
MODEL 3
REMARK VINA RESULT:    -6.297      1.655      4.353
REMARK INTER + INTRA:         -10.353
REMARK INTER:                  -8.205
REMARK INTRA:                  -2.149
REMARK UNBOUND:                -2.032
REMARK SMILES CC[C@H](C=C[C@H](C)[C@H]1CC[C@@H]2[C@H]3CC=C4C[C@H](O)CC[C@@]4(C)[C@@H]3CC[C@@]21C)C(C)C
REMARK SMILES IDX 6 1 7 2 5 3 4 4 3 5 2 6 1 7 28 8 29 9 30 10 8 11 9 12 26 13
REMARK SMILES IDX 10 14 11 15 25 16 27 17 12 18 24 19 23 20 13 21 21 22 14 23
REMARK SMILES IDX 15 24 20 25 22 26 16 27 19 28 17 29 18 30
REMARK H PARENT 18 31
REMARK Flexibility Score: inf
ROOT
ATOM      1  C   UNL     1     148.343 140.288 138.079  1.00  0.00     0.012 C 
ATOM      2  C   UNL     1     148.629 140.019 136.595  1.00  0.00     0.012 C 
ENDROOT
BRANCH   1   3
ATOM      3  C   UNL     1     147.247 141.334 138.226  1.00  0.00    -0.028 C 
ATOM      4  C   UNL     1     145.963 141.180 137.845  1.00  0.00    -0.027 C 
BRANCH   4   5
ATOM      5  C   UNL     1     145.381 139.978 137.113  1.00  0.00     0.014 C 
BRANCH   5   6
ATOM      6  C   UNL     1     144.702 138.997 138.105  1.00  0.00     0.004 C 
ATOM      7  C   UNL     1     144.949 137.506 137.863  1.00  0.00     0.004 C 
ENDBRANCH   5   6
BRANCH   5   8
ATOM      8  C   UNL     1     144.550 140.410 135.859  1.00  0.00    -0.011 C 
ATOM      9  C   UNL     1     144.672 139.409 134.701  1.00  0.00     0.008 C 
ATOM     10  C   UNL     1     143.072 140.748 136.134  1.00  0.00     0.008 C 
ENDBRANCH   5   8
ENDBRANCH   4   5
ENDBRANCH   1   3
BRANCH   1  11
ATOM     11  C   UNL     1     148.137 138.969 138.913  1.00  0.00     0.002 C 
ATOM     12  C   UNL     1     148.633 137.716 138.168  1.00  0.00     0.005 C 
ATOM     13  C   UNL     1     148.655 138.809 140.385  1.00  0.00    -0.026 C 
ATOM     14  C   UNL     1     149.045 136.697 139.231  1.00  0.00     0.005 C 
ATOM     15  C   UNL     1     148.603 137.265 140.592  1.00  0.00    -0.001 C 
ATOM     16  C   UNL     1     147.826 139.547 141.474  1.00  0.00     0.007 C 
ATOM     17  C   UNL     1     150.123 139.283 140.541  1.00  0.00     0.012 C 
ATOM     18  C   UNL     1     147.196 136.684 140.988  1.00  0.00     0.000 C 
ATOM     19  C   UNL     1     146.421 138.995 141.670  1.00  0.00     0.005 C 
ATOM     20  C   UNL     1     146.477 137.512 142.083  1.00  0.00     0.003 C 
ATOM     21  C   UNL     1     147.361 135.234 141.493  1.00  0.00     0.031 C 
ATOM     22  C   UNL     1     145.058 136.918 142.453  1.00  0.00    -0.008 C 
ATOM     23  C   UNL     1     146.105 134.651 142.068  1.00  0.00    -0.027 C 
ATOM     24  C   UNL     1     145.130 135.393 142.631  1.00  0.00    -0.065 C 
ATOM     25  C   UNL     1     144.582 137.548 143.802  1.00  0.00     0.014 C 
ATOM     26  C   UNL     1     144.010 137.222 141.345  1.00  0.00     0.016 C 
ATOM     27  C   UNL     1     143.972 134.674 143.302  1.00  0.00     0.063 C 
ATOM     28  C   UNL     1     143.343 136.868 144.405  1.00  0.00     0.033 C 
ATOM     29  C   UNL     1     143.589 135.367 144.617  1.00  0.00     0.118 C 
BRANCH  29  30
ATOM     30  O   UNL     1     142.461 134.754 145.188  1.00  0.00    -0.393 OA
ATOM     31  H   UNL     1     141.776 134.659 144.475  1.00  0.00     0.210 HD
ENDBRANCH  29  30
ENDBRANCH   1  11
TORSDOF 6
ENDMDL
MODEL 4
REMARK VINA RESULT:    -6.287      3.224      6.550
REMARK INTER + INTRA:         -10.340
REMARK INTER:                  -8.192
REMARK INTRA:                  -2.147
REMARK UNBOUND:                -2.032
REMARK SMILES CC[C@H](C=C[C@H](C)[C@H]1CC[C@@H]2[C@H]3CC=C4C[C@H](O)CC[C@@]4(C)[C@@H]3CC[C@@]21C)C(C)C
REMARK SMILES IDX 6 1 7 2 5 3 4 4 3 5 2 6 1 7 28 8 29 9 30 10 8 11 9 12 26 13
REMARK SMILES IDX 10 14 11 15 25 16 27 17 12 18 24 19 23 20 13 21 21 22 14 23
REMARK SMILES IDX 15 24 20 25 22 26 16 27 19 28 17 29 18 30
REMARK H PARENT 18 31
REMARK Flexibility Score: inf
ROOT
ATOM      1  C   UNL     1     147.250 134.459 136.480  1.00  0.00     0.012 C 
ATOM      2  C   UNL     1     147.641 132.977 136.552  1.00  0.00     0.012 C 
ENDROOT
BRANCH   1   3
ATOM      3  C   UNL     1     145.866 134.614 135.865  1.00  0.00    -0.028 C 
ATOM      4  C   UNL     1     145.133 135.746 135.862  1.00  0.00    -0.027 C 
BRANCH   4   5
ATOM      5  C   UNL     1     145.500 137.055 136.548  1.00  0.00     0.014 C 
BRANCH   5   6
ATOM      6  C   UNL     1     146.047 138.086 135.524  1.00  0.00     0.004 C 
ATOM      7  C   UNL     1     145.383 139.464 135.528  1.00  0.00     0.004 C 
ENDBRANCH   5   6
BRANCH   5   8
ATOM      8  C   UNL     1     144.368 137.542 137.511  1.00  0.00    -0.011 C 
ATOM      9  C   UNL     1     142.985 137.008 137.109  1.00  0.00     0.008 C 
ATOM     10  C   UNL     1     144.629 137.302 139.011  1.00  0.00     0.008 C 
ENDBRANCH   5   8
ENDBRANCH   4   5
ENDBRANCH   1   3
BRANCH   1  11
ATOM     11  C   UNL     1     147.475 135.220 137.839  1.00  0.00     0.002 C 
ATOM     12  C   UNL     1     146.803 134.512 139.029  1.00  0.00     0.005 C 
ATOM     13  C   UNL     1     148.899 135.632 138.352  1.00  0.00    -0.026 C 
ATOM     14  C   UNL     1     147.616 134.863 140.276  1.00  0.00     0.005 C 
ATOM     15  C   UNL     1     148.638 135.936 139.858  1.00  0.00    -0.001 C 
ATOM     16  C   UNL     1     149.543 136.856 137.639  1.00  0.00     0.007 C 
ATOM     17  C   UNL     1     149.916 134.466 138.249  1.00  0.00     0.012 C 
ATOM     18  C   UNL     1     148.073 137.370 140.170  1.00  0.00     0.000 C 
ATOM     19  C   UNL     1     148.825 138.174 137.890  1.00  0.00     0.005 C 
ATOM     20  C   UNL     1     148.802 138.498 139.396  1.00  0.00     0.003 C 
ATOM     21  C   UNL     1     148.191 137.653 141.683  1.00  0.00     0.031 C 
ATOM     22  C   UNL     1     148.206 139.929 139.713  1.00  0.00    -0.008 C 
ATOM     23  C   UNL     1     147.850 139.064 142.059  1.00  0.00    -0.027 C 
ATOM     24  C   UNL     1     147.991 140.113 141.223  1.00  0.00    -0.065 C 
ATOM     25  C   UNL     1     149.217 141.017 139.226  1.00  0.00     0.014 C 
ATOM     26  C   UNL     1     146.839 140.143 139.004  1.00  0.00     0.016 C 
ATOM     27  C   UNL     1     147.744 141.509 141.769  1.00  0.00     0.063 C 
ATOM     28  C   UNL     1     148.883 142.439 139.704  1.00  0.00     0.033 C 
ATOM     29  C   UNL     1     148.791 142.495 141.235  1.00  0.00     0.118 C 
BRANCH  29  30
ATOM     30  O   UNL     1     148.506 143.801 141.668  1.00  0.00    -0.393 OA
ATOM     31  H   UNL     1     147.571 144.008 141.405  1.00  0.00     0.210 HD
ENDBRANCH  29  30
ENDBRANCH   1  11
TORSDOF 6
ENDMDL
MODEL 5
REMARK VINA RESULT:    -6.227      1.556      2.321
REMARK INTER + INTRA:         -10.261
REMARK INTER:                  -8.810
REMARK INTRA:                  -1.451
REMARK UNBOUND:                -2.032
REMARK SMILES CC[C@H](C=C[C@H](C)[C@H]1CC[C@@H]2[C@H]3CC=C4C[C@H](O)CC[C@@]4(C)[C@@H]3CC[C@@]21C)C(C)C
REMARK SMILES IDX 6 1 7 2 5 3 4 4 3 5 2 6 1 7 28 8 29 9 30 10 8 11 9 12 26 13
REMARK SMILES IDX 10 14 11 15 25 16 27 17 12 18 24 19 23 20 13 21 21 22 14 23
REMARK SMILES IDX 15 24 20 25 22 26 16 27 19 28 17 29 18 30
REMARK H PARENT 18 31
REMARK Flexibility Score: inf
ROOT
ATOM      1  C   UNL     1     149.213 138.243 139.783  1.00  0.00     0.012 C 
ATOM      2  C   UNL     1     149.975 139.020 138.702  1.00  0.00     0.012 C 
ENDROOT
BRANCH   1   3
ATOM      3  C   UNL     1     149.707 138.636 141.168  1.00  0.00    -0.028 C 
ATOM      4  C   UNL     1     149.330 139.737 141.850  1.00  0.00    -0.027 C 
BRANCH   4   5
ATOM      5  C   UNL     1     148.415 140.841 141.337  1.00  0.00     0.014 C 
BRANCH   5   6
ATOM      6  C   UNL     1     147.310 141.176 142.374  1.00  0.00     0.004 C 
ATOM      7  C   UNL     1     146.420 140.013 142.818  1.00  0.00     0.004 C 
ENDBRANCH   5   6
BRANCH   5   8
ATOM      8  C   UNL     1     149.229 142.043 140.753  1.00  0.00    -0.011 C 
ATOM      9  C   UNL     1     148.605 142.605 139.467  1.00  0.00     0.008 C 
ATOM     10  C   UNL     1     149.537 143.177 141.750  1.00  0.00     0.008 C 
ENDBRANCH   5   8
ENDBRANCH   4   5
ENDBRANCH   1   3
BRANCH   1  11
ATOM     11  C   UNL     1     147.652 138.286 139.585  1.00  0.00     0.002 C 
ATOM     12  C   UNL     1     147.213 139.390 138.606  1.00  0.00     0.005 C 
ATOM     13  C   UNL     1     146.814 137.021 139.186  1.00  0.00    -0.026 C 
ATOM     14  C   UNL     1     145.907 138.923 137.961  1.00  0.00     0.005 C 
ATOM     15  C   UNL     1     145.471 137.647 138.704  1.00  0.00    -0.001 C 
ATOM     16  C   UNL     1     146.573 135.987 140.323  1.00  0.00     0.007 C 
ATOM     17  C   UNL     1     147.454 136.246 138.004  1.00  0.00     0.012 C 
ATOM     18  C   UNL     1     144.448 138.008 139.842  1.00  0.00     0.000 C 
ATOM     19  C   UNL     1     145.687 136.496 141.451  1.00  0.00     0.005 C 
ATOM     20  C   UNL     1     144.300 136.894 140.910  1.00  0.00     0.003 C 
ATOM     21  C   UNL     1     143.061 138.283 139.221  1.00  0.00     0.031 C 
ATOM     22  C   UNL     1     143.278 137.286 142.053  1.00  0.00    -0.008 C 
ATOM     23  C   UNL     1     141.971 138.457 140.236  1.00  0.00    -0.027 C 
ATOM     24  C   UNL     1     141.996 137.892 141.460  1.00  0.00    -0.065 C 
ATOM     25  C   UNL     1     142.890 135.998 142.848  1.00  0.00     0.014 C 
ATOM     26  C   UNL     1     143.893 138.328 143.030  1.00  0.00     0.016 C 
ATOM     27  C   UNL     1     140.768 138.029 142.343  1.00  0.00     0.063 C 
ATOM     28  C   UNL     1     141.711 136.193 143.814  1.00  0.00     0.033 C 
ATOM     29  C   UNL     1     140.472 136.711 143.072  1.00  0.00     0.118 C 
BRANCH  29  30
ATOM     30  O   UNL     1     139.392 136.867 143.956  1.00  0.00    -0.393 OA
ATOM     31  H   UNL     1     139.000 135.968 144.116  1.00  0.00     0.210 HD
ENDBRANCH  29  30
ENDBRANCH   1  11
TORSDOF 6
ENDMDL
MODEL 6
REMARK VINA RESULT:    -6.157      1.390      2.198
REMARK INTER + INTRA:         -10.168
REMARK INTER:                  -7.999
REMARK INTRA:                  -2.169
REMARK UNBOUND:                -2.032
REMARK SMILES CC[C@H](C=C[C@H](C)[C@H]1CC[C@@H]2[C@H]3CC=C4C[C@H](O)CC[C@@]4(C)[C@@H]3CC[C@@]21C)C(C)C
REMARK SMILES IDX 6 1 7 2 5 3 4 4 3 5 2 6 1 7 28 8 29 9 30 10 8 11 9 12 26 13
REMARK SMILES IDX 10 14 11 15 25 16 27 17 12 18 24 19 23 20 13 21 21 22 14 23
REMARK SMILES IDX 15 24 20 25 22 26 16 27 19 28 17 29 18 30
REMARK H PARENT 18 31
REMARK Flexibility Score: inf
ROOT
ATOM      1  C   UNL     1     146.336 139.112 136.007  1.00  0.00     0.012 C 
ATOM      2  C   UNL     1     145.600 139.425 134.697  1.00  0.00     0.012 C 
ENDROOT
BRANCH   1   3
ATOM      3  C   UNL     1     147.473 140.100 136.226  1.00  0.00    -0.028 C 
ATOM      4  C   UNL     1     148.426 139.999 137.175  1.00  0.00    -0.027 C 
BRANCH   4   5
ATOM      5  C   UNL     1     148.498 138.938 138.265  1.00  0.00     0.014 C 
BRANCH   5   6
ATOM      6  C   UNL     1     149.685 137.967 138.020  1.00  0.00     0.004 C 
ATOM      7  C   UNL     1     149.321 136.522 137.672  1.00  0.00     0.004 C 
ENDBRANCH   5   6
BRANCH   5   8
ATOM      8  C   UNL     1     148.377 139.565 139.693  1.00  0.00    -0.011 C 
ATOM      9  C   UNL     1     149.745 139.786 140.355  1.00  0.00     0.008 C 
ATOM     10  C   UNL     1     147.516 140.840 139.782  1.00  0.00     0.008 C 
ENDBRANCH   5   8
ENDBRANCH   4   5
ENDBRANCH   1   3
BRANCH   1  11
ATOM     11  C   UNL     1     145.361 138.922 137.228  1.00  0.00     0.002 C 
ATOM     12  C   UNL     1     144.301 140.035 137.315  1.00  0.00     0.005 C 
ATOM     13  C   UNL     1     144.582 137.585 137.489  1.00  0.00    -0.026 C 
ATOM     14  C   UNL     1     143.073 139.431 137.997  1.00  0.00     0.005 C 
ATOM     15  C   UNL     1     143.479 138.032 138.495  1.00  0.00    -0.001 C 
ATOM     16  C   UNL     1     145.427 136.415 138.068  1.00  0.00     0.007 C 
ATOM     17  C   UNL     1     143.896 137.050 136.204  1.00  0.00     0.012 C 
ATOM     18  C   UNL     1     143.928 138.103 140.001  1.00  0.00     0.000 C 
ATOM     19  C   UNL     1     145.938 136.655 139.482  1.00  0.00     0.005 C 
ATOM     20  C   UNL     1     144.761 136.877 140.451  1.00  0.00     0.003 C 
ATOM     21  C   UNL     1     142.681 138.213 140.905  1.00  0.00     0.031 C 
ATOM     22  C   UNL     1     145.215 136.978 141.964  1.00  0.00    -0.008 C 
ATOM     23  C   UNL     1     142.989 138.102 142.369  1.00  0.00    -0.027 C 
ATOM     24  C   UNL     1     144.048 137.426 142.858  1.00  0.00    -0.065 C 
ATOM     25  C   UNL     1     145.690 135.569 142.445  1.00  0.00     0.014 C 
ATOM     26  C   UNL     1     146.374 138.000 142.140  1.00  0.00     0.016 C 
ATOM     27  C   UNL     1     144.172 137.271 144.364  1.00  0.00     0.063 C 
ATOM     28  C   UNL     1     145.911 135.471 143.962  1.00  0.00     0.033 C 
ATOM     29  C   UNL     1     144.637 135.855 144.729  1.00  0.00     0.118 C 
BRANCH  29  30
ATOM     30  O   UNL     1     144.839 135.742 146.115  1.00  0.00    -0.393 OA
ATOM     31  H   UNL     1     144.237 135.026 146.450  1.00  0.00     0.210 HD
ENDBRANCH  29  30
ENDBRANCH   1  11
TORSDOF 6
ENDMDL
MODEL 7
REMARK VINA RESULT:    -6.152      3.697      6.785
REMARK INTER + INTRA:         -10.161
REMARK INTER:                  -8.153
REMARK INTRA:                  -2.008
REMARK UNBOUND:                -2.032
REMARK SMILES CC[C@H](C=C[C@H](C)[C@H]1CC[C@@H]2[C@H]3CC=C4C[C@H](O)CC[C@@]4(C)[C@@H]3CC[C@@]21C)C(C)C
REMARK SMILES IDX 6 1 7 2 5 3 4 4 3 5 2 6 1 7 28 8 29 9 30 10 8 11 9 12 26 13
REMARK SMILES IDX 10 14 11 15 25 16 27 17 12 18 24 19 23 20 13 21 21 22 14 23
REMARK SMILES IDX 15 24 20 25 22 26 16 27 19 28 17 29 18 30
REMARK H PARENT 18 31
REMARK Flexibility Score: inf
ROOT
ATOM      1  C   UNL     1     147.226 140.635 139.247  1.00  0.00     0.012 C 
ATOM      2  C   UNL     1     147.876 141.688 140.154  1.00  0.00     0.012 C 
ENDROOT
BRANCH   1   3
ATOM      3  C   UNL     1     146.926 141.228 137.877  1.00  0.00    -0.028 C 
ATOM      4  C   UNL     1     146.021 140.749 136.999  1.00  0.00    -0.027 C 
BRANCH   4   5
ATOM      5  C   UNL     1     145.195 139.480 137.163  1.00  0.00     0.014 C 
BRANCH   5   6
ATOM      6  C   UNL     1     143.741 139.812 137.594  1.00  0.00     0.004 C 
ATOM      7  C   UNL     1     143.103 141.040 136.941  1.00  0.00     0.004 C 
ENDBRANCH   5   6
BRANCH   5   8
ATOM      8  C   UNL     1     145.372 138.513 135.945  1.00  0.00    -0.011 C 
ATOM      9  C   UNL     1     144.162 137.587 135.752  1.00  0.00     0.008 C 
ATOM     10  C   UNL     1     145.758 139.191 134.616  1.00  0.00     0.008 C 
ENDBRANCH   5   8
ENDBRANCH   4   5
ENDBRANCH   1   3
BRANCH   1  11
ATOM     11  C   UNL     1     148.006 139.268 139.236  1.00  0.00     0.002 C 
ATOM     12  C   UNL     1     149.530 139.458 139.348  1.00  0.00     0.005 C 
ATOM     13  C   UNL     1     147.662 138.090 140.214  1.00  0.00    -0.026 C 
ATOM     14  C   UNL     1     150.090 138.203 140.018  1.00  0.00     0.005 C 
ATOM     15  C   UNL     1     148.933 137.192 140.115  1.00  0.00    -0.001 C 
ATOM     16  C   UNL     1     146.379 137.282 139.869  1.00  0.00     0.007 C 
ATOM     17  C   UNL     1     147.508 138.574 141.679  1.00  0.00     0.012 C 
ATOM     18  C   UNL     1     148.971 136.209 138.888  1.00  0.00     0.000 C 
ATOM     19  C   UNL     1     146.473 136.482 138.577  1.00  0.00     0.005 C 
ATOM     20  C   UNL     1     147.630 135.467 138.655  1.00  0.00     0.003 C 
ATOM     21  C   UNL     1     150.084 135.161 139.103  1.00  0.00     0.031 C 
ATOM     22  C   UNL     1     147.687 134.496 137.407  1.00  0.00    -0.008 C 
ATOM     23  C   UNL     1     150.084 134.066 138.078  1.00  0.00    -0.027 C 
ATOM     24  C   UNL     1     148.980 133.665 137.416  1.00  0.00    -0.065 C 
ATOM     25  C   UNL     1     146.473 133.515 137.474  1.00  0.00     0.014 C 
ATOM     26  C   UNL     1     147.636 135.288 136.070  1.00  0.00     0.016 C 
ATOM     27  C   UNL     1     149.084 132.453 136.507  1.00  0.00     0.063 C 
ATOM     28  C   UNL     1     146.551 132.356 136.467  1.00  0.00     0.033 C 
ATOM     29  C   UNL     1     147.848 131.555 136.652  1.00  0.00     0.118 C 
BRANCH  29  30
ATOM     30  O   UNL     1     147.904 130.484 135.744  1.00  0.00    -0.393 OA
ATOM     31  H   UNL     1     147.821 129.643 136.266  1.00  0.00     0.210 HD
ENDBRANCH  29  30
ENDBRANCH   1  11
TORSDOF 6
ENDMDL
MODEL 8
REMARK VINA RESULT:    -6.067      2.693      5.654
REMARK INTER + INTRA:         -10.049
REMARK INTER:                  -8.561
REMARK INTRA:                  -1.488
REMARK UNBOUND:                -2.032
REMARK SMILES CC[C@H](C=C[C@H](C)[C@H]1CC[C@@H]2[C@H]3CC=C4C[C@H](O)CC[C@@]4(C)[C@@H]3CC[C@@]21C)C(C)C
REMARK SMILES IDX 6 1 7 2 5 3 4 4 3 5 2 6 1 7 28 8 29 9 30 10 8 11 9 12 26 13
REMARK SMILES IDX 10 14 11 15 25 16 27 17 12 18 24 19 23 20 13 21 21 22 14 23
REMARK SMILES IDX 15 24 20 25 22 26 16 27 19 28 17 29 18 30
REMARK H PARENT 18 31
REMARK Flexibility Score: inf
ROOT
ATOM      1  C   UNL     1     148.507 140.538 140.950  1.00  0.00     0.012 C 
ATOM      2  C   UNL     1     149.558 141.657 140.950  1.00  0.00     0.012 C 
ENDROOT
BRANCH   1   3
ATOM      3  C   UNL     1     147.508 140.748 142.079  1.00  0.00    -0.028 C 
ATOM      4  C   UNL     1     146.609 139.840 142.508  1.00  0.00    -0.027 C 
BRANCH   4   5
ATOM      5  C   UNL     1     146.353 138.471 141.892  1.00  0.00     0.014 C 
BRANCH   5   6
ATOM      6  C   UNL     1     147.580 137.538 142.077  1.00  0.00     0.004 C 
ATOM      7  C   UNL     1     147.323 136.038 141.925  1.00  0.00     0.004 C 
ENDBRANCH   5   6
BRANCH   5   8
ATOM      8  C   UNL     1     144.957 137.899 142.309  1.00  0.00    -0.011 C 
ATOM      9  C   UNL     1     144.464 138.473 143.645  1.00  0.00     0.008 C 
ATOM     10  C   UNL     1     143.857 137.997 141.234  1.00  0.00     0.008 C 
ENDBRANCH   5   8
ENDBRANCH   4   5
ENDBRANCH   1   3
BRANCH   1  11
ATOM     11  C   UNL     1     147.879 140.285 139.529  1.00  0.00     0.002 C 
ATOM     12  C   UNL     1     147.366 141.580 138.873  1.00  0.00     0.005 C 
ATOM     13  C   UNL     1     148.640 139.517 138.393  1.00  0.00    -0.026 C 
ATOM     14  C   UNL     1     147.455 141.381 137.360  1.00  0.00     0.005 C 
ATOM     15  C   UNL     1     147.824 139.904 137.122  1.00  0.00    -0.001 C 
ATOM     16  C   UNL     1     148.717 137.973 138.558  1.00  0.00     0.007 C 
ATOM     17  C   UNL     1     150.096 140.023 138.221  1.00  0.00     0.012 C 
ATOM     18  C   UNL     1     146.523 139.057 136.872  1.00  0.00     0.000 C 
ATOM     19  C   UNL     1     147.373 137.266 138.446  1.00  0.00     0.005 C 
ATOM     20  C   UNL     1     146.736 137.534 137.069  1.00  0.00     0.003 C 
ATOM     21  C   UNL     1     146.017 139.303 135.434  1.00  0.00     0.031 C 
ATOM     22  C   UNL     1     145.410 136.704 136.827  1.00  0.00    -0.008 C 
ATOM     23  C   UNL     1     144.887 138.402 135.032  1.00  0.00    -0.027 C 
ATOM     24  C   UNL     1     144.693 137.173 135.552  1.00  0.00    -0.065 C 
ATOM     25  C   UNL     1     145.783 135.196 136.654  1.00  0.00     0.014 C 
ATOM     26  C   UNL     1     144.422 136.857 138.018  1.00  0.00     0.016 C 
ATOM     27  C   UNL     1     143.595 136.305 134.962  1.00  0.00     0.063 C 
ATOM     28  C   UNL     1     144.622 134.320 136.158  1.00  0.00     0.033 C 
ATOM     29  C   UNL     1     144.064 134.850 134.829  1.00  0.00     0.118 C 
BRANCH  29  30
ATOM     30  O   UNL     1     143.018 134.033 134.369  1.00  0.00    -0.393 OA
ATOM     31  H   UNL     1     143.034 133.194 134.901  1.00  0.00     0.210 HD
ENDBRANCH  29  30
ENDBRANCH   1  11
TORSDOF 6
ENDMDL
MODEL 9
REMARK VINA RESULT:    -5.983      2.983      5.473
REMARK INTER + INTRA:          -9.938
REMARK INTER:                  -7.650
REMARK INTRA:                  -2.288
REMARK UNBOUND:                -2.032
REMARK SMILES CC[C@H](C=C[C@H](C)[C@H]1CC[C@@H]2[C@H]3CC=C4C[C@H](O)CC[C@@]4(C)[C@@H]3CC[C@@]21C)C(C)C
REMARK SMILES IDX 6 1 7 2 5 3 4 4 3 5 2 6 1 7 28 8 29 9 30 10 8 11 9 12 26 13
REMARK SMILES IDX 10 14 11 15 25 16 27 17 12 18 24 19 23 20 13 21 21 22 14 23
REMARK SMILES IDX 15 24 20 25 22 26 16 27 19 28 17 29 18 30
REMARK H PARENT 18 31
REMARK Flexibility Score: inf
ROOT
ATOM      1  C   UNL     1     148.684 135.769 137.262  1.00  0.00     0.012 C 
ATOM      2  C   UNL     1     150.115 135.254 137.470  1.00  0.00     0.012 C 
ENDROOT
BRANCH   1   3
ATOM      3  C   UNL     1     147.793 134.657 136.726  1.00  0.00    -0.028 C 
ATOM      4  C   UNL     1     147.300 133.631 137.451  1.00  0.00    -0.027 C 
BRANCH   4   5
ATOM      5  C   UNL     1     147.612 133.333 138.911  1.00  0.00     0.014 C 
BRANCH   5   6
ATOM      6  C   UNL     1     146.394 133.656 139.818  1.00  0.00     0.004 C 
ATOM      7  C   UNL     1     146.708 134.261 141.188  1.00  0.00     0.004 C 
ENDBRANCH   5   6
BRANCH   5   8
ATOM      8  C   UNL     1     148.275 131.927 139.087  1.00  0.00    -0.011 C 
ATOM      9  C   UNL     1     148.157 131.061 137.824  1.00  0.00     0.008 C 
ATOM     10  C   UNL     1     149.726 131.942 139.603  1.00  0.00     0.008 C 
ENDBRANCH   5   8
ENDBRANCH   4   5
ENDBRANCH   1   3
BRANCH   1  11
ATOM     11  C   UNL     1     148.123 136.543 138.512  1.00  0.00     0.002 C 
ATOM     12  C   UNL     1     149.118 136.566 139.686  1.00  0.00     0.005 C 
ATOM     13  C   UNL     1     147.556 138.003 138.419  1.00  0.00    -0.026 C 
ATOM     14  C   UNL     1     148.834 137.838 140.488  1.00  0.00     0.005 C 
ATOM     15  C   UNL     1     147.547 138.455 139.910  1.00  0.00    -0.001 C 
ATOM     16  C   UNL     1     146.142 138.137 137.786  1.00  0.00     0.007 C 
ATOM     17  C   UNL     1     148.496 138.943 137.620  1.00  0.00     0.012 C 
ATOM     18  C   UNL     1     146.301 137.988 140.749  1.00  0.00     0.000 C 
ATOM     19  C   UNL     1     145.026 137.516 138.614  1.00  0.00     0.005 C 
ATOM     20  C   UNL     1     144.955 138.176 140.005  1.00  0.00     0.003 C 
ATOM     21  C   UNL     1     146.248 138.779 142.074  1.00  0.00     0.031 C 
ATOM     22  C   UNL     1     143.718 137.686 140.861  1.00  0.00    -0.008 C 
ATOM     23  C   UNL     1     144.996 138.542 142.866  1.00  0.00    -0.027 C 
ATOM     24  C   UNL     1     143.819 138.190 142.310  1.00  0.00    -0.065 C 
ATOM     25  C   UNL     1     142.408 138.260 140.232  1.00  0.00     0.014 C 
ATOM     26  C   UNL     1     143.635 136.134 140.898  1.00  0.00     0.016 C 
ATOM     27  C   UNL     1     142.592 138.116 143.203  1.00  0.00     0.063 C 
ATOM     28  C   UNL     1     141.161 138.075 141.111  1.00  0.00     0.033 C 
ATOM     29  C   UNL     1     141.367 138.708 142.495  1.00  0.00     0.118 C 
BRANCH  29  30
ATOM     30  O   UNL     1     140.216 138.555 143.286  1.00  0.00    -0.393 OA
ATOM     31  H   UNL     1     139.538 138.074 142.743  1.00  0.00     0.210 HD
ENDBRANCH  29  30
ENDBRANCH   1  11
TORSDOF 6
ENDMDL
