MODEL 1
REMARK VINA RESULT:    -6.325      0.000      0.000
REMARK INTER + INTRA:          -8.180
REMARK INTER:                  -7.804
REMARK INTRA:                  -0.376
REMARK UNBOUND:                -0.376
REMARK SMILES Oc1cc(O)c2cc(O)c(-c3cc(O)c(O)c(O)c3)[o+]c2c1
REMARK SMILES IDX 10 1 20 2 21 3 22 4 2 5 3 6 4 7 6 8 7 9 8 10 11 11 12 12
REMARK SMILES IDX 13 13 19 14 15 15 17 16 14 17 16 19 18 21 9 23 1 25 5 27
REMARK H PARENT 14 18 16 20 18 22 9 24 1 26 5 28
REMARK Flexibility Score: inf
ROOT
ATOM      1  C   UNL     1      27.787  10.737  66.054  1.00  0.00     0.402 A 
ATOM      2  O   UNL     1      27.174  10.444  64.910  1.00  0.00    -0.202 OA
ATOM      3  C   UNL     1      27.358  11.132  63.787  1.00  0.00     0.368 A 
ATOM      4  C   UNL     1      26.667  10.750  62.635  1.00  0.00     0.162 A 
ATOM      5  C   UNL     1      26.839  11.457  61.442  1.00  0.00     0.128 A 
ATOM      6  C   UNL     1      27.704  12.553  61.401  1.00  0.00     0.093 A 
ATOM      7  C   UNL     1      28.408  12.956  62.543  1.00  0.00     0.136 A 
ATOM      8  C   UNL     1      28.239  12.240  63.756  1.00  0.00     0.125 A 
ATOM      9  C   UNL     1      28.913  12.564  64.944  1.00  0.00     0.078 A 
ATOM     10  C   UNL     1      28.699  11.807  66.101  1.00  0.00     0.223 A 
ENDROOT
BRANCH   1  11
ATOM     11  C   UNL     1      27.491   9.901  67.240  1.00  0.00     0.091 A 
ATOM     12  C   UNL     1      28.109   8.648  67.373  1.00  0.00     0.068 A 
ATOM     13  C   UNL     1      27.832   7.828  68.476  1.00  0.00     0.162 A 
ATOM     14  C   UNL     1      26.562  10.311  68.212  1.00  0.00     0.068 A 
ATOM     15  C   UNL     1      26.917   8.255  69.452  1.00  0.00     0.200 A 
ATOM     16  C   UNL     1      26.280   9.495  69.315  1.00  0.00     0.162 A 
BRANCH  13  17
ATOM     17  O   UNL     1      28.462   6.591  68.602  1.00  0.00    -0.504 OA
ATOM     18  H   UNL     1      27.936   5.741  68.770  1.00  0.00     0.293 HD
ENDBRANCH  13  17
BRANCH  15  19
ATOM     19  O   UNL     1      26.626   7.458  70.560  1.00  0.00    -0.502 OA
ATOM     20  H   UNL     1      25.712   7.455  70.996  1.00  0.00     0.293 HD
ENDBRANCH  15  19
BRANCH  16  21
ATOM     21  O   UNL     1      25.362   9.907  70.280  1.00  0.00    -0.504 OA
ATOM     22  H   UNL     1      24.541  10.448  70.033  1.00  0.00     0.293 HD
ENDBRANCH  16  21
ENDBRANCH   1  11
BRANCH  10  23
ATOM     23  O   UNL     1      29.405  12.099  67.268  1.00  0.00    -0.500 OA
ATOM     24  H   UNL     1      29.368  13.016  67.698  1.00  0.00     0.294 HD
ENDBRANCH  10  23
BRANCH   5  25
ATOM     25  O   UNL     1      26.154  11.080  60.289  1.00  0.00    -0.507 OA
ATOM     26  H   UNL     1      25.795  10.140  60.168  1.00  0.00     0.293 HD
ENDBRANCH   5  25
BRANCH   7  27
ATOM     27  O   UNL     1      29.252  14.064  62.420  1.00  0.00    -0.507 OA
ATOM     28  H   UNL     1      29.949  14.172  61.699  1.00  0.00     0.293 HD
ENDBRANCH   7  27
TORSDOF 7
ENDMDL
MODEL 2
REMARK VINA RESULT:    -6.294      4.478      8.656
REMARK INTER + INTRA:          -8.142
REMARK INTER:                  -7.814
REMARK INTRA:                  -0.328
REMARK UNBOUND:                -0.376
REMARK SMILES Oc1cc(O)c2cc(O)c(-c3cc(O)c(O)c(O)c3)[o+]c2c1
REMARK SMILES IDX 10 1 20 2 21 3 22 4 2 5 3 6 4 7 6 8 7 9 8 10 11 11 12 12
REMARK SMILES IDX 13 13 19 14 15 15 17 16 14 17 16 19 18 21 9 23 1 25 5 27
REMARK H PARENT 14 18 16 20 18 22 9 24 1 26 5 28
REMARK Flexibility Score: inf
ROOT
ATOM      1  C   UNL     1      28.068  12.130  60.510  1.00  0.00     0.402 A 
ATOM      2  O   UNL     1      29.145  11.502  60.973  1.00  0.00    -0.202 OA
ATOM      3  C   UNL     1      29.614  11.671  62.206  1.00  0.00     0.368 A 
ATOM      4  C   UNL     1      30.756  10.968  62.601  1.00  0.00     0.162 A 
ATOM      5  C   UNL     1      31.272  11.130  63.890  1.00  0.00     0.128 A 
ATOM      6  C   UNL     1      30.646  11.998  64.786  1.00  0.00     0.093 A 
ATOM      7  C   UNL     1      29.501  12.715  64.414  1.00  0.00     0.136 A 
ATOM      8  C   UNL     1      28.971  12.552  63.108  1.00  0.00     0.125 A 
ATOM      9  C   UNL     1      27.822  13.218  62.653  1.00  0.00     0.078 A 
ATOM     10  C   UNL     1      27.356  13.003  61.352  1.00  0.00     0.223 A 
ENDROOT
BRANCH   1  11
ATOM     11  C   UNL     1      27.650  11.865  59.114  1.00  0.00     0.091 A 
ATOM     12  C   UNL     1      28.323  12.501  58.059  1.00  0.00     0.068 A 
ATOM     13  C   UNL     1      27.936  12.283  56.730  1.00  0.00     0.162 A 
ATOM     14  C   UNL     1      26.556  11.031  58.823  1.00  0.00     0.068 A 
ATOM     15  C   UNL     1      26.855  11.432  56.448  1.00  0.00     0.200 A 
ATOM     16  C   UNL     1      26.164  10.812  57.496  1.00  0.00     0.162 A 
BRANCH  13  17
ATOM     17  O   UNL     1      28.621  12.910  55.691  1.00  0.00    -0.504 OA
ATOM     18  H   UNL     1      28.404  13.859  55.407  1.00  0.00     0.293 HD
ENDBRANCH  13  17
BRANCH  15  19
ATOM     19  O   UNL     1      26.451  11.197  55.132  1.00  0.00    -0.502 OA
ATOM     20  H   UNL     1      27.047  11.408  54.341  1.00  0.00     0.293 HD
ENDBRANCH  15  19
BRANCH  16  21
ATOM     21  O   UNL     1      25.082   9.980  57.211  1.00  0.00    -0.504 OA
ATOM     22  H   UNL     1      25.042   9.026  57.552  1.00  0.00     0.293 HD
ENDBRANCH  16  21
ENDBRANCH   1  11
BRANCH  10  23
ATOM     23  O   UNL     1      26.186  13.627  60.916  1.00  0.00    -0.500 OA
ATOM     24  H   UNL     1      26.112  14.032  59.990  1.00  0.00     0.294 HD
ENDBRANCH  10  23
BRANCH   5  25
ATOM     25  O   UNL     1      32.408  10.431  64.291  1.00  0.00    -0.507 OA
ATOM     26  H   UNL     1      32.723  10.439  65.255  1.00  0.00     0.293 HD
ENDBRANCH   5  25
BRANCH   7  27
ATOM     27  O   UNL     1      28.936  13.565  65.369  1.00  0.00    -0.507 OA
ATOM     28  H   UNL     1      28.632  13.272  66.285  1.00  0.00     0.293 HD
ENDBRANCH   7  27
TORSDOF 7
ENDMDL
MODEL 3
REMARK VINA RESULT:    -6.197      2.455      8.098
REMARK INTER + INTRA:          -8.023
REMARK INTER:                  -7.974
REMARK INTRA:                  -0.048
REMARK UNBOUND:                -0.376
REMARK SMILES Oc1cc(O)c2cc(O)c(-c3cc(O)c(O)c(O)c3)[o+]c2c1
REMARK SMILES IDX 10 1 20 2 21 3 22 4 2 5 3 6 4 7 6 8 7 9 8 10 11 11 12 12
REMARK SMILES IDX 13 13 19 14 15 15 17 16 14 17 16 19 18 21 9 23 1 25 5 27
REMARK H PARENT 14 18 16 20 18 22 9 24 1 26 5 28
REMARK Flexibility Score: inf
ROOT
ATOM      1  C   UNL     1      28.099  12.062  61.682  1.00  0.00     0.402 A 
ATOM      2  O   UNL     1      27.831  10.908  62.286  1.00  0.00    -0.202 OA
ATOM      3  C   UNL     1      27.985  10.715  63.593  1.00  0.00     0.368 A 
ATOM      4  C   UNL     1      27.680   9.465  64.136  1.00  0.00     0.162 A 
ATOM      5  C   UNL     1      27.835   9.234  65.506  1.00  0.00     0.128 A 
ATOM      6  C   UNL     1      28.298  10.258  66.335  1.00  0.00     0.093 A 
ATOM      7  C   UNL     1      28.611  11.521  65.815  1.00  0.00     0.136 A 
ATOM      8  C   UNL     1      28.452  11.761  64.425  1.00  0.00     0.125 A 
ATOM      9  C   UNL     1      28.728  12.996  63.819  1.00  0.00     0.078 A 
ATOM     10  C   UNL     1      28.543  13.159  62.442  1.00  0.00     0.223 A 
ENDROOT
BRANCH   1  11
ATOM     11  C   UNL     1      27.897  12.148  60.217  1.00  0.00     0.091 A 
ATOM     12  C   UNL     1      26.739  11.599  59.646  1.00  0.00     0.068 A 
ATOM     13  C   UNL     1      26.532  11.649  58.261  1.00  0.00     0.162 A 
ATOM     14  C   UNL     1      28.867  12.722  59.377  1.00  0.00     0.068 A 
ATOM     15  C   UNL     1      27.498  12.243  57.431  1.00  0.00     0.200 A 
ATOM     16  C   UNL     1      28.666  12.773  57.991  1.00  0.00     0.162 A 
BRANCH  13  17
ATOM     17  O   UNL     1      25.371  11.111  57.707  1.00  0.00    -0.504 OA
ATOM     18  H   UNL     1      25.170  11.187  56.717  1.00  0.00     0.293 HD
ENDBRANCH  13  17
BRANCH  15  19
ATOM     19  O   UNL     1      27.314  12.307  56.049  1.00  0.00    -0.502 OA
ATOM     20  H   UNL     1      28.006  11.956  55.397  1.00  0.00     0.293 HD
ENDBRANCH  15  19
BRANCH  16  21
ATOM     21  O   UNL     1      29.629  13.347  57.161  1.00  0.00    -0.504 OA
ATOM     22  H   UNL     1      29.369  13.899  56.352  1.00  0.00     0.293 HD
ENDBRANCH  16  21
ENDBRANCH   1  11
BRANCH  10  23
ATOM     23  O   UNL     1      28.769  14.401  61.848  1.00  0.00    -0.500 OA
ATOM     24  H   UNL     1      28.038  14.893  61.346  1.00  0.00     0.294 HD
ENDBRANCH  10  23
BRANCH   5  25
ATOM     25  O   UNL     1      27.532   7.990  66.055  1.00  0.00    -0.507 OA
ATOM     26  H   UNL     1      27.615   7.815  67.049  1.00  0.00     0.293 HD
ENDBRANCH   5  25
BRANCH   7  27
ATOM     27  O   UNL     1      29.070  12.490  66.711  1.00  0.00    -0.507 OA
ATOM     28  H   UNL     1      28.474  13.042  67.309  1.00  0.00     0.293 HD
ENDBRANCH   7  27
TORSDOF 7
ENDMDL
MODEL 4
REMARK VINA RESULT:    -6.127      4.345      8.636
REMARK INTER + INTRA:          -7.936
REMARK INTER:                  -7.680
REMARK INTRA:                  -0.256
REMARK UNBOUND:                -0.376
REMARK SMILES Oc1cc(O)c2cc(O)c(-c3cc(O)c(O)c(O)c3)[o+]c2c1
REMARK SMILES IDX 10 1 20 2 21 3 22 4 2 5 3 6 4 7 6 8 7 9 8 10 11 11 12 12
REMARK SMILES IDX 13 13 19 14 15 15 17 16 14 17 16 19 18 21 9 23 1 25 5 27
REMARK H PARENT 14 18 16 20 18 22 9 24 1 26 5 28
REMARK Flexibility Score: inf
ROOT
ATOM      1  C   UNL     1      29.093  11.539  60.443  1.00  0.00     0.402 A 
ATOM      2  O   UNL     1      28.672  12.207  61.513  1.00  0.00    -0.202 OA
ATOM      3  C   UNL     1      29.300  12.179  62.684  1.00  0.00     0.368 A 
ATOM      4  C   UNL     1      28.778  12.912  63.754  1.00  0.00     0.162 A 
ATOM      5  C   UNL     1      29.417  12.898  64.996  1.00  0.00     0.128 A 
ATOM      6  C   UNL     1      30.582  12.148  65.172  1.00  0.00     0.093 A 
ATOM      7  C   UNL     1      31.125  11.405  64.116  1.00  0.00     0.136 A 
ATOM      8  C   UNL     1      30.482  11.418  62.851  1.00  0.00     0.125 A 
ATOM      9  C   UNL     1      30.961  10.714  61.734  1.00  0.00     0.078 A 
ATOM     10  C   UNL     1      30.274  10.779  60.517  1.00  0.00     0.223 A 
ENDROOT
BRANCH   1  11
ATOM     11  C   UNL     1      28.300  11.642  59.197  1.00  0.00     0.091 A 
ATOM     12  C   UNL     1      28.820  12.351  58.103  1.00  0.00     0.068 A 
ATOM     13  C   UNL     1      28.082  12.480  56.918  1.00  0.00     0.162 A 
ATOM     14  C   UNL     1      27.010  11.091  59.102  1.00  0.00     0.068 A 
ATOM     15  C   UNL     1      26.802  11.908  56.826  1.00  0.00     0.200 A 
ATOM     16  C   UNL     1      26.267  11.219  57.921  1.00  0.00     0.162 A 
BRANCH  13  17
ATOM     17  O   UNL     1      28.616  13.175  55.834  1.00  0.00    -0.504 OA
ATOM     18  H   UNL     1      29.315  12.761  55.229  1.00  0.00     0.293 HD
ENDBRANCH  13  17
BRANCH  15  19
ATOM     19  O   UNL     1      26.048  12.021  55.657  1.00  0.00    -0.502 OA
ATOM     20  H   UNL     1      26.278  12.689  54.932  1.00  0.00     0.293 HD
ENDBRANCH  15  19
BRANCH  16  21
ATOM     21  O   UNL     1      24.990  10.666  57.830  1.00  0.00    -0.504 OA
ATOM     22  H   UNL     1      24.233  11.153  57.365  1.00  0.00     0.293 HD
ENDBRANCH  16  21
ENDBRANCH   1  11
BRANCH  10  23
ATOM     23  O   UNL     1      30.777  10.121  59.395  1.00  0.00    -0.500 OA
ATOM     24  H   UNL     1      31.008  10.620  58.543  1.00  0.00     0.294 HD
ENDBRANCH  10  23
BRANCH   5  25
ATOM     25  O   UNL     1      28.903  13.628  66.066  1.00  0.00    -0.507 OA
ATOM     26  H   UNL     1      29.381  13.668  66.959  1.00  0.00     0.293 HD
ENDBRANCH   5  25
BRANCH   7  27
ATOM     27  O   UNL     1      32.291  10.678  64.374  1.00  0.00    -0.507 OA
ATOM     28  H   UNL     1      32.835  10.203  63.668  1.00  0.00     0.293 HD
ENDBRANCH   7  27
TORSDOF 7
ENDMDL
MODEL 5
REMARK VINA RESULT:    -6.084      4.261      6.051
REMARK INTER + INTRA:          -7.883
REMARK INTER:                  -7.611
REMARK INTRA:                  -0.272
REMARK UNBOUND:                -0.376
REMARK SMILES Oc1cc(O)c2cc(O)c(-c3cc(O)c(O)c(O)c3)[o+]c2c1
REMARK SMILES IDX 10 1 20 2 21 3 22 4 2 5 3 6 4 7 6 8 7 9 8 10 11 11 12 12
REMARK SMILES IDX 13 13 19 14 15 15 17 16 14 17 16 19 18 21 9 23 1 25 5 27
REMARK H PARENT 14 18 16 20 18 22 9 24 1 26 5 28
REMARK Flexibility Score: inf
ROOT
ATOM      1  C   UNL     1      29.337  12.174  61.047  1.00  0.00     0.402 A 
ATOM      2  O   UNL     1      28.160  11.665  60.691  1.00  0.00    -0.202 OA
ATOM      3  C   UNL     1      27.702  11.691  59.443  1.00  0.00     0.368 A 
ATOM      4  C   UNL     1      26.451  11.133  59.166  1.00  0.00     0.162 A 
ATOM      5  C   UNL     1      25.945  11.149  57.864  1.00  0.00     0.128 A 
ATOM      6  C   UNL     1      26.691  11.726  56.834  1.00  0.00     0.093 A 
ATOM      7  C   UNL     1      27.947  12.293  57.085  1.00  0.00     0.136 A 
ATOM      8  C   UNL     1      28.468  12.276  58.405  1.00  0.00     0.125 A 
ATOM      9  C   UNL     1      29.721  12.807  58.748  1.00  0.00     0.078 A 
ATOM     10  C   UNL     1      30.170  12.750  60.071  1.00  0.00     0.223 A 
ENDROOT
BRANCH   1  11
ATOM     11  C   UNL     1      29.731  12.093  62.472  1.00  0.00     0.091 A 
ATOM     12  C   UNL     1      29.091  12.915  63.413  1.00  0.00     0.068 A 
ATOM     13  C   UNL     1      29.458  12.872  64.765  1.00  0.00     0.162 A 
ATOM     14  C   UNL     1      30.772  11.249  62.897  1.00  0.00     0.068 A 
ATOM     15  C   UNL     1      30.486  12.011  65.184  1.00  0.00     0.200 A 
ATOM     16  C   UNL     1      31.144  11.205  64.247  1.00  0.00     0.162 A 
BRANCH  13  17
ATOM     17  O   UNL     1      28.806  13.684  65.692  1.00  0.00    -0.504 OA
ATOM     18  H   UNL     1      28.223  14.460  65.402  1.00  0.00     0.293 HD
ENDBRANCH  13  17
BRANCH  15  19
ATOM     19  O   UNL     1      30.868  11.949  66.525  1.00  0.00    -0.502 OA
ATOM     20  H   UNL     1      30.192  11.968  67.279  1.00  0.00     0.293 HD
ENDBRANCH  15  19
BRANCH  16  21
ATOM     21  O   UNL     1      32.173  10.363  64.666  1.00  0.00    -0.504 OA
ATOM     22  H   UNL     1      32.480   9.579  64.101  1.00  0.00     0.293 HD
ENDBRANCH  16  21
ENDBRANCH   1  11
BRANCH  10  23
ATOM     23  O   UNL     1      31.436  13.233  60.402  1.00  0.00    -0.500 OA
ATOM     24  H   UNL     1      31.816  14.070  59.974  1.00  0.00     0.294 HD
ENDBRANCH  10  23
BRANCH   5  25
ATOM     25  O   UNL     1      24.699  10.594  57.581  1.00  0.00    -0.507 OA
ATOM     26  H   UNL     1      24.109  10.214  58.312  1.00  0.00     0.293 HD
ENDBRANCH   5  25
BRANCH   7  27
ATOM     27  O   UNL     1      28.629  12.853  56.001  1.00  0.00    -0.507 OA
ATOM     28  H   UNL     1      28.331  13.679  55.506  1.00  0.00     0.293 HD
ENDBRANCH   7  27
TORSDOF 7
ENDMDL
MODEL 6
REMARK VINA RESULT:    -6.045      4.242      5.770
REMARK INTER + INTRA:          -7.835
REMARK INTER:                  -7.539
REMARK INTRA:                  -0.295
REMARK UNBOUND:                -0.376
REMARK SMILES Oc1cc(O)c2cc(O)c(-c3cc(O)c(O)c(O)c3)[o+]c2c1
REMARK SMILES IDX 10 1 20 2 21 3 22 4 2 5 3 6 4 7 6 8 7 9 8 10 11 11 12 12
REMARK SMILES IDX 13 13 19 14 15 15 17 16 14 17 16 19 18 21 9 23 1 25 5 27
REMARK H PARENT 14 18 16 20 18 22 9 24 1 26 5 28
REMARK Flexibility Score: inf
ROOT
ATOM      1  C   UNL     1      29.323  12.229  61.050  1.00  0.00     0.402 A 
ATOM      2  O   UNL     1      28.152  11.704  60.699  1.00  0.00    -0.202 OA
ATOM      3  C   UNL     1      27.695  11.710  59.450  1.00  0.00     0.368 A 
ATOM      4  C   UNL     1      26.450  11.136  59.179  1.00  0.00     0.162 A 
ATOM      5  C   UNL     1      25.945  11.131  57.876  1.00  0.00     0.128 A 
ATOM      6  C   UNL     1      26.686  11.703  56.840  1.00  0.00     0.093 A 
ATOM      7  C   UNL     1      27.936  12.286  57.086  1.00  0.00     0.136 A 
ATOM      8  C   UNL     1      28.455  12.291  58.407  1.00  0.00     0.125 A 
ATOM      9  C   UNL     1      29.703  12.839  58.744  1.00  0.00     0.078 A 
ATOM     10  C   UNL     1      30.151  12.803  60.068  1.00  0.00     0.223 A 
ENDROOT
BRANCH   1  11
ATOM     11  C   UNL     1      29.716  12.170  62.476  1.00  0.00     0.091 A 
ATOM     12  C   UNL     1      30.700  11.254  62.884  1.00  0.00     0.068 A 
ATOM     13  C   UNL     1      31.077  11.164  64.231  1.00  0.00     0.162 A 
ATOM     14  C   UNL     1      29.087  12.973  63.444  1.00  0.00     0.068 A 
ATOM     15  C   UNL     1      30.457  11.985  65.187  1.00  0.00     0.200 A 
ATOM     16  C   UNL     1      29.460  12.884  64.792  1.00  0.00     0.162 A 
BRANCH  13  17
ATOM     17  O   UNL     1      32.064  10.260  64.621  1.00  0.00    -0.504 OA
ATOM     18  H   UNL     1      32.144   9.344  64.195  1.00  0.00     0.293 HD
ENDBRANCH  13  17
BRANCH  15  19
ATOM     19  O   UNL     1      30.817  11.915  66.534  1.00  0.00    -0.502 OA
ATOM     20  H   UNL     1      30.787  12.724  67.142  1.00  0.00     0.293 HD
ENDBRANCH  15  19
BRANCH  16  21
ATOM     21  O   UNL     1      28.837  13.686  65.748  1.00  0.00    -0.504 OA
ATOM     22  H   UNL     1      29.200  13.766  66.691  1.00  0.00     0.293 HD
ENDBRANCH  16  21
ENDBRANCH   1  11
BRANCH  10  23
ATOM     23  O   UNL     1      31.411  13.303  60.395  1.00  0.00    -0.500 OA
ATOM     24  H   UNL     1      31.770  13.268  61.342  1.00  0.00     0.294 HD
ENDBRANCH  10  23
BRANCH   5  25
ATOM     25  O   UNL     1      24.706  10.559  57.599  1.00  0.00    -0.507 OA
ATOM     26  H   UNL     1      23.857  11.112  57.588  1.00  0.00     0.293 HD
ENDBRANCH   5  25
BRANCH   7  27
ATOM     27  O   UNL     1      28.613  12.840  55.996  1.00  0.00    -0.507 OA
ATOM     28  H   UNL     1      29.203  12.318  55.366  1.00  0.00     0.293 HD
ENDBRANCH   7  27
TORSDOF 7
ENDMDL
MODEL 7
REMARK VINA RESULT:    -5.785      3.881      8.678
REMARK INTER + INTRA:          -7.514
REMARK INTER:                  -7.136
REMARK INTRA:                  -0.378
REMARK UNBOUND:                -0.376
REMARK SMILES Oc1cc(O)c2cc(O)c(-c3cc(O)c(O)c(O)c3)[o+]c2c1
REMARK SMILES IDX 10 1 20 2 21 3 22 4 2 5 3 6 4 7 6 8 7 9 8 10 11 11 12 12
REMARK SMILES IDX 13 13 19 14 15 15 17 16 14 17 16 19 18 21 9 23 1 25 5 27
REMARK H PARENT 14 18 16 20 18 22 9 24 1 26 5 28
REMARK Flexibility Score: inf
ROOT
ATOM      1  C   UNL     1      28.320  11.075  60.515  1.00  0.00     0.402 A 
ATOM      2  O   UNL     1      28.209  12.011  61.454  1.00  0.00    -0.202 OA
ATOM      3  C   UNL     1      28.714  11.880  62.677  1.00  0.00     0.368 A 
ATOM      4  C   UNL     1      28.543  12.917  63.598  1.00  0.00     0.162 A 
ATOM      5  C   UNL     1      29.061  12.804  64.891  1.00  0.00     0.128 A 
ATOM      6  C   UNL     1      29.751  11.650  65.266  1.00  0.00     0.093 A 
ATOM      7  C   UNL     1      29.936  10.596  64.361  1.00  0.00     0.136 A 
ATOM      8  C   UNL     1      29.414  10.706  63.046  1.00  0.00     0.125 A 
ATOM      9  C   UNL     1      29.562   9.707  62.071  1.00  0.00     0.078 A 
ATOM     10  C   UNL     1      29.024   9.890  60.793  1.00  0.00     0.223 A 
ENDROOT
BRANCH   1  11
ATOM     11  C   UNL     1      27.705  11.335  59.193  1.00  0.00     0.091 A 
ATOM     12  C   UNL     1      26.412  10.855  58.927  1.00  0.00     0.068 A 
ATOM     13  C   UNL     1      25.814  11.070  57.677  1.00  0.00     0.162 A 
ATOM     14  C   UNL     1      28.408  12.005  58.177  1.00  0.00     0.068 A 
ATOM     15  C   UNL     1      26.517  11.759  56.675  1.00  0.00     0.200 A 
ATOM     16  C   UNL     1      27.815  12.221  56.926  1.00  0.00     0.162 A 
BRANCH  13  17
ATOM     17  O   UNL     1      24.525  10.601  57.430  1.00  0.00    -0.504 OA
ATOM     18  H   UNL     1      24.315   9.610  57.411  1.00  0.00     0.293 HD
ENDBRANCH  13  17
BRANCH  15  19
ATOM     19  O   UNL     1      25.942  11.987  55.424  1.00  0.00    -0.502 OA
ATOM     20  H   UNL     1      25.020  11.643  55.184  1.00  0.00     0.293 HD
ENDBRANCH  15  19
BRANCH  16  21
ATOM     21  O   UNL     1      28.514  12.891  55.922  1.00  0.00    -0.504 OA
ATOM     22  H   UNL     1      28.048  13.527  55.285  1.00  0.00     0.293 HD
ENDBRANCH  16  21
ENDBRANCH   1  11
BRANCH  10  23
ATOM     23  O   UNL     1      29.213   8.919  59.809  1.00  0.00    -0.500 OA
ATOM     24  H   UNL     1      28.727   8.030  59.837  1.00  0.00     0.294 HD
ENDBRANCH  10  23
BRANCH   5  25
ATOM     25  O   UNL     1      28.896  13.835  65.813  1.00  0.00    -0.507 OA
ATOM     26  H   UNL     1      29.650  14.475  66.035  1.00  0.00     0.293 HD
ENDBRANCH   5  25
BRANCH   7  27
ATOM     27  O   UNL     1      30.635   9.474  64.815  1.00  0.00    -0.507 OA
ATOM     28  H   UNL     1      30.387   8.520  64.596  1.00  0.00     0.293 HD
ENDBRANCH   7  27
TORSDOF 7
ENDMDL
MODEL 8
REMARK VINA RESULT:    -5.748      4.142      8.691
REMARK INTER + INTRA:          -7.469
REMARK INTER:                  -7.136
REMARK INTRA:                  -0.332
REMARK UNBOUND:                -0.376
REMARK SMILES Oc1cc(O)c2cc(O)c(-c3cc(O)c(O)c(O)c3)[o+]c2c1
REMARK SMILES IDX 10 1 20 2 21 3 22 4 2 5 3 6 4 7 6 8 7 9 8 10 11 11 12 12
REMARK SMILES IDX 13 13 19 14 15 15 17 16 14 17 16 19 18 21 9 23 1 25 5 27
REMARK H PARENT 14 18 16 20 18 22 9 24 1 26 5 28
REMARK Flexibility Score: inf
ROOT
ATOM      1  C   UNL     1      26.164   9.504  59.953  1.00  0.00     0.402 A 
ATOM      2  O   UNL     1      26.565  10.769  59.856  1.00  0.00    -0.202 OA
ATOM      3  C   UNL     1      27.019  11.471  60.891  1.00  0.00     0.368 A 
ATOM      4  C   UNL     1      27.414  12.797  60.692  1.00  0.00     0.162 A 
ATOM      5  C   UNL     1      27.892  13.558  61.761  1.00  0.00     0.128 A 
ATOM      6  C   UNL     1      27.974  12.992  63.036  1.00  0.00     0.093 A 
ATOM      7  C   UNL     1      27.584  11.666  63.261  1.00  0.00     0.136 A 
ATOM      8  C   UNL     1      27.100  10.888  62.178  1.00  0.00     0.125 A 
ATOM      9  C   UNL     1      26.700   9.548  62.308  1.00  0.00     0.078 A 
ATOM     10  C   UNL     1      26.238   8.843  61.192  1.00  0.00     0.223 A 
ENDROOT
BRANCH   1  11
ATOM     11  C   UNL     1      25.669   8.833  58.729  1.00  0.00     0.091 A 
ATOM     12  C   UNL     1      24.355   9.071  58.295  1.00  0.00     0.068 A 
ATOM     13  C   UNL     1      23.855   8.434  57.151  1.00  0.00     0.162 A 
ATOM     14  C   UNL     1      26.467   7.917  58.021  1.00  0.00     0.068 A 
ATOM     15  C   UNL     1      24.667   7.536  56.438  1.00  0.00     0.200 A 
ATOM     16  C   UNL     1      25.971   7.276  56.879  1.00  0.00     0.162 A 
BRANCH  13  17
ATOM     17  O   UNL     1      22.553   8.689  56.722  1.00  0.00    -0.504 OA
ATOM     18  H   UNL     1      22.261   8.501  55.770  1.00  0.00     0.293 HD
ENDBRANCH  13  17
BRANCH  15  19
ATOM     19  O   UNL     1      24.192   6.891  55.296  1.00  0.00    -0.502 OA
ATOM     20  H   UNL     1      23.840   5.941  55.321  1.00  0.00     0.293 HD
ENDBRANCH  15  19
BRANCH  16  21
ATOM     21  O   UNL     1      26.768   6.373  56.177  1.00  0.00    -0.504 OA
ATOM     22  H   UNL     1      27.245   6.639  55.323  1.00  0.00     0.293 HD
ENDBRANCH  16  21
ENDBRANCH   1  11
BRANCH  10  23
ATOM     23  O   UNL     1      25.887   7.498  61.310  1.00  0.00    -0.500 OA
ATOM     24  H   UNL     1      25.069   7.205  61.832  1.00  0.00     0.294 HD
ENDBRANCH  10  23
BRANCH   5  25
ATOM     25  O   UNL     1      28.289  14.879  61.570  1.00  0.00    -0.507 OA
ATOM     26  H   UNL     1      28.901  15.144  60.807  1.00  0.00     0.293 HD
ENDBRANCH   5  25
BRANCH   7  27
ATOM     27  O   UNL     1      27.694  11.176  64.566  1.00  0.00    -0.507 OA
ATOM     28  H   UNL     1      27.961  10.231  64.799  1.00  0.00     0.293 HD
ENDBRANCH   7  27
TORSDOF 7
ENDMDL
MODEL 9
REMARK VINA RESULT:    -5.737      3.806      8.828
REMARK INTER + INTRA:          -7.455
REMARK INTER:                  -7.106
REMARK INTRA:                  -0.348
REMARK UNBOUND:                -0.376
REMARK SMILES Oc1cc(O)c2cc(O)c(-c3cc(O)c(O)c(O)c3)[o+]c2c1
REMARK SMILES IDX 10 1 20 2 21 3 22 4 2 5 3 6 4 7 6 8 7 9 8 10 11 11 12 12
REMARK SMILES IDX 13 13 19 14 15 15 17 16 14 17 16 19 18 21 9 23 1 25 5 27
REMARK H PARENT 14 18 16 20 18 22 9 24 1 26 5 28
REMARK Flexibility Score: inf
ROOT
ATOM      1  C   UNL     1      26.389  10.498  59.210  1.00  0.00     0.402 A 
ATOM      2  O   UNL     1      26.482  10.135  60.486  1.00  0.00    -0.202 OA
ATOM      3  C   UNL     1      26.985  10.921  61.434  1.00  0.00     0.368 A 
ATOM      4  C   UNL     1      27.044  10.450  62.748  1.00  0.00     0.162 A 
ATOM      5  C   UNL     1      27.570  11.254  63.762  1.00  0.00     0.128 A 
ATOM      6  C   UNL     1      28.040  12.534  63.462  1.00  0.00     0.093 A 
ATOM      7  C   UNL     1      27.992  13.030  62.153  1.00  0.00     0.136 A 
ATOM      8  C   UNL     1      27.456  12.219  61.119  1.00  0.00     0.125 A 
ATOM      9  C   UNL     1      27.357  12.636  59.783  1.00  0.00     0.078 A 
ATOM     10  C   UNL     1      26.812  11.782  58.819  1.00  0.00     0.223 A 
ENDROOT
BRANCH   1  11
ATOM     11  C   UNL     1      25.820   9.529  58.246  1.00  0.00     0.091 A 
ATOM     12  C   UNL     1      24.474   9.642  57.867  1.00  0.00     0.068 A 
ATOM     13  C   UNL     1      23.904   8.725  56.971  1.00  0.00     0.162 A 
ATOM     14  C   UNL     1      26.585   8.461  57.743  1.00  0.00     0.068 A 
ATOM     15  C   UNL     1      24.682   7.674  56.458  1.00  0.00     0.200 A 
ATOM     16  C   UNL     1      26.020   7.542  56.850  1.00  0.00     0.162 A 
BRANCH  13  17
ATOM     17  O   UNL     1      22.570   8.856  56.592  1.00  0.00    -0.504 OA
ATOM     18  H   UNL     1      21.825   8.910  57.277  1.00  0.00     0.293 HD
ENDBRANCH  13  17
BRANCH  15  19
ATOM     19  O   UNL     1      24.139   6.751  55.564  1.00  0.00    -0.502 OA
ATOM     20  H   UNL     1      24.575   6.544  54.673  1.00  0.00     0.293 HD
ENDBRANCH  15  19
BRANCH  16  21
ATOM     21  O   UNL     1      26.783   6.488  56.349  1.00  0.00    -0.504 OA
ATOM     22  H   UNL     1      27.723   6.634  55.996  1.00  0.00     0.293 HD
ENDBRANCH  16  21
ENDBRANCH   1  11
BRANCH  10  23
ATOM     23  O   UNL     1      26.668  12.215  57.501  1.00  0.00    -0.500 OA
ATOM     24  H   UNL     1      25.946  11.843  56.894  1.00  0.00     0.294 HD
ENDBRANCH  10  23
BRANCH   5  25
ATOM     25  O   UNL     1      27.630  10.791  65.075  1.00  0.00    -0.507 OA
ATOM     26  H   UNL     1      26.843  10.882  65.706  1.00  0.00     0.293 HD
ENDBRANCH   5  25
BRANCH   7  27
ATOM     27  O   UNL     1      28.485  14.320  61.935  1.00  0.00    -0.507 OA
ATOM     28  H   UNL     1      29.183  14.768  62.509  1.00  0.00     0.293 HD
ENDBRANCH   7  27
TORSDOF 7
ENDMDL
