MODEL 1
REMARK VINA RESULT:     1.194      0.000      0.000
REMARK INTER + INTRA:           2.133
REMARK INTER:                   1.613
REMARK INTRA:                   0.520
REMARK UNBOUND:                 0.520
REMARK SMILES C=C(C)[C@@H]1CC[C@H](C)C2=C(C1)[C@@H](C)CC2
REMARK SMILES IDX 10 1 9 2 15 3 14 4 12 5 13 6 7 7 8 8 6 9 11 11 4 12 5 13
REMARK SMILES IDX 2 15 1 16 3 17
REMARK H PARENT
REMARK Flexibility Score: 80.00
ROOT
ATOM      1  C   UNL     1     153.050 137.812 162.050  1.00  0.00    -0.067 C 
ATOM      2  C   UNL     1     153.847 136.815 162.445  1.00  0.00    -0.068 C 
ATOM      3  C   UNL     1     155.125 137.326 163.022  1.00  0.00     0.032 C 
ATOM      4  C   UNL     1     155.093 138.831 162.763  1.00  0.00     0.012 C 
ATOM      5  C   UNL     1     153.656 139.153 162.326  1.00  0.00     0.012 C 
ATOM      6  C   UNL     1     152.881 139.887 163.426  1.00  0.00     0.012 C 
ENDROOT
BRANCH   2   7
ATOM      7  C   UNL     1     153.559 135.331 162.347  1.00  0.00     0.012 C 
ATOM      8  C   UNL     1     152.522 134.875 163.384  1.00  0.00     0.012 C 
BRANCH   7   9
ATOM      9  C   UNL     1     153.243 134.875 160.907  1.00  0.00     0.008 CG0
ATOM     10  G   UNL     1     151.893 135.345 160.340  1.00  0.00     0.000 G0
ENDBRANCH   7   9
ENDBRANCH   2   7
BRANCH   1  11
ATOM     11  C   UNL     1     151.702 137.657 161.388  1.00  0.00     0.039 C 
BRANCH  11  12
ATOM     12  C   UNL     1     151.782 136.840 160.082  1.00  0.00     0.018 C 
BRANCH  12  13
ATOM     13  C   UNL     1     151.883 135.323 160.348  1.00  0.00     0.009 CG0
ATOM     14  G   UNL     1     153.245 134.885 160.911  1.00  0.00     0.000 G0
ENDBRANCH  12  13
BRANCH  12  15
ATOM     15  C   UNL     1     150.568 137.130 159.209  1.00  0.00    -0.077 C 
ATOM     16  C   UNL     1     149.538 137.844 159.693  1.00  0.00     0.008 C 
ATOM     17  C   UNL     1     150.497 136.633 157.786  1.00  0.00     0.039 C 
ENDBRANCH  12  15
ENDBRANCH  11  12
ENDBRANCH   1  11
TORSDOF 1
ENDMDL
MODEL 2
REMARK VINA RESULT:     1.731      1.848      3.437
REMARK INTER + INTRA:           2.858
REMARK INTER:                   2.337
REMARK INTRA:                   0.521
REMARK UNBOUND:                 0.520
REMARK SMILES C=C(C)[C@@H]1CC[C@H](C)C2=C(C1)[C@@H](C)CC2
REMARK SMILES IDX 10 1 9 2 15 3 14 4 12 5 13 6 7 7 8 8 6 9 11 11 4 12 5 13
REMARK SMILES IDX 2 15 1 16 3 17
REMARK H PARENT
REMARK Flexibility Score: 80.00
ROOT
ATOM      1  C   UNL     1     152.631 136.471 162.503  1.00  0.00    -0.067 C 
ATOM      2  C   UNL     1     153.448 137.166 163.299  1.00  0.00    -0.068 C 
ATOM      3  C   UNL     1     154.602 136.341 163.763  1.00  0.00     0.032 C 
ATOM      4  C   UNL     1     154.289 134.928 163.274  1.00  0.00     0.012 C 
ATOM      5  C   UNL     1     153.123 135.073 162.285  1.00  0.00     0.012 C 
ATOM      6  C   UNL     1     153.581 134.875 160.835  1.00  0.00     0.012 C 
ENDROOT
BRANCH   2   7
ATOM      7  C   UNL     1     153.287 138.612 163.722  1.00  0.00     0.012 C 
ATOM      8  C   UNL     1     154.444 139.086 164.612  1.00  0.00     0.012 C 
BRANCH   7   9
ATOM      9  C   UNL     1     152.986 139.554 162.536  1.00  0.00     0.008 CG0
ATOM     10  G   UNL     1     152.904 138.880 161.156  1.00  0.00     0.000 G0
ENDBRANCH   7   9
ENDBRANCH   2   7
BRANCH   1  11
ATOM     11  C   UNL     1     151.350 136.980 161.888  1.00  0.00     0.039 C 
BRANCH  11  12
ATOM     12  C   UNL     1     151.599 138.111 160.871  1.00  0.00     0.018 C 
BRANCH  12  13
ATOM     13  C   UNL     1     152.909 138.876 161.155  1.00  0.00     0.009 CG0
ATOM     14  G   UNL     1     152.944 139.545 162.539  1.00  0.00     0.000 G0
ENDBRANCH  12  13
BRANCH  12  15
ATOM     15  C   UNL     1     151.630 137.545 159.457  1.00  0.00    -0.077 C 
ATOM     16  C   UNL     1     152.783 137.494 158.771  1.00  0.00     0.008 C 
ATOM     17  C   UNL     1     150.375 137.023 158.800  1.00  0.00     0.039 C 
ENDBRANCH  12  15
ENDBRANCH  11  12
ENDBRANCH   1  11
TORSDOF 1
ENDMDL
MODEL 3
REMARK VINA RESULT:     3.600     20.164     22.299
REMARK INTER + INTRA:           5.382
REMARK INTER:                   4.695
REMARK INTRA:                   0.688
REMARK UNBOUND:                 0.520
REMARK SMILES C=C(C)[C@@H]1CC[C@H](C)C2=C(C1)[C@@H](C)CC2
REMARK SMILES IDX 10 1 9 2 15 3 14 4 12 5 13 6 7 7 8 8 6 9 11 11 4 12 5 13
REMARK SMILES IDX 2 15 1 16 3 17
REMARK H PARENT
REMARK Flexibility Score: 80.00
ROOT
ATOM      1  C   UNL     1     137.796 152.212 161.856  1.00  0.00    -0.067 C 
ATOM      2  C   UNL     1     136.937 153.064 162.423  1.00  0.00    -0.068 C 
ATOM      3  C   UNL     1     135.739 152.360 162.968  1.00  0.00     0.032 C 
ATOM      4  C   UNL     1     135.887 150.916 162.490  1.00  0.00     0.012 C 
ATOM      5  C   UNL     1     137.322 150.795 161.956  1.00  0.00     0.012 C 
ATOM      6  C   UNL     1     138.214 149.987 162.906  1.00  0.00     0.012 C 
ENDROOT
BRANCH   2   7
ATOM      7  C   UNL     1     137.091 154.568 162.533  1.00  0.00     0.012 C 
ATOM      8  C   UNL     1     136.428 155.125 163.800  1.00  0.00     0.012 C 
BRANCH   7   9
ATOM      9  C   UNL     1     138.547 155.037 162.332  1.00  0.00     0.008 CG0
ATOM     10  G   UNL     1     139.016 155.149 160.872  1.00  0.00     0.000 G0
ENDBRANCH   7   9
ENDBRANCH   2   7
BRANCH   1  11
ATOM     11  C   UNL     1     139.089 152.584 161.172  1.00  0.00     0.039 C 
BRANCH  11  12
ATOM     12  C   UNL     1     138.911 153.748 160.177  1.00  0.00     0.018 C 
BRANCH  12  13
ATOM     13  C   UNL     1     138.973 155.125 160.870  1.00  0.00     0.009 CG0
ATOM     14  G   UNL     1     138.559 155.088 162.351  1.00  0.00     0.000 G0
ENDBRANCH  12  13
BRANCH  12  15
ATOM     15  C   UNL     1     139.975 153.671 159.088  1.00  0.00    -0.077 C 
ATOM     16  C   UNL     1     141.142 153.051 159.322  1.00  0.00     0.008 C 
ATOM     17  C   UNL     1     139.740 154.280 157.727  1.00  0.00     0.039 C 
ENDBRANCH  12  15
ENDBRANCH  11  12
ENDBRANCH   1  11
TORSDOF 1
ENDMDL
MODEL 4
REMARK VINA RESULT:     3.742      1.661      4.466
REMARK INTER + INTRA:           5.574
REMARK INTER:                   5.050
REMARK INTRA:                   0.524
REMARK UNBOUND:                 0.520
REMARK SMILES C=C(C)[C@@H]1CC[C@H](C)C2=C(C1)[C@@H](C)CC2
REMARK SMILES IDX 10 1 9 2 15 3 14 4 12 5 13 6 7 7 8 8 6 9 11 11 4 12 5 13
REMARK SMILES IDX 2 15 1 16 3 17
REMARK H PARENT
REMARK Flexibility Score: 80.00
ROOT
ATOM      1  C   UNL     1     152.342 136.941 161.368  1.00  0.00    -0.067 C 
ATOM      2  C   UNL     1     152.525 135.618 161.386  1.00  0.00    -0.068 C 
ATOM      3  C   UNL     1     151.381 134.893 160.760  1.00  0.00     0.032 C 
ATOM      4  C   UNL     1     150.334 135.975 160.496  1.00  0.00     0.012 C 
ATOM      5  C   UNL     1     151.056 137.316 160.700  1.00  0.00     0.012 C 
ATOM      6  C   UNL     1     151.318 138.027 159.368  1.00  0.00     0.012 C 
ENDROOT
BRANCH   2   7
ATOM      7  C   UNL     1     153.717 134.875 161.956  1.00  0.00     0.012 C 
ATOM      8  C   UNL     1     154.957 135.000 161.060  1.00  0.00     0.012 C 
BRANCH   7   9
ATOM      9  C   UNL     1     153.981 135.214 163.438  1.00  0.00     0.008 CG0
ATOM     10  G   UNL     1     154.534 136.623 163.711  1.00  0.00     0.000 G0
ENDBRANCH   7   9
ENDBRANCH   2   7
BRANCH   1  11
ATOM     11  C   UNL     1     153.280 137.971 161.950  1.00  0.00     0.039 C 
BRANCH  11  12
ATOM     12  C   UNL     1     153.529 137.752 163.456  1.00  0.00     0.018 C 
BRANCH  12  13
ATOM     13  C   UNL     1     154.541 136.618 163.721  1.00  0.00     0.009 CG0
ATOM     14  G   UNL     1     153.975 135.213 163.458  1.00  0.00     0.000 G0
ENDBRANCH  12  13
BRANCH  12  15
ATOM     15  C   UNL     1     154.022 139.043 164.097  1.00  0.00    -0.077 C 
ATOM     16  C   UNL     1     153.758 139.304 165.388  1.00  0.00     0.008 C 
ATOM     17  C   UNL     1     154.820 140.050 163.305  1.00  0.00     0.039 C 
ENDBRANCH  12  15
ENDBRANCH  11  12
ENDBRANCH   1  11
TORSDOF 1
ENDMDL
MODEL 5
REMARK VINA RESULT:     4.008     20.097     21.994
REMARK INTER + INTRA:           5.934
REMARK INTER:                   5.388
REMARK INTRA:                   0.546
REMARK UNBOUND:                 0.520
REMARK SMILES C=C(C)[C@@H]1CC[C@H](C)C2=C(C1)[C@@H](C)CC2
REMARK SMILES IDX 10 1 9 2 15 3 14 4 12 5 13 6 7 7 8 8 6 9 11 11 4 12 5 13
REMARK SMILES IDX 2 15 1 16 3 17
REMARK H PARENT
REMARK Flexibility Score: 80.00
ROOT
ATOM      1  C   UNL     1     138.035 153.293 160.408  1.00  0.00    -0.067 C 
ATOM      2  C   UNL     1     139.141 154.037 160.500  1.00  0.00    -0.068 C 
ATOM      3  C   UNL     1     139.132 154.890 161.724  1.00  0.00     0.032 C 
ATOM      4  C   UNL     1     137.736 154.704 162.317  1.00  0.00     0.012 C 
ATOM      5  C   UNL     1     137.120 153.510 161.573  1.00  0.00     0.012 C 
ATOM      6  C   UNL     1     137.057 152.261 162.459  1.00  0.00     0.012 C 
ENDROOT
BRANCH   2   7
ATOM      7  C   UNL     1     140.299 154.064 159.522  1.00  0.00     0.012 C 
ATOM      8  C   UNL     1     141.178 152.812 159.634  1.00  0.00     0.012 C 
BRANCH   7   9
ATOM      9  C   UNL     1     139.857 154.391 158.080  1.00  0.00     0.008 CG0
ATOM     10  G   UNL     1     139.094 153.274 157.349  1.00  0.00     0.000 G0
ENDBRANCH   7   9
ENDBRANCH   2   7
BRANCH   1  11
ATOM     11  C   UNL     1     137.697 152.347 159.281  1.00  0.00     0.039 C 
BRANCH  11  12
ATOM     12  C   UNL     1     137.671 153.054 157.911  1.00  0.00     0.018 C 
BRANCH  12  13
ATOM     13  C   UNL     1     139.089 153.295 157.351  1.00  0.00     0.009 CG0
ATOM     14  G   UNL     1     139.862 154.402 158.087  1.00  0.00     0.000 G0
ENDBRANCH  12  13
BRANCH  12  15
ATOM     15  C   UNL     1     136.856 152.238 156.916  1.00  0.00    -0.077 C 
ATOM     16  C   UNL     1     136.254 152.838 155.877  1.00  0.00     0.008 C 
ATOM     17  C   UNL     1     136.712 150.743 157.070  1.00  0.00     0.039 C 
ENDBRANCH  12  15
ENDBRANCH  11  12
ENDBRANCH   1  11
TORSDOF 1
ENDMDL
