MODEL 1
REMARK VINA RESULT:    15.513      0.000      0.000
REMARK INTER + INTRA:          30.337
REMARK INTER:                  23.222
REMARK INTRA:                   7.114
REMARK UNBOUND:                 7.114
REMARK SMILES COC(=O)C1=CO[C@H](O[C@@H]2O[C@@H](CO)[C@@H](O)[C@H](O)[C@@H]2O)[C@H]2C(CO)=CC[C@H]12
REMARK SMILES IDX 9 1 8 2 5 3 6 4 27 5 7 6 21 7 26 8 22 9 25 10 3 11 4 12 2 13
REMARK SMILES IDX 1 14 23 15 24 16 10 18 19 19 11 20 17 21 12 22 15 23 20 24
REMARK SMILES IDX 18 26 13 28 14 29 16 31
REMARK H PARENT 24 17 20 25 18 27 14 30 16 32
REMARK Flexibility Score: inf
ROOT
ATOM      1  O   UNL     1     -21.482 -13.308 -12.995  1.00  0.00    -0.310 OA
ENDROOT
BRANCH   1   2
ATOM      2  C   UNL     1     -20.257 -13.901 -13.379  1.00  0.00     0.316 C 
ATOM      3  C   UNL     1     -17.494 -13.360 -14.187  1.00  0.00     0.076 C 
ATOM      4  C   UNL     1     -18.514 -13.157 -15.049  1.00  0.00     0.202 C 
ATOM      5  C   UNL     1     -17.846 -14.031 -12.880  1.00  0.00     0.047 C 
ATOM      6  O   UNL     1     -19.856 -13.422 -14.681  1.00  0.00    -0.471 OA
ATOM      7  C   UNL     1     -19.177 -13.485 -12.383  1.00  0.00     0.094 C 
ATOM      8  C   UNL     1     -16.954 -13.899 -11.646  1.00  0.00     0.037 C 
ATOM      9  C   UNL     1     -19.205 -13.982 -10.979  1.00  0.00    -0.039 C 
ATOM     10  C   UNL     1     -17.950 -14.119 -10.541  1.00  0.00    -0.024 C 
BRANCH   3  11
ATOM     11  C   UNL     1     -16.094 -13.122 -14.603  1.00  0.00     0.337 C 
ATOM     12  O   UNL     1     -15.765 -12.021 -15.125  1.00  0.00    -0.246 OA
BRANCH  11  13
ATOM     13  O   UNL     1     -15.129 -14.118 -14.409  1.00  0.00    -0.466 OA
ATOM     14  C   UNL     1     -13.747 -13.827 -14.246  1.00  0.00     0.282 C 
ENDBRANCH  11  13
ENDBRANCH   3  11
BRANCH   9  15
ATOM     15  C   UNL     1     -20.414 -13.980 -10.089  1.00  0.00     0.187 C 
BRANCH  15  16
ATOM     16  O   UNL     1     -20.264 -12.999  -9.102  1.00  0.00    -0.392 OA
ATOM     17  H   UNL     1     -20.946 -13.201  -8.410  1.00  0.00     0.211 HD
ENDBRANCH  15  16
ENDBRANCH   9  15
ENDBRANCH   1   2
BRANCH   1  18
ATOM     18  C   UNL     1     -21.711 -12.095 -13.699  1.00  0.00     0.286 C 
ATOM     19  C   UNL     1     -22.573 -11.143 -12.847  1.00  0.00     0.202 C 
ATOM     20  O   UNL     1     -20.490 -11.471 -14.074  1.00  0.00    -0.341 OA
ATOM     21  C   UNL     1     -21.786 -10.636 -11.618  1.00  0.00     0.179 C 
ATOM     22  C   UNL     1     -19.699 -11.144 -12.941  1.00  0.00     0.178 C 
ATOM     23  C   UNL     1     -20.416 -10.093 -12.062  1.00  0.00     0.177 C 
BRANCH  19  24
ATOM     24  O   UNL     1     -23.750 -11.798 -12.449  1.00  0.00    -0.385 OA
ATOM     25  H   UNL     1     -24.495 -11.160 -12.599  1.00  0.00     0.211 HD
ENDBRANCH  19  24
BRANCH  21  26
ATOM     26  O   UNL     1     -21.598 -11.671 -10.685  1.00  0.00    -0.387 OA
ATOM     27  H   UNL     1     -22.275 -11.544  -9.970  1.00  0.00     0.211 HD
ENDBRANCH  21  26
BRANCH  22  28
ATOM     28  C   UNL     1     -18.334 -10.640 -13.433  1.00  0.00     0.191 C 
BRANCH  28  29
ATOM     29  O   UNL     1     -18.172  -9.277 -13.146  1.00  0.00    -0.394 OA
ATOM     30  H   UNL     1     -17.275  -9.015 -13.482  1.00  0.00     0.210 HD
ENDBRANCH  28  29
ENDBRANCH  22  28
BRANCH  23  31
ATOM     31  O   UNL     1     -20.585  -8.899 -12.786  1.00  0.00    -0.387 OA
ATOM     32  H   UNL     1     -19.999  -8.963 -13.585  1.00  0.00     0.211 HD
ENDBRANCH  23  31
ENDBRANCH   1  18
TORSDOF 11
ENDMDL
