MODEL 1
REMARK VINA RESULT:    -5.364      0.000      0.000
REMARK INTER + INTRA:          -8.010
REMARK INTER:                  -6.618
REMARK INTRA:                  -1.392
REMARK UNBOUND:                -1.392
REMARK SMILES CC(C)=CCC[C@@H](C)c1ccc(C)cc1
REMARK SMILES IDX 6 1 7 2 8 3 9 4 13 5 12 6 11 7 14 8 10 9 15 10 5 11 4 12
REMARK SMILES IDX 2 13 1 14 3 15
REMARK H PARENT
REMARK Flexibility Score: inf
ROOT
ATOM      1  C   UNL     1      30.229  14.054  26.468  1.00  0.00     0.012 C 
ENDROOT
BRANCH   1   2
ATOM      2  C   UNL     1      30.268  13.204  25.178  1.00  0.00     0.016 C 
ATOM      3  C   UNL     1      29.074  12.243  25.075  1.00  0.00     0.013 C 
BRANCH   2   4
ATOM      4  C   UNL     1      30.330  14.102  23.955  1.00  0.00    -0.045 A 
ATOM      5  C   UNL     1      30.562  16.680  20.496  1.00  0.00     0.044 C 
ATOM      6  C   UNL     1      30.467  15.764  21.681  1.00  0.00    -0.051 A 
ATOM      7  C   UNL     1      29.377  15.855  22.558  1.00  0.00     0.004 A 
ATOM      8  C   UNL     1      31.500  14.858  21.959  1.00  0.00     0.004 A 
ATOM      9  C   UNL     1      29.305  15.028  23.682  1.00  0.00     0.004 A 
ATOM     10  C   UNL     1      31.431  14.031  23.083  1.00  0.00     0.004 A 
ENDBRANCH   2   4
ENDBRANCH   1   2
BRANCH   1  11
ATOM     11  C   UNL     1      31.524  14.848  26.691  1.00  0.00     0.028 C 
BRANCH  11  12
ATOM     12  C   UNL     1      31.215  16.261  27.120  1.00  0.00    -0.028 C 
ATOM     13  C   UNL     1      31.397  17.353  26.345  1.00  0.00    -0.080 C 
ATOM     14  C   UNL     1      31.996  17.259  24.960  1.00  0.00     0.039 C 
ATOM     15  C   UNL     1      31.003  18.698  26.894  1.00  0.00     0.039 C 
ENDBRANCH  11  12
ENDBRANCH   1  11
TORSDOF 4
ENDMDL
MODEL 2
REMARK VINA RESULT:    -5.338     14.026     16.043
REMARK INTER + INTRA:          -7.979
REMARK INTER:                  -6.883
REMARK INTRA:                  -1.096
REMARK UNBOUND:                -1.392
REMARK SMILES CC(C)=CCC[C@@H](C)c1ccc(C)cc1
REMARK SMILES IDX 6 1 7 2 8 3 9 4 13 5 12 6 11 7 14 8 10 9 15 10 5 11 4 12
REMARK SMILES IDX 2 13 1 14 3 15
REMARK H PARENT
REMARK Flexibility Score: inf
ROOT
ATOM      1  C   UNL     1      20.248  12.330  14.719  1.00  0.00     0.012 C 
ENDROOT
BRANCH   1   2
ATOM      2  C   UNL     1      19.449  13.653  14.761  1.00  0.00     0.016 C 
ATOM      3  C   UNL     1      20.073  14.740  13.873  1.00  0.00     0.013 C 
BRANCH   2   4
ATOM      4  C   UNL     1      18.003  13.411  14.364  1.00  0.00    -0.045 A 
ATOM      5  C   UNL     1      13.896  12.766  13.192  1.00  0.00     0.044 C 
ATOM      6  C   UNL     1      15.325  12.961  13.606  1.00  0.00    -0.051 A 
ATOM      7  C   UNL     1      15.634  13.333  14.922  1.00  0.00     0.004 A 
ATOM      8  C   UNL     1      16.356  12.841  12.665  1.00  0.00     0.004 A 
ATOM      9  C   UNL     1      16.961  13.550  15.301  1.00  0.00     0.004 A 
ATOM     10  C   UNL     1      17.685  13.059  13.041  1.00  0.00     0.004 A 
ENDBRANCH   2   4
ENDBRANCH   1   2
BRANCH   1  11
ATOM     11  C   UNL     1      20.004  11.454  15.957  1.00  0.00     0.028 C 
BRANCH  11  12
ATOM     12  C   UNL     1      20.332  12.213  17.219  1.00  0.00    -0.028 C 
ATOM     13  C   UNL     1      19.509  12.313  18.286  1.00  0.00    -0.080 C 
ATOM     14  C   UNL     1      18.126  11.704  18.289  1.00  0.00     0.039 C 
ATOM     15  C   UNL     1      19.989  13.070  19.496  1.00  0.00     0.039 C 
ENDBRANCH  11  12
ENDBRANCH   1  11
TORSDOF 4
ENDMDL
MODEL 3
REMARK VINA RESULT:    -5.336     16.897     19.276
REMARK INTER + INTRA:          -7.976
REMARK INTER:                  -7.251
REMARK INTRA:                  -0.725
REMARK UNBOUND:                -1.392
REMARK SMILES CC(C)=CCC[C@@H](C)c1ccc(C)cc1
REMARK SMILES IDX 6 1 7 2 8 3 9 4 13 5 12 6 11 7 14 8 10 9 15 10 5 11 4 12
REMARK SMILES IDX 2 13 1 14 3 15
REMARK H PARENT
REMARK Flexibility Score: inf
ROOT
ATOM      1  C   UNL     1      18.843  24.374  14.455  1.00  0.00     0.012 C 
ENDROOT
BRANCH   1   2
ATOM      2  C   UNL     1      17.331  24.354  14.777  1.00  0.00     0.016 C 
ATOM      3  C   UNL     1      16.955  25.355  15.880  1.00  0.00     0.013 C 
BRANCH   2   4
ATOM      4  C   UNL     1      16.519  24.620  13.522  1.00  0.00    -0.045 A 
ATOM      5  C   UNL     1      14.243  25.426   9.940  1.00  0.00     0.044 C 
ATOM      6  C   UNL     1      15.029  25.116  11.180  1.00  0.00    -0.051 A 
ATOM      7  C   UNL     1      14.391  25.077  12.428  1.00  0.00     0.004 A 
ATOM      8  C   UNL     1      16.417  24.933  11.110  1.00  0.00     0.004 A 
ATOM      9  C   UNL     1      15.128  24.826  13.589  1.00  0.00     0.004 A 
ATOM     10  C   UNL     1      17.155  24.681  12.270  1.00  0.00     0.004 A 
ENDBRANCH   2   4
ENDBRANCH   1   2
BRANCH   1  11
ATOM     11  C   UNL     1      19.601  25.449  15.247  1.00  0.00     0.028 C 
BRANCH  11  12
ATOM     12  C   UNL     1      20.690  24.825  16.084  1.00  0.00    -0.028 C 
ATOM     13  C   UNL     1      20.779  24.936  17.428  1.00  0.00    -0.080 C 
ATOM     14  C   UNL     1      19.801  25.764  18.229  1.00  0.00     0.039 C 
ATOM     15  C   UNL     1      21.900  24.221  18.135  1.00  0.00     0.039 C 
ENDBRANCH  11  12
ENDBRANCH   1  11
TORSDOF 4
ENDMDL
MODEL 4
REMARK VINA RESULT:    -5.325     13.538     15.892
REMARK INTER + INTRA:          -7.962
REMARK INTER:                  -6.437
REMARK INTRA:                  -1.525
REMARK UNBOUND:                -1.392
REMARK SMILES CC(C)=CCC[C@@H](C)c1ccc(C)cc1
REMARK SMILES IDX 6 1 7 2 8 3 9 4 13 5 12 6 11 7 14 8 10 9 15 10 5 11 4 12
REMARK SMILES IDX 2 13 1 14 3 15
REMARK H PARENT
REMARK Flexibility Score: inf
ROOT
ATOM      1  C   UNL     1      18.199  14.019  13.804  1.00  0.00     0.012 C 
ENDROOT
BRANCH   1   2
ATOM      2  C   UNL     1      16.817  14.058  14.494  1.00  0.00     0.016 C 
ATOM      3  C   UNL     1      15.799  13.129  13.816  1.00  0.00     0.013 C 
BRANCH   2   4
ATOM      4  C   UNL     1      16.950  13.711  15.966  1.00  0.00    -0.045 A 
ATOM      5  C   UNL     1      17.391  12.714  20.146  1.00  0.00     0.044 C 
ATOM      6  C   UNL     1      17.216  13.080  18.702  1.00  0.00    -0.051 A 
ATOM      7  C   UNL     1      16.334  12.352  17.891  1.00  0.00     0.004 A 
ATOM      8  C   UNL     1      17.985  14.106  18.134  1.00  0.00     0.004 A 
ATOM      9  C   UNL     1      16.197  12.668  16.537  1.00  0.00     0.004 A 
ATOM     10  C   UNL     1      17.850  14.423  16.780  1.00  0.00     0.004 A 
ENDBRANCH   2   4
ENDBRANCH   1   2
BRANCH   1  11
ATOM     11  C   UNL     1      18.816  12.613  13.796  1.00  0.00     0.028 C 
BRANCH  11  12
ATOM     12  C   UNL     1      20.193  12.632  14.410  1.00  0.00    -0.028 C 
ATOM     13  C   UNL     1      20.541  11.956  15.528  1.00  0.00    -0.080 C 
ATOM     14  C   UNL     1      19.539  11.144  16.315  1.00  0.00     0.039 C 
ATOM     15  C   UNL     1      21.968  12.037  16.001  1.00  0.00     0.039 C 
ENDBRANCH  11  12
ENDBRANCH   1  11
TORSDOF 4
ENDMDL
MODEL 5
REMARK VINA RESULT:    -5.306     16.104     17.812
REMARK INTER + INTRA:          -7.940
REMARK INTER:                  -6.451
REMARK INTRA:                  -1.489
REMARK UNBOUND:                -1.392
REMARK SMILES CC(C)=CCC[C@@H](C)c1ccc(C)cc1
REMARK SMILES IDX 6 1 7 2 8 3 9 4 13 5 12 6 11 7 14 8 10 9 15 10 5 11 4 12
REMARK SMILES IDX 2 13 1 14 3 15
REMARK H PARENT
REMARK Flexibility Score: inf
ROOT
ATOM      1  C   UNL     1      17.196  23.672  15.126  1.00  0.00     0.012 C 
ENDROOT
BRANCH   1   2
ATOM      2  C   UNL     1      17.595  23.652  13.632  1.00  0.00     0.016 C 
ATOM      3  C   UNL     1      16.750  24.619  12.789  1.00  0.00     0.013 C 
BRANCH   2   4
ATOM      4  C   UNL     1      19.072  23.965  13.476  1.00  0.00    -0.045 A 
ATOM      5  C   UNL     1      23.271  24.847  12.969  1.00  0.00     0.044 C 
ATOM      6  C   UNL     1      21.812  24.561  13.168  1.00  0.00    -0.051 A 
ATOM      7  C   UNL     1      21.405  23.518  14.013  1.00  0.00     0.004 A 
ATOM      8  C   UNL     1      20.845  25.287  12.458  1.00  0.00     0.004 A 
ATOM      9  C   UNL     1      20.048  23.226  14.170  1.00  0.00     0.004 A 
ATOM     10  C   UNL     1      19.487  24.996  12.614  1.00  0.00     0.004 A 
ENDBRANCH   2   4
ENDBRANCH   1   2
BRANCH   1  11
ATOM     11  C   UNL     1      17.213  25.087  15.722  1.00  0.00     0.028 C 
BRANCH  11  12
ATOM     12  C   UNL     1      18.055  25.127  16.973  1.00  0.00    -0.028 C 
ATOM     13  C   UNL     1      19.224  25.796  17.086  1.00  0.00    -0.080 C 
ATOM     14  C   UNL     1      19.836  26.538  15.921  1.00  0.00     0.039 C 
ATOM     15  C   UNL     1      19.935  25.781  18.413  1.00  0.00     0.039 C 
ENDBRANCH  11  12
ENDBRANCH   1  11
TORSDOF 4
ENDMDL
MODEL 6
REMARK VINA RESULT:    -5.291     15.761     18.168
REMARK INTER + INTRA:          -7.920
REMARK INTER:                  -6.789
REMARK INTRA:                  -1.131
REMARK UNBOUND:                -1.392
REMARK SMILES CC(C)=CCC[C@@H](C)c1ccc(C)cc1
REMARK SMILES IDX 6 1 7 2 8 3 9 4 13 5 12 6 11 7 14 8 10 9 15 10 5 11 4 12
REMARK SMILES IDX 2 13 1 14 3 15
REMARK H PARENT
REMARK Flexibility Score: inf
ROOT
ATOM      1  C   UNL     1      18.396  25.362  17.138  1.00  0.00     0.012 C 
ENDROOT
BRANCH   1   2
ATOM      2  C   UNL     1      18.347  24.045  16.330  1.00  0.00     0.016 C 
ATOM      3  C   UNL     1      17.605  22.928  17.078  1.00  0.00     0.013 C 
BRANCH   2   4
ATOM      4  C   UNL     1      17.713  24.282  14.970  1.00  0.00    -0.045 A 
ATOM      5  C   UNL     1      15.955  24.997  11.089  1.00  0.00     0.044 C 
ATOM      6  C   UNL     1      16.555  24.721  12.436  1.00  0.00    -0.051 A 
ATOM      7  C   UNL     1      15.825  24.990  13.603  1.00  0.00     0.004 A 
ATOM      8  C   UNL     1      17.873  24.256  12.541  1.00  0.00     0.004 A 
ATOM      9  C   UNL     1      16.396  24.768  14.859  1.00  0.00     0.004 A 
ATOM     10  C   UNL     1      18.446  24.034  13.797  1.00  0.00     0.004 A 
ENDBRANCH   2   4
ENDBRANCH   1   2
BRANCH   1  11
ATOM     11  C   UNL     1      19.573  26.260  16.732  1.00  0.00     0.028 C 
BRANCH  11  12
ATOM     12  C   UNL     1      20.862  25.477  16.722  1.00  0.00    -0.028 C 
ATOM     13  C   UNL     1      21.695  25.388  15.661  1.00  0.00    -0.080 C 
ATOM     14  C   UNL     1      21.372  26.037  14.335  1.00  0.00     0.039 C 
ATOM     15  C   UNL     1      22.970  24.602  15.812  1.00  0.00     0.039 C 
ENDBRANCH  11  12
ENDBRANCH   1  11
TORSDOF 4
ENDMDL
MODEL 7
REMARK VINA RESULT:    -5.283     13.249     15.764
REMARK INTER + INTRA:          -7.911
REMARK INTER:                  -7.240
REMARK INTRA:                  -0.671
REMARK UNBOUND:                -1.392
REMARK SMILES CC(C)=CCC[C@@H](C)c1ccc(C)cc1
REMARK SMILES IDX 6 1 7 2 8 3 9 4 13 5 12 6 11 7 14 8 10 9 15 10 5 11 4 12
REMARK SMILES IDX 2 13 1 14 3 15
REMARK H PARENT
REMARK Flexibility Score: inf
ROOT
ATOM      1  C   UNL     1      20.169  13.101  14.638  1.00  0.00     0.012 C 
ENDROOT
BRANCH   1   2
ATOM      2  C   UNL     1      20.499  11.969  15.638  1.00  0.00     0.016 C 
ATOM      3  C   UNL     1      22.002  11.879  15.944  1.00  0.00     0.013 C 
BRANCH   2   4
ATOM      4  C   UNL     1      19.709  12.152  16.922  1.00  0.00    -0.045 A 
ATOM      5  C   UNL     1      17.421  12.706  20.544  1.00  0.00     0.044 C 
ATOM      6  C   UNL     1      18.223  12.486  19.295  1.00  0.00    -0.051 A 
ATOM      7  C   UNL     1      19.572  12.864  19.247  1.00  0.00     0.004 A 
ATOM      8  C   UNL     1      17.613  11.966  18.146  1.00  0.00     0.004 A 
ATOM      9  C   UNL     1      20.311  12.693  18.074  1.00  0.00     0.004 A 
ATOM     10  C   UNL     1      18.350  11.795  16.971  1.00  0.00     0.004 A 
ENDBRANCH   2   4
ENDBRANCH   1   2
BRANCH   1  11
ATOM     11  C   UNL     1      19.668  12.569  13.288  1.00  0.00     0.028 C 
BRANCH  11  12
ATOM     12  C   UNL     1      18.163  12.474  13.278  1.00  0.00    -0.028 C 
ATOM     13  C   UNL     1      17.366  13.069  12.363  1.00  0.00    -0.080 C 
ATOM     14  C   UNL     1      17.923  13.951  11.270  1.00  0.00     0.039 C 
ATOM     15  C   UNL     1      15.878  12.852  12.455  1.00  0.00     0.039 C 
ENDBRANCH  11  12
ENDBRANCH   1  11
TORSDOF 4
ENDMDL
MODEL 8
REMARK VINA RESULT:    -5.283      4.943      8.453
REMARK INTER + INTRA:          -7.910
REMARK INTER:                  -6.528
REMARK INTRA:                  -1.383
REMARK UNBOUND:                -1.392
REMARK SMILES CC(C)=CCC[C@@H](C)c1ccc(C)cc1
REMARK SMILES IDX 6 1 7 2 8 3 9 4 13 5 12 6 11 7 14 8 10 9 15 10 5 11 4 12
REMARK SMILES IDX 2 13 1 14 3 15
REMARK H PARENT
REMARK Flexibility Score: inf
ROOT
ATOM      1  C   UNL     1      31.636  23.506  24.759  1.00  0.00     0.012 C 
ENDROOT
BRANCH   1   2
ATOM      2  C   UNL     1      30.412  24.407  25.034  1.00  0.00     0.016 C 
ATOM      3  C   UNL     1      30.142  25.392  23.887  1.00  0.00     0.013 C 
BRANCH   2   4
ATOM      4  C   UNL     1      29.181  23.560  25.303  1.00  0.00    -0.045 A 
ATOM      5  C   UNL     1      25.707  21.124  26.119  1.00  0.00     0.044 C 
ATOM      6  C   UNL     1      26.896  21.991  25.824  1.00  0.00    -0.051 A 
ATOM      7  C   UNL     1      27.571  21.872  24.602  1.00  0.00     0.004 A 
ATOM      8  C   UNL     1      27.382  22.878  26.795  1.00  0.00     0.004 A 
ATOM      9  C   UNL     1      28.700  22.652  24.340  1.00  0.00     0.004 A 
ATOM     10  C   UNL     1      28.511  23.659  26.536  1.00  0.00     0.004 A 
ENDBRANCH   2   4
ENDBRANCH   1   2
BRANCH   1  11
ATOM     11  C   UNL     1      32.102  22.744  26.009  1.00  0.00     0.028 C 
BRANCH  11  12
ATOM     12  C   UNL     1      32.399  21.304  25.675  1.00  0.00    -0.028 C 
ATOM     13  C   UNL     1      31.612  20.261  26.022  1.00  0.00    -0.080 C 
ATOM     14  C   UNL     1      30.359  20.444  26.846  1.00  0.00     0.039 C 
ATOM     15  C   UNL     1      32.016  18.878  25.582  1.00  0.00     0.039 C 
ENDBRANCH  11  12
ENDBRANCH   1  11
TORSDOF 4
ENDMDL
MODEL 9
REMARK VINA RESULT:    -5.278      1.436      4.224
REMARK INTER + INTRA:          -7.905
REMARK INTER:                  -6.671
REMARK INTRA:                  -1.234
REMARK UNBOUND:                -1.392
REMARK SMILES CC(C)=CCC[C@@H](C)c1ccc(C)cc1
REMARK SMILES IDX 6 1 7 2 8 3 9 4 13 5 12 6 11 7 14 8 10 9 15 10 5 11 4 12
REMARK SMILES IDX 2 13 1 14 3 15
REMARK H PARENT
REMARK Flexibility Score: inf
ROOT
ATOM      1  C   UNL     1      29.612  16.114  22.692  1.00  0.00     0.012 C 
ENDROOT
BRANCH   1   2
ATOM      2  C   UNL     1      30.499  14.848  22.674  1.00  0.00     0.016 C 
ATOM      3  C   UNL     1      31.804  15.060  21.892  1.00  0.00     0.013 C 
BRANCH   2   4
ATOM      4  C   UNL     1      30.799  14.393  24.091  1.00  0.00    -0.045 A 
ATOM      5  C   UNL     1      31.599  13.118  28.140  1.00  0.00     0.044 C 
ATOM      6  C   UNL     1      31.337  13.538  26.724  1.00  0.00    -0.051 A 
ATOM      7  C   UNL     1      32.193  14.449  26.088  1.00  0.00     0.004 A 
ATOM      8  C   UNL     1      30.199  13.077  26.049  1.00  0.00     0.004 A 
ATOM      9  C   UNL     1      31.930  14.869  24.781  1.00  0.00     0.004 A 
ATOM     10  C   UNL     1      29.934  13.496  24.742  1.00  0.00     0.004 A 
ENDBRANCH   2   4
ENDBRANCH   1   2
BRANCH   1  11
ATOM     11  C   UNL     1      30.418  17.403  22.474  1.00  0.00     0.028 C 
BRANCH  11  12
ATOM     12  C   UNL     1      30.631  18.125  23.781  1.00  0.00    -0.028 C 
ATOM     13  C   UNL     1      31.840  18.485  24.267  1.00  0.00    -0.080 C 
ATOM     14  C   UNL     1      33.125  18.137  23.552  1.00  0.00     0.039 C 
ATOM     15  C   UNL     1      31.896  19.240  25.569  1.00  0.00     0.039 C 
ENDBRANCH  11  12
ENDBRANCH   1  11
TORSDOF 4
ENDMDL
