MODEL 1
REMARK VINA RESULT:    -2.472      0.000      0.000
REMARK INTER + INTRA:          -2.472
REMARK INTER:                  -2.472
REMARK INTRA:                   0.000
REMARK UNBOUND:                 0.000
REMARK SMILES CC(=O)[O-]
REMARK SMILES IDX 1 1 2 2 3 3 4 4
REMARK H PARENT
REMARK Flexibility Score: inf
ROOT
ATOM      1  C   UNL     1      15.885  22.096  24.149  1.00  0.00     0.063 C 
ATOM      2  C   UNL     1      16.178  22.333  25.590  1.00  0.00     0.038 C 
ATOM      3  O   UNL     1      15.652  23.306  26.191  1.00  0.00    -0.550 OA
ATOM      4  O   UNL     1      17.077  21.513  26.261  1.00  0.00    -0.550 OA
ENDROOT
TORSDOF 0
ENDMDL
MODEL 2
REMARK VINA RESULT:    -2.391      1.737      2.124
REMARK INTER + INTRA:          -2.391
REMARK INTER:                  -2.391
REMARK INTRA:                   0.000
REMARK UNBOUND:                 0.000
REMARK SMILES CC(=O)[O-]
REMARK SMILES IDX 1 1 2 2 3 3 4 4
REMARK H PARENT
REMARK Flexibility Score: inf
ROOT
ATOM      1  C   UNL     1      16.132  22.287  25.552  1.00  0.00     0.063 C 
ATOM      2  C   UNL     1      15.930  23.628  26.169  1.00  0.00     0.038 C 
ATOM      3  O   UNL     1      15.555  23.722  27.367  1.00  0.00    -0.550 OA
ATOM      4  O   UNL     1      16.102  24.777  25.408  1.00  0.00    -0.550 OA
ENDROOT
TORSDOF 0
ENDMDL
MODEL 3
REMARK VINA RESULT:    -2.384     16.072     16.715
REMARK INTER + INTRA:          -2.384
REMARK INTER:                  -2.384
REMARK INTRA:                   0.000
REMARK UNBOUND:                 0.000
REMARK SMILES CC(=O)[O-]
REMARK SMILES IDX 1 1 2 2 3 3 4 4
REMARK H PARENT
REMARK Flexibility Score: inf
ROOT
ATOM      1  C   UNL     1       5.725  34.559  17.853  1.00  0.00     0.063 C 
ATOM      2  C   UNL     1       5.892  33.333  18.683  1.00  0.00     0.038 C 
ATOM      3  O   UNL     1       7.039  32.850  18.873  1.00  0.00    -0.550 OA
ATOM      4  O   UNL     1       4.777  32.688  19.204  1.00  0.00    -0.550 OA
ENDROOT
TORSDOF 0
ENDMDL
MODEL 4
REMARK VINA RESULT:    -2.336      1.762      1.927
REMARK INTER + INTRA:          -2.336
REMARK INTER:                  -2.336
REMARK INTRA:                   0.000
REMARK UNBOUND:                 0.000
REMARK SMILES CC(=O)[O-]
REMARK SMILES IDX 1 1 2 2 3 3 4 4
REMARK H PARENT
REMARK Flexibility Score: inf
ROOT
ATOM      1  C   UNL     1      16.023  22.220  25.536  1.00  0.00     0.063 C 
ATOM      2  C   UNL     1      15.885  23.569  26.153  1.00  0.00     0.038 C 
ATOM      3  O   UNL     1      16.105  24.603  25.469  1.00  0.00    -0.550 OA
ATOM      4  O   UNL     1      15.567  23.688  27.500  1.00  0.00    -0.550 OA
ENDROOT
TORSDOF 0
ENDMDL
MODEL 5
REMARK VINA RESULT:    -2.333      1.364      2.104
REMARK INTER + INTRA:          -2.333
REMARK INTER:                  -2.333
REMARK INTRA:                   0.000
REMARK UNBOUND:                 0.000
REMARK SMILES CC(=O)[O-]
REMARK SMILES IDX 1 1 2 2 3 3 4 4
REMARK H PARENT
REMARK Flexibility Score: inf
ROOT
ATOM      1  C   UNL     1      15.915  23.617  26.336  1.00  0.00     0.063 C 
ATOM      2  C   UNL     1      16.323  22.362  25.643  1.00  0.00     0.038 C 
ATOM      3  O   UNL     1      17.061  21.527  26.230  1.00  0.00    -0.550 OA
ATOM      4  O   UNL     1      15.937  22.136  24.328  1.00  0.00    -0.550 OA
ENDROOT
TORSDOF 0
ENDMDL
MODEL 6
REMARK VINA RESULT:    -2.258     19.023     19.659
REMARK INTER + INTRA:          -2.258
REMARK INTER:                  -2.258
REMARK INTRA:                   0.000
REMARK UNBOUND:                 0.000
REMARK SMILES CC(=O)[O-]
REMARK SMILES IDX 1 1 2 2 3 3 4 4
REMARK H PARENT
REMARK Flexibility Score: inf
ROOT
ATOM      1  C   UNL     1       6.126  37.045  16.176  1.00  0.00     0.063 C 
ATOM      2  C   UNL     1       5.329  35.800  16.364  1.00  0.00     0.038 C 
ATOM      3  O   UNL     1       4.370  35.539  15.591  1.00  0.00    -0.550 OA
ATOM      4  O   UNL     1       5.607  34.950  17.428  1.00  0.00    -0.550 OA
ENDROOT
TORSDOF 0
ENDMDL
MODEL 7
REMARK VINA RESULT:    -2.201     19.398     20.039
REMARK INTER + INTRA:          -2.201
REMARK INTER:                  -2.201
REMARK INTRA:                   0.000
REMARK UNBOUND:                 0.000
REMARK SMILES CC(=O)[O-]
REMARK SMILES IDX 1 1 2 2 3 3 4 4
REMARK H PARENT
REMARK Flexibility Score: inf
ROOT
ATOM      1  C   UNL     1       3.597  35.708  15.500  1.00  0.00     0.063 C 
ATOM      2  C   UNL     1       5.005  35.841  15.970  1.00  0.00     0.038 C 
ATOM      3  O   UNL     1       5.810  36.588  15.354  1.00  0.00    -0.550 OA
ATOM      4  O   UNL     1       5.448  35.098  17.057  1.00  0.00    -0.550 OA
ENDROOT
TORSDOF 0
ENDMDL
MODEL 8
REMARK VINA RESULT:    -2.101     20.267     20.911
REMARK INTER + INTRA:          -2.101
REMARK INTER:                  -2.101
REMARK INTRA:                   0.000
REMARK UNBOUND:                 0.000
REMARK SMILES CC(=O)[O-]
REMARK SMILES IDX 1 1 2 2 3 3 4 4
REMARK H PARENT
REMARK Flexibility Score: inf
ROOT
ATOM      1  C   UNL     1       6.629  38.538  14.891  1.00  0.00     0.063 C 
ATOM      2  C   UNL     1       5.868  37.580  15.742  1.00  0.00     0.038 C 
ATOM      3  O   UNL     1       4.621  37.469  15.610  1.00  0.00    -0.550 OA
ATOM      4  O   UNL     1       6.525  36.847  16.723  1.00  0.00    -0.550 OA
ENDROOT
TORSDOF 0
ENDMDL
MODEL 9
REMARK VINA RESULT:    -2.075     21.317     21.800
REMARK INTER + INTRA:          -2.075
REMARK INTER:                  -2.075
REMARK INTRA:                   0.000
REMARK UNBOUND:                 0.000
REMARK SMILES CC(=O)[O-]
REMARK SMILES IDX 1 1 2 2 3 3 4 4
REMARK H PARENT
REMARK Flexibility Score: inf
ROOT
ATOM      1  C   UNL     1       6.502  37.540  16.010  1.00  0.00     0.063 C 
ATOM      2  C   UNL     1       6.284  38.516  14.905  1.00  0.00     0.038 C 
ATOM      3  O   UNL     1       5.118  38.754  14.492  1.00  0.00    -0.550 OA
ATOM      4  O   UNL     1       7.371  39.125  14.290  1.00  0.00    -0.550 OA
ENDROOT
TORSDOF 0
ENDMDL
