MODEL 1
REMARK VINA RESULT:    -2.745      0.000      0.000
REMARK INTER + INTRA:          -7.247
REMARK INTER:                  -4.991
REMARK INTRA:                  -2.256
REMARK UNBOUND:                -2.256
REMARK SMILES CCCCCCCCCCCCCCCC(=O)[O-]
REMARK SMILES IDX 9 1 10 2 11 3 12 4 13 5 14 6 15 7 16 8 17 9 18 10 8 11 7 12
REMARK SMILES IDX 6 13 5 14 4 15 3 16 2 17 1 18
REMARK H PARENT
REMARK Flexibility Score: inf
ROOT
ATOM      1  C   UNL     1      23.140  26.930  50.034  1.00  0.00     0.000 C 
ENDROOT
BRANCH   1   2
ATOM      2  C   UNL     1      21.638  26.911  49.714  1.00  0.00     0.000 C 
BRANCH   2   3
ATOM      3  C   UNL     1      20.878  28.071  50.382  1.00  0.00     0.000 C 
BRANCH   3   4
ATOM      4  C   UNL     1      21.062  29.408  49.647  1.00  0.00     0.000 C 
BRANCH   4   5
ATOM      5  C   UNL     1      21.967  30.407  50.400  1.00  0.00     0.000 C 
BRANCH   5   6
ATOM      6  C   UNL     1      21.170  31.578  50.996  1.00  0.00     0.006 C 
BRANCH   6   7
ATOM      7  C   UNL     1      20.829  32.614  49.921  1.00  0.00     0.053 C 
BRANCH   7   8
ATOM      8  C   UNL     1      19.346  32.740  49.768  1.00  0.00     0.041 C 
ATOM      9  O   UNL     1      18.858  33.663  49.064  1.00  0.00    -0.550 OA
ATOM     10  O   UNL     1      18.501  31.870  50.444  1.00  0.00    -0.550 OA
ENDBRANCH   7   8
ENDBRANCH   6   7
ENDBRANCH   5   6
ENDBRANCH   4   5
ENDBRANCH   3   4
ENDBRANCH   2   3
ENDBRANCH   1   2
BRANCH   1  11
ATOM     11  C   UNL     1      24.007  27.143  48.782  1.00  0.00     0.000 C 
BRANCH  11  12
ATOM     12  C   UNL     1      23.173  27.244  47.492  1.00  0.00    -0.000 C 
BRANCH  12  13
ATOM     13  C   UNL     1      23.365  28.549  46.694  1.00  0.00    -0.000 C 
BRANCH  13  14
ATOM     14  C   UNL     1      24.011  29.707  47.476  1.00  0.00    -0.000 C 
BRANCH  14  15
ATOM     15  C   UNL     1      24.080  31.010  46.666  1.00  0.00    -0.000 C 
BRANCH  15  16
ATOM     16  C   UNL     1      22.872  31.909  46.970  1.00  0.00    -0.000 C 
BRANCH  16  17
ATOM     17  C   UNL     1      21.773  31.802  45.901  1.00  0.00    -0.003 C 
ATOM     18  C   UNL     1      20.449  31.288  46.466  1.00  0.00     0.004 C 
ENDBRANCH  16  17
ENDBRANCH  15  16
ENDBRANCH  14  15
ENDBRANCH  13  14
ENDBRANCH  12  13
ENDBRANCH  11  12
ENDBRANCH   1  11
TORSDOF 14
ENDMDL
MODEL 2
REMARK VINA RESULT:    -2.727      3.757      5.885
REMARK INTER + INTRA:          -7.216
REMARK INTER:                  -5.215
REMARK INTRA:                  -2.001
REMARK UNBOUND:                -2.256
REMARK SMILES CCCCCCCCCCCCCCCC(=O)[O-]
REMARK SMILES IDX 9 1 10 2 11 3 12 4 13 5 14 6 15 7 16 8 17 9 18 10 8 11 7 12
REMARK SMILES IDX 6 13 5 14 4 15 3 16 2 17 1 18
REMARK H PARENT
REMARK Flexibility Score: inf
ROOT
ATOM      1  C   UNL     1      20.913  30.342  49.416  1.00  0.00     0.000 C 
ENDROOT
BRANCH   1   2
ATOM      2  C   UNL     1      21.796  30.198  50.665  1.00  0.00     0.000 C 
BRANCH   2   3
ATOM      3  C   UNL     1      22.555  28.860  50.699  1.00  0.00     0.000 C 
BRANCH   3   4
ATOM      4  C   UNL     1      21.673  27.663  50.308  1.00  0.00     0.000 C 
BRANCH   4   5
ATOM      5  C   UNL     1      22.478  26.397  49.943  1.00  0.00     0.000 C 
BRANCH   5   6
ATOM      6  C   UNL     1      23.994  26.646  49.959  1.00  0.00     0.006 C 
BRANCH   6   7
ATOM      7  C   UNL     1      24.659  25.908  51.124  1.00  0.00     0.053 C 
BRANCH   7   8
ATOM      8  C   UNL     1      26.012  25.410  50.724  1.00  0.00     0.041 C 
ATOM      9  O   UNL     1      26.758  26.117  49.996  1.00  0.00    -0.550 OA
ATOM     10  O   UNL     1      26.430  24.144  51.113  1.00  0.00    -0.550 OA
ENDBRANCH   7   8
ENDBRANCH   6   7
ENDBRANCH   5   6
ENDBRANCH   4   5
ENDBRANCH   3   4
ENDBRANCH   2   3
ENDBRANCH   1   2
BRANCH   1  11
ATOM     11  C   UNL     1      20.383  31.773  49.232  1.00  0.00     0.000 C 
BRANCH  11  12
ATOM     12  C   UNL     1      20.767  32.379  47.870  1.00  0.00    -0.000 C 
BRANCH  12  13
ATOM     13  C   UNL     1      22.277  32.379  47.560  1.00  0.00    -0.000 C 
BRANCH  13  14
ATOM     14  C   UNL     1      22.716  31.415  46.442  1.00  0.00    -0.000 C 
BRANCH  14  15
ATOM     15  C   UNL     1      24.075  30.756  46.723  1.00  0.00    -0.000 C 
BRANCH  15  16
ATOM     16  C   UNL     1      23.891  29.393  47.407  1.00  0.00    -0.000 C 
BRANCH  16  17
ATOM     17  C   UNL     1      22.769  28.558  46.768  1.00  0.00    -0.003 C 
ATOM     18  C   UNL     1      23.243  27.174  46.323  1.00  0.00     0.004 C 
ENDBRANCH  16  17
ENDBRANCH  15  16
ENDBRANCH  14  15
ENDBRANCH  13  14
ENDBRANCH  12  13
ENDBRANCH  11  12
ENDBRANCH   1  11
TORSDOF 14
ENDMDL
MODEL 3
REMARK VINA RESULT:    -2.724      2.943      4.936
REMARK INTER + INTRA:          -7.210
REMARK INTER:                  -5.284
REMARK INTRA:                  -1.926
REMARK UNBOUND:                -2.256
REMARK SMILES CCCCCCCCCCCCCCCC(=O)[O-]
REMARK SMILES IDX 9 1 10 2 11 3 12 4 13 5 14 6 15 7 16 8 17 9 18 10 8 11 7 12
REMARK SMILES IDX 6 13 5 14 4 15 3 16 2 17 1 18
REMARK H PARENT
REMARK Flexibility Score: inf
ROOT
ATOM      1  C   UNL     1      23.670  26.389  48.170  1.00  0.00     0.000 C 
ENDROOT
BRANCH   1   2
ATOM      2  C   UNL     1      22.957  26.776  46.865  1.00  0.00     0.000 C 
BRANCH   2   3
ATOM      3  C   UNL     1      22.398  28.209  46.902  1.00  0.00     0.000 C 
BRANCH   3   4
ATOM      4  C   UNL     1      23.499  29.277  47.000  1.00  0.00     0.000 C 
BRANCH   4   5
ATOM      5  C   UNL     1      23.003  30.625  47.567  1.00  0.00     0.000 C 
BRANCH   5   6
ATOM      6  C   UNL     1      23.383  31.810  46.667  1.00  0.00     0.006 C 
BRANCH   6   7
ATOM      7  C   UNL     1      24.870  31.768  46.300  1.00  0.00     0.053 C 
BRANCH   7   8
ATOM      8  C   UNL     1      25.045  31.851  44.816  1.00  0.00     0.041 C 
ATOM      9  O   UNL     1      26.146  32.217  44.328  1.00  0.00    -0.550 OA
ATOM     10  O   UNL     1      23.977  31.573  43.974  1.00  0.00    -0.550 OA
ENDBRANCH   7   8
ENDBRANCH   6   7
ENDBRANCH   5   6
ENDBRANCH   4   5
ENDBRANCH   3   4
ENDBRANCH   2   3
ENDBRANCH   1   2
BRANCH   1  11
ATOM     11  C   UNL     1      22.727  26.404  49.384  1.00  0.00     0.000 C 
BRANCH  11  12
ATOM     12  C   UNL     1      23.278  27.238  50.555  1.00  0.00    -0.000 C 
BRANCH  12  13
ATOM     13  C   UNL     1      22.646  28.636  50.713  1.00  0.00    -0.000 C 
BRANCH  13  14
ATOM     14  C   UNL     1      21.129  28.702  50.459  1.00  0.00    -0.000 C 
BRANCH  14  15
ATOM     15  C   UNL     1      20.479  29.962  51.047  1.00  0.00    -0.000 C 
BRANCH  15  16
ATOM     16  C   UNL     1      21.462  31.142  51.035  1.00  0.00    -0.000 C 
BRANCH  16  17
ATOM     17  C   UNL     1      20.928  32.348  50.247  1.00  0.00    -0.003 C 
ATOM     18  C   UNL     1      19.952  31.946  49.141  1.00  0.00     0.004 C 
ENDBRANCH  16  17
ENDBRANCH  15  16
ENDBRANCH  14  15
ENDBRANCH  13  14
ENDBRANCH  12  13
ENDBRANCH  11  12
ENDBRANCH   1  11
TORSDOF 14
ENDMDL
MODEL 4
REMARK VINA RESULT:    -2.688      3.985      6.102
REMARK INTER + INTRA:          -7.144
REMARK INTER:                  -5.156
REMARK INTRA:                  -1.989
REMARK UNBOUND:                -2.256
REMARK SMILES CCCCCCCCCCCCCCCC(=O)[O-]
REMARK SMILES IDX 9 1 10 2 11 3 12 4 13 5 14 6 15 7 16 8 17 9 18 10 8 11 7 12
REMARK SMILES IDX 6 13 5 14 4 15 3 16 2 17 1 18
REMARK H PARENT
REMARK Flexibility Score: inf
ROOT
ATOM      1  C   UNL     1      22.901  27.777  46.645  1.00  0.00     0.000 C 
ENDROOT
BRANCH   1   2
ATOM      2  C   UNL     1      23.471  29.079  46.061  1.00  0.00     0.000 C 
BRANCH   2   3
ATOM      3  C   UNL     1      23.965  30.047  47.150  1.00  0.00     0.000 C 
BRANCH   3   4
ATOM      4  C   UNL     1      24.130  31.487  46.639  1.00  0.00     0.000 C 
BRANCH   4   5
ATOM      5  C   UNL     1      24.409  31.576  45.123  1.00  0.00     0.000 C 
BRANCH   5   6
ATOM      6  C   UNL     1      25.859  31.987  44.821  1.00  0.00     0.006 C 
BRANCH   6   7
ATOM      7  C   UNL     1      26.043  32.301  43.334  1.00  0.00     0.053 C 
BRANCH   7   8
ATOM      8  C   UNL     1      26.120  31.037  42.538  1.00  0.00     0.041 C 
ATOM      9  O   UNL     1      26.839  30.081  42.933  1.00  0.00    -0.550 OA
ATOM     10  O   UNL     1      25.438  30.932  41.332  1.00  0.00    -0.550 OA
ENDBRANCH   7   8
ENDBRANCH   6   7
ENDBRANCH   5   6
ENDBRANCH   4   5
ENDBRANCH   3   4
ENDBRANCH   2   3
ENDBRANCH   1   2
BRANCH   1  11
ATOM     11  C   UNL     1      23.137  27.658  48.159  1.00  0.00     0.000 C 
BRANCH  11  12
ATOM     12  C   UNL     1      21.835  27.430  48.948  1.00  0.00    -0.000 C 
BRANCH  12  13
ATOM     13  C   UNL     1      21.819  28.032  50.367  1.00  0.00    -0.000 C 
BRANCH  13  14
ATOM     14  C   UNL     1      22.575  29.365  50.522  1.00  0.00    -0.000 C 
BRANCH  14  15
ATOM     15  C   UNL     1      21.636  30.563  50.724  1.00  0.00    -0.000 C 
BRANCH  15  16
ATOM     16  C   UNL     1      21.399  31.302  49.398  1.00  0.00    -0.000 C 
BRANCH  16  17
ATOM     17  C   UNL     1      20.105  30.860  48.699  1.00  0.00    -0.003 C 
ATOM     18  C   UNL     1      20.286  30.654  47.195  1.00  0.00     0.004 C 
ENDBRANCH  16  17
ENDBRANCH  15  16
ENDBRANCH  14  15
ENDBRANCH  13  14
ENDBRANCH  12  13
ENDBRANCH  11  12
ENDBRANCH   1  11
TORSDOF 14
ENDMDL
MODEL 5
REMARK VINA RESULT:    -2.687      1.777      2.640
REMARK INTER + INTRA:          -7.142
REMARK INTER:                  -5.665
REMARK INTRA:                  -1.477
REMARK UNBOUND:                -2.256
REMARK SMILES CCCCCCCCCCCCCCCC(=O)[O-]
REMARK SMILES IDX 9 1 10 2 11 3 12 4 13 5 14 6 15 7 16 8 17 9 18 10 8 11 7 12
REMARK SMILES IDX 6 13 5 14 4 15 3 16 2 17 1 18
REMARK H PARENT
REMARK Flexibility Score: inf
ROOT
ATOM      1  C   UNL     1      22.065  26.849  48.472  1.00  0.00     0.000 C 
ENDROOT
BRANCH   1   2
ATOM      2  C   UNL     1      22.104  27.099  49.987  1.00  0.00     0.000 C 
BRANCH   2   3
ATOM      3  C   UNL     1      21.303  28.345  50.400  1.00  0.00     0.000 C 
BRANCH   3   4
ATOM      4  C   UNL     1      22.189  29.461  50.977  1.00  0.00     0.000 C 
BRANCH   4   5
ATOM      5  C   UNL     1      21.708  30.883  50.612  1.00  0.00     0.000 C 
BRANCH   5   6
ATOM      6  C   UNL     1      20.447  30.862  49.735  1.00  0.00     0.006 C 
BRANCH   6   7
ATOM      7  C   UNL     1      19.732  32.217  49.768  1.00  0.00     0.053 C 
BRANCH   7   8
ATOM      8  C   UNL     1      20.399  33.183  48.841  1.00  0.00     0.041 C 
ATOM      9  O   UNL     1      20.499  32.918  47.614  1.00  0.00    -0.550 OA
ATOM     10  O   UNL     1      20.954  34.354  49.339  1.00  0.00    -0.550 OA
ENDBRANCH   7   8
ENDBRANCH   6   7
ENDBRANCH   5   6
ENDBRANCH   4   5
ENDBRANCH   3   4
ENDBRANCH   2   3
ENDBRANCH   1   2
BRANCH   1  11
ATOM     11  C   UNL     1      23.355  27.302  47.767  1.00  0.00     0.000 C 
BRANCH  11  12
ATOM     12  C   UNL     1      23.178  28.620  46.992  1.00  0.00    -0.000 C 
BRANCH  12  13
ATOM     13  C   UNL     1      23.798  29.860  47.666  1.00  0.00    -0.000 C 
BRANCH  13  14
ATOM     14  C   UNL     1      23.588  31.187  46.914  1.00  0.00    -0.000 C 
BRANCH  14  15
ATOM     15  C   UNL     1      24.836  31.640  46.142  1.00  0.00    -0.000 C 
BRANCH  15  16
ATOM     16  C   UNL     1      24.816  31.099  44.704  1.00  0.00    -0.000 C 
BRANCH  16  17
ATOM     17  C   UNL     1      26.079  31.475  43.914  1.00  0.00    -0.003 C 
ATOM     18  C   UNL     1      26.593  30.330  43.042  1.00  0.00     0.004 C 
ENDBRANCH  16  17
ENDBRANCH  15  16
ENDBRANCH  14  15
ENDBRANCH  13  14
ENDBRANCH  12  13
ENDBRANCH  11  12
ENDBRANCH   1  11
TORSDOF 14
ENDMDL
MODEL 6
REMARK VINA RESULT:    -2.631      3.254      6.093
REMARK INTER + INTRA:          -7.040
REMARK INTER:                  -4.614
REMARK INTRA:                  -2.426
REMARK UNBOUND:                -2.256
REMARK SMILES CCCCCCCCCCCCCCCC(=O)[O-]
REMARK SMILES IDX 9 1 10 2 11 3 12 4 13 5 14 6 15 7 16 8 17 9 18 10 8 11 7 12
REMARK SMILES IDX 6 13 5 14 4 15 3 16 2 17 1 18
REMARK H PARENT
REMARK Flexibility Score: inf
ROOT
ATOM      1  C   UNL     1      20.500  31.880  47.451  1.00  0.00     0.000 C 
ENDROOT
BRANCH   1   2
ATOM      2  C   UNL     1      21.528  31.391  46.419  1.00  0.00     0.000 C 
BRANCH   2   3
ATOM      3  C   UNL     1      22.278  30.131  46.885  1.00  0.00     0.000 C 
BRANCH   3   4
ATOM      4  C   UNL     1      23.768  30.390  47.159  1.00  0.00     0.000 C 
BRANCH   4   5
ATOM      5  C   UNL     1      24.259  31.764  46.655  1.00  0.00     0.000 C 
BRANCH   5   6
ATOM      6  C   UNL     1      25.211  31.638  45.455  1.00  0.00     0.006 C 
BRANCH   6   7
ATOM      7  C   UNL     1      24.488  31.961  44.144  1.00  0.00     0.053 C 
BRANCH   7   8
ATOM      8  C   UNL     1      24.103  30.702  43.435  1.00  0.00     0.041 C 
ATOM      9  O   UNL     1      22.888  30.402  43.291  1.00  0.00    -0.550 OA
ATOM     10  O   UNL     1      25.085  29.833  42.978  1.00  0.00    -0.550 OA
ENDBRANCH   7   8
ENDBRANCH   6   7
ENDBRANCH   5   6
ENDBRANCH   4   5
ENDBRANCH   3   4
ENDBRANCH   2   3
ENDBRANCH   1   2
BRANCH   1  11
ATOM     11  C   UNL     1      21.148  32.669  48.600  1.00  0.00     0.000 C 
BRANCH  11  12
ATOM     12  C   UNL     1      20.335  32.597  49.905  1.00  0.00    -0.000 C 
BRANCH  12  13
ATOM     13  C   UNL     1      20.557  31.321  50.741  1.00  0.00    -0.000 C 
BRANCH  13  14
ATOM     14  C   UNL     1      21.987  30.751  50.700  1.00  0.00    -0.000 C 
BRANCH  14  15
ATOM     15  C   UNL     1      22.017  29.221  50.581  1.00  0.00    -0.000 C 
BRANCH  15  16
ATOM     16  C   UNL     1      20.593  28.647  50.534  1.00  0.00    -0.000 C 
BRANCH  16  17
ATOM     17  C   UNL     1      20.275  27.965  49.195  1.00  0.00    -0.003 C 
ATOM     18  C   UNL     1      19.121  28.637  48.449  1.00  0.00     0.004 C 
ENDBRANCH  16  17
ENDBRANCH  15  16
ENDBRANCH  14  15
ENDBRANCH  13  14
ENDBRANCH  12  13
ENDBRANCH  11  12
ENDBRANCH   1  11
TORSDOF 14
ENDMDL
MODEL 7
REMARK VINA RESULT:    -2.624      3.920      5.750
REMARK INTER + INTRA:          -7.027
REMARK INTER:                  -4.941
REMARK INTRA:                  -2.087
REMARK UNBOUND:                -2.256
REMARK SMILES CCCCCCCCCCCCCCCC(=O)[O-]
REMARK SMILES IDX 9 1 10 2 11 3 12 4 13 5 14 6 15 7 16 8 17 9 18 10 8 11 7 12
REMARK SMILES IDX 6 13 5 14 4 15 3 16 2 17 1 18
REMARK H PARENT
REMARK Flexibility Score: inf
ROOT
ATOM      1  C   UNL     1      21.866  27.054  47.471  1.00  0.00     0.000 C 
ENDROOT
BRANCH   1   2
ATOM      2  C   UNL     1      21.307  27.728  48.733  1.00  0.00     0.000 C 
BRANCH   2   3
ATOM      3  C   UNL     1      21.479  26.858  49.991  1.00  0.00     0.000 C 
BRANCH   3   4
ATOM      4  C   UNL     1      22.330  25.603  49.737  1.00  0.00     0.000 C 
BRANCH   4   5
ATOM      5  C   UNL     1      23.408  25.360  50.816  1.00  0.00     0.000 C 
BRANCH   5   6
ATOM      6  C   UNL     1      24.644  26.250  50.613  1.00  0.00     0.006 C 
BRANCH   6   7
ATOM      7  C   UNL     1      25.467  25.783  49.409  1.00  0.00     0.053 C 
BRANCH   7   8
ATOM      8  C   UNL     1      26.928  25.820  49.728  1.00  0.00     0.041 C 
ATOM      9  O   UNL     1      27.765  25.334  48.922  1.00  0.00    -0.550 OA
ATOM     10  O   UNL     1      27.362  26.345  50.938  1.00  0.00    -0.550 OA
ENDBRANCH   7   8
ENDBRANCH   6   7
ENDBRANCH   5   6
ENDBRANCH   4   5
ENDBRANCH   3   4
ENDBRANCH   2   3
ENDBRANCH   1   2
BRANCH   1  11
ATOM     11  C   UNL     1      22.977  27.881  46.804  1.00  0.00     0.000 C 
BRANCH  11  12
ATOM     12  C   UNL     1      23.804  28.692  47.818  1.00  0.00    -0.000 C 
BRANCH  12  13
ATOM     13  C   UNL     1      23.882  30.206  47.532  1.00  0.00    -0.000 C 
BRANCH  13  14
ATOM     14  C   UNL     1      22.611  30.823  46.922  1.00  0.00    -0.000 C 
BRANCH  14  15
ATOM     15  C   UNL     1      22.036  31.967  47.771  1.00  0.00    -0.000 C 
BRANCH  15  16
ATOM     16  C   UNL     1      20.786  31.506  48.535  1.00  0.00    -0.000 C 
BRANCH  16  17
ATOM     17  C   UNL     1      20.908  31.722  50.052  1.00  0.00    -0.003 C 
ATOM     18  C   UNL     1      21.841  30.711  50.719  1.00  0.00     0.004 C 
ENDBRANCH  16  17
ENDBRANCH  15  16
ENDBRANCH  14  15
ENDBRANCH  13  14
ENDBRANCH  12  13
ENDBRANCH  11  12
ENDBRANCH   1  11
TORSDOF 14
ENDMDL
MODEL 8
REMARK VINA RESULT:    -2.597      2.629      4.159
REMARK INTER + INTRA:          -6.979
REMARK INTER:                  -4.586
REMARK INTRA:                  -2.393
REMARK UNBOUND:                -2.256
REMARK SMILES CCCCCCCCCCCCCCCC(=O)[O-]
REMARK SMILES IDX 9 1 10 2 11 3 12 4 13 5 14 6 15 7 16 8 17 9 18 10 8 11 7 12
REMARK SMILES IDX 6 13 5 14 4 15 3 16 2 17 1 18
REMARK H PARENT
REMARK Flexibility Score: inf
ROOT
ATOM      1  C   UNL     1      20.854  30.919  46.309  1.00  0.00     0.000 C 
ENDROOT
BRANCH   1   2
ATOM      2  C   UNL     1      20.591  32.022  47.346  1.00  0.00     0.000 C 
BRANCH   2   3
ATOM      3  C   UNL     1      20.227  31.455  48.729  1.00  0.00     0.000 C 
BRANCH   3   4
ATOM      4  C   UNL     1      20.875  32.235  49.884  1.00  0.00     0.000 C 
BRANCH   4   5
ATOM      5  C   UNL     1      21.485  31.329  50.976  1.00  0.00     0.000 C 
BRANCH   5   6
ATOM      6  C   UNL     1      21.265  29.837  50.683  1.00  0.00     0.006 C 
BRANCH   6   7
ATOM      7  C   UNL     1      22.592  29.074  50.687  1.00  0.00     0.053 C 
BRANCH   7   8
ATOM      8  C   UNL     1      22.372  27.639  50.326  1.00  0.00     0.041 C 
ATOM      9  O   UNL     1      21.266  27.266  49.854  1.00  0.00    -0.550 OA
ATOM     10  O   UNL     1      23.371  26.702  50.558  1.00  0.00    -0.550 OA
ENDBRANCH   7   8
ENDBRANCH   6   7
ENDBRANCH   5   6
ENDBRANCH   4   5
ENDBRANCH   3   4
ENDBRANCH   2   3
ENDBRANCH   1   2
BRANCH   1  11
ATOM     11  C   UNL     1      21.317  29.603  46.953  1.00  0.00     0.000 C 
BRANCH  11  12
ATOM     12  C   UNL     1      22.810  29.315  46.710  1.00  0.00    -0.000 C 
BRANCH  12  13
ATOM     13  C   UNL     1      23.783  30.283  47.411  1.00  0.00    -0.000 C 
BRANCH  13  14
ATOM     14  C   UNL     1      24.496  31.283  46.483  1.00  0.00    -0.000 C 
BRANCH  14  15
ATOM     15  C   UNL     1      24.368  30.914  44.998  1.00  0.00    -0.000 C 
BRANCH  15  16
ATOM     16  C   UNL     1      23.730  32.062  44.201  1.00  0.00    -0.000 C 
BRANCH  16  17
ATOM     17  C   UNL     1      22.728  31.565  43.149  1.00  0.00    -0.003 C 
ATOM     18  C   UNL     1      22.643  30.040  43.087  1.00  0.00     0.004 C 
ENDBRANCH  16  17
ENDBRANCH  15  16
ENDBRANCH  14  15
ENDBRANCH  13  14
ENDBRANCH  12  13
ENDBRANCH  11  12
ENDBRANCH   1  11
TORSDOF 14
ENDMDL
MODEL 9
REMARK VINA RESULT:    -2.579      2.562      4.573
REMARK INTER + INTRA:          -6.946
REMARK INTER:                  -5.175
REMARK INTRA:                  -1.770
REMARK UNBOUND:                -2.256
REMARK SMILES CCCCCCCCCCCCCCCC(=O)[O-]
REMARK SMILES IDX 9 1 10 2 11 3 12 4 13 5 14 6 15 7 16 8 17 9 18 10 8 11 7 12
REMARK SMILES IDX 6 13 5 14 4 15 3 16 2 17 1 18
REMARK H PARENT
REMARK Flexibility Score: inf
ROOT
ATOM      1  C   UNL     1      20.437  33.304  48.720  1.00  0.00     0.000 C 
ENDROOT
BRANCH   1   2
ATOM      2  C   UNL     1      20.766  32.653  50.073  1.00  0.00     0.000 C 
BRANCH   2   3
ATOM      3  C   UNL     1      19.862  31.447  50.381  1.00  0.00     0.000 C 
BRANCH   3   4
ATOM      4  C   UNL     1      20.632  30.261  50.983  1.00  0.00     0.000 C 
BRANCH   4   5
ATOM      5  C   UNL     1      22.087  30.149  50.477  1.00  0.00     0.000 C 
BRANCH   5   6
ATOM      6  C   UNL     1      22.657  28.733  50.654  1.00  0.00     0.006 C 
BRANCH   6   7
ATOM      7  C   UNL     1      23.053  28.128  49.304  1.00  0.00     0.053 C 
BRANCH   7   8
ATOM      8  C   UNL     1      21.935  27.302  48.752  1.00  0.00     0.041 C 
ATOM      9  O   UNL     1      21.940  26.957  47.541  1.00  0.00    -0.550 OA
ATOM     10  O   UNL     1      20.862  26.955  49.562  1.00  0.00    -0.550 OA
ENDBRANCH   7   8
ENDBRANCH   6   7
ENDBRANCH   5   6
ENDBRANCH   4   5
ENDBRANCH   3   4
ENDBRANCH   2   3
ENDBRANCH   1   2
BRANCH   1  11
ATOM     11  C   UNL     1      20.745  32.380  47.531  1.00  0.00     0.000 C 
BRANCH  11  12
ATOM     12  C   UNL     1      22.253  32.146  47.333  1.00  0.00    -0.000 C 
BRANCH  12  13
ATOM     13  C   UNL     1      22.634  30.740  46.829  1.00  0.00    -0.000 C 
BRANCH  13  14
ATOM     14  C   UNL     1      24.141  30.503  46.624  1.00  0.00    -0.000 C 
BRANCH  14  15
ATOM     15  C   UNL     1      24.889  31.768  46.178  1.00  0.00    -0.000 C 
BRANCH  15  16
ATOM     16  C   UNL     1      25.578  31.547  44.823  1.00  0.00    -0.000 C 
BRANCH  16  17
ATOM     17  C   UNL     1      24.575  31.322  43.681  1.00  0.00    -0.003 C 
ATOM     18  C   UNL     1      23.555  32.454  43.558  1.00  0.00     0.004 C 
ENDBRANCH  16  17
ENDBRANCH  15  16
ENDBRANCH  14  15
ENDBRANCH  13  14
ENDBRANCH  12  13
ENDBRANCH  11  12
ENDBRANCH   1  11
TORSDOF 14
ENDMDL
