MODEL 1
REMARK VINA RESULT:    -5.594      0.000      0.000
REMARK INTER + INTRA:          -6.301
REMARK INTER:                  -6.084
REMARK INTRA:                  -0.216
REMARK UNBOUND:                -0.216
REMARK SMILES CC(=O)[C@@H]1CC[C@@H]2[C@@H]3CC=C4C[C@@H](O)CC[C@@]4(C)[C@H]3CC[C@@]21C
REMARK SMILES IDX 4 1 5 2 6 3 7 4 22 5 21 6 20 7 19 8 8 9 9 10 10 11 11 12
REMARK SMILES IDX 17 13 16 14 15 15 13 16 12 17 18 18 23 19 2 20 1 21 3 22
REMARK SMILES IDX 14 23
REMARK H PARENT 14 24
REMARK Flexibility Score: inf
ROOT
ATOM      1  C   UNL     1     150.778 142.274 138.700  1.00  0.00     0.062 C 
ATOM      2  C   UNL     1     150.491 141.617 137.341  1.00  0.00     0.012 C 
ATOM      3  C   UNL     1     148.976 141.437 137.253  1.00  0.00     0.005 C 
ATOM      4  C   UNL     1     148.394 141.962 138.575  1.00  0.00    -0.001 C 
ATOM      5  C   UNL     1     149.443 142.969 139.097  1.00  0.00    -0.020 C 
ATOM      6  C   UNL     1     149.275 144.345 138.378  1.00  0.00     0.008 C 
ATOM      7  C   UNL     1     147.842 144.877 138.440  1.00  0.00     0.005 C 
ATOM      8  C   UNL     1     146.829 143.891 137.810  1.00  0.00     0.003 C 
ATOM      9  C   UNL     1     146.936 142.512 138.499  1.00  0.00     0.000 C 
ATOM     10  C   UNL     1     146.014 141.515 137.782  1.00  0.00     0.031 C 
ATOM     11  C   UNL     1     144.605 142.009 137.748  1.00  0.00    -0.027 C 
ATOM     12  C   UNL     1     144.289 143.318 137.677  1.00  0.00    -0.065 C 
ATOM     13  C   UNL     1     145.337 144.444 137.783  1.00  0.00    -0.008 C 
ATOM     14  C   UNL     1     144.997 145.254 139.077  1.00  0.00     0.014 C 
ATOM     15  C   UNL     1     143.512 145.658 139.203  1.00  0.00     0.033 C 
ATOM     16  C   UNL     1     142.562 144.459 139.066  1.00  0.00     0.118 C 
ATOM     17  C   UNL     1     142.826 143.707 137.755  1.00  0.00     0.063 C 
ATOM     18  C   UNL     1     145.204 145.365 136.543  1.00  0.00     0.016 C 
ATOM     19  C   UNL     1     149.342 143.127 140.635  1.00  0.00     0.012 C 
ENDROOT
BRANCH   1  20
ATOM     20  C   UNL     1     152.031 143.144 138.705  1.00  0.00     0.133 C 
ATOM     21  C   UNL     1     152.629 143.676 137.432  1.00  0.00     0.088 C 
ATOM     22  O   UNL     1     152.644 143.329 139.744  1.00  0.00    -0.300 OA
ENDBRANCH   1  20
BRANCH  16  23
ATOM     23  O   UNL     1     142.729 143.600 140.166  1.00  0.00    -0.393 OA
ATOM     24  H   UNL     1     143.371 144.042 140.780  1.00  0.00     0.210 HD
ENDBRANCH  16  23
TORSDOF 2
ENDMDL
MODEL 2
REMARK VINA RESULT:    -5.587      4.860      7.812
REMARK INTER + INTRA:          -6.293
REMARK INTER:                  -6.083
REMARK INTRA:                  -0.210
REMARK UNBOUND:                -0.216
REMARK SMILES CC(=O)[C@@H]1CC[C@@H]2[C@@H]3CC=C4C[C@@H](O)CC[C@@]4(C)[C@H]3CC[C@@]21C
REMARK SMILES IDX 4 1 5 2 6 3 7 4 22 5 21 6 20 7 19 8 8 9 9 10 10 11 11 12
REMARK SMILES IDX 17 13 16 14 15 15 13 16 12 17 18 18 23 19 2 20 1 21 3 22
REMARK SMILES IDX 14 23
REMARK H PARENT 14 24
REMARK Flexibility Score: inf
ROOT
ATOM      1  C   UNL     1     142.295 144.726 138.725  1.00  0.00     0.062 C 
ATOM      2  C   UNL     1     141.661 144.995 137.352  1.00  0.00     0.012 C 
ATOM      3  C   UNL     1     141.456 146.506 137.253  1.00  0.00     0.005 C 
ATOM      4  C   UNL     1     141.943 147.103 138.583  1.00  0.00    -0.001 C 
ATOM      5  C   UNL     1     142.958 146.075 139.131  1.00  0.00    -0.020 C 
ATOM      6  C   UNL     1     144.344 146.265 138.440  1.00  0.00     0.008 C 
ATOM      7  C   UNL     1     144.849 147.709 138.505  1.00  0.00     0.005 C 
ATOM      8  C   UNL     1     143.857 148.701 137.851  1.00  0.00     0.003 C 
ATOM      9  C   UNL     1     142.467 148.571 138.511  1.00  0.00     0.000 C 
ATOM     10  C   UNL     1     141.469 149.471 137.769  1.00  0.00     0.031 C 
ATOM     11  C   UNL     1     141.937 150.889 137.740  1.00  0.00    -0.027 C 
ATOM     12  C   UNL     1     143.241 151.229 137.694  1.00  0.00    -0.065 C 
ATOM     13  C   UNL     1     144.383 150.202 137.828  1.00  0.00    -0.008 C 
ATOM     14  C   UNL     1     145.160 150.563 139.137  1.00  0.00     0.014 C 
ATOM     15  C   UNL     1     145.534 152.055 139.265  1.00  0.00     0.033 C 
ATOM     16  C   UNL     1     144.320 152.982 139.099  1.00  0.00     0.118 C 
ATOM     17  C   UNL     1     143.601 152.699 137.773  1.00  0.00     0.063 C 
ATOM     18  C   UNL     1     145.327 150.347 136.607  1.00  0.00     0.016 C 
ATOM     19  C   UNL     1     143.082 146.186 140.671  1.00  0.00     0.012 C 
ENDROOT
BRANCH   1  20
ATOM     20  C   UNL     1     143.188 143.490 138.754  1.00  0.00     0.133 C 
ATOM     21  C   UNL     1     143.788 142.918 137.500  1.00  0.00     0.088 C 
ATOM     22  O   UNL     1     143.338 142.866 139.793  1.00  0.00    -0.300 OA
ENDBRANCH   1  20
BRANCH  16  23
ATOM     23  O   UNL     1     143.442 152.805 140.181  1.00  0.00    -0.393 OA
ATOM     24  H   UNL     1     143.144 151.858 140.155  1.00  0.00     0.210 HD
ENDBRANCH  16  23
TORSDOF 2
ENDMDL
MODEL 3
REMARK VINA RESULT:    -5.582      7.695     11.131
REMARK INTER + INTRA:          -6.287
REMARK INTER:                  -6.081
REMARK INTRA:                  -0.206
REMARK UNBOUND:                -0.216
REMARK SMILES CC(=O)[C@@H]1CC[C@@H]2[C@@H]3CC=C4C[C@@H](O)CC[C@@]4(C)[C@H]3CC[C@@]21C
REMARK SMILES IDX 4 1 5 2 6 3 7 4 22 5 21 6 20 7 19 8 8 9 9 10 10 11 11 12
REMARK SMILES IDX 17 13 16 14 15 15 13 16 12 17 18 18 23 19 2 20 1 21 3 22
REMARK SMILES IDX 14 23
REMARK H PARENT 14 24
REMARK Flexibility Score: inf
ROOT
ATOM      1  C   UNL     1     144.673 153.296 138.740  1.00  0.00     0.062 C 
ATOM      2  C   UNL     1     144.947 153.961 137.383  1.00  0.00     0.012 C 
ATOM      3  C   UNL     1     146.459 154.162 137.291  1.00  0.00     0.005 C 
ATOM      4  C   UNL     1     147.052 153.641 138.610  1.00  0.00    -0.001 C 
ATOM      5  C   UNL     1     146.019 152.617 139.132  1.00  0.00    -0.020 C 
ATOM      6  C   UNL     1     146.203 151.247 138.407  1.00  0.00     0.008 C 
ATOM      7  C   UNL     1     147.644 150.734 138.463  1.00  0.00     0.005 C 
ATOM      8  C   UNL     1     148.642 151.736 137.834  1.00  0.00     0.003 C 
ATOM      9  C   UNL     1     148.518 153.111 138.527  1.00  0.00     0.000 C 
ATOM     10  C   UNL     1     149.423 154.123 137.811  1.00  0.00     0.031 C 
ATOM     11  C   UNL     1     150.839 153.649 137.772  1.00  0.00    -0.027 C 
ATOM     12  C   UNL     1     151.173 152.344 137.695  1.00  0.00    -0.065 C 
ATOM     13  C   UNL     1     150.141 151.204 137.800  1.00  0.00    -0.008 C 
ATOM     14  C   UNL     1     150.496 150.394 139.090  1.00  0.00     0.014 C 
ATOM     15  C   UNL     1     151.986 150.010 139.210  1.00  0.00     0.033 C 
ATOM     16  C   UNL     1     152.920 151.223 139.075  1.00  0.00     0.118 C 
ATOM     17  C   UNL     1     152.642 151.975 137.767  1.00  0.00     0.063 C 
ATOM     18  C   UNL     1     150.283 150.289 136.556  1.00  0.00     0.016 C 
ATOM     19  C   UNL     1     146.126 152.456 140.668  1.00  0.00     0.012 C 
ENDROOT
BRANCH   1  20
ATOM     20  C   UNL     1     143.433 152.408 138.746  1.00  0.00     0.133 C 
ATOM     21  C   UNL     1     142.872 151.825 137.479  1.00  0.00     0.088 C 
ATOM     22  O   UNL     1     142.797 152.250 139.777  1.00  0.00    -0.300 OA
ENDBRANCH   1  20
BRANCH  16  23
ATOM     23  O   UNL     1     152.744 152.076 140.178  1.00  0.00    -0.393 OA
ATOM     24  H   UNL     1     153.446 152.776 140.113  1.00  0.00     0.210 HD
ENDBRANCH  16  23
TORSDOF 2
ENDMDL
MODEL 4
REMARK VINA RESULT:    -5.548      5.082      8.002
REMARK INTER + INTRA:          -6.251
REMARK INTER:                  -6.065
REMARK INTRA:                  -0.185
REMARK UNBOUND:                -0.216
REMARK SMILES CC(=O)[C@@H]1CC[C@@H]2[C@@H]3CC=C4C[C@@H](O)CC[C@@]4(C)[C@H]3CC[C@@]21C
REMARK SMILES IDX 4 1 5 2 6 3 7 4 22 5 21 6 20 7 19 8 8 9 9 10 10 11 11 12
REMARK SMILES IDX 17 13 16 14 15 15 13 16 12 17 18 18 23 19 2 20 1 21 3 22
REMARK SMILES IDX 14 23
REMARK H PARENT 14 24
REMARK Flexibility Score: inf
ROOT
ATOM      1  C   UNL     1     153.347 150.981 138.962  1.00  0.00     0.062 C 
ATOM      2  C   UNL     1     153.989 150.759 137.584  1.00  0.00     0.012 C 
ATOM      3  C   UNL     1     154.173 149.250 137.425  1.00  0.00     0.005 C 
ATOM      4  C   UNL     1     153.667 148.607 138.726  1.00  0.00    -0.001 C 
ATOM      5  C   UNL     1     152.661 149.626 139.307  1.00  0.00    -0.020 C 
ATOM      6  C   UNL     1     151.278 149.485 138.597  1.00  0.00     0.008 C 
ATOM      7  C   UNL     1     150.752 148.048 138.600  1.00  0.00     0.005 C 
ATOM      8  C   UNL     1     151.735 147.069 137.913  1.00  0.00     0.003 C 
ATOM      9  C   UNL     1     153.122 147.151 138.590  1.00  0.00     0.000 C 
ATOM     10  C   UNL     1     154.113 146.268 137.820  1.00  0.00     0.031 C 
ATOM     11  C   UNL     1     153.625 144.859 137.728  1.00  0.00    -0.027 C 
ATOM     12  C   UNL     1     152.316 144.540 137.658  1.00  0.00    -0.065 C 
ATOM     13  C   UNL     1     151.188 145.578 137.825  1.00  0.00    -0.008 C 
ATOM     14  C   UNL     1     150.394 145.175 139.112  1.00  0.00     0.014 C 
ATOM     15  C   UNL     1     149.998 143.685 139.175  1.00  0.00     0.033 C 
ATOM     16  C   UNL     1     151.199 142.747 138.981  1.00  0.00     0.118 C 
ATOM     17  C   UNL     1     151.934 143.073 137.674  1.00  0.00     0.063 C 
ATOM     18  C   UNL     1     150.253 145.497 136.591  1.00  0.00     0.016 C 
ATOM     19  C   UNL     1     152.523 149.455 140.840  1.00  0.00     0.012 C 
ENDROOT
BRANCH   1  20
ATOM     20  C   UNL     1     152.472 152.228 139.034  1.00  0.00     0.133 C 
ATOM     21  C   UNL     1     151.814 152.805 137.811  1.00  0.00     0.088 C 
ATOM     22  O   UNL     1     152.384 152.856 140.078  1.00  0.00    -0.300 OA
ENDBRANCH   1  20
BRANCH  16  23
ATOM     23  O   UNL     1     152.071 142.868 140.076  1.00  0.00    -0.393 OA
ATOM     24  H   UNL     1     152.953 143.142 139.712  1.00  0.00     0.210 HD
ENDBRANCH  16  23
TORSDOF 2
ENDMDL
MODEL 5
REMARK VINA RESULT:    -5.412      4.055      6.689
REMARK INTER + INTRA:          -6.103
REMARK INTER:                  -5.879
REMARK INTRA:                  -0.224
REMARK UNBOUND:                -0.216
REMARK SMILES CC(=O)[C@@H]1CC[C@@H]2[C@@H]3CC=C4C[C@@H](O)CC[C@@]4(C)[C@H]3CC[C@@]21C
REMARK SMILES IDX 4 1 5 2 6 3 7 4 22 5 21 6 20 7 19 8 8 9 9 10 10 11 11 12
REMARK SMILES IDX 17 13 16 14 15 15 13 16 12 17 18 18 23 19 2 20 1 21 3 22
REMARK SMILES IDX 14 23
REMARK H PARENT 14 24
REMARK Flexibility Score: inf
ROOT
ATOM      1  C   UNL     1     153.626 149.342 137.827  1.00  0.00     0.062 C 
ATOM      2  C   UNL     1     154.451 148.474 136.865  1.00  0.00     0.012 C 
ATOM      3  C   UNL     1     154.240 147.022 137.293  1.00  0.00     0.005 C 
ATOM      4  C   UNL     1     153.317 147.058 138.522  1.00  0.00    -0.001 C 
ATOM      5  C   UNL     1     152.536 148.385 138.393  1.00  0.00    -0.020 C 
ATOM      6  C   UNL     1     151.346 148.216 137.398  1.00  0.00     0.008 C 
ATOM      7  C   UNL     1     150.454 147.019 137.735  1.00  0.00     0.005 C 
ATOM      8  C   UNL     1     151.247 145.690 137.749  1.00  0.00     0.003 C 
ATOM      9  C   UNL     1     152.431 145.791 138.736  1.00  0.00     0.000 C 
ATOM     10  C   UNL     1     153.276 144.513 138.646  1.00  0.00     0.031 C 
ATOM     11  C   UNL     1     152.447 143.297 138.900  1.00  0.00    -0.027 C 
ATOM     12  C   UNL     1     151.145 143.213 138.557  1.00  0.00    -0.065 C 
ATOM     13  C   UNL     1     150.339 144.411 138.017  1.00  0.00    -0.008 C 
ATOM     14  C   UNL     1     149.217 144.708 139.066  1.00  0.00     0.014 C 
ATOM     15  C   UNL     1     148.419 143.465 139.514  1.00  0.00     0.033 C 
ATOM     16  C   UNL     1     149.327 142.332 140.018  1.00  0.00     0.118 C 
ATOM     17  C   UNL     1     150.377 141.969 138.959  1.00  0.00     0.063 C 
ATOM     18  C   UNL     1     149.693 144.007 136.667  1.00  0.00     0.016 C 
ATOM     19  C   UNL     1     152.042 148.873 139.778  1.00  0.00     0.012 C 
ENDROOT
BRANCH   1  20
ATOM     20  C   UNL     1     153.135 150.645 137.205  1.00  0.00     0.133 C 
ATOM     21  C   UNL     1     153.168 150.875 135.720  1.00  0.00     0.088 C 
ATOM     22  O   UNL     1     152.813 151.582 137.920  1.00  0.00    -0.300 OA
ENDBRANCH   1  20
BRANCH  16  23
ATOM     23  O   UNL     1     149.952 142.728 141.212  1.00  0.00    -0.393 OA
ATOM     24  H   UNL     1     150.012 141.920 141.786  1.00  0.00     0.210 HD
ENDBRANCH  16  23
TORSDOF 2
ENDMDL
MODEL 6
REMARK VINA RESULT:    -4.908      3.010      7.095
REMARK INTER + INTRA:          -5.555
REMARK INTER:                  -5.331
REMARK INTRA:                  -0.224
REMARK UNBOUND:                -0.216
REMARK SMILES CC(=O)[C@@H]1CC[C@@H]2[C@@H]3CC=C4C[C@@H](O)CC[C@@]4(C)[C@H]3CC[C@@]21C
REMARK SMILES IDX 4 1 5 2 6 3 7 4 22 5 21 6 20 7 19 8 8 9 9 10 10 11 11 12
REMARK SMILES IDX 17 13 16 14 15 15 13 16 12 17 18 18 23 19 2 20 1 21 3 22
REMARK SMILES IDX 14 23
REMARK H PARENT 14 24
REMARK Flexibility Score: inf
ROOT
ATOM      1  C   UNL     1     142.042 147.975 137.823  1.00  0.00     0.062 C 
ATOM      2  C   UNL     1     141.994 147.617 139.316  1.00  0.00     0.012 C 
ATOM      3  C   UNL     1     142.480 146.173 139.437  1.00  0.00     0.005 C 
ATOM      4  C   UNL     1     142.777 145.690 138.008  1.00  0.00    -0.001 C 
ATOM      5  C   UNL     1     143.067 146.979 137.206  1.00  0.00    -0.020 C 
ATOM      6  C   UNL     1     144.538 147.444 137.447  1.00  0.00     0.008 C 
ATOM      7  C   UNL     1     145.561 146.333 137.199  1.00  0.00     0.005 C 
ATOM      8  C   UNL     1     145.306 145.099 138.097  1.00  0.00     0.003 C 
ATOM      9  C   UNL     1     143.866 144.580 137.885  1.00  0.00     0.000 C 
ATOM     10  C   UNL     1     143.591 143.435 138.870  1.00  0.00     0.031 C 
ATOM     11  C   UNL     1     144.599 142.342 138.725  1.00  0.00    -0.027 C 
ATOM     12  C   UNL     1     145.881 142.570 138.371  1.00  0.00    -0.065 C 
ATOM     13  C   UNL     1     146.397 143.953 137.926  1.00  0.00    -0.008 C 
ATOM     14  C   UNL     1     146.852 143.805 136.436  1.00  0.00     0.014 C 
ATOM     15  C   UNL     1     147.766 142.590 136.168  1.00  0.00     0.033 C 
ATOM     16  C   UNL     1     147.155 141.272 136.667  1.00  0.00     0.118 C 
ATOM     17  C   UNL     1     146.787 141.375 138.153  1.00  0.00     0.063 C 
ATOM     18  C   UNL     1     147.615 144.335 138.805  1.00  0.00     0.016 C 
ATOM     19  C   UNL     1     142.788 146.767 135.698  1.00  0.00     0.012 C 
ENDROOT
BRANCH   1  20
ATOM     20  C   UNL     1     142.285 149.458 137.558  1.00  0.00     0.133 C 
ATOM     21  C   UNL     1     142.778 150.383 138.635  1.00  0.00     0.088 C 
ATOM     22  O   UNL     1     141.968 149.948 136.486  1.00  0.00    -0.300 OA
ENDBRANCH   1  20
BRANCH  16  23
ATOM     23  O   UNL     1     146.019 140.961 135.901  1.00  0.00    -0.393 OA
ATOM     24  H   UNL     1     145.413 140.435 136.487  1.00  0.00     0.210 HD
ENDBRANCH  16  23
TORSDOF 2
ENDMDL
MODEL 7
REMARK VINA RESULT:    -4.891      5.794      8.606
REMARK INTER + INTRA:          -5.537
REMARK INTER:                  -5.313
REMARK INTRA:                  -0.223
REMARK UNBOUND:                -0.216
REMARK SMILES CC(=O)[C@@H]1CC[C@@H]2[C@@H]3CC=C4C[C@@H](O)CC[C@@]4(C)[C@H]3CC[C@@]21C
REMARK SMILES IDX 4 1 5 2 6 3 7 4 22 5 21 6 20 7 19 8 8 9 9 10 10 11 11 12
REMARK SMILES IDX 17 13 16 14 15 15 13 16 12 17 18 18 23 19 2 20 1 21 3 22
REMARK SMILES IDX 14 23
REMARK H PARENT 14 24
REMARK Flexibility Score: inf
ROOT
ATOM      1  C   UNL     1     152.169 144.821 136.962  1.00  0.00     0.062 C 
ATOM      2  C   UNL     1     153.608 144.828 137.502  1.00  0.00     0.012 C 
ATOM      3  C   UNL     1     154.097 146.274 137.424  1.00  0.00     0.005 C 
ATOM      4  C   UNL     1     152.951 147.093 136.810  1.00  0.00    -0.001 C 
ATOM      5  C   UNL     1     151.672 146.287 137.130  1.00  0.00    -0.020 C 
ATOM      6  C   UNL     1     151.207 146.572 138.593  1.00  0.00     0.008 C 
ATOM      7  C   UNL     1     151.071 148.066 138.894  1.00  0.00     0.005 C 
ATOM      8  C   UNL     1     152.400 148.827 138.666  1.00  0.00     0.003 C 
ATOM      9  C   UNL     1     152.900 148.597 137.223  1.00  0.00     0.000 C 
ATOM     10  C   UNL     1     154.277 149.255 137.054  1.00  0.00     0.031 C 
ATOM     11  C   UNL     1     154.228 150.708 137.397  1.00  0.00    -0.027 C 
ATOM     12  C   UNL     1     153.405 151.210 138.340  1.00  0.00    -0.065 C 
ATOM     13  C   UNL     1     152.321 150.370 139.045  1.00  0.00    -0.008 C 
ATOM     14  C   UNL     1     150.942 150.993 138.650  1.00  0.00     0.014 C 
ATOM     15  C   UNL     1     150.865 152.526 138.815  1.00  0.00     0.033 C 
ATOM     16  C   UNL     1     152.002 153.255 138.083  1.00  0.00     0.118 C 
ATOM     17  C   UNL     1     153.367 152.714 138.530  1.00  0.00     0.063 C 
ATOM     18  C   UNL     1     152.523 150.485 140.578  1.00  0.00     0.016 C 
ATOM     19  C   UNL     1     150.547 146.605 136.114  1.00  0.00     0.012 C 
ENDROOT
BRANCH   1  20
ATOM     20  C   UNL     1     151.295 143.728 137.569  1.00  0.00     0.133 C 
ATOM     21  C   UNL     1     151.716 142.968 138.796  1.00  0.00     0.088 C 
ATOM     22  O   UNL     1     150.280 143.366 136.995  1.00  0.00    -0.300 OA
ENDBRANCH   1  20
BRANCH  16  23
ATOM     23  O   UNL     1     151.844 153.099 136.696  1.00  0.00    -0.393 OA
ATOM     24  H   UNL     1     152.705 152.749 136.346  1.00  0.00     0.210 HD
ENDBRANCH  16  23
TORSDOF 2
ENDMDL
MODEL 8
REMARK VINA RESULT:    -4.887      6.699      8.772
REMARK INTER + INTRA:          -5.532
REMARK INTER:                  -5.308
REMARK INTRA:                  -0.224
REMARK UNBOUND:                -0.216
REMARK SMILES CC(=O)[C@@H]1CC[C@@H]2[C@@H]3CC=C4C[C@@H](O)CC[C@@]4(C)[C@H]3CC[C@@]21C
REMARK SMILES IDX 4 1 5 2 6 3 7 4 22 5 21 6 20 7 19 8 8 9 9 10 10 11 11 12
REMARK SMILES IDX 17 13 16 14 15 15 13 16 12 17 18 18 23 19 2 20 1 21 3 22
REMARK SMILES IDX 14 23
REMARK H PARENT 14 24
REMARK Flexibility Score: inf
ROOT
ATOM      1  C   UNL     1     147.983 153.559 137.808  1.00  0.00     0.062 C 
ATOM      2  C   UNL     1     147.638 153.604 139.304  1.00  0.00     0.012 C 
ATOM      3  C   UNL     1     146.192 153.128 139.435  1.00  0.00     0.005 C 
ATOM      4  C   UNL     1     145.695 152.839 138.010  1.00  0.00    -0.001 C 
ATOM      5  C   UNL     1     146.974 152.543 137.196  1.00  0.00    -0.020 C 
ATOM      6  C   UNL     1     147.431 151.069 137.427  1.00  0.00     0.008 C 
ATOM      7  C   UNL     1     146.311 150.053 137.185  1.00  0.00     0.005 C 
ATOM      8  C   UNL     1     145.086 150.314 138.094  1.00  0.00     0.003 C 
ATOM      9  C   UNL     1     144.575 151.758 137.892  1.00  0.00     0.000 C 
ATOM     10  C   UNL     1     143.441 152.037 138.888  1.00  0.00     0.031 C 
ATOM     11  C   UNL     1     142.340 151.037 138.749  1.00  0.00    -0.027 C 
ATOM     12  C   UNL     1     142.556 149.756 138.388  1.00  0.00    -0.065 C 
ATOM     13  C   UNL     1     143.931 149.232 137.929  1.00  0.00    -0.008 C 
ATOM     14  C   UNL     1     143.767 148.783 136.439  1.00  0.00     0.014 C 
ATOM     15  C   UNL     1     142.544 147.879 136.178  1.00  0.00     0.033 C 
ATOM     16  C   UNL     1     141.234 148.497 136.691  1.00  0.00     0.118 C 
ATOM     17  C   UNL     1     141.353 148.858 138.177  1.00  0.00     0.063 C 
ATOM     18  C   UNL     1     144.312 148.007 138.801  1.00  0.00     0.016 C 
ATOM     19  C   UNL     1     146.751 152.829 135.690  1.00  0.00     0.012 C 
ENDROOT
BRANCH   1  20
ATOM     20  C   UNL     1     149.461 153.307 137.529  1.00  0.00     0.133 C 
ATOM     21  C   UNL     1     150.393 152.803 138.596  1.00  0.00     0.088 C 
ATOM     22  O   UNL     1     149.945 153.624 136.454  1.00  0.00    -0.300 OA
ENDBRANCH   1  20
BRANCH  16  23
ATOM     23  O   UNL     1     140.925 149.639 135.932  1.00  0.00    -0.393 OA
ATOM     24  H   UNL     1     139.940 149.753 135.975  1.00  0.00     0.210 HD
ENDBRANCH  16  23
TORSDOF 2
ENDMDL
MODEL 9
REMARK VINA RESULT:    -4.887      1.465      6.742
REMARK INTER + INTRA:          -5.532
REMARK INTER:                  -5.309
REMARK INTRA:                  -0.222
REMARK UNBOUND:                -0.216
REMARK SMILES CC(=O)[C@@H]1CC[C@@H]2[C@@H]3CC=C4C[C@@H](O)CC[C@@]4(C)[C@H]3CC[C@@]21C
REMARK SMILES IDX 4 1 5 2 6 3 7 4 22 5 21 6 20 7 19 8 8 9 9 10 10 11 11 12
REMARK SMILES IDX 17 13 16 14 15 15 13 16 12 17 18 18 23 19 2 20 1 21 3 22
REMARK SMILES IDX 14 23
REMARK H PARENT 14 24
REMARK Flexibility Score: inf
ROOT
ATOM      1  C   UNL     1     144.845 143.454 136.933  1.00  0.00     0.062 C 
ATOM      2  C   UNL     1     144.835 142.027 137.502  1.00  0.00     0.012 C 
ATOM      3  C   UNL     1     146.274 141.519 137.438  1.00  0.00     0.005 C 
ATOM      4  C   UNL     1     147.108 142.643 136.801  1.00  0.00    -0.001 C 
ATOM      5  C   UNL     1     146.317 143.938 137.093  1.00  0.00    -0.020 C 
ATOM      6  C   UNL     1     146.605 144.430 138.546  1.00  0.00     0.008 C 
ATOM      7  C   UNL     1     148.100 144.554 138.847  1.00  0.00     0.005 C 
ATOM      8  C   UNL     1     148.845 143.212 138.648  1.00  0.00     0.003 C 
ATOM      9  C   UNL     1     148.612 142.684 137.215  1.00  0.00     0.000 C 
ATOM     10  C   UNL     1     149.254 141.297 137.076  1.00  0.00     0.031 C 
ATOM     11  C   UNL     1     150.706 141.335 137.421  1.00  0.00    -0.027 C 
ATOM     12  C   UNL     1     151.217 142.172 138.347  1.00  0.00    -0.065 C 
ATOM     13  C   UNL     1     150.389 143.280 139.027  1.00  0.00    -0.008 C 
ATOM     14  C   UNL     1     151.029 144.644 138.605  1.00  0.00     0.014 C 
ATOM     15  C   UNL     1     152.562 144.706 138.771  1.00  0.00     0.033 C 
ATOM     16  C   UNL     1     153.278 143.545 138.064  1.00  0.00     0.118 C 
ATOM     17  C   UNL     1     152.721 142.196 138.539  1.00  0.00     0.063 C 
ATOM     18  C   UNL     1     150.499 143.109 140.565  1.00  0.00     0.016 C 
ATOM     19  C   UNL     1     146.650 145.037 136.054  1.00  0.00     0.012 C 
ENDROOT
BRANCH   1  20
ATOM     20  C   UNL     1     143.762 144.354 137.520  1.00  0.00     0.133 C 
ATOM     21  C   UNL     1     143.060 144.012 138.805  1.00  0.00     0.088 C 
ATOM     22  O   UNL     1     143.358 145.318 136.889  1.00  0.00    -0.300 OA
ENDBRANCH   1  20
BRANCH  16  23
ATOM     23  O   UNL     1     153.127 143.676 136.674  1.00  0.00    -0.393 OA
ATOM     24  H   UNL     1     152.195 143.980 136.515  1.00  0.00     0.210 HD
ENDBRANCH  16  23
TORSDOF 2
ENDMDL
