MODEL 1
REMARK VINA RESULT:    -6.537      0.000      0.000
REMARK INTER + INTRA:          -8.019
REMARK INTER:                  -7.875
REMARK INTRA:                  -0.145
REMARK UNBOUND:                -0.145
REMARK SMILES O=c1c(O)c(-c2ccc(O)c(O)c2)oc2cc(O)cc(O)c12
REMARK SMILES IDX 5 1 3 2 2 3 1 4 22 5 20 6 19 7 17 8 16 9 15 10 14 11 6 12
REMARK SMILES IDX 7 13 8 14 9 15 13 16 11 17 10 18 12 20 4 22 21 24 18 26
REMARK H PARENT 10 19 12 21 4 23 21 25 18 27
REMARK Flexibility Score: inf
ROOT
ATOM      1  C   UNL     1      31.020 -92.087  37.661  1.00  0.00     0.180 A 
ATOM      2  C   UNL     1      29.801 -92.703  37.331  1.00  0.00     0.208 A 
ATOM      3  C   UNL     1      29.690 -94.098  37.447  1.00  0.00     0.238 A 
ATOM      4  O   UNL     1      28.580 -94.638  37.202  1.00  0.00    -0.285 OA
ATOM      5  C   UNL     1      30.803 -94.860  37.876  1.00  0.00     0.111 A 
ATOM      6  C   UNL     1      30.815 -96.282  37.992  1.00  0.00     0.134 A 
ATOM      7  C   UNL     1      31.929 -96.921  38.551  1.00  0.00     0.093 A 
ATOM      8  C   UNL     1      33.056 -96.196  38.938  1.00  0.00     0.123 A 
ATOM      9  C   UNL     1      33.078 -94.809  38.773  1.00  0.00     0.094 A 
ATOM     10  C   UNL     1      31.967 -94.141  38.253  1.00  0.00     0.146 A 
ATOM     11  O   UNL     1      32.025 -92.821  38.123  1.00  0.00    -0.452 OA
ENDROOT
BRANCH   1  12
ATOM     12  C   UNL     1      31.221 -90.624  37.539  1.00  0.00     0.025 A 
ATOM     13  C   UNL     1      32.129 -90.129  36.588  1.00  0.00     0.016 A 
ATOM     14  C   UNL     1      32.319 -88.752  36.443  1.00  0.00     0.051 A 
ATOM     15  C   UNL     1      31.594 -87.852  37.233  1.00  0.00     0.157 A 
ATOM     16  C   UNL     1      30.480 -89.715  38.316  1.00  0.00     0.062 A 
ATOM     17  C   UNL     1      30.670 -88.334  38.169  1.00  0.00     0.158 A 
BRANCH  15  18
ATOM     18  O   UNL     1      31.782 -86.477  37.092  1.00  0.00    -0.504 OA
ATOM     19  H   UNL     1      31.859 -86.044  36.180  1.00  0.00     0.293 HD
ENDBRANCH  15  18
BRANCH  17  20
ATOM     20  O   UNL     1      29.940 -87.435  38.944  1.00  0.00    -0.504 OA
ATOM     21  H   UNL     1      28.937 -87.340  38.842  1.00  0.00     0.293 HD
ENDBRANCH  17  20
ENDBRANCH   1  12
BRANCH   2  22
ATOM     22  O   UNL     1      28.708 -91.929  36.930  1.00  0.00    -0.502 OA
ATOM     23  H   UNL     1      28.808 -91.111  36.341  1.00  0.00     0.293 HD
ENDBRANCH   2  22
BRANCH   6  24
ATOM     24  O   UNL     1      29.778 -97.110  37.550  1.00  0.00    -0.507 OA
ATOM     25  H   UNL     1      28.796 -96.926  37.691  1.00  0.00     0.293 HD
ENDBRANCH   6  24
BRANCH   8  26
ATOM     26  O   UNL     1      34.153 -96.865  39.476  1.00  0.00    -0.508 OA
ATOM     27  H   UNL     1      34.642 -97.584  38.957  1.00  0.00     0.293 HD
ENDBRANCH   8  26
TORSDOF 6
ENDMDL
MODEL 2
REMARK VINA RESULT:    -6.081      1.217      3.008
REMARK INTER + INTRA:          -7.470
REMARK INTER:                  -7.354
REMARK INTRA:                  -0.116
REMARK UNBOUND:                -0.145
REMARK SMILES O=c1c(O)c(-c2ccc(O)c(O)c2)oc2cc(O)cc(O)c12
REMARK SMILES IDX 5 1 3 2 2 3 1 4 22 5 20 6 19 7 17 8 16 9 15 10 14 11 6 12
REMARK SMILES IDX 7 13 8 14 9 15 13 16 11 17 10 18 12 20 4 22 21 24 18 26
REMARK H PARENT 10 19 12 21 4 23 21 25 18 27
REMARK Flexibility Score: inf
ROOT
ATOM      1  C   UNL     1      31.114 -92.055  37.634  1.00  0.00     0.180 A 
ATOM      2  C   UNL     1      32.149 -92.924  38.019  1.00  0.00     0.208 A 
ATOM      3  C   UNL     1      31.868 -94.290  38.180  1.00  0.00     0.238 A 
ATOM      4  O   UNL     1      32.811 -95.070  38.473  1.00  0.00    -0.285 OA
ATOM      5  C   UNL     1      30.553 -94.768  37.968  1.00  0.00     0.111 A 
ATOM      6  C   UNL     1      30.146 -96.125  38.141  1.00  0.00     0.134 A 
ATOM      7  C   UNL     1      28.850 -96.510  37.777  1.00  0.00     0.093 A 
ATOM      8  C   UNL     1      27.926 -95.575  37.310  1.00  0.00     0.123 A 
ATOM      9  C   UNL     1      28.295 -94.234  37.193  1.00  0.00     0.094 A 
ATOM     10  C   UNL     1      29.592 -93.827  37.513  1.00  0.00     0.146 A 
ATOM     11  O   UNL     1      29.906 -92.544  37.378  1.00  0.00    -0.452 OA
ENDROOT
BRANCH   1  12
ATOM     12  C   UNL     1      31.327 -90.599  37.469  1.00  0.00     0.025 A 
ATOM     13  C   UNL     1      32.215 -90.138  36.482  1.00  0.00     0.016 A 
ATOM     14  C   UNL     1      32.416 -88.767  36.296  1.00  0.00     0.051 A 
ATOM     15  C   UNL     1      31.720 -87.840  37.081  1.00  0.00     0.157 A 
ATOM     16  C   UNL     1      30.616 -89.662  38.241  1.00  0.00     0.062 A 
ATOM     17  C   UNL     1      30.816 -88.287  38.052  1.00  0.00     0.158 A 
BRANCH  15  18
ATOM     18  O   UNL     1      31.919 -86.471  36.899  1.00  0.00    -0.504 OA
ATOM     19  H   UNL     1      32.727 -85.998  37.283  1.00  0.00     0.293 HD
ENDBRANCH  15  18
BRANCH  17  20
ATOM     20  O   UNL     1      30.116 -87.361  38.822  1.00  0.00    -0.504 OA
ATOM     21  H   UNL     1      30.359 -86.376  38.819  1.00  0.00     0.293 HD
ENDBRANCH  17  20
ENDBRANCH   1  12
BRANCH   2  22
ATOM     22  O   UNL     1      33.446 -92.434  38.202  1.00  0.00    -0.502 OA
ATOM     23  H   UNL     1      33.870 -91.768  37.567  1.00  0.00     0.293 HD
ENDBRANCH   2  22
BRANCH   6  24
ATOM     24  O   UNL     1      30.962 -97.121  38.687  1.00  0.00    -0.507 OA
ATOM     25  H   UNL     1      31.970 -97.110  38.670  1.00  0.00     0.293 HD
ENDBRANCH   6  24
BRANCH   8  26
ATOM     26  O   UNL     1      26.639 -95.990  36.972  1.00  0.00    -0.508 OA
ATOM     27  H   UNL     1      25.880 -95.328  36.863  1.00  0.00     0.293 HD
ENDBRANCH   8  26
TORSDOF 6
ENDMDL
MODEL 3
REMARK VINA RESULT:    -5.681      9.298     10.931
REMARK INTER + INTRA:          -6.988
REMARK INTER:                  -6.876
REMARK INTRA:                  -0.112
REMARK UNBOUND:                -0.145
REMARK SMILES O=c1c(O)c(-c2ccc(O)c(O)c2)oc2cc(O)cc(O)c12
REMARK SMILES IDX 5 1 3 2 2 3 1 4 22 5 20 6 19 7 17 8 16 9 15 10 14 11 6 12
REMARK SMILES IDX 7 13 8 14 9 15 13 16 11 17 10 18 12 20 4 22 21 24 18 26
REMARK H PARENT 10 19 12 21 4 23 21 25 18 27
REMARK Flexibility Score: inf
ROOT
ATOM      1  C   UNL     1      37.434 -95.152  31.053  1.00  0.00     0.180 A 
ATOM      2  C   UNL     1      38.096 -95.754  29.970  1.00  0.00     0.208 A 
ATOM      3  C   UNL     1      37.417 -95.892  28.748  1.00  0.00     0.238 A 
ATOM      4  O   UNL     1      38.033 -96.383  27.766  1.00  0.00    -0.285 OA
ATOM      5  C   UNL     1      36.081 -95.441  28.631  1.00  0.00     0.111 A 
ATOM      6  C   UNL     1      35.284 -95.567  27.454  1.00  0.00     0.134 A 
ATOM      7  C   UNL     1      34.019 -94.969  27.408  1.00  0.00     0.093 A 
ATOM      8  C   UNL     1      33.495 -94.306  28.518  1.00  0.00     0.123 A 
ATOM      9  C   UNL     1      34.242 -94.229  29.695  1.00  0.00     0.094 A 
ATOM     10  C   UNL     1      35.522 -94.785  29.758  1.00  0.00     0.146 A 
ATOM     11  O   UNL     1      36.204 -94.680  30.893  1.00  0.00    -0.452 OA
ENDROOT
BRANCH   1  12
ATOM     12  C   UNL     1      38.076 -94.995  32.379  1.00  0.00     0.025 A 
ATOM     13  C   UNL     1      39.224 -94.195  32.500  1.00  0.00     0.016 A 
ATOM     14  C   UNL     1      39.834 -94.016  33.745  1.00  0.00     0.051 A 
ATOM     15  C   UNL     1      39.294 -94.619  34.887  1.00  0.00     0.157 A 
ATOM     16  C   UNL     1      37.527 -95.582  33.533  1.00  0.00     0.062 A 
ATOM     17  C   UNL     1      38.137 -95.401  34.783  1.00  0.00     0.158 A 
BRANCH  15  18
ATOM     18  O   UNL     1      39.901 -94.444  36.131  1.00  0.00    -0.504 OA
ATOM     19  H   UNL     1      39.356 -94.378  36.982  1.00  0.00     0.293 HD
ENDBRANCH  15  18
BRANCH  17  20
ATOM     20  O   UNL     1      37.596 -95.989  35.924  1.00  0.00    -0.504 OA
ATOM     21  H   UNL     1      37.631 -96.991  36.071  1.00  0.00     0.293 HD
ENDBRANCH  17  20
ENDBRANCH   1  12
BRANCH   2  22
ATOM     22  O   UNL     1      39.424 -96.173  30.101  1.00  0.00    -0.502 OA
ATOM     23  H   UNL     1      40.016 -95.871  30.866  1.00  0.00     0.293 HD
ENDBRANCH   2  22
BRANCH   6  24
ATOM     24  O   UNL     1      35.674 -96.287  26.320  1.00  0.00    -0.507 OA
ATOM     25  H   UNL     1      35.885 -97.273  26.310  1.00  0.00     0.293 HD
ENDBRANCH   6  24
BRANCH   8  26
ATOM     26  O   UNL     1      32.226 -93.735  28.444  1.00  0.00    -0.508 OA
ATOM     27  H   UNL     1      32.041 -92.807  28.805  1.00  0.00     0.293 HD
ENDBRANCH   8  26
TORSDOF 6
ENDMDL
MODEL 4
REMARK VINA RESULT:    -5.605      8.902     11.073
REMARK INTER + INTRA:          -6.897
REMARK INTER:                  -6.581
REMARK INTRA:                  -0.315
REMARK UNBOUND:                -0.145
REMARK SMILES O=c1c(O)c(-c2ccc(O)c(O)c2)oc2cc(O)cc(O)c12
REMARK SMILES IDX 5 1 3 2 2 3 1 4 22 5 20 6 19 7 17 8 16 9 15 10 14 11 6 12
REMARK SMILES IDX 7 13 8 14 9 15 13 16 11 17 10 18 12 20 4 22 21 24 18 26
REMARK H PARENT 10 19 12 21 4 23 21 25 18 27
REMARK Flexibility Score: inf
ROOT
ATOM      1  C   UNL     1      40.149 -95.374  35.952  1.00  0.00     0.180 A 
ATOM      2  C   UNL     1      41.351 -95.377  35.226  1.00  0.00     0.208 A 
ATOM      3  C   UNL     1      41.304 -95.249  33.828  1.00  0.00     0.238 A 
ATOM      4  O   UNL     1      42.387 -95.198  33.189  1.00  0.00    -0.285 OA
ATOM      5  C   UNL     1      40.054 -95.135  33.174  1.00  0.00     0.111 A 
ATOM      6  C   UNL     1      39.886 -95.041  31.760  1.00  0.00     0.134 A 
ATOM      7  C   UNL     1      38.612 -94.801  31.230  1.00  0.00     0.093 A 
ATOM      8  C   UNL     1      37.492 -94.717  32.057  1.00  0.00     0.123 A 
ATOM      9  C   UNL     1      37.637 -94.869  33.437  1.00  0.00     0.094 A 
ATOM     10  C   UNL     1      38.900 -95.072  33.998  1.00  0.00     0.146 A 
ATOM     11  O   UNL     1      38.996 -95.200  35.316  1.00  0.00    -0.452 OA
ENDROOT
BRANCH   1  12
ATOM     12  C   UNL     1      40.117 -95.530  37.424  1.00  0.00     0.025 A 
ATOM     13  C   UNL     1      40.162 -96.819  37.984  1.00  0.00     0.016 A 
ATOM     14  C   UNL     1      40.153 -96.988  39.371  1.00  0.00     0.051 A 
ATOM     15  C   UNL     1      40.118 -95.873  40.217  1.00  0.00     0.157 A 
ATOM     16  C   UNL     1      40.101 -94.414  38.280  1.00  0.00     0.062 A 
ATOM     17  C   UNL     1      40.095 -94.584  39.672  1.00  0.00     0.158 A 
BRANCH  15  18
ATOM     18  O   UNL     1      40.108 -96.039  41.602  1.00  0.00    -0.504 OA
ATOM     19  H   UNL     1      40.548 -95.368  42.219  1.00  0.00     0.293 HD
ENDBRANCH  15  18
BRANCH  17  20
ATOM     20  O   UNL     1      40.073 -93.477  40.518  1.00  0.00    -0.504 OA
ATOM     21  H   UNL     1      39.212 -93.150  40.941  1.00  0.00     0.293 HD
ENDBRANCH  17  20
ENDBRANCH   1  12
BRANCH   2  22
ATOM     22  O   UNL     1      42.576 -95.468  35.894  1.00  0.00    -0.502 OA
ATOM     23  H   UNL     1      42.664 -95.889  36.812  1.00  0.00     0.293 HD
ENDBRANCH   2  22
BRANCH   6  24
ATOM     24  O   UNL     1      40.925 -95.201  30.837  1.00  0.00    -0.507 OA
ATOM     25  H   UNL     1      41.896 -95.010  31.028  1.00  0.00     0.293 HD
ENDBRANCH   6  24
BRANCH   8  26
ATOM     26  O   UNL     1      36.237 -94.493  31.495  1.00  0.00    -0.508 OA
ATOM     27  H   UNL     1      36.064 -94.642  30.507  1.00  0.00     0.293 HD
ENDBRANCH   8  26
TORSDOF 6
ENDMDL
MODEL 5
REMARK VINA RESULT:    -5.403      8.149     10.782
REMARK INTER + INTRA:          -6.653
REMARK INTER:                  -6.443
REMARK INTRA:                  -0.210
REMARK UNBOUND:                -0.145
REMARK SMILES O=c1c(O)c(-c2ccc(O)c(O)c2)oc2cc(O)cc(O)c12
REMARK SMILES IDX 5 1 3 2 2 3 1 4 22 5 20 6 19 7 17 8 16 9 15 10 14 11 6 12
REMARK SMILES IDX 7 13 8 14 9 15 13 16 11 17 10 18 12 20 4 22 21 24 18 26
REMARK H PARENT 10 19 12 21 4 23 21 25 18 27
REMARK Flexibility Score: inf
ROOT
ATOM      1  C   UNL     1      40.074 -95.132  35.344  1.00  0.00     0.180 A 
ATOM      2  C   UNL     1      41.194 -94.773  36.112  1.00  0.00     0.208 A 
ATOM      3  C   UNL     1      41.100 -94.808  37.512  1.00  0.00     0.238 A 
ATOM      4  O   UNL     1      42.123 -94.538  38.194  1.00  0.00    -0.285 OA
ATOM      5  C   UNL     1      39.882 -95.186  38.127  1.00  0.00     0.111 A 
ATOM      6  C   UNL     1      39.662 -95.217  39.537  1.00  0.00     0.134 A 
ATOM      7  C   UNL     1      38.459 -95.732  40.037  1.00  0.00     0.093 A 
ATOM      8  C   UNL     1      37.445 -96.154  39.178  1.00  0.00     0.123 A 
ATOM      9  C   UNL     1      37.627 -96.071  37.797  1.00  0.00     0.094 A 
ATOM     10  C   UNL     1      38.829 -95.597  37.269  1.00  0.00     0.146 A 
ATOM     11  O   UNL     1      38.966 -95.545  35.949  1.00  0.00    -0.452 OA
ENDROOT
BRANCH   1  12
ATOM     12  C   UNL     1      40.089 -95.096  33.864  1.00  0.00     0.025 A 
ATOM     13  C   UNL     1      39.378 -94.088  33.190  1.00  0.00     0.016 A 
ATOM     14  C   UNL     1      39.395 -94.023  31.794  1.00  0.00     0.051 A 
ATOM     15  C   UNL     1      40.136 -94.952  31.054  1.00  0.00     0.157 A 
ATOM     16  C   UNL     1      40.847 -96.014  33.115  1.00  0.00     0.062 A 
ATOM     17  C   UNL     1      40.866 -95.947  31.715  1.00  0.00     0.158 A 
BRANCH  15  18
ATOM     18  O   UNL     1      40.154 -94.891  29.660  1.00  0.00    -0.504 OA
ATOM     19  H   UNL     1      40.858 -94.361  29.163  1.00  0.00     0.293 HD
ENDBRANCH  15  18
BRANCH  17  20
ATOM     20  O   UNL     1      41.612 -96.862  30.975  1.00  0.00    -0.504 OA
ATOM     21  H   UNL     1      42.626 -96.843  30.976  1.00  0.00     0.293 HD
ENDBRANCH  17  20
ENDBRANCH   1  12
BRANCH   2  22
ATOM     22  O   UNL     1      42.394 -94.425  35.484  1.00  0.00    -0.502 OA
ATOM     23  H   UNL     1      42.434 -93.767  34.714  1.00  0.00     0.293 HD
ENDBRANCH   2  22
BRANCH   6  24
ATOM     24  O   UNL     1      40.574 -94.734  40.481  1.00  0.00    -0.507 OA
ATOM     25  H   UNL     1      41.300 -94.062  40.285  1.00  0.00     0.293 HD
ENDBRANCH   6  24
BRANCH   8  26
ATOM     26  O   UNL     1      36.254 -96.646  39.710  1.00  0.00    -0.508 OA
ATOM     27  H   UNL     1      35.912 -96.342  40.614  1.00  0.00     0.293 HD
ENDBRANCH   8  26
TORSDOF 6
ENDMDL
MODEL 6
REMARK VINA RESULT:    -5.175      9.957     11.500
REMARK INTER + INTRA:          -6.378
REMARK INTER:                  -6.672
REMARK INTRA:                   0.294
REMARK UNBOUND:                -0.145
REMARK SMILES O=c1c(O)c(-c2ccc(O)c(O)c2)oc2cc(O)cc(O)c12
REMARK SMILES IDX 5 1 3 2 2 3 1 4 22 5 20 6 19 7 17 8 16 9 15 10 14 11 6 12
REMARK SMILES IDX 7 13 8 14 9 15 13 16 11 17 10 18 12 20 4 22 21 24 18 26
REMARK H PARENT 10 19 12 21 4 23 21 25 18 27
REMARK Flexibility Score: inf
ROOT
ATOM      1  C   UNL     1      39.163 -95.136  31.414  1.00  0.00     0.180 A 
ATOM      2  C   UNL     1      39.626 -95.274  30.096  1.00  0.00     0.208 A 
ATOM      3  C   UNL     1      38.694 -95.427  29.058  1.00  0.00     0.238 A 
ATOM      4  O   UNL     1      39.113 -95.496  27.873  1.00  0.00    -0.285 OA
ATOM      5  C   UNL     1      37.310 -95.454  29.353  1.00  0.00     0.111 A 
ATOM      6  C   UNL     1      36.278 -95.643  28.385  1.00  0.00     0.134 A 
ATOM      7  C   UNL     1      34.937 -95.522  28.771  1.00  0.00     0.093 A 
ATOM      8  C   UNL     1      34.590 -95.284  30.101  1.00  0.00     0.123 A 
ATOM      9  C   UNL     1      35.590 -95.157  31.067  1.00  0.00     0.094 A 
ATOM     10  C   UNL     1      36.937 -95.236  30.705  1.00  0.00     0.146 A 
ATOM     11  O   UNL     1      37.857 -95.099  31.653  1.00  0.00    -0.452 OA
ENDROOT
BRANCH   1  12
ATOM     12  C   UNL     1      40.086 -94.996  32.564  1.00  0.00     0.025 A 
ATOM     13  C   UNL     1      41.351 -95.606  32.512  1.00  0.00     0.016 A 
ATOM     14  C   UNL     1      42.246 -95.471  33.577  1.00  0.00     0.051 A 
ATOM     15  C   UNL     1      41.896 -94.710  34.700  1.00  0.00     0.157 A 
ATOM     16  C   UNL     1      39.748 -94.217  33.686  1.00  0.00     0.062 A 
ATOM     17  C   UNL     1      40.647 -94.079  34.753  1.00  0.00     0.158 A 
BRANCH  15  18
ATOM     18  O   UNL     1      42.786 -94.574  35.765  1.00  0.00    -0.504 OA
ATOM     19  H   UNL     1      43.674 -94.100  35.656  1.00  0.00     0.293 HD
ENDBRANCH  15  18
BRANCH  17  20
ATOM     20  O   UNL     1      40.308 -93.313  35.866  1.00  0.00    -0.504 OA
ATOM     21  H   UNL     1      40.769 -93.442  36.759  1.00  0.00     0.293 HD
ENDBRANCH  17  20
ENDBRANCH   1  12
BRANCH   2  22
ATOM     22  O   UNL     1      40.997 -95.223  29.824  1.00  0.00    -0.502 OA
ATOM     23  H   UNL     1      41.431 -95.790  29.104  1.00  0.00     0.293 HD
ENDBRANCH   2  22
BRANCH   6  24
ATOM     24  O   UNL     1      36.514 -95.977  27.048  1.00  0.00    -0.507 OA
ATOM     25  H   UNL     1      36.566 -96.919  26.691  1.00  0.00     0.293 HD
ENDBRANCH   6  24
BRANCH   8  26
ATOM     26  O   UNL     1      33.245 -95.185  30.453  1.00  0.00    -0.508 OA
ATOM     27  H   UNL     1      32.610 -94.574  29.953  1.00  0.00     0.293 HD
ENDBRANCH   8  26
TORSDOF 6
ENDMDL
MODEL 7
REMARK VINA RESULT:    -5.158      8.982     10.369
REMARK INTER + INTRA:          -6.358
REMARK INTER:                  -6.046
REMARK INTRA:                  -0.312
REMARK UNBOUND:                -0.145
REMARK SMILES O=c1c(O)c(-c2ccc(O)c(O)c2)oc2cc(O)cc(O)c12
REMARK SMILES IDX 5 1 3 2 2 3 1 4 22 5 20 6 19 7 17 8 16 9 15 10 14 11 6 12
REMARK SMILES IDX 7 13 8 14 9 15 13 16 11 17 10 18 12 20 4 22 21 24 18 26
REMARK H PARENT 10 19 12 21 4 23 21 25 18 27
REMARK Flexibility Score: inf
ROOT
ATOM      1  C   UNL     1      35.327 -95.475  30.127  1.00  0.00     0.180 A 
ATOM      2  C   UNL     1      35.175 -95.016  28.808  1.00  0.00     0.208 A 
ATOM      3  C   UNL     1      33.892 -94.993  28.238  1.00  0.00     0.238 A 
ATOM      4  O   UNL     1      33.755 -94.530  27.076  1.00  0.00    -0.285 OA
ATOM      5  C   UNL     1      32.780 -95.445  28.989  1.00  0.00     0.111 A 
ATOM      6  C   UNL     1      31.441 -95.504  28.498  1.00  0.00     0.134 A 
ATOM      7  C   UNL     1      30.400 -95.845  29.370  1.00  0.00     0.093 A 
ATOM      8  C   UNL     1      30.656 -96.192  30.696  1.00  0.00     0.123 A 
ATOM      9  C   UNL     1      31.969 -96.195  31.171  1.00  0.00     0.094 A 
ATOM     10  C   UNL     1      33.024 -95.824  30.335  1.00  0.00     0.146 A 
ATOM     11  O   UNL     1      34.257 -95.830  30.828  1.00  0.00    -0.452 OA
ENDROOT
BRANCH   1  12
ATOM     12  C   UNL     1      36.651 -95.552  30.787  1.00  0.00     0.025 A 
ATOM     13  C   UNL     1      37.476 -96.665  30.553  1.00  0.00     0.016 A 
ATOM     14  C   UNL     1      38.737 -96.748  31.149  1.00  0.00     0.051 A 
ATOM     15  C   UNL     1      39.198 -95.714  31.973  1.00  0.00     0.157 A 
ATOM     16  C   UNL     1      37.127 -94.506  31.599  1.00  0.00     0.062 A 
ATOM     17  C   UNL     1      38.394 -94.589  32.195  1.00  0.00     0.158 A 
BRANCH  15  18
ATOM     18  O   UNL     1      40.455 -95.794  32.570  1.00  0.00    -0.504 OA
ATOM     19  H   UNL     1      40.656 -96.475  33.292  1.00  0.00     0.293 HD
ENDBRANCH  15  18
BRANCH  17  20
ATOM     20  O   UNL     1      38.861 -93.556  33.004  1.00  0.00    -0.504 OA
ATOM     21  H   UNL     1      38.384 -93.295  33.860  1.00  0.00     0.293 HD
ENDBRANCH  17  20
ENDBRANCH   1  12
BRANCH   2  22
ATOM     22  O   UNL     1      36.284 -94.553  28.093  1.00  0.00    -0.502 OA
ATOM     23  H   UNL     1      37.212 -94.938  28.221  1.00  0.00     0.293 HD
ENDBRANCH   2  22
BRANCH   6  24
ATOM     24  O   UNL     1      31.087 -95.266  27.166  1.00  0.00    -0.507 OA
ATOM     25  H   UNL     1      30.211 -94.865  26.868  1.00  0.00     0.293 HD
ENDBRANCH   6  24
BRANCH   8  26
ATOM     26  O   UNL     1      29.597 -96.541  31.532  1.00  0.00    -0.508 OA
ATOM     27  H   UNL     1      29.046 -95.838  32.011  1.00  0.00     0.293 HD
ENDBRANCH   8  26
TORSDOF 6
ENDMDL
