MODEL 1
REMARK VINA RESULT:    -5.635      0.000      0.000
REMARK INTER + INTRA:          -8.763
REMARK INTER:                  -7.612
REMARK INTRA:                  -1.151
REMARK UNBOUND:                -1.151
REMARK SMILES O=c1c(-c2ccc(O)cc2)coc2c([C@H]3O[C@@H](CO)[C@H](O)[C@@H](O)[C@H]3O)c(O)ccc12
REMARK SMILES IDX 3 1 11 2 12 3 13 4 30 5 2 6 1 7 29 8 28 9 26 10 14 11 4 12
REMARK SMILES IDX 5 13 6 14 7 15 10 16 9 17 8 18 15 20 24 21 16 22 22 23 17 24
REMARK SMILES IDX 20 25 25 26 23 28 18 30 19 31 21 33 27 35
REMARK H PARENT 8 19 25 27 23 29 19 32 21 34 27 36
REMARK Flexibility Score: inf
ROOT
ATOM      1  C   UNL     1      24.927  13.153  18.787  1.00  0.00     0.065 A 
ATOM      2  C   UNL     1      23.862  12.750  17.967  1.00  0.00     0.208 A 
ATOM      3  O   UNL     1      23.960  12.809  16.645  1.00  0.00    -0.463 OA
ATOM      4  C   UNL     1      25.048  13.244  16.013  1.00  0.00     0.147 A 
ATOM      5  C   UNL     1      26.170  13.669  16.763  1.00  0.00     0.066 A 
ATOM      6  C   UNL     1      26.098  13.628  18.167  1.00  0.00     0.200 A 
ATOM      7  O   UNL     1      27.068  14.031  18.867  1.00  0.00    -0.288 OA
ATOM      8  C   UNL     1      27.321  14.115  16.096  1.00  0.00     0.020 A 
ATOM      9  C   UNL     1      27.366  14.123  14.703  1.00  0.00     0.047 A 
ATOM     10  C   UNL     1      26.264  13.699  13.950  1.00  0.00     0.125 A 
ATOM     11  C   UNL     1      25.078  13.277  14.599  1.00  0.00     0.069 A 
ENDROOT
BRANCH   1  12
ATOM     12  C   UNL     1      24.796  13.073  20.264  1.00  0.00    -0.011 A 
ATOM     13  C   UNL     1      24.203  14.122  20.989  1.00  0.00     0.013 A 
ATOM     14  C   UNL     1      24.091  14.044  22.380  1.00  0.00     0.047 A 
ATOM     15  C   UNL     1      24.575  12.921  23.064  1.00  0.00     0.115 A 
ATOM     16  C   UNL     1      25.286  11.953  20.958  1.00  0.00     0.013 A 
ATOM     17  C   UNL     1      25.173  11.879  22.350  1.00  0.00     0.047 A 
BRANCH  15  18
ATOM     18  O   UNL     1      24.469  12.834  24.451  1.00  0.00    -0.508 OA
ATOM     19  H   UNL     1      24.888  12.068  24.966  1.00  0.00     0.293 HD
ENDBRANCH  15  18
ENDBRANCH   1  12
BRANCH  11  20
ATOM     20  C   UNL     1      23.870  12.791  13.808  1.00  0.00     0.188 C 
ATOM     21  C   UNL     1      23.963  11.270  13.548  1.00  0.00     0.179 C 
ATOM     22  O   UNL     1      23.759  13.500  12.584  1.00  0.00    -0.362 OA
ATOM     23  C   UNL     1      22.716  10.812  12.775  1.00  0.00     0.177 C 
ATOM     24  C   UNL     1      22.542  13.185  11.925  1.00  0.00     0.176 C 
ATOM     25  C   UNL     1      22.507  11.691  11.525  1.00  0.00     0.177 C 
BRANCH  21  26
ATOM     26  O   UNL     1      25.116  10.964  12.803  1.00  0.00    -0.387 OA
ATOM     27  H   UNL     1      25.175   9.974  12.751  1.00  0.00     0.211 HD
ENDBRANCH  21  26
BRANCH  23  28
ATOM     28  O   UNL     1      22.866   9.465  12.405  1.00  0.00    -0.387 OA
ATOM     29  H   UNL     1      23.041   9.451  11.429  1.00  0.00     0.211 HD
ENDBRANCH  23  28
BRANCH  24  30
ATOM     30  C   UNL     1      22.420  14.080  10.683  1.00  0.00     0.191 C 
BRANCH  30  31
ATOM     31  O   UNL     1      22.841  13.389   9.538  1.00  0.00    -0.394 OA
ATOM     32  H   UNL     1      23.335  12.589   9.854  1.00  0.00     0.210 HD
ENDBRANCH  30  31
ENDBRANCH  24  30
BRANCH  25  33
ATOM     33  O   UNL     1      21.265  11.391  10.940  1.00  0.00    -0.388 OA
ATOM     34  H   UNL     1      20.737  12.233  10.934  1.00  0.00     0.211 HD
ENDBRANCH  25  33
ENDBRANCH  11  20
BRANCH  10  35
ATOM     35  O   UNL     1      26.356  13.689  12.558  1.00  0.00    -0.507 OA
ATOM     36  H   UNL     1      26.720  14.481  12.042  1.00  0.00     0.293 HD
ENDBRANCH  10  35
TORSDOF 9
ENDMDL
MODEL 2
REMARK VINA RESULT:    -5.304     19.744     21.625
REMARK INTER + INTRA:          -8.316
REMARK INTER:                  -8.399
REMARK INTRA:                   0.082
REMARK UNBOUND:                -1.151
REMARK SMILES O=c1c(-c2ccc(O)cc2)coc2c([C@H]3O[C@@H](CO)[C@H](O)[C@@H](O)[C@H]3O)c(O)ccc12
REMARK SMILES IDX 3 1 11 2 12 3 13 4 30 5 2 6 1 7 29 8 28 9 26 10 14 11 4 12
REMARK SMILES IDX 5 13 6 14 7 15 10 16 9 17 8 18 15 20 24 21 16 22 22 23 17 24
REMARK SMILES IDX 20 25 25 26 23 28 18 30 19 31 21 33 27 35
REMARK H PARENT 8 19 25 27 23 29 19 32 21 34 27 36
REMARK Flexibility Score: inf
ROOT
ATOM      1  C   UNL     1      12.002  -4.932  19.089  1.00  0.00     0.065 A 
ATOM      2  C   UNL     1      12.991  -4.921  18.094  1.00  0.00     0.208 A 
ATOM      3  O   UNL     1      12.664  -4.927  16.808  1.00  0.00    -0.463 OA
ATOM      4  C   UNL     1      11.406  -4.944  16.375  1.00  0.00     0.147 A 
ATOM      5  C   UNL     1      10.344  -4.955  17.310  1.00  0.00     0.066 A 
ATOM      6  C   UNL     1      10.654  -4.958  18.683  1.00  0.00     0.200 A 
ATOM      7  O   UNL     1       9.733  -5.002  19.544  1.00  0.00    -0.288 OA
ATOM      8  C   UNL     1       9.017  -4.961  16.854  1.00  0.00     0.020 A 
ATOM      9  C   UNL     1       8.746  -4.937  15.488  1.00  0.00     0.047 A 
ATOM     10  C   UNL     1       9.788  -4.919  14.552  1.00  0.00     0.125 A 
ATOM     11  C   UNL     1      11.136  -4.949  14.987  1.00  0.00     0.069 A 
ENDROOT
BRANCH   1  12
ATOM     12  C   UNL     1      12.391  -4.919  20.521  1.00  0.00    -0.011 A 
ATOM     13  C   UNL     1      12.521  -3.705  21.219  1.00  0.00     0.013 A 
ATOM     14  C   UNL     1      12.897  -3.699  22.564  1.00  0.00     0.047 A 
ATOM     15  C   UNL     1      13.153  -4.906  23.229  1.00  0.00     0.115 A 
ATOM     16  C   UNL     1      12.658  -6.125  21.193  1.00  0.00     0.013 A 
ATOM     17  C   UNL     1      13.034  -6.116  22.540  1.00  0.00     0.047 A 
BRANCH  15  18
ATOM     18  O   UNL     1      13.529  -4.912  24.571  1.00  0.00    -0.508 OA
ATOM     19  H   UNL     1      14.084  -5.664  24.961  1.00  0.00     0.293 HD
ENDBRANCH  15  18
ENDBRANCH   1  12
BRANCH  11  20
ATOM     20  C   UNL     1      12.292  -4.911  13.994  1.00  0.00     0.188 C 
ATOM     21  C   UNL     1      13.523  -4.215  14.617  1.00  0.00     0.179 C 
ATOM     22  O   UNL     1      11.898  -4.254  12.799  1.00  0.00    -0.362 OA
ATOM     23  C   UNL     1      14.675  -4.221  13.599  1.00  0.00     0.177 C 
ATOM     24  C   UNL     1      12.903  -4.372  11.803  1.00  0.00     0.176 C 
ATOM     25  C   UNL     1      14.199  -3.652  12.247  1.00  0.00     0.177 C 
BRANCH  21  26
ATOM     26  O   UNL     1      13.217  -2.889  14.971  1.00  0.00    -0.387 OA
ATOM     27  H   UNL     1      12.924  -2.426  14.143  1.00  0.00     0.211 HD
ENDBRANCH  21  26
BRANCH  23  28
ATOM     28  O   UNL     1      15.744  -3.459  14.101  1.00  0.00    -0.387 OA
ATOM     29  H   UNL     1      15.363  -2.598  14.412  1.00  0.00     0.211 HD
ENDBRANCH  23  28
BRANCH  24  30
ATOM     30  C   UNL     1      12.365  -3.763  10.501  1.00  0.00     0.191 C 
BRANCH  30  31
ATOM     31  O   UNL     1      13.098  -4.233   9.401  1.00  0.00    -0.394 OA
ATOM     32  H   UNL     1      14.052  -4.231   9.673  1.00  0.00     0.210 HD
ENDBRANCH  30  31
ENDBRANCH  24  30
BRANCH  25  33
ATOM     33  O   UNL     1      15.197  -3.844  11.276  1.00  0.00    -0.388 OA
ATOM     34  H   UNL     1      15.446  -2.945  10.935  1.00  0.00     0.211 HD
ENDBRANCH  25  33
ENDBRANCH  11  20
BRANCH  10  35
ATOM     35  O   UNL     1       9.480  -4.863  13.192  1.00  0.00    -0.507 OA
ATOM     36  H   UNL     1       8.535  -4.696  12.866  1.00  0.00     0.293 HD
ENDBRANCH  10  35
TORSDOF 9
ENDMDL
MODEL 3
REMARK VINA RESULT:    -4.971      1.856      2.687
REMARK INTER + INTRA:          -7.866
REMARK INTER:                  -7.924
REMARK INTRA:                   0.058
REMARK UNBOUND:                -1.151
REMARK SMILES O=c1c(-c2ccc(O)cc2)coc2c([C@H]3O[C@@H](CO)[C@H](O)[C@@H](O)[C@H]3O)c(O)ccc12
REMARK SMILES IDX 3 1 11 2 12 3 13 4 30 5 2 6 1 7 29 8 28 9 26 10 14 11 4 12
REMARK SMILES IDX 5 13 6 14 7 15 10 16 9 17 8 18 15 20 24 21 16 22 22 23 17 24
REMARK SMILES IDX 20 25 25 26 23 28 18 30 19 31 21 33 27 35
REMARK H PARENT 8 19 25 27 23 29 19 32 21 34 27 36
REMARK Flexibility Score: inf
ROOT
ATOM      1  C   UNL     1      24.864  13.228  16.681  1.00  0.00     0.065 A 
ATOM      2  C   UNL     1      23.542  13.179  16.216  1.00  0.00     0.208 A 
ATOM      3  O   UNL     1      23.269  13.285  14.922  1.00  0.00    -0.463 OA
ATOM      4  C   UNL     1      24.206  13.444  13.990  1.00  0.00     0.147 A 
ATOM      5  C   UNL     1      25.568  13.503  14.370  1.00  0.00     0.066 A 
ATOM      6  C   UNL     1      25.892  13.403  15.735  1.00  0.00     0.200 A 
ATOM      7  O   UNL     1      27.094  13.485  16.112  1.00  0.00    -0.288 OA
ATOM      8  C   UNL     1      26.556  13.658  13.386  1.00  0.00     0.020 A 
ATOM      9  C   UNL     1      26.201  13.734  12.041  1.00  0.00     0.047 A 
ATOM     10  C   UNL     1      24.857  13.670  11.652  1.00  0.00     0.125 A 
ATOM     11  C   UNL     1      23.838  13.550  12.629  1.00  0.00     0.069 A 
ENDROOT
BRANCH   1  12
ATOM     12  C   UNL     1      25.145  13.101  18.133  1.00  0.00    -0.011 A 
ATOM     13  C   UNL     1      24.713  11.971  18.851  1.00  0.00     0.013 A 
ATOM     14  C   UNL     1      24.972  11.862  20.219  1.00  0.00     0.047 A 
ATOM     15  C   UNL     1      25.661  12.882  20.889  1.00  0.00     0.115 A 
ATOM     16  C   UNL     1      25.828  14.123  18.814  1.00  0.00     0.013 A 
ATOM     17  C   UNL     1      26.086  14.011  20.184  1.00  0.00     0.047 A 
BRANCH  15  18
ATOM     18  O   UNL     1      25.925  12.783  22.254  1.00  0.00    -0.508 OA
ATOM     19  H   UNL     1      25.644  11.970  22.790  1.00  0.00     0.293 HD
ENDBRANCH  15  18
ENDBRANCH   1  12
BRANCH  11  20
ATOM     20  C   UNL     1      22.368  13.458  12.235  1.00  0.00     0.188 C 
ATOM     21  C   UNL     1      21.670  12.308  12.998  1.00  0.00     0.179 C 
ATOM     22  O   UNL     1      22.240  13.278  10.834  1.00  0.00    -0.362 OA
ATOM     23  C   UNL     1      20.187  12.265  12.598  1.00  0.00     0.177 C 
ATOM     24  C   UNL     1      20.880  13.372  10.435  1.00  0.00     0.176 C 
ATOM     25  C   UNL     1      20.046  12.231  11.062  1.00  0.00     0.177 C 
BRANCH  21  26
ATOM     26  O   UNL     1      22.274  11.074  12.695  1.00  0.00    -0.387 OA
ATOM     27  H   UNL     1      21.546  10.402  12.633  1.00  0.00     0.211 HD
ENDBRANCH  21  26
BRANCH  23  28
ATOM     28  O   UNL     1      19.584  11.132  13.170  1.00  0.00    -0.387 OA
ATOM     29  H   UNL     1      19.550  10.435  12.464  1.00  0.00     0.211 HD
ENDBRANCH  23  28
BRANCH  24  30
ATOM     30  C   UNL     1      20.822  13.305   8.902  1.00  0.00     0.191 C 
BRANCH  30  31
ATOM     31  O   UNL     1      19.577  13.756   8.439  1.00  0.00    -0.394 OA
ATOM     32  H   UNL     1      19.429  14.650   8.845  1.00  0.00     0.210 HD
ENDBRANCH  30  31
ENDBRANCH  24  30
BRANCH  25  33
ATOM     33  O   UNL     1      18.695  12.389  10.709  1.00  0.00    -0.388 OA
ATOM     34  H   UNL     1      18.509  13.364  10.706  1.00  0.00     0.211 HD
ENDBRANCH  25  33
ENDBRANCH  11  20
BRANCH  10  35
ATOM     35  O   UNL     1      24.540  13.717  10.294  1.00  0.00    -0.507 OA
ATOM     36  H   UNL     1      24.968  14.389   9.669  1.00  0.00     0.293 HD
ENDBRANCH  10  35
TORSDOF 9
ENDMDL
MODEL 4
REMARK VINA RESULT:    -4.577      1.237      2.250
REMARK INTER + INTRA:          -7.334
REMARK INTER:                  -6.928
REMARK INTRA:                  -0.406
REMARK UNBOUND:                -1.151
REMARK SMILES O=c1c(-c2ccc(O)cc2)coc2c([C@H]3O[C@@H](CO)[C@H](O)[C@@H](O)[C@H]3O)c(O)ccc12
REMARK SMILES IDX 3 1 11 2 12 3 13 4 30 5 2 6 1 7 29 8 28 9 26 10 14 11 4 12
REMARK SMILES IDX 5 13 6 14 7 15 10 16 9 17 8 18 15 20 24 21 16 22 22 23 17 24
REMARK SMILES IDX 20 25 25 26 23 28 18 30 19 31 21 33 27 35
REMARK H PARENT 8 19 25 27 23 29 19 32 21 34 27 36
REMARK Flexibility Score: inf
ROOT
ATOM      1  C   UNL     1      24.845  12.987  18.137  1.00  0.00     0.065 A 
ATOM      2  C   UNL     1      23.823  12.547  17.283  1.00  0.00     0.208 A 
ATOM      3  O   UNL     1      23.953  12.627  15.965  1.00  0.00    -0.463 OA
ATOM      4  C   UNL     1      25.037  13.120  15.369  1.00  0.00     0.147 A 
ATOM      5  C   UNL     1      26.117  13.586  16.154  1.00  0.00     0.066 A 
ATOM      6  C   UNL     1      26.009  13.524  17.555  1.00  0.00     0.200 A 
ATOM      7  O   UNL     1      26.940  13.962  18.286  1.00  0.00    -0.288 OA
ATOM      8  C   UNL     1      27.264  14.094  15.524  1.00  0.00     0.020 A 
ATOM      9  C   UNL     1      27.346  14.121  14.134  1.00  0.00     0.047 A 
ATOM     10  C   UNL     1      26.286  13.657  13.345  1.00  0.00     0.125 A 
ATOM     11  C   UNL     1      25.103  13.173  13.957  1.00  0.00     0.069 A 
ENDROOT
BRANCH   1  12
ATOM     12  C   UNL     1      24.678  12.882  19.608  1.00  0.00    -0.011 A 
ATOM     13  C   UNL     1      24.053  13.912  20.335  1.00  0.00     0.013 A 
ATOM     14  C   UNL     1      23.908  13.811  21.721  1.00  0.00     0.047 A 
ATOM     15  C   UNL     1      24.390  12.684  22.399  1.00  0.00     0.115 A 
ATOM     16  C   UNL     1      25.165  11.758  20.297  1.00  0.00     0.013 A 
ATOM     17  C   UNL     1      25.018  11.660  21.685  1.00  0.00     0.047 A 
BRANCH  15  18
ATOM     18  O   UNL     1      24.250  12.573  23.782  1.00  0.00    -0.508 OA
ATOM     19  H   UNL     1      24.218  13.392  24.377  1.00  0.00     0.293 HD
ENDBRANCH  15  18
ENDBRANCH   1  12
BRANCH  11  20
ATOM     20  C   UNL     1      23.940  12.642  13.127  1.00  0.00     0.188 C 
ATOM     21  C   UNL     1      22.854  13.728  12.951  1.00  0.00     0.179 C 
ATOM     22  O   UNL     1      23.391  11.479  13.727  1.00  0.00    -0.362 OA
ATOM     23  C   UNL     1      21.714  13.166  12.086  1.00  0.00     0.177 C 
ATOM     24  C   UNL     1      22.431  10.875  12.874  1.00  0.00     0.176 C 
ATOM     25  C   UNL     1      21.225  11.818  12.653  1.00  0.00     0.177 C 
BRANCH  21  26
ATOM     26  O   UNL     1      22.344  14.125  14.200  1.00  0.00    -0.387 OA
ATOM     27  H   UNL     1      22.442  15.111  14.254  1.00  0.00     0.211 HD
ENDBRANCH  21  26
BRANCH  23  28
ATOM     28  O   UNL     1      20.658  14.093  12.049  1.00  0.00    -0.387 OA
ATOM     29  H   UNL     1      20.177  14.017  12.914  1.00  0.00     0.211 HD
ENDBRANCH  23  28
BRANCH  24  30
ATOM     30  C   UNL     1      21.977   9.557  13.516  1.00  0.00     0.191 C 
BRANCH  30  31
ATOM     31  O   UNL     1      20.595   9.578  13.753  1.00  0.00    -0.394 OA
ATOM     32  H   UNL     1      20.357   8.690  14.128  1.00  0.00     0.210 HD
ENDBRANCH  30  31
ENDBRANCH  24  30
BRANCH  25  33
ATOM     33  O   UNL     1      20.326  11.225  11.750  1.00  0.00    -0.388 OA
ATOM     34  H   UNL     1      19.859  11.965  11.280  1.00  0.00     0.211 HD
ENDBRANCH  25  33
ENDBRANCH  11  20
BRANCH  10  35
ATOM     35  O   UNL     1      26.415  13.670  11.956  1.00  0.00    -0.507 OA
ATOM     36  H   UNL     1      27.269  13.974  11.503  1.00  0.00     0.293 HD
ENDBRANCH  10  35
TORSDOF 9
ENDMDL
MODEL 5
REMARK VINA RESULT:    -4.397     19.765     21.554
REMARK INTER + INTRA:          -7.090
REMARK INTER:                  -7.735
REMARK INTRA:                   0.644
REMARK UNBOUND:                -1.151
REMARK SMILES O=c1c(-c2ccc(O)cc2)coc2c([C@H]3O[C@@H](CO)[C@H](O)[C@@H](O)[C@H]3O)c(O)ccc12
REMARK SMILES IDX 3 1 11 2 12 3 13 4 30 5 2 6 1 7 29 8 28 9 26 10 14 11 4 12
REMARK SMILES IDX 5 13 6 14 7 15 10 16 9 17 8 18 15 20 24 21 16 22 22 23 17 24
REMARK SMILES IDX 20 25 25 26 23 28 18 30 19 31 21 33 27 35
REMARK H PARENT 8 19 25 27 23 29 19 32 21 34 27 36
REMARK Flexibility Score: inf
ROOT
ATOM      1  C   UNL     1      11.984  -4.547  19.133  1.00  0.00     0.065 A 
ATOM      2  C   UNL     1      12.947  -4.233  18.163  1.00  0.00     0.208 A 
ATOM      3  O   UNL     1      12.607  -4.083  16.889  1.00  0.00    -0.463 OA
ATOM      4  C   UNL     1      11.358  -4.216  16.447  1.00  0.00     0.147 A 
ATOM      5  C   UNL     1      10.323  -4.531  17.358  1.00  0.00     0.066 A 
ATOM      6  C   UNL     1      10.649  -4.706  18.716  1.00  0.00     0.200 A 
ATOM      7  O   UNL     1       9.756  -5.021  19.550  1.00  0.00    -0.288 OA
ATOM      8  C   UNL     1       9.005  -4.659  16.894  1.00  0.00     0.020 A 
ATOM      9  C   UNL     1       8.714  -4.459  15.547  1.00  0.00     0.047 A 
ATOM     10  C   UNL     1       9.729  -4.140  14.636  1.00  0.00     0.125 A 
ATOM     11  C   UNL     1      11.072  -4.040  15.073  1.00  0.00     0.069 A 
ENDROOT
BRANCH   1  12
ATOM     12  C   UNL     1      12.388  -4.705  20.553  1.00  0.00    -0.011 A 
ATOM     13  C   UNL     1      12.580  -5.983  21.107  1.00  0.00     0.013 A 
ATOM     14  C   UNL     1      12.950  -6.125  22.447  1.00  0.00     0.047 A 
ATOM     15  C   UNL     1      13.128  -4.992  23.252  1.00  0.00     0.115 A 
ATOM     16  C   UNL     1      12.561  -3.574  21.370  1.00  0.00     0.013 A 
ATOM     17  C   UNL     1      12.932  -3.719  22.711  1.00  0.00     0.047 A 
BRANCH  15  18
ATOM     18  O   UNL     1      13.498  -5.122  24.589  1.00  0.00    -0.508 OA
ATOM     19  H   UNL     1      13.243  -4.425  25.279  1.00  0.00     0.293 HD
ENDBRANCH  15  18
ENDBRANCH   1  12
BRANCH  11  20
ATOM     20  C   UNL     1      12.196  -3.675  14.110  1.00  0.00     0.188 C 
ATOM     21  C   UNL     1      11.805  -4.027  12.657  1.00  0.00     0.179 C 
ATOM     22  O   UNL     1      13.399  -4.333  14.477  1.00  0.00    -0.362 OA
ATOM     23  C   UNL     1      12.948  -3.619  11.714  1.00  0.00     0.177 C 
ATOM     24  C   UNL     1      14.490  -3.862  13.701  1.00  0.00     0.176 C 
ATOM     25  C   UNL     1      14.287  -4.206  12.207  1.00  0.00     0.177 C 
BRANCH  21  26
ATOM     26  O   UNL     1      11.563  -5.407  12.529  1.00  0.00    -0.387 OA
ATOM     27  H   UNL     1      12.432  -5.869  12.659  1.00  0.00     0.211 HD
ENDBRANCH  21  26
BRANCH  23  28
ATOM     28  O   UNL     1      12.664  -4.073  10.414  1.00  0.00    -0.387 OA
ATOM     29  H   UNL     1      11.743  -3.776  10.199  1.00  0.00     0.211 HD
ENDBRANCH  23  28
BRANCH  24  30
ATOM     30  C   UNL     1      15.776  -4.508  14.235  1.00  0.00     0.191 C 
BRANCH  30  31
ATOM     31  O   UNL     1      16.307  -5.396  13.289  1.00  0.00    -0.394 OA
ATOM     32  H   UNL     1      16.710  -4.841  12.571  1.00  0.00     0.210 HD
ENDBRANCH  30  31
ENDBRANCH  24  30
BRANCH  25  33
ATOM     33  O   UNL     1      15.344  -3.668  11.453  1.00  0.00    -0.388 OA
ATOM     34  H   UNL     1      15.572  -4.336  10.755  1.00  0.00     0.211 HD
ENDBRANCH  25  33
ENDBRANCH  11  20
BRANCH  10  35
ATOM     35  O   UNL     1       9.397  -3.915  13.299  1.00  0.00    -0.507 OA
ATOM     36  H   UNL     1       9.298  -2.979  12.924  1.00  0.00     0.293 HD
ENDBRANCH  10  35
TORSDOF 9
ENDMDL
MODEL 6
REMARK VINA RESULT:    -4.005      2.386      4.272
REMARK INTER + INTRA:          -6.561
REMARK INTER:                  -6.618
REMARK INTRA:                   0.056
REMARK UNBOUND:                -1.151
REMARK SMILES O=c1c(-c2ccc(O)cc2)coc2c([C@H]3O[C@@H](CO)[C@H](O)[C@@H](O)[C@H]3O)c(O)ccc12
REMARK SMILES IDX 3 1 11 2 12 3 13 4 30 5 2 6 1 7 29 8 28 9 26 10 14 11 4 12
REMARK SMILES IDX 5 13 6 14 7 15 10 16 9 17 8 18 15 20 24 21 16 22 22 23 17 24
REMARK SMILES IDX 20 25 25 26 23 28 18 30 19 31 21 33 27 35
REMARK H PARENT 8 19 25 27 23 29 19 32 21 34 27 36
REMARK Flexibility Score: inf
ROOT
ATOM      1  C   UNL     1      24.551  13.275  15.783  1.00  0.00     0.065 A 
ATOM      2  C   UNL     1      25.332  12.881  14.686  1.00  0.00     0.208 A 
ATOM      3  O   UNL     1      24.834  12.892  13.455  1.00  0.00    -0.463 OA
ATOM      4  C   UNL     1      23.589  13.269  13.177  1.00  0.00     0.147 A 
ATOM      5  C   UNL     1      22.731  13.683  14.223  1.00  0.00     0.066 A 
ATOM      6  C   UNL     1      23.223  13.675  15.542  1.00  0.00     0.200 A 
ATOM      7  O   UNL     1      22.476  14.007  16.503  1.00  0.00    -0.288 OA
ATOM      8  C   UNL     1      21.422  14.092  13.927  1.00  0.00     0.020 A 
ATOM      9  C   UNL     1      20.975  14.108  12.608  1.00  0.00     0.047 A 
ATOM     10  C   UNL     1      21.815  13.706  11.563  1.00  0.00     0.125 A 
ATOM     11  C   UNL     1      23.129  13.256  11.839  1.00  0.00     0.069 A 
ENDROOT
BRANCH   1  12
ATOM     12  C   UNL     1      25.131  13.258  17.149  1.00  0.00    -0.011 A 
ATOM     13  C   UNL     1      24.620  12.395  18.135  1.00  0.00     0.013 A 
ATOM     14  C   UNL     1      25.165  12.392  19.422  1.00  0.00     0.047 A 
ATOM     15  C   UNL     1      26.222  13.253  19.742  1.00  0.00     0.115 A 
ATOM     16  C   UNL     1      26.187  14.125  17.480  1.00  0.00     0.013 A 
ATOM     17  C   UNL     1      26.730  14.119  18.769  1.00  0.00     0.047 A 
BRANCH  15  18
ATOM     18  O   UNL     1      26.773  13.258  21.022  1.00  0.00    -0.508 OA
ATOM     19  H   UNL     1      26.477  13.928  21.723  1.00  0.00     0.293 HD
ENDBRANCH  15  18
ENDBRANCH   1  12
BRANCH  11  20
ATOM     20  C   UNL     1      24.074  12.831  10.721  1.00  0.00     0.188 C 
ATOM     21  C   UNL     1      24.283  11.300  10.734  1.00  0.00     0.179 C 
ATOM     22  O   UNL     1      25.318  13.505  10.839  1.00  0.00    -0.362 OA
ATOM     23  C   UNL     1      25.217  10.907   9.579  1.00  0.00     0.177 C 
ATOM     24  C   UNL     1      26.137  13.257   9.707  1.00  0.00     0.176 C 
ATOM     25  C   UNL     1      26.503  11.757   9.615  1.00  0.00     0.177 C 
BRANCH  21  26
ATOM     26  O   UNL     1      24.848  10.887  11.954  1.00  0.00    -0.387 OA
ATOM     27  H   UNL     1      24.895   9.895  11.933  1.00  0.00     0.211 HD
ENDBRANCH  21  26
BRANCH  23  28
ATOM     28  O   UNL     1      25.530   9.541   9.677  1.00  0.00    -0.387 OA
ATOM     29  H   UNL     1      26.517   9.465   9.605  1.00  0.00     0.211 HD
ENDBRANCH  23  28
BRANCH  24  30
ATOM     30  C   UNL     1      27.403  14.116   9.830  1.00  0.00     0.191 C 
BRANCH  30  31
ATOM     31  O   UNL     1      28.125  14.101   8.627  1.00  0.00    -0.394 OA
ATOM     32  H   UNL     1      27.469  13.921   7.904  1.00  0.00     0.210 HD
ENDBRANCH  30  31
ENDBRANCH  24  30
BRANCH  25  33
ATOM     33  O   UNL     1      27.254  11.528   8.450  1.00  0.00    -0.388 OA
ATOM     34  H   UNL     1      27.581  12.412   8.138  1.00  0.00     0.211 HD
ENDBRANCH  25  33
ENDBRANCH  11  20
BRANCH  10  35
ATOM     35  O   UNL     1      21.344  13.765  10.251  1.00  0.00    -0.507 OA
ATOM     36  H   UNL     1      21.690  13.142   9.531  1.00  0.00     0.293 HD
ENDBRANCH  10  35
TORSDOF 9
ENDMDL
MODEL 7
REMARK VINA RESULT:    -3.734      2.454      8.539
REMARK INTER + INTRA:          -6.195
REMARK INTER:                  -8.762
REMARK INTRA:                   2.567
REMARK UNBOUND:                -1.151
REMARK SMILES O=c1c(-c2ccc(O)cc2)coc2c([C@H]3O[C@@H](CO)[C@H](O)[C@@H](O)[C@H]3O)c(O)ccc12
REMARK SMILES IDX 3 1 11 2 12 3 13 4 30 5 2 6 1 7 29 8 28 9 26 10 14 11 4 12
REMARK SMILES IDX 5 13 6 14 7 15 10 16 9 17 8 18 15 20 24 21 16 22 22 23 17 24
REMARK SMILES IDX 20 25 25 26 23 28 18 30 19 31 21 33 27 35
REMARK H PARENT 8 19 25 27 23 29 19 32 21 34 27 36
REMARK Flexibility Score: inf
ROOT
ATOM      1  C   UNL     1      21.769  12.915  11.758  1.00  0.00     0.065 A 
ATOM      2  C   UNL     1      21.447  12.755  13.114  1.00  0.00     0.208 A 
ATOM      3  O   UNL     1      22.398  12.703  14.039  1.00  0.00    -0.463 OA
ATOM      4  C   UNL     1      23.695  12.796  13.756  1.00  0.00     0.147 A 
ATOM      5  C   UNL     1      24.109  12.960  12.413  1.00  0.00     0.066 A 
ATOM      6  C   UNL     1      23.128  13.011  11.406  1.00  0.00     0.200 A 
ATOM      7  O   UNL     1      23.464  13.123  10.195  1.00  0.00    -0.288 OA
ATOM      8  C   UNL     1      25.477  13.071  12.118  1.00  0.00     0.020 A 
ATOM      9  C   UNL     1      26.420  13.038  13.142  1.00  0.00     0.047 A 
ATOM     10  C   UNL     1      26.023  12.882  14.476  1.00  0.00     0.125 A 
ATOM     11  C   UNL     1      24.651  12.732  14.796  1.00  0.00     0.069 A 
ENDROOT
BRANCH   1  12
ATOM     12  C   UNL     1      20.688  12.976  10.743  1.00  0.00    -0.011 A 
ATOM     13  C   UNL     1      19.807  14.072  10.697  1.00  0.00     0.013 A 
ATOM     14  C   UNL     1      18.786  14.119   9.745  1.00  0.00     0.047 A 
ATOM     15  C   UNL     1      18.627  13.070   8.829  1.00  0.00     0.115 A 
ATOM     16  C   UNL     1      20.517  11.924   9.826  1.00  0.00     0.013 A 
ATOM     17  C   UNL     1      19.494  11.974   8.874  1.00  0.00     0.047 A 
BRANCH  15  18
ATOM     18  O   UNL     1      17.612  13.107   7.875  1.00  0.00    -0.508 OA
ATOM     19  H   UNL     1      16.659  13.341   8.126  1.00  0.00     0.293 HD
ENDBRANCH  15  18
ENDBRANCH   1  12
BRANCH  11  20
ATOM     20  C   UNL     1      24.186  12.581  16.240  1.00  0.00     0.188 C 
ATOM     21  C   UNL     1      25.100  13.381  17.195  1.00  0.00     0.179 C 
ATOM     22  O   UNL     1      24.152  11.212  16.611  1.00  0.00    -0.362 OA
ATOM     23  C   UNL     1      24.583  13.228  18.635  1.00  0.00     0.177 C 
ATOM     24  C   UNL     1      23.550  11.047  17.886  1.00  0.00     0.176 C 
ATOM     25  C   UNL     1      24.395  11.737  18.982  1.00  0.00     0.177 C 
BRANCH  21  26
ATOM     26  O   UNL     1      26.425  12.913  17.121  1.00  0.00    -0.387 OA
ATOM     27  H   UNL     1      27.002  13.702  16.947  1.00  0.00     0.211 HD
ENDBRANCH  21  26
BRANCH  23  28
ATOM     28  O   UNL     1      25.494  13.826  19.522  1.00  0.00    -0.387 OA
ATOM     29  H   UNL     1      25.200  13.591  20.440  1.00  0.00     0.211 HD
ENDBRANCH  23  28
BRANCH  24  30
ATOM     30  C   UNL     1      23.421   9.544  18.168  1.00  0.00     0.191 C 
BRANCH  30  31
ATOM     31  O   UNL     1      23.129   8.847  16.987  1.00  0.00    -0.394 OA
ATOM     32  H   UNL     1      23.990   8.720  16.511  1.00  0.00     0.210 HD
ENDBRANCH  30  31
ENDBRANCH  24  30
BRANCH  25  33
ATOM     33  O   UNL     1      23.742  11.620  20.221  1.00  0.00    -0.388 OA
ATOM     34  H   UNL     1      23.298  12.492  20.398  1.00  0.00     0.211 HD
ENDBRANCH  25  33
ENDBRANCH  11  20
BRANCH  10  35
ATOM     35  O   UNL     1      26.992  12.885  15.479  1.00  0.00    -0.507 OA
ATOM     36  H   UNL     1      27.265  12.036  15.960  1.00  0.00     0.293 HD
ENDBRANCH  10  35
TORSDOF 9
ENDMDL
MODEL 8
REMARK VINA RESULT:    -3.284      1.976      3.575
REMARK INTER + INTRA:          -5.588
REMARK INTER:                  -5.054
REMARK INTRA:                  -0.533
REMARK UNBOUND:                -1.151
REMARK SMILES O=c1c(-c2ccc(O)cc2)coc2c([C@H]3O[C@@H](CO)[C@H](O)[C@@H](O)[C@H]3O)c(O)ccc12
REMARK SMILES IDX 3 1 11 2 12 3 13 4 30 5 2 6 1 7 29 8 28 9 26 10 14 11 4 12
REMARK SMILES IDX 5 13 6 14 7 15 10 16 9 17 8 18 15 20 24 21 16 22 22 23 17 24
REMARK SMILES IDX 20 25 25 26 23 28 18 30 19 31 21 33 27 35
REMARK H PARENT 8 19 25 27 23 29 19 32 21 34 27 36
REMARK Flexibility Score: inf
ROOT
ATOM      1  C   UNL     1      24.531  12.160  18.371  1.00  0.00     0.065 A 
ATOM      2  C   UNL     1      24.751  12.924  17.216  1.00  0.00     0.208 A 
ATOM      3  O   UNL     1      24.379  12.478  16.022  1.00  0.00    -0.463 OA
ATOM      4  C   UNL     1      23.785  11.302  15.836  1.00  0.00     0.147 A 
ATOM      5  C   UNL     1      23.524  10.466  16.947  1.00  0.00     0.066 A 
ATOM      6  C   UNL     1      23.914  10.903  18.227  1.00  0.00     0.200 A 
ATOM      7  O   UNL     1      23.726  10.168  19.235  1.00  0.00    -0.288 OA
ATOM      8  C   UNL     1      22.888   9.231  16.752  1.00  0.00     0.020 A 
ATOM      9  C   UNL     1      22.497   8.838  15.474  1.00  0.00     0.047 A 
ATOM     10  C   UNL     1      22.744   9.659  14.367  1.00  0.00     0.125 A 
ATOM     11  C   UNL     1      23.417  10.894  14.533  1.00  0.00     0.069 A 
ENDROOT
BRANCH   1  12
ATOM     12  C   UNL     1      24.951  12.682  19.696  1.00  0.00    -0.011 A 
ATOM     13  C   UNL     1      26.273  13.112  19.911  1.00  0.00     0.013 A 
ATOM     14  C   UNL     1      26.664  13.594  21.163  1.00  0.00     0.047 A 
ATOM     15  C   UNL     1      25.742  13.646  22.217  1.00  0.00     0.115 A 
ATOM     16  C   UNL     1      24.035  12.730  20.760  1.00  0.00     0.013 A 
ATOM     17  C   UNL     1      24.429  13.213  22.012  1.00  0.00     0.047 A 
BRANCH  15  18
ATOM     18  O   UNL     1      26.121  14.125  23.470  1.00  0.00    -0.508 OA
ATOM     19  H   UNL     1      26.326  13.495  24.237  1.00  0.00     0.293 HD
ENDBRANCH  15  18
ENDBRANCH   1  12
BRANCH  11  20
ATOM     20  C   UNL     1      23.682  11.819  13.350  1.00  0.00     0.188 C 
ATOM     21  C   UNL     1      22.401  12.592  12.964  1.00  0.00     0.179 C 
ATOM     22  O   UNL     1      24.174  11.081  12.242  1.00  0.00    -0.362 OA
ATOM     23  C   UNL     1      22.714  13.533  11.790  1.00  0.00     0.177 C 
ATOM     24  C   UNL     1      24.593  11.951  11.202  1.00  0.00     0.176 C 
ATOM     25  C   UNL     1      23.396  12.756  10.646  1.00  0.00     0.177 C 
BRANCH  21  26
ATOM     26  O   UNL     1      21.378  11.701  12.591  1.00  0.00    -0.387 OA
ATOM     27  H   UNL     1      21.477  10.891  13.156  1.00  0.00     0.211 HD
ENDBRANCH  21  26
BRANCH  23  28
ATOM     28  O   UNL     1      21.522  14.125  11.337  1.00  0.00    -0.387 OA
ATOM     29  H   UNL     1      21.347  14.907  11.922  1.00  0.00     0.211 HD
ENDBRANCH  23  28
BRANCH  24  30
ATOM     30  C   UNL     1      25.236  11.103  10.095  1.00  0.00     0.191 C 
BRANCH  30  31
ATOM     31  O   UNL     1      25.936  10.022  10.649  1.00  0.00    -0.394 OA
ATOM     32  H   UNL     1      25.379   9.215  10.498  1.00  0.00     0.210 HD
ENDBRANCH  30  31
ENDBRANCH  24  30
BRANCH  25  33
ATOM     33  O   UNL     1      23.850  13.658   9.668  1.00  0.00    -0.388 OA
ATOM     34  H   UNL     1      24.842  13.670   9.724  1.00  0.00     0.211 HD
ENDBRANCH  25  33
ENDBRANCH  11  20
BRANCH  10  35
ATOM     35  O   UNL     1      22.310   9.248  13.105  1.00  0.00    -0.507 OA
ATOM     36  H   UNL     1      22.479   9.805  12.276  1.00  0.00     0.293 HD
ENDBRANCH  10  35
TORSDOF 9
ENDMDL
MODEL 9
REMARK VINA RESULT:    -3.232     19.204     21.144
REMARK INTER + INTRA:          -5.517
REMARK INTER:                  -6.178
REMARK INTRA:                   0.661
REMARK UNBOUND:                -1.151
REMARK SMILES O=c1c(-c2ccc(O)cc2)coc2c([C@H]3O[C@@H](CO)[C@H](O)[C@@H](O)[C@H]3O)c(O)ccc12
REMARK SMILES IDX 3 1 11 2 12 3 13 4 30 5 2 6 1 7 29 8 28 9 26 10 14 11 4 12
REMARK SMILES IDX 5 13 6 14 7 15 10 16 9 17 8 18 15 20 24 21 16 22 22 23 17 24
REMARK SMILES IDX 20 25 25 26 23 28 18 30 19 31 21 33 27 35
REMARK H PARENT 8 19 25 27 23 29 19 32 21 34 27 36
REMARK Flexibility Score: inf
ROOT
ATOM      1  C   UNL     1      12.769  -4.051  21.682  1.00  0.00     0.065 A 
ATOM      2  C   UNL     1      11.973  -4.814  20.816  1.00  0.00     0.208 A 
ATOM      3  O   UNL     1      11.777  -4.437  19.559  1.00  0.00    -0.463 OA
ATOM      4  C   UNL     1      12.309  -3.334  19.038  1.00  0.00     0.147 A 
ATOM      5  C   UNL     1      13.127  -2.504  19.840  1.00  0.00     0.066 A 
ATOM      6  C   UNL     1      13.348  -2.869  21.181  1.00  0.00     0.200 A 
ATOM      7  O   UNL     1      14.046  -2.135  21.934  1.00  0.00    -0.288 OA
ATOM      8  C   UNL     1      13.697  -1.348  19.287  1.00  0.00     0.020 A 
ATOM      9  C   UNL     1      13.474  -1.028  17.950  1.00  0.00     0.047 A 
ATOM     10  C   UNL     1      12.671  -1.844  17.143  1.00  0.00     0.125 A 
ATOM     11  C   UNL     1      12.055  -2.997  17.688  1.00  0.00     0.069 A 
ENDROOT
BRANCH   1  12
ATOM     12  C   UNL     1      12.978  -4.496  23.083  1.00  0.00    -0.011 A 
ATOM     13  C   UNL     1      12.446  -5.717  23.534  1.00  0.00     0.013 A 
ATOM     14  C   UNL     1      12.638  -6.125  24.857  1.00  0.00     0.047 A 
ATOM     15  C   UNL     1      13.359  -5.317  25.746  1.00  0.00     0.115 A 
ATOM     16  C   UNL     1      13.693  -3.687  23.983  1.00  0.00     0.013 A 
ATOM     17  C   UNL     1      13.884  -4.099  25.306  1.00  0.00     0.047 A 
BRANCH  15  18
ATOM     18  O   UNL     1      13.556  -5.715  27.067  1.00  0.00    -0.508 OA
ATOM     19  H   UNL     1      12.804  -6.109  27.619  1.00  0.00     0.293 HD
ENDBRANCH  15  18
ENDBRANCH   1  12
BRANCH  11  20
ATOM     20  C   UNL     1      11.192  -3.916  16.830  1.00  0.00     0.188 C 
ATOM     21  C   UNL     1      12.053  -4.642  15.771  1.00  0.00     0.179 C 
ATOM     22  O   UNL     1      10.149  -3.181  16.209  1.00  0.00    -0.362 OA
ATOM     23  C   UNL     1      11.155  -5.579  14.947  1.00  0.00     0.177 C 
ATOM     24  C   UNL     1       9.237  -4.052  15.557  1.00  0.00     0.176 C 
ATOM     25  C   UNL     1       9.933  -4.811  14.404  1.00  0.00     0.177 C 
BRANCH  21  26
ATOM     26  O   UNL     1      12.672  -3.713  14.915  1.00  0.00    -0.387 OA
ATOM     27  H   UNL     1      12.010  -2.995  14.737  1.00  0.00     0.211 HD
ENDBRANCH  21  26
BRANCH  23  28
ATOM     28  O   UNL     1      11.900  -6.125  13.888  1.00  0.00    -0.387 OA
ATOM     29  H   UNL     1      11.386  -5.958  13.057  1.00  0.00     0.211 HD
ENDBRANCH  23  28
BRANCH  24  30
ATOM     30  C   UNL     1       8.067  -3.212  15.024  1.00  0.00     0.191 C 
BRANCH  30  31
ATOM     31  O   UNL     1       8.538  -2.019  14.457  1.00  0.00    -0.394 OA
ATOM     32  H   UNL     1       9.342  -1.755  14.977  1.00  0.00     0.210 HD
ENDBRANCH  30  31
ENDBRANCH  24  30
BRANCH  25  33
ATOM     33  O   UNL     1       9.028  -5.715  13.823  1.00  0.00    -0.388 OA
ATOM     34  H   UNL     1       8.137  -5.529  14.222  1.00  0.00     0.211 HD
ENDBRANCH  25  33
ENDBRANCH  11  20
BRANCH  10  35
ATOM     35  O   UNL     1      12.495  -1.509  15.800  1.00  0.00    -0.507 OA
ATOM     36  H   UNL     1      12.758  -0.601  15.437  1.00  0.00     0.293 HD
ENDBRANCH  10  35
TORSDOF 9
ENDMDL
