MODEL 1
REMARK VINA RESULT:    -0.752      0.000      0.000
REMARK INTER + INTRA:          -4.712
REMARK INTER:                  -1.456
REMARK INTRA:                  -3.257
REMARK UNBOUND:                -3.257
REMARK SMILES CCCCCCCCCCCCCCCCCC(=O)[O-]
REMARK SMILES IDX 10 1 11 2 12 3 13 4 14 5 15 6 16 7 17 8 18 9 19 10 20 11
REMARK SMILES IDX 9 12 8 13 7 14 6 15 5 16 4 17 3 18 2 19 1 20
REMARK H PARENT
REMARK Flexibility Score: inf
ROOT
ATOM      1  C   UNL     1      37.013   5.212  38.213  1.00  0.00     0.000 C 
ENDROOT
BRANCH   1   2
ATOM      2  C   UNL     1      35.949   4.106  38.308  1.00  0.00     0.000 C 
BRANCH   2   3
ATOM      3  C   UNL     1      34.596   4.632  38.819  1.00  0.00     0.000 C 
BRANCH   3   4
ATOM      4  C   UNL     1      34.708   6.029  39.452  1.00  0.00     0.000 C 
BRANCH   4   5
ATOM      5  C   UNL     1      34.307   6.041  40.938  1.00  0.00     0.000 C 
BRANCH   5   6
ATOM      6  C   UNL     1      35.235   6.921  41.792  1.00  0.00     0.000 C 
BRANCH   6   7
ATOM      7  C   UNL     1      35.932   8.018  40.969  1.00  0.00     0.006 C 
BRANCH   7   8
ATOM      8  C   UNL     1      37.094   8.666  41.733  1.00  0.00     0.053 C 
BRANCH   8   9
ATOM      9  C   UNL     1      36.850  10.123  41.980  1.00  0.00     0.041 C 
ATOM     10  O   UNL     1      35.674  10.569  42.038  1.00  0.00    -0.550 OA
ATOM     11  O   UNL     1      37.924  10.994  42.112  1.00  0.00    -0.550 OA
ENDBRANCH   8   9
ENDBRANCH   7   8
ENDBRANCH   6   7
ENDBRANCH   5   6
ENDBRANCH   4   5
ENDBRANCH   3   4
ENDBRANCH   2   3
ENDBRANCH   1   2
BRANCH   1  12
ATOM     12  C   UNL     1      38.354   4.795  38.844  1.00  0.00     0.000 C 
BRANCH  12  13
ATOM     13  C   UNL     1      38.681   5.595  40.115  1.00  0.00    -0.000 C 
BRANCH  13  14
ATOM     14  C   UNL     1      38.261   4.863  41.403  1.00  0.00    -0.000 C 
BRANCH  14  15
ATOM     15  C   UNL     1      38.669   3.382  41.398  1.00  0.00    -0.000 C 
BRANCH  15  16
ATOM     16  C   UNL     1      37.499   2.446  41.747  1.00  0.00    -0.000 C 
BRANCH  16  17
ATOM     17  C   UNL     1      36.216   3.213  42.106  1.00  0.00    -0.000 C 
BRANCH  17  18
ATOM     18  C   UNL     1      34.942   2.444  41.729  1.00  0.00    -0.000 C 
BRANCH  18  19
ATOM     19  C   UNL     1      35.262   1.287  40.775  1.00  0.00    -0.003 C 
ATOM     20  C   UNL     1      34.131   1.069  39.774  1.00  0.00     0.004 C 
ENDBRANCH  18  19
ENDBRANCH  17  18
ENDBRANCH  16  17
ENDBRANCH  15  16
ENDBRANCH  14  15
ENDBRANCH  13  14
ENDBRANCH  12  13
ENDBRANCH   1  12
TORSDOF 16
ENDMDL
MODEL 2
REMARK VINA RESULT:    -0.721      3.477      5.413
REMARK INTER + INTRA:          -4.651
REMARK INTER:                  -1.298
REMARK INTRA:                  -3.353
REMARK UNBOUND:                -3.257
REMARK SMILES CCCCCCCCCCCCCCCCCC(=O)[O-]
REMARK SMILES IDX 10 1 11 2 12 3 13 4 14 5 15 6 16 7 17 8 18 9 19 10 20 11
REMARK SMILES IDX 9 12 8 13 7 14 6 15 5 16 4 17 3 18 2 19 1 20
REMARK H PARENT
REMARK Flexibility Score: inf
ROOT
ATOM      1  C   UNL     1      38.028   5.254  38.466  1.00  0.00     0.000 C 
ENDROOT
BRANCH   1   2
ATOM      2  C   UNL     1      37.617   4.275  37.353  1.00  0.00     0.000 C 
BRANCH   2   3
ATOM      3  C   UNL     1      37.143   2.920  37.907  1.00  0.00     0.000 C 
BRANCH   3   4
ATOM      4  C   UNL     1      38.005   1.747  37.412  1.00  0.00     0.000 C 
BRANCH   4   5
ATOM      5  C   UNL     1      38.548   0.881  38.563  1.00  0.00     0.000 C 
BRANCH   5   6
ATOM      6  C   UNL     1      39.996   1.237  38.936  1.00  0.00     0.000 C 
BRANCH   6   7
ATOM      7  C   UNL     1      40.740   1.958  37.799  1.00  0.00     0.006 C 
BRANCH   7   8
ATOM      8  C   UNL     1      41.893   2.825  38.319  1.00  0.00     0.053 C 
BRANCH   8   9
ATOM      9  C   UNL     1      41.781   4.240  37.842  1.00  0.00     0.041 C 
ATOM     10  O   UNL     1      42.279   5.179  38.518  1.00  0.00    -0.550 OA
ATOM     11  O   UNL     1      41.096   4.526  36.668  1.00  0.00    -0.550 OA
ENDBRANCH   8   9
ENDBRANCH   7   8
ENDBRANCH   6   7
ENDBRANCH   5   6
ENDBRANCH   4   5
ENDBRANCH   3   4
ENDBRANCH   2   3
ENDBRANCH   1   2
BRANCH   1  12
ATOM     12  C   UNL     1      38.697   4.544  39.657  1.00  0.00     0.000 C 
BRANCH  12  13
ATOM     13  C   UNL     1      38.476   5.287  40.985  1.00  0.00    -0.000 C 
BRANCH  13  14
ATOM     14  C   UNL     1      38.037   4.350  42.124  1.00  0.00    -0.000 C 
BRANCH  14  15
ATOM     15  C   UNL     1      37.986   2.877  41.689  1.00  0.00    -0.000 C 
BRANCH  15  16
ATOM     16  C   UNL     1      36.686   2.178  42.122  1.00  0.00    -0.000 C 
BRANCH  16  17
ATOM     17  C   UNL     1      35.602   2.220  41.034  1.00  0.00    -0.000 C 
BRANCH  17  18
ATOM     18  C   UNL     1      34.596   3.361  41.246  1.00  0.00    -0.000 C 
BRANCH  18  19
ATOM     19  C   UNL     1      34.755   4.440  40.169  1.00  0.00    -0.003 C 
ATOM     20  C   UNL     1      34.835   5.832  40.790  1.00  0.00     0.004 C 
ENDBRANCH  18  19
ENDBRANCH  17  18
ENDBRANCH  16  17
ENDBRANCH  15  16
ENDBRANCH  14  15
ENDBRANCH  13  14
ENDBRANCH  12  13
ENDBRANCH   1  12
TORSDOF 16
ENDMDL
MODEL 3
REMARK VINA RESULT:    -0.719      3.571      5.321
REMARK INTER + INTRA:          -4.649
REMARK INTER:                  -1.335
REMARK INTRA:                  -3.315
REMARK UNBOUND:                -3.257
REMARK SMILES CCCCCCCCCCCCCCCCCC(=O)[O-]
REMARK SMILES IDX 10 1 11 2 12 3 13 4 14 5 15 6 16 7 17 8 18 9 19 10 20 11
REMARK SMILES IDX 9 12 8 13 7 14 6 15 5 16 4 17 3 18 2 19 1 20
REMARK H PARENT
REMARK Flexibility Score: inf
ROOT
ATOM      1  C   UNL     1      40.535   4.521  38.393  1.00  0.00     0.000 C 
ENDROOT
BRANCH   1   2
ATOM      2  C   UNL     1      40.942   3.441  37.376  1.00  0.00     0.000 C 
BRANCH   2   3
ATOM      3  C   UNL     1      40.342   2.063  37.708  1.00  0.00     0.000 C 
BRANCH   3   4
ATOM      4  C   UNL     1      39.023   1.799  36.964  1.00  0.00     0.000 C 
BRANCH   4   5
ATOM      5  C   UNL     1      37.817   1.694  37.914  1.00  0.00     0.000 C 
BRANCH   5   6
ATOM      6  C   UNL     1      37.058   3.023  38.053  1.00  0.00     0.000 C 
BRANCH   6   7
ATOM      7  C   UNL     1      36.812   3.708  36.698  1.00  0.00     0.006 C 
BRANCH   7   8
ATOM      8  C   UNL     1      37.322   5.154  36.679  1.00  0.00     0.053 C 
BRANCH   8   9
ATOM      9  C   UNL     1      37.937   5.508  35.359  1.00  0.00     0.041 C 
ATOM     10  O   UNL     1      37.546   6.526  34.730  1.00  0.00    -0.550 OA
ATOM     11  O   UNL     1      38.917   4.692  34.808  1.00  0.00    -0.550 OA
ENDBRANCH   8   9
ENDBRANCH   7   8
ENDBRANCH   6   7
ENDBRANCH   5   6
ENDBRANCH   4   5
ENDBRANCH   3   4
ENDBRANCH   2   3
ENDBRANCH   1   2
BRANCH   1  12
ATOM     12  C   UNL     1      40.762   4.074  39.848  1.00  0.00     0.000 C 
BRANCH  12  13
ATOM     13  C   UNL     1      39.810   4.772  40.834  1.00  0.00    -0.000 C 
BRANCH  13  14
ATOM     14  C   UNL     1      38.639   5.480  40.129  1.00  0.00    -0.000 C 
BRANCH  14  15
ATOM     15  C   UNL     1      37.351   5.459  40.966  1.00  0.00    -0.000 C 
BRANCH  15  16
ATOM     16  C   UNL     1      37.355   4.346  42.028  1.00  0.00    -0.000 C 
BRANCH  16  17
ATOM     17  C   UNL     1      36.215   3.335  41.829  1.00  0.00    -0.000 C 
BRANCH  17  18
ATOM     18  C   UNL     1      36.726   1.909  41.577  1.00  0.00    -0.000 C 
BRANCH  18  19
ATOM     19  C   UNL     1      38.147   1.732  42.125  1.00  0.00    -0.003 C 
ATOM     20  C   UNL     1      38.996   0.875  41.189  1.00  0.00     0.004 C 
ENDBRANCH  18  19
ENDBRANCH  17  18
ENDBRANCH  16  17
ENDBRANCH  15  16
ENDBRANCH  14  15
ENDBRANCH  13  14
ENDBRANCH  12  13
ENDBRANCH   1  12
TORSDOF 16
ENDMDL
MODEL 4
REMARK VINA RESULT:    -0.719      2.950      5.122
REMARK INTER + INTRA:          -4.648
REMARK INTER:                  -1.551
REMARK INTRA:                  -3.097
REMARK UNBOUND:                -3.257
REMARK SMILES CCCCCCCCCCCCCCCCCC(=O)[O-]
REMARK SMILES IDX 10 1 11 2 12 3 13 4 14 5 15 6 16 7 17 8 18 9 19 10 20 11
REMARK SMILES IDX 9 12 8 13 7 14 6 15 5 16 4 17 3 18 2 19 1 20
REMARK H PARENT
REMARK Flexibility Score: inf
ROOT
ATOM      1  C   UNL     1      38.535   3.053  38.423  1.00  0.00     0.000 C 
ENDROOT
BRANCH   1   2
ATOM      2  C   UNL     1      39.448   3.288  37.209  1.00  0.00     0.000 C 
BRANCH   2   3
ATOM      3  C   UNL     1      40.751   2.473  37.285  1.00  0.00     0.000 C 
BRANCH   3   4
ATOM      4  C   UNL     1      41.887   3.241  37.979  1.00  0.00     0.000 C 
BRANCH   4   5
ATOM      5  C   UNL     1      42.502   2.458  39.153  1.00  0.00     0.000 C 
BRANCH   5   6
ATOM      6  C   UNL     1      41.891   2.849  40.508  1.00  0.00     0.000 C 
BRANCH   6   7
ATOM      7  C   UNL     1      41.781   4.373  40.689  1.00  0.00     0.006 C 
BRANCH   7   8
ATOM      8  C   UNL     1      40.376   4.805  41.128  1.00  0.00     0.053 C 
BRANCH   8   9
ATOM      9  C   UNL     1      39.953   6.076  40.459  1.00  0.00     0.041 C 
ATOM     10  O   UNL     1      39.444   7.009  41.135  1.00  0.00    -0.550 OA
ATOM     11  O   UNL     1      40.088   6.216  39.084  1.00  0.00    -0.550 OA
ENDBRANCH   8   9
ENDBRANCH   7   8
ENDBRANCH   6   7
ENDBRANCH   5   6
ENDBRANCH   4   5
ENDBRANCH   3   4
ENDBRANCH   2   3
ENDBRANCH   1   2
BRANCH   1  12
ATOM     12  C   UNL     1      37.645   1.807  38.259  1.00  0.00     0.000 C 
BRANCH  12  13
ATOM     13  C   UNL     1      37.672   0.897  39.497  1.00  0.00    -0.000 C 
BRANCH  13  14
ATOM     14  C   UNL     1      38.756   1.304  40.511  1.00  0.00    -0.000 C 
BRANCH  14  15
ATOM     15  C   UNL     1      38.167   1.701  41.873  1.00  0.00    -0.000 C 
BRANCH  15  16
ATOM     16  C   UNL     1      36.640   1.516  41.932  1.00  0.00    -0.000 C 
BRANCH  16  17
ATOM     17  C   UNL     1      35.891   2.844  42.125  1.00  0.00    -0.000 C 
BRANCH  17  18
ATOM     18  C   UNL     1      36.807   4.067  41.968  1.00  0.00    -0.000 C 
BRANCH  18  19
ATOM     19  C   UNL     1      36.458   4.855  40.700  1.00  0.00    -0.003 C 
ATOM     20  C   UNL     1      35.066   4.491  40.190  1.00  0.00     0.004 C 
ENDBRANCH  18  19
ENDBRANCH  17  18
ENDBRANCH  16  17
ENDBRANCH  15  16
ENDBRANCH  14  15
ENDBRANCH  13  14
ENDBRANCH  12  13
ENDBRANCH   1  12
TORSDOF 16
ENDMDL
MODEL 5
REMARK VINA RESULT:    -0.710      3.069      5.170
REMARK INTER + INTRA:          -4.631
REMARK INTER:                  -1.564
REMARK INTRA:                  -3.067
REMARK UNBOUND:                -3.257
REMARK SMILES CCCCCCCCCCCCCCCCCC(=O)[O-]
REMARK SMILES IDX 10 1 11 2 12 3 13 4 14 5 15 6 16 7 17 8 18 9 19 10 20 11
REMARK SMILES IDX 9 12 8 13 7 14 6 15 5 16 4 17 3 18 2 19 1 20
REMARK H PARENT
REMARK Flexibility Score: inf
ROOT
ATOM      1  C   UNL     1      35.454   6.223  41.263  1.00  0.00     0.000 C 
ENDROOT
BRANCH   1   2
ATOM      2  C   UNL     1      36.759   5.420  41.389  1.00  0.00     0.000 C 
BRANCH   2   3
ATOM      3  C   UNL     1      37.437   5.181  40.029  1.00  0.00     0.000 C 
BRANCH   3   4
ATOM      4  C   UNL     1      36.429   5.127  38.869  1.00  0.00     0.000 C 
BRANCH   4   5
ATOM      5  C   UNL     1      36.230   3.703  38.321  1.00  0.00     0.000 C 
BRANCH   5   6
ATOM      6  C   UNL     1      34.875   3.526  37.615  1.00  0.00     0.000 C 
BRANCH   6   7
ATOM      7  C   UNL     1      34.076   4.838  37.534  1.00  0.00     0.006 C 
BRANCH   7   8
ATOM      8  C   UNL     1      32.563   4.592  37.483  1.00  0.00     0.053 C 
BRANCH   8   9
ATOM      9  C   UNL     1      31.794   5.876  37.427  1.00  0.00     0.041 C 
ATOM     10  O   UNL     1      31.200   6.306  38.450  1.00  0.00    -0.550 OA
ATOM     11  O   UNL     1      31.704   6.580  36.232  1.00  0.00    -0.550 OA
ENDBRANCH   8   9
ENDBRANCH   7   8
ENDBRANCH   6   7
ENDBRANCH   5   6
ENDBRANCH   4   5
ENDBRANCH   3   4
ENDBRANCH   2   3
ENDBRANCH   1   2
BRANCH   1  12
ATOM     12  C   UNL     1      34.276   5.553  41.994  1.00  0.00     0.000 C 
BRANCH  12  13
ATOM     13  C   UNL     1      33.417   4.688  41.057  1.00  0.00    -0.000 C 
BRANCH  13  14
ATOM     14  C   UNL     1      33.239   3.249  41.574  1.00  0.00    -0.000 C 
BRANCH  14  15
ATOM     15  C   UNL     1      34.340   2.302  41.071  1.00  0.00    -0.000 C 
BRANCH  15  16
ATOM     16  C   UNL     1      35.435   2.060  42.125  1.00  0.00    -0.000 C 
BRANCH  16  17
ATOM     17  C   UNL     1      36.708   1.444  41.522  1.00  0.00    -0.000 C 
BRANCH  17  18
ATOM     18  C   UNL     1      37.992   2.061  42.095  1.00  0.00    -0.000 C 
BRANCH  18  19
ATOM     19  C   UNL     1      39.223   1.590  41.313  1.00  0.00    -0.003 C 
ATOM     20  C   UNL     1      38.976   1.646  39.808  1.00  0.00     0.004 C 
ENDBRANCH  18  19
ENDBRANCH  17  18
ENDBRANCH  16  17
ENDBRANCH  15  16
ENDBRANCH  14  15
ENDBRANCH  13  14
ENDBRANCH  12  13
ENDBRANCH   1  12
TORSDOF 16
ENDMDL
MODEL 6
REMARK VINA RESULT:    -0.710      4.811      6.860
REMARK INTER + INTRA:          -4.630
REMARK INTER:                  -1.431
REMARK INTRA:                  -3.199
REMARK UNBOUND:                -3.257
REMARK SMILES CCCCCCCCCCCCCCCCCC(=O)[O-]
REMARK SMILES IDX 10 1 11 2 12 3 13 4 14 5 15 6 16 7 17 8 18 9 19 10 20 11
REMARK SMILES IDX 9 12 8 13 7 14 6 15 5 16 4 17 3 18 2 19 1 20
REMARK H PARENT
REMARK Flexibility Score: inf
ROOT
ATOM      1  C   UNL     1      38.576   3.819  37.314  1.00  0.00     0.000 C 
ENDROOT
BRANCH   1   2
ATOM      2  C   UNL     1      38.625   4.622  38.625  1.00  0.00     0.000 C 
BRANCH   2   3
ATOM      3  C   UNL     1      40.021   5.203  38.908  1.00  0.00     0.000 C 
BRANCH   3   4
ATOM      4  C   UNL     1      40.748   4.466  40.044  1.00  0.00     0.000 C 
BRANCH   4   5
ATOM      5  C   UNL     1      42.180   4.049  39.661  1.00  0.00     0.000 C 
BRANCH   5   6
ATOM      6  C   UNL     1      42.439   2.551  39.890  1.00  0.00     0.000 C 
BRANCH   6   7
ATOM      7  C   UNL     1      42.315   1.725  38.598  1.00  0.00     0.006 C 
BRANCH   7   8
ATOM      8  C   UNL     1      42.315   2.608  37.344  1.00  0.00     0.053 C 
BRANCH   8   9
ATOM      9  C   UNL     1      43.581   2.454  36.558  1.00  0.00     0.041 C 
ATOM     10  O   UNL     1      43.604   1.731  35.528  1.00  0.00    -0.550 OA
ATOM     11  O   UNL     1      44.744   3.083  36.984  1.00  0.00    -0.550 OA
ENDBRANCH   8   9
ENDBRANCH   7   8
ENDBRANCH   6   7
ENDBRANCH   5   6
ENDBRANCH   4   5
ENDBRANCH   3   4
ENDBRANCH   2   3
ENDBRANCH   1   2
BRANCH   1  12
ATOM     12  C   UNL     1      38.559   2.298  37.555  1.00  0.00     0.000 C 
BRANCH  12  13
ATOM     13  C   UNL     1      37.273   1.828  38.255  1.00  0.00    -0.000 C 
BRANCH  13  14
ATOM     14  C   UNL     1      37.554   0.923  39.468  1.00  0.00    -0.000 C 
BRANCH  14  15
ATOM     15  C   UNL     1      39.029   0.954  39.897  1.00  0.00    -0.000 C 
BRANCH  15  16
ATOM     16  C   UNL     1      39.213   1.458  41.339  1.00  0.00    -0.000 C 
BRANCH  16  17
ATOM     17  C   UNL     1      37.910   2.000  41.947  1.00  0.00    -0.000 C 
BRANCH  17  18
ATOM     18  C   UNL     1      37.930   3.525  42.125  1.00  0.00    -0.000 C 
BRANCH  18  19
ATOM     19  C   UNL     1      36.645   4.158  41.578  1.00  0.00    -0.003 C 
ATOM     20  C   UNL     1      35.441   3.250  41.811  1.00  0.00     0.004 C 
ENDBRANCH  18  19
ENDBRANCH  17  18
ENDBRANCH  16  17
ENDBRANCH  15  16
ENDBRANCH  14  15
ENDBRANCH  13  14
ENDBRANCH  12  13
ENDBRANCH   1  12
TORSDOF 16
ENDMDL
MODEL 7
REMARK VINA RESULT:    -0.669      3.503      6.031
REMARK INTER + INTRA:          -4.552
REMARK INTER:                  -1.542
REMARK INTRA:                  -3.009
REMARK UNBOUND:                -3.257
REMARK SMILES CCCCCCCCCCCCCCCCCC(=O)[O-]
REMARK SMILES IDX 10 1 11 2 12 3 13 4 14 5 15 6 16 7 17 8 18 9 19 10 20 11
REMARK SMILES IDX 9 12 8 13 7 14 6 15 5 16 4 17 3 18 2 19 1 20
REMARK H PARENT
REMARK Flexibility Score: inf
ROOT
ATOM      1  C   UNL     1      34.552   6.633  39.747  1.00  0.00     0.000 C 
ENDROOT
BRANCH   1   2
ATOM      2  C   UNL     1      35.077   5.461  40.593  1.00  0.00     0.000 C 
BRANCH   2   3
ATOM      3  C   UNL     1      35.089   4.133  39.816  1.00  0.00     0.000 C 
BRANCH   3   4
ATOM      4  C   UNL     1      35.902   3.040  40.529  1.00  0.00     0.000 C 
BRANCH   4   5
ATOM      5  C   UNL     1      36.499   3.520  41.864  1.00  0.00     0.000 C 
BRANCH   5   6
ATOM      6  C   UNL     1      37.914   2.972  42.108  1.00  0.00     0.000 C 
BRANCH   6   7
ATOM      7  C   UNL     1      38.407   2.075  40.959  1.00  0.00     0.006 C 
BRANCH   7   8
ATOM      8  C   UNL     1      39.578   1.180  41.385  1.00  0.00     0.053 C 
BRANCH   8   9
ATOM      9  C   UNL     1      40.845   1.551  40.679  1.00  0.00     0.041 C 
ATOM     10  O   UNL     1      41.915   1.691  41.327  1.00  0.00    -0.550 OA
ATOM     11  O   UNL     1      40.836   1.777  39.308  1.00  0.00    -0.550 OA
ENDBRANCH   8   9
ENDBRANCH   7   8
ENDBRANCH   6   7
ENDBRANCH   5   6
ENDBRANCH   4   5
ENDBRANCH   3   4
ENDBRANCH   2   3
ENDBRANCH   1   2
BRANCH   1  12
ATOM     12  C   UNL     1      35.043   7.998  40.264  1.00  0.00     0.000 C 
BRANCH  12  13
ATOM     13  C   UNL     1      35.965   7.868  41.487  1.00  0.00    -0.000 C 
BRANCH  13  14
ATOM     14  C   UNL     1      37.232   8.734  41.371  1.00  0.00    -0.000 C 
BRANCH  14  15
ATOM     15  C   UNL     1      38.465   8.058  41.989  1.00  0.00    -0.000 C 
BRANCH  15  16
ATOM     16  C   UNL     1      38.565   6.566  41.623  1.00  0.00    -0.000 C 
BRANCH  16  17
ATOM     17  C   UNL     1      39.482   6.315  40.416  1.00  0.00    -0.000 C 
BRANCH  17  18
ATOM     18  C   UNL     1      38.848   5.380  39.377  1.00  0.00    -0.000 C 
BRANCH  18  19
ATOM     19  C   UNL     1      37.931   6.158  38.426  1.00  0.00    -0.003 C 
ATOM     20  C   UNL     1      38.584   7.461  37.973  1.00  0.00     0.004 C 
ENDBRANCH  18  19
ENDBRANCH  17  18
ENDBRANCH  16  17
ENDBRANCH  15  16
ENDBRANCH  14  15
ENDBRANCH  13  14
ENDBRANCH  12  13
ENDBRANCH   1  12
TORSDOF 16
ENDMDL
MODEL 8
REMARK VINA RESULT:    -0.660      2.285      3.294
REMARK INTER + INTRA:          -4.533
REMARK INTER:                  -1.717
REMARK INTRA:                  -2.816
REMARK UNBOUND:                -3.257
REMARK SMILES CCCCCCCCCCCCCCCCCC(=O)[O-]
REMARK SMILES IDX 10 1 11 2 12 3 13 4 14 5 15 6 16 7 17 8 18 9 19 10 20 11
REMARK SMILES IDX 9 12 8 13 7 14 6 15 5 16 4 17 3 18 2 19 1 20
REMARK H PARENT
REMARK Flexibility Score: inf
ROOT
ATOM      1  C   UNL     1      39.331   3.284  38.800  1.00  0.00     0.000 C 
ENDROOT
BRANCH   1   2
ATOM      2  C   UNL     1      38.224   4.337  38.621  1.00  0.00     0.000 C 
BRANCH   2   3
ATOM      3  C   UNL     1      37.097   3.855  37.691  1.00  0.00     0.000 C 
BRANCH   3   4
ATOM      4  C   UNL     1      35.941   3.194  38.458  1.00  0.00     0.000 C 
BRANCH   4   5
ATOM      5  C   UNL     1      34.640   4.014  38.393  1.00  0.00     0.000 C 
BRANCH   5   6
ATOM      6  C   UNL     1      34.808   5.432  38.961  1.00  0.00     0.000 C 
BRANCH   6   7
ATOM      7  C   UNL     1      33.593   6.331  38.675  1.00  0.00     0.006 C 
BRANCH   7   8
ATOM      8  C   UNL     1      33.511   7.520  39.642  1.00  0.00     0.053 C 
BRANCH   8   9
ATOM      9  C   UNL     1      33.509   7.073  41.071  1.00  0.00     0.041 C 
ATOM     10  O   UNL     1      32.506   6.479  41.548  1.00  0.00    -0.550 OA
ATOM     11  O   UNL     1      34.601   7.344  41.886  1.00  0.00    -0.550 OA
ENDBRANCH   8   9
ENDBRANCH   7   8
ENDBRANCH   6   7
ENDBRANCH   5   6
ENDBRANCH   4   5
ENDBRANCH   3   4
ENDBRANCH   2   3
ENDBRANCH   1   2
BRANCH   1  12
ATOM     12  C   UNL     1      39.128   2.424  40.061  1.00  0.00     0.000 C 
BRANCH  12  13
ATOM     13  C   UNL     1      38.922   3.273  41.325  1.00  0.00    -0.000 C 
BRANCH  13  14
ATOM     14  C   UNL     1      37.588   2.973  42.033  1.00  0.00    -0.000 C 
BRANCH  14  15
ATOM     15  C   UNL     1      36.677   4.207  42.118  1.00  0.00    -0.000 C 
BRANCH  15  16
ATOM     16  C   UNL     1      35.183   3.837  42.124  1.00  0.00    -0.000 C 
BRANCH  16  17
ATOM     17  C   UNL     1      34.949   2.321  42.039  1.00  0.00    -0.000 C 
BRANCH  17  18
ATOM     18  C   UNL     1      33.655   1.963  41.294  1.00  0.00    -0.000 C 
BRANCH  18  19
ATOM     19  C   UNL     1      32.583   3.037  41.510  1.00  0.00    -0.003 C 
ATOM     20  C   UNL     1      31.596   3.073  40.346  1.00  0.00     0.004 C 
ENDBRANCH  18  19
ENDBRANCH  17  18
ENDBRANCH  16  17
ENDBRANCH  15  16
ENDBRANCH  14  15
ENDBRANCH  13  14
ENDBRANCH  12  13
ENDBRANCH   1  12
TORSDOF 16
ENDMDL
MODEL 9
REMARK VINA RESULT:    -0.381      3.872      5.750
REMARK INTER + INTRA:          -3.994
REMARK INTER:                  -0.803
REMARK INTRA:                  -3.191
REMARK UNBOUND:                -3.257
REMARK SMILES CCCCCCCCCCCCCCCCCC(=O)[O-]
REMARK SMILES IDX 10 1 11 2 12 3 13 4 14 5 15 6 16 7 17 8 18 9 19 10 20 11
REMARK SMILES IDX 9 12 8 13 7 14 6 15 5 16 4 17 3 18 2 19 1 20
REMARK H PARENT
REMARK Flexibility Score: inf
ROOT
ATOM      1  C   UNL     1      37.212   1.878  39.388  1.00  0.00     0.000 C 
ENDROOT
BRANCH   1   2
ATOM      2  C   UNL     1      38.124   2.500  38.317  1.00  0.00     0.000 C 
BRANCH   2   3
ATOM      3  C   UNL     1      37.529   3.782  37.709  1.00  0.00     0.000 C 
BRANCH   3   4
ATOM      4  C   UNL     1      36.010   3.887  37.925  1.00  0.00     0.000 C 
BRANCH   4   5
ATOM      5  C   UNL     1      35.589   5.232  38.544  1.00  0.00     0.000 C 
BRANCH   5   6
ATOM      6  C   UNL     1      34.549   5.066  39.663  1.00  0.00     0.000 C 
BRANCH   6   7
ATOM      7  C   UNL     1      33.921   3.662  39.684  1.00  0.00     0.006 C 
BRANCH   7   8
ATOM      8  C   UNL     1      33.739   3.130  41.111  1.00  0.00     0.053 C 
BRANCH   8   9
ATOM      9  C   UNL     1      33.384   1.675  41.118  1.00  0.00     0.041 C 
ATOM     10  O   UNL     1      32.821   1.164  42.122  1.00  0.00    -0.550 OA
ATOM     11  O   UNL     1      33.707   0.875  40.029  1.00  0.00    -0.550 OA
ENDBRANCH   8   9
ENDBRANCH   7   8
ENDBRANCH   6   7
ENDBRANCH   5   6
ENDBRANCH   4   5
ENDBRANCH   3   4
ENDBRANCH   2   3
ENDBRANCH   1   2
BRANCH   1  12
ATOM     12  C   UNL     1      37.841   1.918  40.792  1.00  0.00     0.000 C 
BRANCH  12  13
ATOM     13  C   UNL     1      37.163   2.946  41.712  1.00  0.00    -0.000 C 
BRANCH  13  14
ATOM     14  C   UNL     1      38.108   4.089  42.125  1.00  0.00    -0.000 C 
BRANCH  14  15
ATOM     15  C   UNL     1      38.030   5.290  41.170  1.00  0.00    -0.000 C 
BRANCH  15  16
ATOM     16  C   UNL     1      39.326   5.490  40.366  1.00  0.00    -0.000 C 
BRANCH  16  17
ATOM     17  C   UNL     1      40.525   4.754  40.986  1.00  0.00    -0.000 C 
BRANCH  17  18
ATOM     18  C   UNL     1      41.120   3.697  40.045  1.00  0.00    -0.000 C 
BRANCH  18  19
ATOM     19  C   UNL     1      41.956   4.354  38.940  1.00  0.00    -0.003 C 
ATOM     20  C   UNL     1      41.492   3.907  37.557  1.00  0.00     0.004 C 
ENDBRANCH  18  19
ENDBRANCH  17  18
ENDBRANCH  16  17
ENDBRANCH  15  16
ENDBRANCH  14  15
ENDBRANCH  13  14
ENDBRANCH  12  13
ENDBRANCH   1  12
TORSDOF 16
ENDMDL
