MODEL 1
REMARK VINA RESULT:    -3.978      0.000      0.000
REMARK INTER + INTRA:          -7.625
REMARK INTER:                  -5.374
REMARK INTRA:                  -2.252
REMARK UNBOUND:                -2.252
REMARK SMILES CC[C@@H](CC[C@H](C)[C@@H]1CC[C@@H]2[C@@H]3CC(=O)C4=CC(=O)CC[C@@]4(C)[C@H]3CC[C@@]21C)C(C)C
REMARK SMILES IDX 4 1 3 2 2 3 1 4 29 5 30 6 31 7 5 8 6 9 7 10 8 11 9 12 27 13
REMARK SMILES IDX 10 14 11 15 26 16 28 17 12 18 25 19 24 20 13 21 22 22 14 23
REMARK SMILES IDX 16 24 21 25 23 26 15 27 17 28 20 29 18 30 19 31
REMARK H PARENT
REMARK Flexibility Score: inf
ROOT
ATOM      1  C   UNL     1      27.683 -44.938  -8.687  1.00  0.00     0.004 C 
ENDROOT
BRANCH   1   2
ATOM      2  C   UNL     1      26.324 -44.876  -9.437  1.00  0.00    -0.009 C 
BRANCH   2   3
ATOM      3  C   UNL     1      26.315 -43.744 -10.507  1.00  0.00     0.000 C 
ATOM      4  C   UNL     1      26.097 -44.205 -11.952  1.00  0.00     0.004 C 
ENDBRANCH   2   3
BRANCH   2   5
ATOM      5  C   UNL     1      25.101 -44.901  -8.428  1.00  0.00    -0.014 C 
ATOM      6  C   UNL     1      25.299 -45.705  -7.131  1.00  0.00     0.007 C 
ATOM      7  C   UNL     1      24.657 -43.475  -8.060  1.00  0.00     0.007 C 
ENDBRANCH   2   5
ENDBRANCH   1   2
BRANCH   1   8
ATOM      8  C   UNL     1      28.510 -46.195  -9.029  1.00  0.00     0.004 C 
BRANCH   8   9
ATOM      9  C   UNL     1      27.597 -47.429  -9.335  1.00  0.00    -0.011 C 
ATOM     10  C   UNL     1      27.750 -48.466  -8.206  1.00  0.00     0.008 C 
BRANCH   9  11
ATOM     11  C   UNL     1      27.909 -48.037 -10.751  1.00  0.00    -0.002 C 
ATOM     12  C   UNL     1      28.557 -47.000 -11.691  1.00  0.00     0.005 C 
ATOM     13  C   UNL     1      26.725 -48.633 -11.582  1.00  0.00    -0.026 C 
ATOM     14  C   UNL     1      28.153 -47.358 -13.114  1.00  0.00     0.005 C 
ATOM     15  C   UNL     1      27.307 -48.631 -13.016  1.00  0.00    -0.001 C 
ATOM     16  C   UNL     1      25.463 -47.725 -11.510  1.00  0.00     0.007 C 
ATOM     17  C   UNL     1      26.392 -50.088 -11.160  1.00  0.00     0.012 C 
ATOM     18  C   UNL     1      26.257 -48.819 -14.157  1.00  0.00     0.004 C 
ATOM     19  C   UNL     1      24.429 -48.038 -12.597  1.00  0.00     0.005 C 
ATOM     20  C   UNL     1      25.019 -47.897 -14.020  1.00  0.00     0.003 C 
ATOM     21  C   UNL     1      26.913 -48.627 -15.537  1.00  0.00     0.085 C 
ATOM     22  C   UNL     1      23.950 -48.067 -15.209  1.00  0.00    -0.000 C 
ATOM     23  C   UNL     1      25.955 -48.977 -16.624  1.00  0.00     0.159 C 
ATOM     24  C   UNL     1      24.499 -48.899 -16.386  1.00  0.00     0.005 C 
ATOM     25  C   UNL     1      22.615 -48.729 -14.721  1.00  0.00     0.020 C 
ATOM     26  C   UNL     1      23.638 -46.654 -15.763  1.00  0.00     0.017 C 
ATOM     27  O   UNL     1      26.409 -49.339 -17.746  1.00  0.00    -0.295 OA
ATOM     28  C   UNL     1      23.668 -49.529 -17.242  1.00  0.00     0.055 C 
ATOM     29  C   UNL     1      21.585 -48.926 -15.839  1.00  0.00     0.081 C 
ATOM     30  C   UNL     1      22.211 -49.568 -17.037  1.00  0.00     0.156 C 
ATOM     31  O   UNL     1      21.477 -50.125 -17.894  1.00  0.00    -0.295 OA
ENDBRANCH   9  11
ENDBRANCH   8   9
ENDBRANCH   1   8
TORSDOF 6
ENDMDL
MODEL 2
REMARK VINA RESULT:    -3.451      6.623      8.577
REMARK INTER + INTRA:          -6.913
REMARK INTER:                  -5.634
REMARK INTRA:                  -1.279
REMARK UNBOUND:                -2.252
REMARK SMILES CC[C@@H](CC[C@H](C)[C@@H]1CC[C@@H]2[C@@H]3CC(=O)C4=CC(=O)CC[C@@]4(C)[C@H]3CC[C@@]21C)C(C)C
REMARK SMILES IDX 4 1 3 2 2 3 1 4 29 5 30 6 31 7 5 8 6 9 7 10 8 11 9 12 27 13
REMARK SMILES IDX 10 14 11 15 26 16 28 17 12 18 25 19 24 20 13 21 22 22 14 23
REMARK SMILES IDX 16 24 21 25 23 26 15 27 17 28 20 29 18 30 19 31
REMARK H PARENT
REMARK Flexibility Score: inf
ROOT
ATOM      1  C   UNL     1      26.713 -36.114 -15.432  1.00  0.00     0.004 C 
ENDROOT
BRANCH   1   2
ATOM      2  C   UNL     1      27.314 -34.855 -16.118  1.00  0.00    -0.009 C 
BRANCH   2   3
ATOM      3  C   UNL     1      28.517 -35.226 -17.034  1.00  0.00     0.000 C 
ATOM      4  C   UNL     1      28.902 -34.168 -18.076  1.00  0.00     0.004 C 
ENDBRANCH   2   3
BRANCH   2   5
ATOM      5  C   UNL     1      27.558 -33.685 -15.076  1.00  0.00    -0.014 C 
ATOM      6  C   UNL     1      26.900 -32.332 -15.399  1.00  0.00     0.007 C 
ATOM      7  C   UNL     1      27.139 -34.109 -13.658  1.00  0.00     0.007 C 
ENDBRANCH   2   5
ENDBRANCH   1   2
BRANCH   1   8
ATOM      8  C   UNL     1      27.211 -37.438 -16.047  1.00  0.00     0.004 C 
BRANCH   8   9
ATOM      9  C   UNL     1      27.823 -38.391 -14.967  1.00  0.00    -0.011 C 
ATOM     10  C   UNL     1      28.778 -37.588 -14.065  1.00  0.00     0.008 C 
BRANCH   9  11
ATOM     11  C   UNL     1      28.526 -39.632 -15.628  1.00  0.00    -0.002 C 
ATOM     12  C   UNL     1      28.254 -39.706 -17.144  1.00  0.00     0.005 C 
ATOM     13  C   UNL     1      28.170 -41.060 -15.096  1.00  0.00    -0.026 C 
ATOM     14  C   UNL     1      28.284 -41.175 -17.542  1.00  0.00     0.005 C 
ATOM     15  C   UNL     1      28.619 -41.961 -16.271  1.00  0.00    -0.001 C 
ATOM     16  C   UNL     1      26.641 -41.213 -14.851  1.00  0.00     0.007 C 
ATOM     17  C   UNL     1      28.980 -41.425 -13.824  1.00  0.00     0.012 C 
ATOM     18  C   UNL     1      28.070 -43.423 -16.231  1.00  0.00     0.004 C 
ATOM     19  C   UNL     1      26.192 -42.672 -14.717  1.00  0.00     0.005 C 
ATOM     20  C   UNL     1      26.545 -43.507 -15.970  1.00  0.00     0.003 C 
ATOM     21  C   UNL     1      28.430 -44.175 -17.526  1.00  0.00     0.085 C 
ATOM     22  C   UNL     1      25.973 -45.009 -15.958  1.00  0.00    -0.000 C 
ATOM     23  C   UNL     1      28.061 -45.613 -17.415  1.00  0.00     0.159 C 
ATOM     24  C   UNL     1      26.993 -46.038 -16.486  1.00  0.00     0.005 C 
ATOM     25  C   UNL     1      25.515 -45.461 -14.528  1.00  0.00     0.020 C 
ATOM     26  C   UNL     1      24.753 -45.053 -16.913  1.00  0.00     0.017 C 
ATOM     27  O   UNL     1      28.674 -46.459 -18.125  1.00  0.00    -0.295 OA
ATOM     28  C   UNL     1      26.906 -47.342 -16.151  1.00  0.00     0.055 C 
ATOM     29  C   UNL     1      24.986 -46.900 -14.481  1.00  0.00     0.081 C 
ATOM     30  C   UNL     1      25.923 -47.838 -15.174  1.00  0.00     0.156 C 
ATOM     31  O   UNL     1      25.850 -49.072 -14.937  1.00  0.00    -0.295 OA
ENDBRANCH   9  11
ENDBRANCH   8   9
ENDBRANCH   1   8
TORSDOF 6
ENDMDL
MODEL 3
REMARK VINA RESULT:    -3.429      4.743      8.033
REMARK INTER + INTRA:          -6.884
REMARK INTER:                  -6.513
REMARK INTRA:                  -0.371
REMARK UNBOUND:                -2.252
REMARK SMILES CC[C@@H](CC[C@H](C)[C@@H]1CC[C@@H]2[C@@H]3CC(=O)C4=CC(=O)CC[C@@]4(C)[C@H]3CC[C@@]21C)C(C)C
REMARK SMILES IDX 4 1 3 2 2 3 1 4 29 5 30 6 31 7 5 8 6 9 7 10 8 11 9 12 27 13
REMARK SMILES IDX 10 14 11 15 26 16 28 17 12 18 25 19 24 20 13 21 22 22 14 23
REMARK SMILES IDX 16 24 21 25 23 26 15 27 17 28 20 29 18 30 19 31
REMARK H PARENT
REMARK Flexibility Score: inf
ROOT
ATOM      1  C   UNL     1      28.256 -40.167 -14.935  1.00  0.00     0.004 C 
ENDROOT
BRANCH   1   2
ATOM      2  C   UNL     1      27.579 -39.520 -16.175  1.00  0.00    -0.009 C 
BRANCH   2   3
ATOM      3  C   UNL     1      27.889 -37.996 -16.263  1.00  0.00     0.000 C 
ATOM      4  C   UNL     1      27.618 -37.195 -14.984  1.00  0.00     0.004 C 
ENDBRANCH   2   3
BRANCH   2   5
ATOM      5  C   UNL     1      26.053 -39.935 -16.287  1.00  0.00    -0.014 C 
ATOM      6  C   UNL     1      25.023 -38.796 -16.186  1.00  0.00     0.007 C 
ATOM      7  C   UNL     1      25.787 -40.725 -17.579  1.00  0.00     0.007 C 
ENDBRANCH   2   5
ENDBRANCH   1   2
BRANCH   1   8
ATOM      8  C   UNL     1      29.120 -41.396 -15.285  1.00  0.00     0.004 C 
BRANCH   8   9
ATOM      9  C   UNL     1      28.455 -42.732 -14.811  1.00  0.00    -0.011 C 
ATOM     10  C   UNL     1      27.379 -43.152 -15.829  1.00  0.00     0.008 C 
BRANCH   9  11
ATOM     11  C   UNL     1      27.881 -42.601 -13.354  1.00  0.00    -0.002 C 
ATOM     12  C   UNL     1      28.959 -42.143 -12.350  1.00  0.00     0.005 C 
ATOM     13  C   UNL     1      27.240 -43.864 -12.690  1.00  0.00    -0.026 C 
ATOM     14  C   UNL     1      28.599 -42.732 -10.993  1.00  0.00     0.005 C 
ATOM     15  C   UNL     1      27.286 -43.497 -11.188  1.00  0.00    -0.001 C 
ATOM     16  C   UNL     1      28.085 -45.142 -12.961  1.00  0.00     0.007 C 
ATOM     17  C   UNL     1      25.765 -44.066 -13.129  1.00  0.00     0.012 C 
ATOM     18  C   UNL     1      27.063 -44.692 -10.206  1.00  0.00     0.004 C 
ATOM     19  C   UNL     1      27.737 -46.308 -12.029  1.00  0.00     0.005 C 
ATOM     20  C   UNL     1      27.924 -45.937 -10.539  1.00  0.00     0.003 C 
ATOM     21  C   UNL     1      27.303 -44.252  -8.750  1.00  0.00     0.085 C 
ATOM     22  C   UNL     1      27.717 -47.157  -9.513  1.00  0.00    -0.000 C 
ATOM     23  C   UNL     1      26.922 -45.340  -7.807  1.00  0.00     0.159 C 
ATOM     24  C   UNL     1      26.927 -46.748  -8.253  1.00  0.00     0.005 C 
ATOM     25  C   UNL     1      26.988 -48.376 -10.176  1.00  0.00     0.020 C 
ATOM     26  C   UNL     1      29.121 -47.611  -9.037  1.00  0.00     0.017 C 
ATOM     27  O   UNL     1      26.595 -45.038  -6.625  1.00  0.00    -0.295 OA
ATOM     28  C   UNL     1      26.269 -47.665  -7.514  1.00  0.00     0.055 C 
ATOM     29  C   UNL     1      26.756 -49.548  -9.214  1.00  0.00     0.081 C 
ATOM     30  C   UNL     1      26.159 -49.074  -7.926  1.00  0.00     0.156 C 
ATOM     31  O   UNL     1      25.578 -49.899  -7.173  1.00  0.00    -0.295 OA
ENDBRANCH   9  11
ENDBRANCH   8   9
ENDBRANCH   1   8
TORSDOF 6
ENDMDL
MODEL 4
REMARK VINA RESULT:    -3.325      4.486      7.829
REMARK INTER + INTRA:          -6.742
REMARK INTER:                  -5.385
REMARK INTRA:                  -1.357
REMARK UNBOUND:                -2.252
REMARK SMILES CC[C@@H](CC[C@H](C)[C@@H]1CC[C@@H]2[C@@H]3CC(=O)C4=CC(=O)CC[C@@]4(C)[C@H]3CC[C@@]21C)C(C)C
REMARK SMILES IDX 4 1 3 2 2 3 1 4 29 5 30 6 31 7 5 8 6 9 7 10 8 11 9 12 27 13
REMARK SMILES IDX 10 14 11 15 26 16 28 17 12 18 25 19 24 20 13 21 22 22 14 23
REMARK SMILES IDX 16 24 21 25 23 26 15 27 17 28 20 29 18 30 19 31
REMARK H PARENT
REMARK Flexibility Score: inf
ROOT
ATOM      1  C   UNL     1      26.455 -41.501 -15.184  1.00  0.00     0.004 C 
ENDROOT
BRANCH   1   2
ATOM      2  C   UNL     1      26.819 -40.286 -16.082  1.00  0.00    -0.009 C 
BRANCH   2   3
ATOM      3  C   UNL     1      28.362 -40.094 -16.181  1.00  0.00     0.000 C 
ATOM      4  C   UNL     1      28.943 -40.157 -17.599  1.00  0.00     0.004 C 
ENDBRANCH   2   3
BRANCH   2   5
ATOM      5  C   UNL     1      25.974 -39.002 -15.696  1.00  0.00    -0.014 C 
ATOM      6  C   UNL     1      26.670 -37.642 -15.879  1.00  0.00     0.007 C 
ATOM      7  C   UNL     1      24.633 -38.973 -16.450  1.00  0.00     0.007 C 
ENDBRANCH   2   5
ENDBRANCH   1   2
BRANCH   1   8
ATOM      8  C   UNL     1      26.097 -42.767 -15.989  1.00  0.00     0.004 C 
BRANCH   8   9
ATOM      9  C   UNL     1      27.312 -43.746 -16.110  1.00  0.00    -0.011 C 
ATOM     10  C   UNL     1      27.713 -43.876 -17.592  1.00  0.00     0.008 C 
BRANCH   9  11
ATOM     11  C   UNL     1      26.996 -45.138 -15.453  1.00  0.00    -0.002 C 
ATOM     12  C   UNL     1      25.489 -45.311 -15.170  1.00  0.00     0.005 C 
ATOM     13  C   UNL     1      27.693 -45.497 -14.099  1.00  0.00    -0.026 C 
ATOM     14  C   UNL     1      25.354 -46.220 -13.956  1.00  0.00     0.005 C 
ATOM     15  C   UNL     1      26.777 -46.619 -13.554  1.00  0.00    -0.001 C 
ATOM     16  C   UNL     1      27.701 -44.286 -13.122  1.00  0.00     0.007 C 
ATOM     17  C   UNL     1      29.125 -46.055 -14.312  1.00  0.00     0.012 C 
ATOM     18  C   UNL     1      26.969 -46.956 -12.041  1.00  0.00     0.004 C 
ATOM     19  C   UNL     1      28.001 -44.679 -11.672  1.00  0.00     0.005 C 
ATOM     20  C   UNL     1      26.983 -45.706 -11.124  1.00  0.00     0.003 C 
ATOM     21  C   UNL     1      25.897 -47.953 -11.564  1.00  0.00     0.085 C 
ATOM     22  C   UNL     1      27.151 -46.051  -9.563  1.00  0.00    -0.000 C 
ATOM     23  C   UNL     1      26.185 -48.405 -10.175  1.00  0.00     0.159 C 
ATOM     24  C   UNL     1      26.981 -47.555  -9.265  1.00  0.00     0.005 C 
ATOM     25  C   UNL     1      28.539 -45.593  -8.998  1.00  0.00     0.020 C 
ATOM     26  C   UNL     1      26.027 -45.309  -8.797  1.00  0.00     0.017 C 
ATOM     27  O   UNL     1      25.740 -49.522  -9.789  1.00  0.00    -0.295 OA
ATOM     28  C   UNL     1      27.511 -48.110  -8.156  1.00  0.00     0.055 C 
ATOM     29  C   UNL     1      28.738 -45.930  -7.515  1.00  0.00     0.081 C 
ATOM     30  C   UNL     1      28.379 -47.355  -7.237  1.00  0.00     0.156 C 
ATOM     31  O   UNL     1      28.804 -47.907  -6.188  1.00  0.00    -0.295 OA
ENDBRANCH   9  11
ENDBRANCH   8   9
ENDBRANCH   1   8
TORSDOF 6
ENDMDL
MODEL 5
REMARK VINA RESULT:    -3.198      8.786     11.460
REMARK INTER + INTRA:          -6.571
REMARK INTER:                  -5.387
REMARK INTRA:                  -1.184
REMARK UNBOUND:                -2.252
REMARK SMILES CC[C@@H](CC[C@H](C)[C@@H]1CC[C@@H]2[C@@H]3CC(=O)C4=CC(=O)CC[C@@]4(C)[C@H]3CC[C@@]21C)C(C)C
REMARK SMILES IDX 4 1 3 2 2 3 1 4 29 5 30 6 31 7 5 8 6 9 7 10 8 11 9 12 27 13
REMARK SMILES IDX 10 14 11 15 26 16 28 17 12 18 25 19 24 20 13 21 22 22 14 23
REMARK SMILES IDX 16 24 21 25 23 26 15 27 17 28 20 29 18 30 19 31
REMARK H PARENT
REMARK Flexibility Score: inf
ROOT
ATOM      1  C   UNL     1      26.982 -32.078 -12.852  1.00  0.00     0.004 C 
ENDROOT
BRANCH   1   2
ATOM      2  C   UNL     1      25.841 -31.502 -11.969  1.00  0.00    -0.009 C 
BRANCH   2   3
ATOM      3  C   UNL     1      26.363 -31.089 -10.561  1.00  0.00     0.000 C 
ATOM      4  C   UNL     1      27.606 -31.843 -10.072  1.00  0.00     0.004 C 
ENDBRANCH   2   3
BRANCH   2   5
ATOM      5  C   UNL     1      24.558 -32.433 -11.997  1.00  0.00    -0.014 C 
ATOM      6  C   UNL     1      23.724 -32.491 -10.704  1.00  0.00     0.007 C 
ATOM      7  C   UNL     1      23.628 -32.061 -13.165  1.00  0.00     0.007 C 
ENDBRANCH   2   5
ENDBRANCH   1   2
BRANCH   1   8
ATOM      8  C   UNL     1      26.869 -33.600 -13.076  1.00  0.00     0.004 C 
BRANCH   8   9
ATOM      9  C   UNL     1      27.929 -34.120 -14.104  1.00  0.00    -0.011 C 
ATOM     10  C   UNL     1      28.714 -32.923 -14.672  1.00  0.00     0.008 C 
BRANCH   9  11
ATOM     11  C   UNL     1      27.258 -34.984 -15.233  1.00  0.00    -0.002 C 
ATOM     12  C   UNL     1      25.763 -35.238 -14.950  1.00  0.00     0.005 C 
ATOM     13  C   UNL     1      27.846 -36.402 -15.534  1.00  0.00    -0.026 C 
ATOM     14  C   UNL     1      25.401 -36.578 -15.575  1.00  0.00     0.005 C 
ATOM     15  C   UNL     1      26.670 -37.089 -16.266  1.00  0.00    -0.001 C 
ATOM     16  C   UNL     1      28.189 -37.168 -14.223  1.00  0.00     0.007 C 
ATOM     17  C   UNL     1      29.075 -36.333 -16.479  1.00  0.00     0.012 C 
ATOM     18  C   UNL     1      26.780 -38.643 -16.385  1.00  0.00     0.004 C 
ATOM     19  C   UNL     1      28.387 -38.672 -14.435  1.00  0.00     0.005 C 
ATOM     20  C   UNL     1      27.136 -39.344 -15.049  1.00  0.00     0.003 C 
ATOM     21  C   UNL     1      25.484 -39.238 -16.968  1.00  0.00     0.085 C 
ATOM     22  C   UNL     1      27.221 -40.945 -15.162  1.00  0.00    -0.000 C 
ATOM     23  C   UNL     1      25.655 -40.692 -17.243  1.00  0.00     0.159 C 
ATOM     24  C   UNL     1      26.658 -41.478 -16.495  1.00  0.00     0.005 C 
ATOM     25  C   UNL     1      28.687 -41.477 -15.001  1.00  0.00     0.020 C 
ATOM     26  C   UNL     1      26.344 -41.541 -14.032  1.00  0.00     0.017 C 
ATOM     27  O   UNL     1      24.930 -41.238 -18.122  1.00  0.00    -0.295 OA
ATOM     28  C   UNL     1      27.031 -42.681 -16.979  1.00  0.00     0.055 C 
ATOM     29  C   UNL     1      28.803 -43.001 -15.128  1.00  0.00     0.081 C 
ATOM     30  C   UNL     1      28.078 -43.494 -16.340  1.00  0.00     0.156 C 
ATOM     31  O   UNL     1      28.351 -44.633 -16.802  1.00  0.00    -0.295 OA
ENDBRANCH   9  11
ENDBRANCH   8   9
ENDBRANCH   1   8
TORSDOF 6
ENDMDL
MODEL 6
REMARK VINA RESULT:    -2.876      3.222      5.403
REMARK INTER + INTRA:          -6.136
REMARK INTER:                  -4.523
REMARK INTRA:                  -1.614
REMARK UNBOUND:                -2.252
REMARK SMILES CC[C@@H](CC[C@H](C)[C@@H]1CC[C@@H]2[C@@H]3CC(=O)C4=CC(=O)CC[C@@]4(C)[C@H]3CC[C@@]21C)C(C)C
REMARK SMILES IDX 4 1 3 2 2 3 1 4 29 5 30 6 31 7 5 8 6 9 7 10 8 11 9 12 27 13
REMARK SMILES IDX 10 14 11 15 26 16 28 17 12 18 25 19 24 20 13 21 22 22 14 23
REMARK SMILES IDX 16 24 21 25 23 26 15 27 17 28 20 29 18 30 19 31
REMARK H PARENT
REMARK Flexibility Score: inf
ROOT
ATOM      1  C   UNL     1      27.246 -48.700  -8.214  1.00  0.00     0.004 C 
ENDROOT
BRANCH   1   2
ATOM      2  C   UNL     1      28.124 -47.468  -7.860  1.00  0.00    -0.009 C 
BRANCH   2   3
ATOM      3  C   UNL     1      29.125 -47.793  -6.711  1.00  0.00     0.000 C 
ATOM      4  C   UNL     1      29.101 -49.242  -6.208  1.00  0.00     0.004 C 
ENDBRANCH   2   3
BRANCH   2   5
ATOM      5  C   UNL     1      27.246 -46.160  -7.678  1.00  0.00    -0.014 C 
ATOM      6  C   UNL     1      27.474 -45.034  -8.703  1.00  0.00     0.007 C 
ATOM      7  C   UNL     1      25.747 -46.499  -7.646  1.00  0.00     0.007 C 
ENDBRANCH   2   5
ENDBRANCH   1   2
BRANCH   1   8
ATOM      8  C   UNL     1      27.460 -49.205  -9.656  1.00  0.00     0.004 C 
BRANCH   8   9
ATOM      9  C   UNL     1      26.309 -48.748 -10.613  1.00  0.00    -0.011 C 
ATOM     10  C   UNL     1      25.199 -49.816 -10.615  1.00  0.00     0.008 C 
BRANCH   9  11
ATOM     11  C   UNL     1      26.850 -48.446 -12.057  1.00  0.00    -0.002 C 
ATOM     12  C   UNL     1      28.384 -48.292 -12.076  1.00  0.00     0.005 C 
ATOM     13  C   UNL     1      26.319 -47.174 -12.799  1.00  0.00    -0.026 C 
ATOM     14  C   UNL     1      28.733 -47.328 -13.202  1.00  0.00     0.005 C 
ATOM     15  C   UNL     1      27.409 -46.952 -13.875  1.00  0.00    -0.001 C 
ATOM     16  C   UNL     1      26.243 -45.947 -11.845  1.00  0.00     0.007 C 
ATOM     17  C   UNL     1      24.954 -47.431 -13.490  1.00  0.00     0.012 C 
ATOM     18  C   UNL     1      27.388 -45.548 -14.559  1.00  0.00     0.004 C 
ATOM     19  C   UNL     1      26.118 -44.611 -12.586  1.00  0.00     0.005 C 
ATOM     20  C   UNL     1      27.298 -44.370 -13.556  1.00  0.00     0.003 C 
ATOM     21  C   UNL     1      28.611 -45.372 -15.478  1.00  0.00     0.085 C 
ATOM     22  C   UNL     1      27.306 -42.923 -14.256  1.00  0.00    -0.000 C 
ATOM     23  C   UNL     1      28.500 -44.109 -16.260  1.00  0.00     0.159 C 
ATOM     24  C   UNL     1      27.684 -42.987 -15.750  1.00  0.00     0.005 C 
ATOM     25  C   UNL     1      25.924 -42.193 -14.131  1.00  0.00     0.020 C 
ATOM     26  C   UNL     1      28.391 -42.069 -13.552  1.00  0.00     0.017 C 
ATOM     27  O   UNL     1      29.111 -44.015 -17.361  1.00  0.00    -0.295 OA
ATOM     28  C   UNL     1      27.323 -42.007 -16.604  1.00  0.00     0.055 C 
ATOM     29  C   UNL     1      25.894 -40.818 -14.810  1.00  0.00     0.081 C 
ATOM     30  C   UNL     1      26.449 -40.894 -16.198  1.00  0.00     0.156 C 
ATOM     31  O   UNL     1      26.186 -39.979 -17.020  1.00  0.00    -0.295 OA
ENDBRANCH   9  11
ENDBRANCH   8   9
ENDBRANCH   1   8
TORSDOF 6
ENDMDL
MODEL 7
REMARK VINA RESULT:    -2.719      5.912      8.325
REMARK INTER + INTRA:          -5.924
REMARK INTER:                  -5.840
REMARK INTRA:                  -0.084
REMARK UNBOUND:                -2.252
REMARK SMILES CC[C@@H](CC[C@H](C)[C@@H]1CC[C@@H]2[C@@H]3CC(=O)C4=CC(=O)CC[C@@]4(C)[C@H]3CC[C@@]21C)C(C)C
REMARK SMILES IDX 4 1 3 2 2 3 1 4 29 5 30 6 31 7 5 8 6 9 7 10 8 11 9 12 27 13
REMARK SMILES IDX 10 14 11 15 26 16 28 17 12 18 25 19 24 20 13 21 22 22 14 23
REMARK SMILES IDX 16 24 21 25 23 26 15 27 17 28 20 29 18 30 19 31
REMARK H PARENT
REMARK Flexibility Score: inf
ROOT
ATOM      1  C   UNL     1      26.472 -37.334 -15.515  1.00  0.00     0.004 C 
ENDROOT
BRANCH   1   2
ATOM      2  C   UNL     1      27.152 -35.936 -15.506  1.00  0.00    -0.009 C 
BRANCH   2   3
ATOM      3  C   UNL     1      28.478 -35.954 -14.689  1.00  0.00     0.000 C 
ATOM      4  C   UNL     1      28.369 -35.448 -13.246  1.00  0.00     0.004 C 
ENDBRANCH   2   3
BRANCH   2   5
ATOM      5  C   UNL     1      26.119 -34.790 -15.145  1.00  0.00    -0.014 C 
ATOM      6  C   UNL     1      26.391 -33.404 -15.757  1.00  0.00     0.007 C 
ATOM      7  C   UNL     1      24.681 -35.208 -15.497  1.00  0.00     0.007 C 
ENDBRANCH   2   5
ENDBRANCH   1   2
BRANCH   1   8
ATOM      8  C   UNL     1      27.476 -38.497 -15.659  1.00  0.00     0.004 C 
BRANCH   8   9
ATOM      9  C   UNL     1      27.037 -39.515 -16.765  1.00  0.00    -0.011 C 
ATOM     10  C   UNL     1      25.530 -39.797 -16.623  1.00  0.00     0.008 C 
BRANCH   9  11
ATOM     11  C   UNL     1      27.899 -40.828 -16.711  1.00  0.00    -0.002 C 
ATOM     12  C   UNL     1      27.501 -41.823 -17.820  1.00  0.00     0.005 C 
ATOM     13  C   UNL     1      27.879 -41.678 -15.397  1.00  0.00    -0.026 C 
ATOM     14  C   UNL     1      27.775 -43.225 -17.296  1.00  0.00     0.005 C 
ATOM     15  C   UNL     1      28.377 -43.054 -15.897  1.00  0.00    -0.001 C 
ATOM     16  C   UNL     1      26.439 -41.801 -14.819  1.00  0.00     0.007 C 
ATOM     17  C   UNL     1      28.864 -41.126 -14.332  1.00  0.00     0.012 C 
ATOM     18  C   UNL     1      28.128 -44.245 -14.918  1.00  0.00     0.004 C 
ATOM     19  C   UNL     1      26.296 -42.923 -13.786  1.00  0.00     0.005 C 
ATOM     20  C   UNL     1      26.680 -44.304 -14.368  1.00  0.00     0.003 C 
ATOM     21  C   UNL     1      28.499 -45.584 -15.583  1.00  0.00     0.085 C 
ATOM     22  C   UNL     1      26.413 -45.546 -13.383  1.00  0.00    -0.000 C 
ATOM     23  C   UNL     1      28.427 -46.696 -14.594  1.00  0.00     0.159 C 
ATOM     24  C   UNL     1      27.556 -46.580 -13.405  1.00  0.00     0.005 C 
ATOM     25  C   UNL     1      26.191 -45.092 -11.898  1.00  0.00     0.020 C 
ATOM     26  C   UNL     1      25.138 -46.272 -13.881  1.00  0.00     0.017 C 
ATOM     27  O   UNL     1      29.120 -47.734 -14.789  1.00  0.00    -0.295 OA
ATOM     28  C   UNL     1      27.756 -47.423 -12.372  1.00  0.00     0.055 C 
ATOM     29  C   UNL     1      25.957 -46.258 -10.930  1.00  0.00     0.081 C 
ATOM     30  C   UNL     1      26.986 -47.327 -11.121  1.00  0.00     0.156 C 
ATOM     31  O   UNL     1      27.175 -48.172 -10.207  1.00  0.00    -0.295 OA
ENDBRANCH   9  11
ENDBRANCH   8   9
ENDBRANCH   1   8
TORSDOF 6
ENDMDL
MODEL 8
REMARK VINA RESULT:    -2.610      3.598      7.652
REMARK INTER + INTRA:          -5.776
REMARK INTER:                  -4.611
REMARK INTRA:                  -1.166
REMARK UNBOUND:                -2.252
REMARK SMILES CC[C@@H](CC[C@H](C)[C@@H]1CC[C@@H]2[C@@H]3CC(=O)C4=CC(=O)CC[C@@]4(C)[C@H]3CC[C@@]21C)C(C)C
REMARK SMILES IDX 4 1 3 2 2 3 1 4 29 5 30 6 31 7 5 8 6 9 7 10 8 11 9 12 27 13
REMARK SMILES IDX 10 14 11 15 26 16 28 17 12 18 25 19 24 20 13 21 22 22 14 23
REMARK SMILES IDX 16 24 21 25 23 26 15 27 17 28 20 29 18 30 19 31
REMARK H PARENT
REMARK Flexibility Score: inf
ROOT
ATOM      1  C   UNL     1      26.660 -44.397 -17.159  1.00  0.00     0.004 C 
ENDROOT
BRANCH   1   2
ATOM      2  C   UNL     1      25.851 -45.724 -17.140  1.00  0.00    -0.009 C 
BRANCH   2   3
ATOM      3  C   UNL     1      24.847 -45.761 -15.949  1.00  0.00     0.000 C 
ATOM      4  C   UNL     1      23.488 -46.403 -16.254  1.00  0.00     0.004 C 
ENDBRANCH   2   3
BRANCH   2   5
ATOM      5  C   UNL     1      26.798 -46.985 -17.301  1.00  0.00    -0.014 C 
ATOM      6  C   UNL     1      28.216 -46.714 -17.837  1.00  0.00     0.007 C 
ATOM      7  C   UNL     1      26.913 -47.765 -15.980  1.00  0.00     0.007 C 
ENDBRANCH   2   5
ENDBRANCH   1   2
BRANCH   1   8
ATOM      8  C   UNL     1      26.355 -43.481 -15.956  1.00  0.00     0.004 C 
BRANCH   8   9
ATOM      9  C   UNL     1      27.648 -42.801 -15.396  1.00  0.00    -0.011 C 
ATOM     10  C   UNL     1      28.882 -43.589 -15.873  1.00  0.00     0.008 C 
BRANCH   9  11
ATOM     11  C   UNL     1      27.594 -42.665 -13.831  1.00  0.00    -0.002 C 
ATOM     12  C   UNL     1      29.002 -42.527 -13.217  1.00  0.00     0.005 C 
ATOM     13  C   UNL     1      26.919 -43.812 -13.008  1.00  0.00    -0.026 C 
ATOM     14  C   UNL     1      28.953 -43.131 -11.821  1.00  0.00     0.005 C 
ATOM     15  C   UNL     1      27.506 -43.582 -11.596  1.00  0.00    -0.001 C 
ATOM     16  C   UNL     1      27.328 -45.215 -13.542  1.00  0.00     0.007 C 
ATOM     17  C   UNL     1      25.375 -43.661 -12.959  1.00  0.00     0.012 C 
ATOM     18  C   UNL     1      27.330 -44.775 -10.602  1.00  0.00     0.004 C 
ATOM     19  C   UNL     1      27.029 -46.349 -12.556  1.00  0.00     0.005 C 
ATOM     20  C   UNL     1      27.742 -46.145 -11.199  1.00  0.00     0.003 C 
ATOM     21  C   UNL     1      28.099 -44.512  -9.294  1.00  0.00     0.085 C 
ATOM     22  C   UNL     1      27.590 -47.370 -10.170  1.00  0.00    -0.000 C 
ATOM     23  C   UNL     1      27.789 -45.565  -8.286  1.00  0.00     0.159 C 
ATOM     24  C   UNL     1      27.338 -46.903  -8.722  1.00  0.00     0.005 C 
ATOM     25  C   UNL     1      26.436 -48.351 -10.576  1.00  0.00     0.020 C 
ATOM     26  C   UNL     1      28.931 -48.147 -10.166  1.00  0.00     0.017 C 
ATOM     27  O   UNL     1      27.919 -45.294  -7.059  1.00  0.00    -0.295 OA
ATOM     28  C   UNL     1      26.749 -47.714  -7.819  1.00  0.00     0.055 C 
ATOM     29  C   UNL     1      26.252 -49.518  -9.599  1.00  0.00     0.081 C 
ATOM     30  C   UNL     1      26.202 -49.031  -8.186  1.00  0.00     0.156 C 
ATOM     31  O   UNL     1      25.709 -49.770  -7.293  1.00  0.00    -0.295 OA
ENDBRANCH   9  11
ENDBRANCH   8   9
ENDBRANCH   1   8
TORSDOF 6
ENDMDL
