MODEL 1
REMARK VINA RESULT:    -4.479      0.000      0.000
REMARK INTER + INTRA:          -8.355
REMARK INTER:                  -7.622
REMARK INTRA:                  -0.733
REMARK UNBOUND:                -0.733
REMARK SMILES CCCCCCCCCCCCCC(=O)[O-]
REMARK SMILES IDX 8 1 9 2 10 3 11 4 12 5 13 6 14 7 15 8 16 9 7 10 6 11 5 12
REMARK SMILES IDX 4 13 3 14 2 15 1 16
REMARK H PARENT
REMARK Flexibility Score: inf
ROOT
ATOM      1  C   UNL     1      99.857 -69.487   5.407  1.00  0.00     0.000 C 
ENDROOT
BRANCH   1   2
ATOM      2  C   UNL     1      99.264 -68.515   4.377  1.00  0.00     0.000 C 
BRANCH   2   3
ATOM      3  C   UNL     1     100.332 -67.545   3.858  1.00  0.00     0.000 C 
BRANCH   3   4
ATOM      4  C   UNL     1     100.543 -67.714   2.347  1.00  0.00     0.000 C 
BRANCH   4   5
ATOM      5  C   UNL     1      99.233 -67.987   1.592  1.00  0.00     0.006 C 
BRANCH   5   6
ATOM      6  C   UNL     1      99.462 -68.313   0.110  1.00  0.00     0.053 C 
BRANCH   6   7
ATOM      7  C   UNL     1      98.610 -69.470  -0.307  1.00  0.00     0.041 C 
ATOM      8  O   UNL     1      98.459 -70.455   0.463  1.00  0.00    -0.550 OA
ATOM      9  O   UNL     1      97.944 -69.440  -1.525  1.00  0.00    -0.550 OA
ENDBRANCH   6   7
ENDBRANCH   5   6
ENDBRANCH   4   5
ENDBRANCH   3   4
ENDBRANCH   2   3
ENDBRANCH   1   2
BRANCH   1  10
ATOM     10  C   UNL     1     101.394 -69.461   5.428  1.00  0.00     0.000 C 
BRANCH  10  11
ATOM     11  C   UNL     1     101.961 -69.214   6.836  1.00  0.00    -0.000 C 
BRANCH  11  12
ATOM     12  C   UNL     1     100.869 -68.869   7.862  1.00  0.00    -0.000 C 
BRANCH  12  13
ATOM     13  C   UNL     1     101.445 -68.504   9.238  1.00  0.00    -0.000 C 
BRANCH  13  14
ATOM     14  C   UNL     1     100.396 -68.701  10.342  1.00  0.00    -0.000 C 
BRANCH  14  15
ATOM     15  C   UNL     1     100.261 -67.473  11.255  1.00  0.00    -0.003 C 
ATOM     16  C   UNL     1     100.105 -66.168  10.473  1.00  0.00     0.004 C 
ENDBRANCH  14  15
ENDBRANCH  13  14
ENDBRANCH  12  13
ENDBRANCH  11  12
ENDBRANCH  10  11
ENDBRANCH   1  10
TORSDOF 12
ENDMDL
MODEL 2
REMARK VINA RESULT:    -4.361      1.402      1.944
REMARK INTER + INTRA:          -8.153
REMARK INTER:                  -7.098
REMARK INTRA:                  -1.055
REMARK UNBOUND:                -0.733
REMARK SMILES CCCCCCCCCCCCCC(=O)[O-]
REMARK SMILES IDX 8 1 9 2 10 3 11 4 12 5 13 6 14 7 15 8 16 9 7 10 6 11 5 12
REMARK SMILES IDX 4 13 3 14 2 15 1 16
REMARK H PARENT
REMARK Flexibility Score: inf
ROOT
ATOM      1  C   UNL     1      99.985 -69.693   5.764  1.00  0.00     0.000 C 
ENDROOT
BRANCH   1   2
ATOM      2  C   UNL     1      99.971 -68.831   4.493  1.00  0.00     0.000 C 
BRANCH   2   3
ATOM      3  C   UNL     1      98.585 -68.217   4.261  1.00  0.00     0.000 C 
BRANCH   3   4
ATOM      4  C   UNL     1      98.700 -66.789   3.707  1.00  0.00     0.000 C 
BRANCH   4   5
ATOM      5  C   UNL     1      99.605 -66.705   2.469  1.00  0.00     0.006 C 
BRANCH   5   6
ATOM      6  C   UNL     1      98.918 -67.222   1.198  1.00  0.00     0.053 C 
BRANCH   6   7
ATOM      7  C   UNL     1      99.629 -68.431   0.676  1.00  0.00     0.041 C 
ATOM      8  O   UNL     1     100.870 -68.395   0.468  1.00  0.00    -0.550 OA
ATOM      9  O   UNL     1      98.929 -69.612   0.465  1.00  0.00    -0.550 OA
ENDBRANCH   6   7
ENDBRANCH   5   6
ENDBRANCH   4   5
ENDBRANCH   3   4
ENDBRANCH   2   3
ENDBRANCH   1   2
BRANCH   1  10
ATOM     10  C   UNL     1     100.743 -69.027   6.923  1.00  0.00     0.000 C 
BRANCH  10  11
ATOM     11  C   UNL     1     101.370 -67.680   6.521  1.00  0.00    -0.000 C 
BRANCH  11  12
ATOM     12  C   UNL     1     101.025 -66.550   7.505  1.00  0.00    -0.000 C 
BRANCH  12  13
ATOM     13  C   UNL     1     101.388 -66.898   8.956  1.00  0.00    -0.000 C 
BRANCH  13  14
ATOM     14  C   UNL     1     100.328 -66.365   9.931  1.00  0.00    -0.000 C 
BRANCH  14  15
ATOM     15  C   UNL     1     100.014 -67.356  11.062  1.00  0.00    -0.003 C 
ATOM     16  C   UNL     1     100.633 -68.734  10.831  1.00  0.00     0.004 C 
ENDBRANCH  14  15
ENDBRANCH  13  14
ENDBRANCH  12  13
ENDBRANCH  11  12
ENDBRANCH  10  11
ENDBRANCH   1  10
TORSDOF 12
ENDMDL
MODEL 3
REMARK VINA RESULT:    -4.311      1.661      2.157
REMARK INTER + INTRA:          -8.068
REMARK INTER:                  -7.116
REMARK INTRA:                  -0.952
REMARK UNBOUND:                -0.733
REMARK SMILES CCCCCCCCCCCCCC(=O)[O-]
REMARK SMILES IDX 8 1 9 2 10 3 11 4 12 5 13 6 14 7 15 8 16 9 7 10 6 11 5 12
REMARK SMILES IDX 4 13 3 14 2 15 1 16
REMARK H PARENT
REMARK Flexibility Score: inf
ROOT
ATOM      1  C   UNL     1      98.658 -68.643   4.265  1.00  0.00     0.000 C 
ENDROOT
BRANCH   1   2
ATOM      2  C   UNL     1      97.709 -67.494   3.895  1.00  0.00     0.000 C 
BRANCH   2   3
ATOM      3  C   UNL     1      98.481 -66.181   3.713  1.00  0.00     0.000 C 
BRANCH   3   4
ATOM      4  C   UNL     1      98.226 -65.580   2.323  1.00  0.00     0.000 C 
BRANCH   4   5
ATOM      5  C   UNL     1      99.385 -65.833   1.347  1.00  0.00     0.006 C 
BRANCH   5   6
ATOM      6  C   UNL     1      99.087 -66.968   0.358  1.00  0.00     0.053 C 
BRANCH   6   7
ATOM      7  C   UNL     1      99.698 -68.248   0.835  1.00  0.00     0.041 C 
ATOM      8  O   UNL     1      99.121 -69.345   0.614  1.00  0.00    -0.550 OA
ATOM      9  O   UNL     1     100.928 -68.234   1.481  1.00  0.00    -0.550 OA
ENDBRANCH   6   7
ENDBRANCH   5   6
ENDBRANCH   4   5
ENDBRANCH   3   4
ENDBRANCH   2   3
ENDBRANCH   1   2
BRANCH   1  10
ATOM     10  C   UNL     1      99.878 -68.167   5.068  1.00  0.00     0.000 C 
BRANCH  10  11
ATOM     11  C   UNL     1     100.452 -69.266   5.979  1.00  0.00    -0.000 C 
BRANCH  11  12
ATOM     12  C   UNL     1     101.490 -68.726   6.976  1.00  0.00    -0.000 C 
BRANCH  12  13
ATOM     13  C   UNL     1     100.936 -68.619   8.405  1.00  0.00    -0.000 C 
BRANCH  13  14
ATOM     14  C   UNL     1     100.848 -67.151   8.850  1.00  0.00    -0.000 C 
BRANCH  14  15
ATOM     15  C   UNL     1     100.245 -66.995  10.254  1.00  0.00    -0.003 C 
ATOM     16  C   UNL     1     100.240 -68.303  11.045  1.00  0.00     0.004 C 
ENDBRANCH  14  15
ENDBRANCH  13  14
ENDBRANCH  12  13
ENDBRANCH  11  12
ENDBRANCH  10  11
ENDBRANCH   1  10
TORSDOF 12
ENDMDL
MODEL 4
REMARK VINA RESULT:    -4.187      1.267      2.567
REMARK INTER + INTRA:          -7.858
REMARK INTER:                  -6.948
REMARK INTRA:                  -0.910
REMARK UNBOUND:                -0.733
REMARK SMILES CCCCCCCCCCCCCC(=O)[O-]
REMARK SMILES IDX 8 1 9 2 10 3 11 4 12 5 13 6 14 7 15 8 16 9 7 10 6 11 5 12
REMARK SMILES IDX 4 13 3 14 2 15 1 16
REMARK H PARENT
REMARK Flexibility Score: inf
ROOT
ATOM      1  C   UNL     1     101.356 -68.232   7.033  1.00  0.00     0.000 C 
ENDROOT
BRANCH   1   2
ATOM      2  C   UNL     1     101.675 -69.221   5.903  1.00  0.00     0.000 C 
BRANCH   2   3
ATOM      3  C   UNL     1     100.394 -69.858   5.352  1.00  0.00     0.000 C 
BRANCH   3   4
ATOM      4  C   UNL     1      99.330 -68.790   5.058  1.00  0.00     0.000 C 
BRANCH   4   5
ATOM      5  C   UNL     1      99.583 -68.049   3.736  1.00  0.00     0.006 C 
BRANCH   5   6
ATOM      6  C   UNL     1      98.482 -68.302   2.698  1.00  0.00     0.053 C 
BRANCH   6   7
ATOM      7  C   UNL     1      99.064 -68.339   1.320  1.00  0.00     0.041 C 
ATOM      8  O   UNL     1      99.141 -69.429   0.694  1.00  0.00    -0.550 OA
ATOM      9  O   UNL     1      99.477 -67.163   0.708  1.00  0.00    -0.550 OA
ENDBRANCH   6   7
ENDBRANCH   5   6
ENDBRANCH   4   5
ENDBRANCH   3   4
ENDBRANCH   2   3
ENDBRANCH   1   2
BRANCH   1  10
ATOM     10  C   UNL     1     101.973 -68.651   8.377  1.00  0.00     0.000 C 
BRANCH  10  11
ATOM     11  C   UNL     1     100.909 -68.977   9.440  1.00  0.00    -0.000 C 
BRANCH  11  12
ATOM     12  C   UNL     1     101.492 -69.041  10.861  1.00  0.00    -0.000 C 
BRANCH  12  13
ATOM     13  C   UNL     1     101.085 -67.835  11.721  1.00  0.00    -0.000 C 
BRANCH  13  14
ATOM     14  C   UNL     1      99.787 -67.201  11.199  1.00  0.00    -0.000 C 
BRANCH  14  15
ATOM     15  C   UNL     1      99.900 -65.678  11.032  1.00  0.00    -0.003 C 
ATOM     16  C   UNL     1     100.367 -65.269   9.635  1.00  0.00     0.004 C 
ENDBRANCH  14  15
ENDBRANCH  13  14
ENDBRANCH  12  13
ENDBRANCH  11  12
ENDBRANCH  10  11
ENDBRANCH   1  10
TORSDOF 12
ENDMDL
MODEL 5
REMARK VINA RESULT:    -4.065      1.535      2.057
REMARK INTER + INTRA:          -7.651
REMARK INTER:                  -7.085
REMARK INTRA:                  -0.566
REMARK UNBOUND:                -0.733
REMARK SMILES CCCCCCCCCCCCCC(=O)[O-]
REMARK SMILES IDX 8 1 9 2 10 3 11 4 12 5 13 6 14 7 15 8 16 9 7 10 6 11 5 12
REMARK SMILES IDX 4 13 3 14 2 15 1 16
REMARK H PARENT
REMARK Flexibility Score: inf
ROOT
ATOM      1  C   UNL     1      99.451 -68.543   4.740  1.00  0.00     0.000 C 
ENDROOT
BRANCH   1   2
ATOM      2  C   UNL     1     100.117 -68.282   3.381  1.00  0.00     0.000 C 
BRANCH   2   3
ATOM      3  C   UNL     1      99.070 -68.201   2.263  1.00  0.00     0.000 C 
BRANCH   3   4
ATOM      4  C   UNL     1      99.723 -67.842   0.921  1.00  0.00     0.000 C 
BRANCH   4   5
ATOM      5  C   UNL     1      99.094 -68.590  -0.264  1.00  0.00     0.006 C 
BRANCH   5   6
ATOM      6  C   UNL     1      99.213 -67.815  -1.583  1.00  0.00     0.053 C 
BRANCH   6   7
ATOM      7  C   UNL     1      97.950 -67.063  -1.862  1.00  0.00     0.041 C 
ATOM      8  O   UNL     1      97.786 -65.906  -1.395  1.00  0.00    -0.550 OA
ATOM      9  O   UNL     1      96.974 -67.622  -2.677  1.00  0.00    -0.550 OA
ENDBRANCH   6   7
ENDBRANCH   5   6
ENDBRANCH   4   5
ENDBRANCH   3   4
ENDBRANCH   2   3
ENDBRANCH   1   2
BRANCH   1  10
ATOM     10  C   UNL     1     100.142 -69.666   5.530  1.00  0.00     0.000 C 
BRANCH  10  11
ATOM     11  C   UNL     1     101.182 -69.132   6.530  1.00  0.00    -0.000 C 
BRANCH  11  12
ATOM     12  C   UNL     1     100.950 -67.656   6.893  1.00  0.00    -0.000 C 
BRANCH  12  13
ATOM     13  C   UNL     1     100.915 -67.419   8.410  1.00  0.00    -0.000 C 
BRANCH  13  14
ATOM     14  C   UNL     1     100.874 -68.752   9.173  1.00  0.00    -0.000 C 
BRANCH  14  15
ATOM     15  C   UNL     1     100.456 -68.579  10.641  1.00  0.00    -0.003 C 
ATOM     16  C   UNL     1     100.063 -67.141  10.980  1.00  0.00     0.004 C 
ENDBRANCH  14  15
ENDBRANCH  13  14
ENDBRANCH  12  13
ENDBRANCH  11  12
ENDBRANCH  10  11
ENDBRANCH   1  10
TORSDOF 12
ENDMDL
MODEL 6
REMARK VINA RESULT:    -4.023      1.544      2.696
REMARK INTER + INTRA:          -7.579
REMARK INTER:                  -6.322
REMARK INTRA:                  -1.258
REMARK UNBOUND:                -0.733
REMARK SMILES CCCCCCCCCCCCCC(=O)[O-]
REMARK SMILES IDX 8 1 9 2 10 3 11 4 12 5 13 6 14 7 15 8 16 9 7 10 6 11 5 12
REMARK SMILES IDX 4 13 3 14 2 15 1 16
REMARK H PARENT
REMARK Flexibility Score: inf
ROOT
ATOM      1  C   UNL     1     100.643 -69.042   7.243  1.00  0.00     0.000 C 
ENDROOT
BRANCH   1   2
ATOM      2  C   UNL     1     100.573 -69.668   5.842  1.00  0.00     0.000 C 
BRANCH   2   3
ATOM      3  C   UNL     1     101.679 -69.114   4.937  1.00  0.00     0.000 C 
BRANCH   3   4
ATOM      4  C   UNL     1     101.084 -68.403   3.712  1.00  0.00     0.000 C 
BRANCH   4   5
ATOM      5  C   UNL     1      99.981 -67.401   4.086  1.00  0.00     0.006 C 
BRANCH   5   6
ATOM      6  C   UNL     1      98.599 -67.826   3.574  1.00  0.00     0.053 C 
BRANCH   6   7
ATOM      7  C   UNL     1      98.650 -68.101   2.104  1.00  0.00     0.041 C 
ATOM      8  O   UNL     1      98.908 -67.172   1.294  1.00  0.00    -0.550 OA
ATOM      9  O   UNL     1      98.460 -69.394   1.632  1.00  0.00    -0.550 OA
ENDBRANCH   6   7
ENDBRANCH   5   6
ENDBRANCH   4   5
ENDBRANCH   3   4
ENDBRANCH   2   3
ENDBRANCH   1   2
BRANCH   1  10
ATOM     10  C   UNL     1     101.680 -67.912   7.334  1.00  0.00     0.000 C 
BRANCH  10  11
ATOM     11  C   UNL     1     101.050 -66.560   7.707  1.00  0.00    -0.000 C 
BRANCH  11  12
ATOM     12  C   UNL     1     101.386 -66.126   9.143  1.00  0.00    -0.000 C 
BRANCH  12  13
ATOM     13  C   UNL     1     100.149 -66.082  10.052  1.00  0.00    -0.000 C 
BRANCH  13  14
ATOM     14  C   UNL     1     100.312 -67.032  11.248  1.00  0.00    -0.000 C 
BRANCH  14  15
ATOM     15  C   UNL     1     100.214 -68.511  10.845  1.00  0.00    -0.003 C 
ATOM     16  C   UNL     1     101.535 -69.261  11.017  1.00  0.00     0.004 C 
ENDBRANCH  14  15
ENDBRANCH  13  14
ENDBRANCH  12  13
ENDBRANCH  11  12
ENDBRANCH  10  11
ENDBRANCH   1  10
TORSDOF 12
ENDMDL
MODEL 7
REMARK VINA RESULT:    -3.868      2.017      3.918
REMARK INTER + INTRA:          -7.315
REMARK INTER:                  -6.048
REMARK INTRA:                  -1.268
REMARK UNBOUND:                -0.733
REMARK SMILES CCCCCCCCCCCCCC(=O)[O-]
REMARK SMILES IDX 8 1 9 2 10 3 11 4 12 5 13 6 14 7 15 8 16 9 7 10 6 11 5 12
REMARK SMILES IDX 4 13 3 14 2 15 1 16
REMARK H PARENT
REMARK Flexibility Score: inf
ROOT
ATOM      1  C   UNL     1      98.428 -66.277   1.943  1.00  0.00     0.000 C 
ENDROOT
BRANCH   1   2
ATOM      2  C   UNL     1      99.894 -66.207   1.489  1.00  0.00     0.000 C 
BRANCH   2   3
ATOM      3  C   UNL     1     100.301 -67.485   0.745  1.00  0.00     0.000 C 
BRANCH   3   4
ATOM      4  C   UNL     1      99.119 -68.460   0.639  1.00  0.00     0.000 C 
BRANCH   4   5
ATOM      5  C   UNL     1      98.828 -68.882  -0.809  1.00  0.00     0.006 C 
BRANCH   5   6
ATOM      6  C   UNL     1      99.130 -67.770  -1.821  1.00  0.00     0.053 C 
BRANCH   6   7
ATOM      7  C   UNL     1      97.896 -66.969  -2.100  1.00  0.00     0.041 C 
ATOM      8  O   UNL     1      97.042 -67.389  -2.923  1.00  0.00    -0.550 OA
ATOM      9  O   UNL     1      97.668 -65.783  -1.414  1.00  0.00    -0.550 OA
ENDBRANCH   6   7
ENDBRANCH   5   6
ENDBRANCH   4   5
ENDBRANCH   3   4
ENDBRANCH   2   3
ENDBRANCH   1   2
BRANCH   1  10
ATOM     10  C   UNL     1      98.285 -66.324   3.472  1.00  0.00     0.000 C 
BRANCH  10  11
ATOM     11  C   UNL     1      97.717 -67.663   3.972  1.00  0.00    -0.000 C 
BRANCH  11  12
ATOM     12  C   UNL     1      98.818 -68.675   4.330  1.00  0.00    -0.000 C 
BRANCH  12  13
ATOM     13  C   UNL     1     100.044 -68.011   4.975  1.00  0.00    -0.000 C 
BRANCH  13  14
ATOM     14  C   UNL     1     100.618 -68.890   6.096  1.00  0.00    -0.000 C 
BRANCH  14  15
ATOM     15  C   UNL     1     101.201 -68.064   7.253  1.00  0.00    -0.003 C 
ATOM     16  C   UNL     1     100.912 -68.678   8.623  1.00  0.00     0.004 C 
ENDBRANCH  14  15
ENDBRANCH  13  14
ENDBRANCH  12  13
ENDBRANCH  11  12
ENDBRANCH  10  11
ENDBRANCH   1  10
TORSDOF 12
ENDMDL
MODEL 8
REMARK VINA RESULT:    -3.801      4.130      8.682
REMARK INTER + INTRA:          -7.201
REMARK INTER:                  -6.628
REMARK INTRA:                  -0.574
REMARK UNBOUND:                -0.733
REMARK SMILES CCCCCCCCCCCCCC(=O)[O-]
REMARK SMILES IDX 8 1 9 2 10 3 11 4 12 5 13 6 14 7 15 8 16 9 7 10 6 11 5 12
REMARK SMILES IDX 4 13 3 14 2 15 1 16
REMARK H PARENT
REMARK Flexibility Score: inf
ROOT
ATOM      1  C   UNL     1      99.453 -68.207   4.578  1.00  0.00     0.000 C 
ENDROOT
BRANCH   1   2
ATOM      2  C   UNL     1      99.855 -69.425   5.422  1.00  0.00     0.000 C 
BRANCH   2   3
ATOM      3  C   UNL     1     101.376 -69.626   5.408  1.00  0.00     0.000 C 
BRANCH   3   4
ATOM      4  C   UNL     1     102.007 -69.155   6.726  1.00  0.00     0.000 C 
BRANCH   4   5
ATOM      5  C   UNL     1     100.965 -68.917   7.830  1.00  0.00     0.006 C 
BRANCH   5   6
ATOM      6  C   UNL     1     101.595 -68.438   9.144  1.00  0.00     0.053 C 
BRANCH   6   7
ATOM      7  C   UNL     1     100.533 -68.140  10.154  1.00  0.00     0.041 C 
ATOM      8  O   UNL     1     100.126 -69.044  10.930  1.00  0.00    -0.550 OA
ATOM      9  O   UNL     1     100.025 -66.853  10.271  1.00  0.00    -0.550 OA
ENDBRANCH   6   7
ENDBRANCH   5   6
ENDBRANCH   4   5
ENDBRANCH   3   4
ENDBRANCH   2   3
ENDBRANCH   1   2
BRANCH   1  10
ATOM     10  C   UNL     1      98.645 -68.594   3.330  1.00  0.00     0.000 C 
BRANCH  10  11
ATOM     11  C   UNL     1      98.894 -67.643   2.146  1.00  0.00    -0.000 C 
BRANCH  11  12
ATOM     12  C   UNL     1     100.214 -67.941   1.416  1.00  0.00    -0.000 C 
BRANCH  12  13
ATOM     13  C   UNL     1     100.062 -67.918  -0.112  1.00  0.00    -0.000 C 
BRANCH  13  14
ATOM     14  C   UNL     1      98.811 -68.693  -0.551  1.00  0.00    -0.000 C 
BRANCH  14  15
ATOM     15  C   UNL     1      98.654 -68.744  -2.079  1.00  0.00    -0.003 C 
ATOM     16  C   UNL     1      97.669 -67.702  -2.608  1.00  0.00     0.004 C 
ENDBRANCH  14  15
ENDBRANCH  13  14
ENDBRANCH  12  13
ENDBRANCH  11  12
ENDBRANCH  10  11
ENDBRANCH   1  10
TORSDOF 12
ENDMDL
MODEL 9
REMARK VINA RESULT:    -3.749      2.235      3.704
REMARK INTER + INTRA:          -7.113
REMARK INTER:                  -5.591
REMARK INTRA:                  -1.521
REMARK UNBOUND:                -0.733
REMARK SMILES CCCCCCCCCCCCCC(=O)[O-]
REMARK SMILES IDX 8 1 9 2 10 3 11 4 12 5 13 6 14 7 15 8 16 9 7 10 6 11 5 12
REMARK SMILES IDX 4 13 3 14 2 15 1 16
REMARK H PARENT
REMARK Flexibility Score: inf
ROOT
ATOM      1  C   UNL     1      97.910 -67.463   4.003  1.00  0.00     0.000 C 
ENDROOT
BRANCH   1   2
ATOM      2  C   UNL     1      98.353 -68.338   2.821  1.00  0.00     0.000 C 
BRANCH   2   3
ATOM      3  C   UNL     1      98.809 -67.474   1.639  1.00  0.00     0.000 C 
BRANCH   3   4
ATOM      4  C   UNL     1      99.969 -68.140   0.885  1.00  0.00     0.000 C 
BRANCH   4   5
ATOM      5  C   UNL     1     100.089 -67.655  -0.568  1.00  0.00     0.006 C 
BRANCH   5   6
ATOM      6  C   UNL     1      98.822 -66.942  -1.059  1.00  0.00     0.053 C 
BRANCH   6   7
ATOM      7  C   UNL     1      98.051 -67.829  -1.984  1.00  0.00     0.041 C 
ATOM      8  O   UNL     1      97.037 -67.387  -2.586  1.00  0.00    -0.550 OA
ATOM      9  O   UNL     1      98.479 -69.130  -2.219  1.00  0.00    -0.550 OA
ENDBRANCH   6   7
ENDBRANCH   5   6
ENDBRANCH   4   5
ENDBRANCH   3   4
ENDBRANCH   2   3
ENDBRANCH   1   2
BRANCH   1  10
ATOM     10  C   UNL     1      98.645 -66.114   4.047  1.00  0.00     0.000 C 
BRANCH  10  11
ATOM     11  C   UNL     1      99.828 -66.117   5.031  1.00  0.00    -0.000 C 
BRANCH  11  12
ATOM     12  C   UNL     1     101.160 -66.480   4.353  1.00  0.00    -0.000 C 
BRANCH  12  13
ATOM     13  C   UNL     1     101.888 -67.633   5.060  1.00  0.00    -0.000 C 
BRANCH  13  14
ATOM     14  C   UNL     1     101.259 -68.985   4.695  1.00  0.00    -0.000 C 
BRANCH  14  15
ATOM     15  C   UNL     1     100.504 -69.622   5.872  1.00  0.00    -0.003 C 
ATOM     16  C   UNL     1     100.832 -68.963   7.212  1.00  0.00     0.004 C 
ENDBRANCH  14  15
ENDBRANCH  13  14
ENDBRANCH  12  13
ENDBRANCH  11  12
ENDBRANCH  10  11
ENDBRANCH   1  10
TORSDOF 12
ENDMDL
