MODEL 1
REMARK VINA RESULT:    -4.878      0.000      0.000
REMARK INTER + INTRA:         -11.508
REMARK INTER:                  -9.441
REMARK INTRA:                  -2.067
REMARK UNBOUND:                -2.067
REMARK SMILES CCCCCCCCCCCCCCCCCC(=O)[O-]
REMARK SMILES IDX 10 1 11 2 12 3 13 4 14 5 15 6 16 7 17 8 18 9 19 10 20 11
REMARK SMILES IDX 9 12 8 13 7 14 6 15 5 16 4 17 3 18 2 19 1 20
REMARK H PARENT
REMARK Flexibility Score: inf
ROOT
ATOM      1  C   UNL     1     -11.968 -27.614 -34.950  1.00  0.00     0.000 C 
ENDROOT
BRANCH   1   2
ATOM      2  C   UNL     1     -13.380 -27.095 -35.275  1.00  0.00     0.000 C 
BRANCH   2   3
ATOM      3  C   UNL     1     -13.349 -25.746 -36.026  1.00  0.00     0.000 C 
BRANCH   3   4
ATOM      4  C   UNL     1     -12.331 -24.738 -35.459  1.00  0.00     0.000 C 
BRANCH   4   5
ATOM      5  C   UNL     1     -12.600 -23.264 -35.810  1.00  0.00     0.000 C 
BRANCH   5   6
ATOM      6  C   UNL     1     -12.989 -22.419 -34.586  1.00  0.00     0.000 C 
BRANCH   6   7
ATOM      7  C   UNL     1     -12.231 -21.081 -34.515  1.00  0.00     0.006 C 
BRANCH   7   8
ATOM      8  C   UNL     1     -11.606 -20.644 -35.851  1.00  0.00     0.053 C 
BRANCH   8   9
ATOM      9  C   UNL     1     -10.310 -19.913 -35.670  1.00  0.00     0.041 C 
ATOM     10  O   UNL     1      -9.399 -20.014 -36.532  1.00  0.00    -0.550 OA
ATOM     11  O   UNL     1     -10.122 -19.088 -34.566  1.00  0.00    -0.550 OA
ENDBRANCH   8   9
ENDBRANCH   7   8
ENDBRANCH   6   7
ENDBRANCH   5   6
ENDBRANCH   4   5
ENDBRANCH   3   4
ENDBRANCH   2   3
ENDBRANCH   1   2
BRANCH   1  12
ATOM     12  C   UNL     1     -11.848 -28.096 -33.488  1.00  0.00     0.000 C 
BRANCH  12  13
ATOM     13  C   UNL     1     -13.186 -28.112 -32.730  1.00  0.00    -0.000 C 
BRANCH  13  14
ATOM     14  C   UNL     1     -13.050 -28.642 -31.294  1.00  0.00    -0.000 C 
BRANCH  14  15
ATOM     15  C   UNL     1     -12.683 -27.537 -30.290  1.00  0.00    -0.000 C 
BRANCH  15  16
ATOM     16  C   UNL     1     -13.645 -26.336 -30.352  1.00  0.00    -0.000 C 
BRANCH  16  17
ATOM     17  C   UNL     1     -12.905 -24.994 -30.476  1.00  0.00    -0.000 C 
BRANCH  17  18
ATOM     18  C   UNL     1     -12.340 -24.759 -31.885  1.00  0.00    -0.000 C 
BRANCH  18  19
ATOM     19  C   UNL     1     -10.855 -24.383 -31.824  1.00  0.00    -0.003 C 
ATOM     20  C   UNL     1     -10.002 -25.572 -31.391  1.00  0.00     0.004 C 
ENDBRANCH  18  19
ENDBRANCH  17  18
ENDBRANCH  16  17
ENDBRANCH  15  16
ENDBRANCH  14  15
ENDBRANCH  13  14
ENDBRANCH  12  13
ENDBRANCH   1  12
TORSDOF 16
ENDMDL
MODEL 2
REMARK VINA RESULT:    -4.839      1.647      2.097
REMARK INTER + INTRA:         -11.433
REMARK INTER:                  -9.302
REMARK INTRA:                  -2.131
REMARK UNBOUND:                -2.067
REMARK SMILES CCCCCCCCCCCCCCCCCC(=O)[O-]
REMARK SMILES IDX 10 1 11 2 12 3 13 4 14 5 15 6 16 7 17 8 18 9 19 10 20 11
REMARK SMILES IDX 9 12 8 13 7 14 6 15 5 16 4 17 3 18 2 19 1 20
REMARK H PARENT
REMARK Flexibility Score: inf
ROOT
ATOM      1  C   UNL     1     -12.115 -27.807 -34.884  1.00  0.00     0.000 C 
ENDROOT
BRANCH   1   2
ATOM      2  C   UNL     1     -13.515 -27.443 -35.411  1.00  0.00     0.000 C 
BRANCH   2   3
ATOM      3  C   UNL     1     -13.565 -26.019 -36.006  1.00  0.00     0.000 C 
BRANCH   3   4
ATOM      4  C   UNL     1     -12.570 -25.036 -35.359  1.00  0.00     0.000 C 
BRANCH   4   5
ATOM      5  C   UNL     1     -12.630 -23.594 -35.895  1.00  0.00     0.000 C 
BRANCH   5   6
ATOM      6  C   UNL     1     -12.899 -22.558 -34.791  1.00  0.00     0.000 C 
BRANCH   6   7
ATOM      7  C   UNL     1     -12.063 -21.275 -34.956  1.00  0.00     0.006 C 
BRANCH   7   8
ATOM      8  C   UNL     1     -12.564 -20.089 -34.114  1.00  0.00     0.053 C 
BRANCH   8   9
ATOM      9  C   UNL     1     -13.675 -19.337 -34.782  1.00  0.00     0.041 C 
ATOM     10  O   UNL     1     -13.655 -19.150 -36.027  1.00  0.00    -0.550 OA
ATOM     11  O   UNL     1     -14.754 -18.875 -34.037  1.00  0.00    -0.550 OA
ENDBRANCH   8   9
ENDBRANCH   7   8
ENDBRANCH   6   7
ENDBRANCH   5   6
ENDBRANCH   4   5
ENDBRANCH   3   4
ENDBRANCH   2   3
ENDBRANCH   1   2
BRANCH   1  12
ATOM     12  C   UNL     1     -12.180 -28.630 -33.580  1.00  0.00     0.000 C 
BRANCH  12  13
ATOM     13  C   UNL     1     -13.177 -28.075 -32.548  1.00  0.00    -0.000 C 
BRANCH  13  14
ATOM     14  C   UNL     1     -13.009 -28.711 -31.159  1.00  0.00    -0.000 C 
BRANCH  14  15
ATOM     15  C   UNL     1     -11.652 -28.379 -30.517  1.00  0.00    -0.000 C 
BRANCH  15  16
ATOM     16  C   UNL     1     -11.419 -26.864 -30.373  1.00  0.00    -0.000 C 
BRANCH  16  17
ATOM     17  C   UNL     1     -10.245 -26.364 -31.231  1.00  0.00    -0.000 C 
BRANCH  17  18
ATOM     18  C   UNL     1     -10.686 -25.361 -32.307  1.00  0.00    -0.000 C 
BRANCH  18  19
ATOM     19  C   UNL     1     -11.807 -24.454 -31.785  1.00  0.00    -0.003 C 
ATOM     20  C   UNL     1     -11.308 -23.029 -31.566  1.00  0.00     0.004 C 
ENDBRANCH  18  19
ENDBRANCH  17  18
ENDBRANCH  16  17
ENDBRANCH  15  16
ENDBRANCH  14  15
ENDBRANCH  13  14
ENDBRANCH  12  13
ENDBRANCH   1  12
TORSDOF 16
ENDMDL
MODEL 3
REMARK VINA RESULT:    -4.705      1.802      5.251
REMARK INTER + INTRA:         -11.172
REMARK INTER:                  -9.137
REMARK INTRA:                  -2.035
REMARK UNBOUND:                -2.067
REMARK SMILES CCCCCCCCCCCCCCCCCC(=O)[O-]
REMARK SMILES IDX 10 1 11 2 12 3 13 4 14 5 15 6 16 7 17 8 18 9 19 10 20 11
REMARK SMILES IDX 9 12 8 13 7 14 6 15 5 16 4 17 3 18 2 19 1 20
REMARK H PARENT
REMARK Flexibility Score: inf
ROOT
ATOM      1  C   UNL     1     -12.982 -28.130 -34.381  1.00  0.00     0.000 C 
ENDROOT
BRANCH   1   2
ATOM      2  C   UNL     1     -13.378 -27.582 -32.998  1.00  0.00     0.000 C 
BRANCH   2   3
ATOM      3  C   UNL     1     -12.975 -28.536 -31.853  1.00  0.00     0.000 C 
BRANCH   3   4
ATOM      4  C   UNL     1     -12.306 -27.829 -30.658  1.00  0.00     0.000 C 
BRANCH   4   5
ATOM      5  C   UNL     1     -10.767 -27.816 -30.680  1.00  0.00     0.000 C 
BRANCH   5   6
ATOM      6  C   UNL     1     -10.188 -26.465 -31.134  1.00  0.00     0.000 C 
BRANCH   6   7
ATOM      7  C   UNL     1     -11.034 -25.264 -30.673  1.00  0.00     0.006 C 
BRANCH   7   8
ATOM      8  C   UNL     1     -11.174 -24.155 -31.730  1.00  0.00     0.053 C 
BRANCH   8   9
ATOM      9  C   UNL     1     -10.415 -22.915 -31.368  1.00  0.00     0.041 C 
ATOM     10  O   UNL     1      -9.376 -22.991 -30.661  1.00  0.00    -0.550 OA
ATOM     11  O   UNL     1     -10.833 -21.676 -31.841  1.00  0.00    -0.550 OA
ENDBRANCH   8   9
ENDBRANCH   7   8
ENDBRANCH   6   7
ENDBRANCH   5   6
ENDBRANCH   4   5
ENDBRANCH   3   4
ENDBRANCH   2   3
ENDBRANCH   1   2
BRANCH   1  12
ATOM     12  C   UNL     1     -11.501 -27.847 -34.716  1.00  0.00     0.000 C 
BRANCH  12  13
ATOM     13  C   UNL     1     -11.136 -26.353 -34.691  1.00  0.00    -0.000 C 
BRANCH  13  14
ATOM     14  C   UNL     1     -11.544 -25.620 -35.979  1.00  0.00    -0.000 C 
BRANCH  14  15
ATOM     15  C   UNL     1     -12.838 -24.807 -35.811  1.00  0.00    -0.000 C 
BRANCH  15  16
ATOM     16  C   UNL     1     -12.595 -23.288 -35.871  1.00  0.00    -0.000 C 
BRANCH  16  17
ATOM     17  C   UNL     1     -12.922 -22.585 -34.543  1.00  0.00    -0.000 C 
BRANCH  17  18
ATOM     18  C   UNL     1     -13.277 -21.103 -34.733  1.00  0.00    -0.000 C 
BRANCH  18  19
ATOM     19  C   UNL     1     -12.469 -20.489 -35.882  1.00  0.00    -0.003 C 
ATOM     20  C   UNL     1     -11.069 -20.092 -35.423  1.00  0.00     0.004 C 
ENDBRANCH  18  19
ENDBRANCH  17  18
ENDBRANCH  16  17
ENDBRANCH  15  16
ENDBRANCH  14  15
ENDBRANCH  13  14
ENDBRANCH  12  13
ENDBRANCH   1  12
TORSDOF 16
ENDMDL
MODEL 4
REMARK VINA RESULT:    -4.693      1.517      3.747
REMARK INTER + INTRA:         -11.149
REMARK INTER:                  -9.128
REMARK INTRA:                  -2.021
REMARK UNBOUND:                -2.067
REMARK SMILES CCCCCCCCCCCCCCCCCC(=O)[O-]
REMARK SMILES IDX 10 1 11 2 12 3 13 4 14 5 15 6 16 7 17 8 18 9 19 10 20 11
REMARK SMILES IDX 9 12 8 13 7 14 6 15 5 16 4 17 3 18 2 19 1 20
REMARK H PARENT
REMARK Flexibility Score: inf
ROOT
ATOM      1  C   UNL     1     -10.141 -26.888 -30.902  1.00  0.00     0.000 C 
ENDROOT
BRANCH   1   2
ATOM      2  C   UNL     1     -10.510 -25.405 -31.087  1.00  0.00     0.000 C 
BRANCH   2   3
ATOM      3  C   UNL     1     -11.066 -25.112 -32.498  1.00  0.00     0.000 C 
BRANCH   3   4
ATOM      4  C   UNL     1     -12.052 -23.929 -32.547  1.00  0.00     0.000 C 
BRANCH   4   5
ATOM      5  C   UNL     1     -11.649 -22.702 -31.709  1.00  0.00     0.000 C 
BRANCH   5   6
ATOM      6  C   UNL     1     -11.441 -21.439 -32.561  1.00  0.00     0.000 C 
BRANCH   6   7
ATOM      7  C   UNL     1     -12.123 -21.525 -33.938  1.00  0.00     0.006 C 
BRANCH   7   8
ATOM      8  C   UNL     1     -11.571 -20.530 -34.973  1.00  0.00     0.053 C 
BRANCH   8   9
ATOM      9  C   UNL     1     -12.644 -19.948 -35.842  1.00  0.00     0.041 C 
ATOM     10  O   UNL     1     -12.343 -19.175 -36.789  1.00  0.00    -0.550 OA
ATOM     11  O   UNL     1     -13.976 -20.288 -35.632  1.00  0.00    -0.550 OA
ENDBRANCH   8   9
ENDBRANCH   7   8
ENDBRANCH   6   7
ENDBRANCH   5   6
ENDBRANCH   4   5
ENDBRANCH   3   4
ENDBRANCH   2   3
ENDBRANCH   1   2
BRANCH   1  12
ATOM     12  C   UNL     1     -11.128 -27.620 -29.968  1.00  0.00     0.000 C 
BRANCH  12  13
ATOM     13  C   UNL     1     -12.600 -27.479 -30.391  1.00  0.00    -0.000 C 
BRANCH  13  14
ATOM     14  C   UNL     1     -13.043 -28.572 -31.376  1.00  0.00    -0.000 C 
BRANCH  14  15
ATOM     15  C   UNL     1     -13.188 -28.047 -32.814  1.00  0.00    -0.000 C 
BRANCH  15  16
ATOM     16  C   UNL     1     -11.984 -28.410 -33.701  1.00  0.00    -0.000 C 
BRANCH  16  17
ATOM     17  C   UNL     1     -12.078 -27.792 -35.106  1.00  0.00    -0.000 C 
BRANCH  17  18
ATOM     18  C   UNL     1     -13.490 -27.283 -35.433  1.00  0.00    -0.000 C 
BRANCH  18  19
ATOM     19  C   UNL     1     -13.452 -25.821 -35.895  1.00  0.00    -0.003 C 
ATOM     20  C   UNL     1     -12.017 -25.313 -36.001  1.00  0.00     0.004 C 
ENDBRANCH  18  19
ENDBRANCH  17  18
ENDBRANCH  16  17
ENDBRANCH  15  16
ENDBRANCH  14  15
ENDBRANCH  13  14
ENDBRANCH  12  13
ENDBRANCH   1  12
TORSDOF 16
ENDMDL
MODEL 5
REMARK VINA RESULT:    -4.692      2.441      5.552
REMARK INTER + INTRA:         -11.147
REMARK INTER:                  -9.406
REMARK INTRA:                  -1.741
REMARK UNBOUND:                -2.067
REMARK SMILES CCCCCCCCCCCCCCCCCC(=O)[O-]
REMARK SMILES IDX 10 1 11 2 12 3 13 4 14 5 15 6 16 7 17 8 18 9 19 10 20 11
REMARK SMILES IDX 9 12 8 13 7 14 6 15 5 16 4 17 3 18 2 19 1 20
REMARK H PARENT
REMARK Flexibility Score: inf
ROOT
ATOM      1  C   UNL     1     -13.429 -27.834 -33.128  1.00  0.00     0.000 C 
ENDROOT
BRANCH   1   2
ATOM      2  C   UNL     1     -12.347 -28.381 -32.180  1.00  0.00     0.000 C 
BRANCH   2   3
ATOM      3  C   UNL     1     -12.832 -28.453 -30.716  1.00  0.00     0.000 C 
BRANCH   3   4
ATOM      4  C   UNL     1     -12.518 -27.190 -29.891  1.00  0.00     0.000 C 
BRANCH   4   5
ATOM      5  C   UNL     1     -13.602 -26.099 -29.922  1.00  0.00     0.000 C 
BRANCH   5   6
ATOM      6  C   UNL     1     -13.052 -24.722 -30.331  1.00  0.00     0.000 C 
BRANCH   6   7
ATOM      7  C   UNL     1     -12.504 -24.698 -31.769  1.00  0.00     0.006 C 
BRANCH   7   8
ATOM      8  C   UNL     1     -11.128 -24.024 -31.904  1.00  0.00     0.053 C 
BRANCH   8   9
ATOM      9  C   UNL     1     -10.070 -24.708 -31.093  1.00  0.00     0.041 C 
ATOM     10  O   UNL     1      -9.713 -25.881 -31.377  1.00  0.00    -0.550 OA
ATOM     11  O   UNL     1      -9.448 -24.037 -30.045  1.00  0.00    -0.550 OA
ENDBRANCH   8   9
ENDBRANCH   7   8
ENDBRANCH   6   7
ENDBRANCH   5   6
ENDBRANCH   4   5
ENDBRANCH   3   4
ENDBRANCH   2   3
ENDBRANCH   1   2
BRANCH   1  12
ATOM     12  C   UNL     1     -12.982 -27.874 -34.606  1.00  0.00     0.000 C 
BRANCH  12  13
ATOM     13  C   UNL     1     -14.069 -27.419 -35.593  1.00  0.00    -0.000 C 
BRANCH  13  14
ATOM     14  C   UNL     1     -13.745 -26.069 -36.253  1.00  0.00    -0.000 C 
BRANCH  14  15
ATOM     15  C   UNL     1     -12.847 -25.183 -35.375  1.00  0.00    -0.000 C 
BRANCH  15  16
ATOM     16  C   UNL     1     -12.575 -23.806 -36.006  1.00  0.00    -0.000 C 
BRANCH  16  17
ATOM     17  C   UNL     1     -12.753 -22.652 -35.005  1.00  0.00    -0.000 C 
BRANCH  17  18
ATOM     18  C   UNL     1     -12.231 -21.314 -35.549  1.00  0.00    -0.000 C 
BRANCH  18  19
ATOM     19  C   UNL     1     -13.379 -20.314 -35.736  1.00  0.00    -0.003 C 
ATOM     20  C   UNL     1     -14.379 -20.400 -34.587  1.00  0.00     0.004 C 
ENDBRANCH  18  19
ENDBRANCH  17  18
ENDBRANCH  16  17
ENDBRANCH  15  16
ENDBRANCH  14  15
ENDBRANCH  13  14
ENDBRANCH  12  13
ENDBRANCH   1  12
TORSDOF 16
ENDMDL
MODEL 6
REMARK VINA RESULT:    -4.645      2.217      5.896
REMARK INTER + INTRA:         -11.056
REMARK INTER:                  -9.078
REMARK INTRA:                  -1.978
REMARK UNBOUND:                -2.067
REMARK SMILES CCCCCCCCCCCCCCCCCC(=O)[O-]
REMARK SMILES IDX 10 1 11 2 12 3 13 4 14 5 15 6 16 7 17 8 18 9 19 10 20 11
REMARK SMILES IDX 9 12 8 13 7 14 6 15 5 16 4 17 3 18 2 19 1 20
REMARK H PARENT
REMARK Flexibility Score: inf
ROOT
ATOM      1  C   UNL     1     -10.053 -26.225 -31.283  1.00  0.00     0.000 C 
ENDROOT
BRANCH   1   2
ATOM      2  C   UNL     1     -11.089 -26.727 -30.261  1.00  0.00     0.000 C 
BRANCH   2   3
ATOM      3  C   UNL     1     -11.606 -28.142 -30.599  1.00  0.00     0.000 C 
BRANCH   3   4
ATOM      4  C   UNL     1     -13.063 -28.172 -31.100  1.00  0.00     0.000 C 
BRANCH   4   5
ATOM      5  C   UNL     1     -13.232 -28.155 -32.630  1.00  0.00     0.000 C 
BRANCH   5   6
ATOM      6  C   UNL     1     -11.959 -28.590 -33.376  1.00  0.00     0.000 C 
BRANCH   6   7
ATOM      7  C   UNL     1     -11.763 -27.848 -34.711  1.00  0.00     0.006 C 
BRANCH   7   8
ATOM      8  C   UNL     1     -12.980 -27.014 -35.148  1.00  0.00     0.053 C 
BRANCH   8   9
ATOM      9  C   UNL     1     -12.590 -25.770 -35.886  1.00  0.00     0.041 C 
ATOM     10  O   UNL     1     -11.387 -25.397 -35.910  1.00  0.00    -0.550 OA
ATOM     11  O   UNL     1     -13.547 -25.040 -36.582  1.00  0.00    -0.550 OA
ENDBRANCH   8   9
ENDBRANCH   7   8
ENDBRANCH   6   7
ENDBRANCH   5   6
ENDBRANCH   4   5
ENDBRANCH   3   4
ENDBRANCH   2   3
ENDBRANCH   1   2
BRANCH   1  12
ATOM     12  C   UNL     1     -10.674 -25.257 -32.313  1.00  0.00     0.000 C 
BRANCH  12  13
ATOM     13  C   UNL     1     -12.014 -24.652 -31.864  1.00  0.00    -0.000 C 
BRANCH  13  14
ATOM     14  C   UNL     1     -11.892 -23.177 -31.450  1.00  0.00    -0.000 C 
BRANCH  14  15
ATOM     15  C   UNL     1     -11.882 -22.224 -32.656  1.00  0.00    -0.000 C 
BRANCH  15  16
ATOM     16  C   UNL     1     -12.594 -22.817 -33.885  1.00  0.00    -0.000 C 
BRANCH  16  17
ATOM     17  C   UNL     1     -13.246 -21.739 -34.767  1.00  0.00    -0.000 C 
BRANCH  17  18
ATOM     18  C   UNL     1     -12.281 -21.173 -35.819  1.00  0.00    -0.000 C 
BRANCH  18  19
ATOM     19  C   UNL     1     -12.546 -19.682 -36.061  1.00  0.00    -0.003 C 
ATOM     20  C   UNL     1     -11.265 -18.949 -36.449  1.00  0.00     0.004 C 
ENDBRANCH  18  19
ENDBRANCH  17  18
ENDBRANCH  16  17
ENDBRANCH  15  16
ENDBRANCH  14  15
ENDBRANCH  13  14
ENDBRANCH  12  13
ENDBRANCH   1  12
TORSDOF 16
ENDMDL
MODEL 7
REMARK VINA RESULT:    -4.548      2.750      6.710
REMARK INTER + INTRA:         -10.869
REMARK INTER:                  -8.725
REMARK INTRA:                  -2.143
REMARK UNBOUND:                -2.067
REMARK SMILES CCCCCCCCCCCCCCCCCC(=O)[O-]
REMARK SMILES IDX 10 1 11 2 12 3 13 4 14 5 15 6 16 7 17 8 18 9 19 10 20 11
REMARK SMILES IDX 9 12 8 13 7 14 6 15 5 16 4 17 3 18 2 19 1 20
REMARK H PARENT
REMARK Flexibility Score: inf
ROOT
ATOM      1  C   UNL     1     -11.663 -24.826 -32.329  1.00  0.00     0.000 C 
ENDROOT
BRANCH   1   2
ATOM      2  C   UNL     1     -10.391 -25.549 -31.852  1.00  0.00     0.000 C 
BRANCH   2   3
ATOM      3  C   UNL     1     -10.481 -25.976 -30.370  1.00  0.00     0.000 C 
BRANCH   3   4
ATOM      4  C   UNL     1     -11.695 -26.869 -30.049  1.00  0.00     0.000 C 
BRANCH   4   5
ATOM      5  C   UNL     1     -11.657 -28.276 -30.669  1.00  0.00     0.000 C 
BRANCH   5   6
ATOM      6  C   UNL     1     -12.999 -28.690 -31.296  1.00  0.00     0.000 C 
BRANCH   6   7
ATOM      7  C   UNL     1     -13.169 -28.182 -32.739  1.00  0.00     0.006 C 
BRANCH   7   8
ATOM      8  C   UNL     1     -11.946 -28.431 -33.638  1.00  0.00     0.053 C 
BRANCH   8   9
ATOM      9  C   UNL     1     -11.966 -27.596 -34.883  1.00  0.00     0.041 C 
ATOM     10  O   UNL     1     -12.990 -27.575 -35.615  1.00  0.00    -0.550 OA
ATOM     11  O   UNL     1     -10.869 -26.810 -35.216  1.00  0.00    -0.550 OA
ENDBRANCH   8   9
ENDBRANCH   7   8
ENDBRANCH   6   7
ENDBRANCH   5   6
ENDBRANCH   4   5
ENDBRANCH   3   4
ENDBRANCH   2   3
ENDBRANCH   1   2
BRANCH   1  12
ATOM     12  C   UNL     1     -11.964 -23.564 -31.490  1.00  0.00     0.000 C 
BRANCH  12  13
ATOM     13  C   UNL     1     -10.933 -22.438 -31.676  1.00  0.00    -0.000 C 
BRANCH  13  14
ATOM     14  C   UNL     1     -11.586 -21.061 -31.869  1.00  0.00    -0.000 C 
BRANCH  14  15
ATOM     15  C   UNL     1     -10.737 -20.123 -32.743  1.00  0.00    -0.000 C 
BRANCH  15  16
ATOM     16  C   UNL     1     -11.511 -19.585 -33.960  1.00  0.00    -0.000 C 
BRANCH  16  17
ATOM     17  C   UNL     1     -11.327 -20.461 -35.211  1.00  0.00    -0.000 C 
BRANCH  17  18
ATOM     18  C   UNL     1     -12.645 -21.088 -35.690  1.00  0.00    -0.000 C 
BRANCH  18  19
ATOM     19  C   UNL     1     -12.959 -22.368 -34.907  1.00  0.00    -0.003 C 
ATOM     20  C   UNL     1     -12.606 -23.612 -35.717  1.00  0.00     0.004 C 
ENDBRANCH  18  19
ENDBRANCH  17  18
ENDBRANCH  16  17
ENDBRANCH  15  16
ENDBRANCH  14  15
ENDBRANCH  13  14
ENDBRANCH  12  13
ENDBRANCH   1  12
TORSDOF 16
ENDMDL
MODEL 8
REMARK VINA RESULT:    -4.375      2.330      6.352
REMARK INTER + INTRA:         -10.535
REMARK INTER:                  -8.945
REMARK INTRA:                  -1.590
REMARK UNBOUND:                -2.067
REMARK SMILES CCCCCCCCCCCCCCCCCC(=O)[O-]
REMARK SMILES IDX 10 1 11 2 12 3 13 4 14 5 15 6 16 7 17 8 18 9 19 10 20 11
REMARK SMILES IDX 9 12 8 13 7 14 6 15 5 16 4 17 3 18 2 19 1 20
REMARK H PARENT
REMARK Flexibility Score: inf
ROOT
ATOM      1  C   UNL     1     -11.989 -25.331 -35.438  1.00  0.00     0.000 C 
ENDROOT
BRANCH   1   2
ATOM      2  C   UNL     1     -12.623 -26.701 -35.139  1.00  0.00     0.000 C 
BRANCH   2   3
ATOM      3  C   UNL     1     -11.566 -27.773 -34.795  1.00  0.00     0.000 C 
BRANCH   3   4
ATOM      4  C   UNL     1     -11.966 -28.693 -33.626  1.00  0.00     0.000 C 
BRANCH   4   5
ATOM      5  C   UNL     1     -13.177 -28.219 -32.803  1.00  0.00     0.000 C 
BRANCH   5   6
ATOM      6  C   UNL     1     -12.996 -28.439 -31.292  1.00  0.00     0.000 C 
BRANCH   6   7
ATOM      7  C   UNL     1     -12.601 -27.154 -30.542  1.00  0.00     0.006 C 
BRANCH   7   8
ATOM      8  C   UNL     1     -12.683 -25.879 -31.399  1.00  0.00     0.053 C 
BRANCH   8   9
ATOM      9  C   UNL     1     -11.336 -25.281 -31.672  1.00  0.00     0.041 C 
ATOM     10  O   UNL     1     -10.374 -26.017 -32.015  1.00  0.00    -0.550 OA
ATOM     11  O   UNL     1     -11.151 -23.905 -31.587  1.00  0.00    -0.550 OA
ENDBRANCH   8   9
ENDBRANCH   7   8
ENDBRANCH   6   7
ENDBRANCH   5   6
ENDBRANCH   4   5
ENDBRANCH   3   4
ENDBRANCH   2   3
ENDBRANCH   1   2
BRANCH   1  12
ATOM     12  C   UNL     1     -13.000 -24.346 -36.064  1.00  0.00     0.000 C 
BRANCH  12  13
ATOM     13  C   UNL     1     -12.622 -22.868 -35.873  1.00  0.00    -0.000 C 
BRANCH  13  14
ATOM     14  C   UNL     1     -12.632 -22.437 -34.397  1.00  0.00    -0.000 C 
BRANCH  14  15
ATOM     15  C   UNL     1     -13.188 -21.017 -34.201  1.00  0.00    -0.000 C 
BRANCH  15  16
ATOM     16  C   UNL     1     -13.748 -20.415 -35.501  1.00  0.00    -0.000 C 
BRANCH  16  17
ATOM     17  C   UNL     1     -12.933 -19.206 -35.991  1.00  0.00    -0.000 C 
BRANCH  17  18
ATOM     18  C   UNL     1     -11.477 -19.241 -35.505  1.00  0.00    -0.000 C 
BRANCH  18  19
ATOM     19  C   UNL     1     -10.509 -18.915 -36.649  1.00  0.00    -0.003 C 
ATOM     20  C   UNL     1      -9.064 -19.192 -36.245  1.00  0.00     0.004 C 
ENDBRANCH  18  19
ENDBRANCH  17  18
ENDBRANCH  16  17
ENDBRANCH  15  16
ENDBRANCH  14  15
ENDBRANCH  13  14
ENDBRANCH  12  13
ENDBRANCH   1  12
TORSDOF 16
ENDMDL
