MODEL 1
REMARK VINA RESULT:    -5.205      0.000      0.000
REMARK INTER + INTRA:          -6.563
REMARK INTER:                  -6.270
REMARK INTRA:                  -0.293
REMARK UNBOUND:                -0.293
REMARK SMILES O=c1c(O)c(-c2ccc(O)c(O)c2)oc2cc(O)cc(O)c12
REMARK SMILES IDX 5 1 3 2 2 3 1 4 22 5 20 6 19 7 17 8 16 9 15 10 14 11 6 12
REMARK SMILES IDX 7 13 8 14 9 15 13 16 11 17 10 18 12 20 4 22 21 24 18 26
REMARK H PARENT 10 19 12 21 4 23 21 25 18 27
REMARK Flexibility Score: inf
ROOT
ATOM      1  C   UNL     1      -6.830  -5.612  45.694  1.00  0.00     0.180 A 
ATOM      2  C   UNL     1      -7.971  -6.081  45.021  1.00  0.00     0.208 A 
ATOM      3  C   UNL     1      -7.973  -6.101  43.617  1.00  0.00     0.238 A 
ATOM      4  O   UNL     1      -9.017  -6.470  43.019  1.00  0.00    -0.285 OA
ATOM      5  C   UNL     1      -6.829  -5.666  42.905  1.00  0.00     0.111 A 
ATOM      6  C   UNL     1      -6.707  -5.680  41.483  1.00  0.00     0.134 A 
ATOM      7  C   UNL     1      -5.581  -5.104  40.881  1.00  0.00     0.093 A 
ATOM      8  C   UNL     1      -4.544  -4.575  41.653  1.00  0.00     0.123 A 
ATOM      9  C   UNL     1      -4.627  -4.611  43.042  1.00  0.00     0.094 A 
ATOM     10  C   UNL     1      -5.755  -5.145  43.671  1.00  0.00     0.146 A 
ATOM     11  O   UNL     1      -5.798  -5.150  44.997  1.00  0.00    -0.452 OA
ENDROOT
BRANCH   1  12
ATOM     12  C   UNL     1      -6.744  -5.585  47.172  1.00  0.00     0.025 A 
ATOM     13  C   UNL     1      -6.089  -6.626  47.844  1.00  0.00     0.016 A 
ATOM     14  C   UNL     1      -6.013  -6.631  49.238  1.00  0.00     0.051 A 
ATOM     15  C   UNL     1      -6.601  -5.607  49.989  1.00  0.00     0.157 A 
ATOM     16  C   UNL     1      -7.355  -4.566  47.924  1.00  0.00     0.062 A 
ATOM     17  C   UNL     1      -7.287  -4.564  49.322  1.00  0.00     0.158 A 
BRANCH  15  18
ATOM     18  O   UNL     1      -6.484  -5.667  51.379  1.00  0.00    -0.504 OA
ATOM     19  H   UNL     1      -5.607  -5.785  51.867  1.00  0.00     0.293 HD
ENDBRANCH  15  18
BRANCH  17  20
ATOM     20  O   UNL     1      -7.915  -3.520  50.005  1.00  0.00    -0.504 OA
ATOM     21  H   UNL     1      -7.484  -2.992  50.749  1.00  0.00     0.293 HD
ENDBRANCH  17  20
ENDBRANCH   1  12
BRANCH   2  22
ATOM     22  O   UNL     1      -9.098  -6.486  45.743  1.00  0.00    -0.502 OA
ATOM     23  H   UNL     1      -9.334  -6.093  46.646  1.00  0.00     0.293 HD
ENDBRANCH   2  22
BRANCH   6  24
ATOM     24  O   UNL     1      -7.642  -6.266  40.624  1.00  0.00    -0.507 OA
ATOM     25  H   UNL     1      -8.214  -7.063  40.856  1.00  0.00     0.293 HD
ENDBRANCH   6  24
BRANCH   8  26
ATOM     26  O   UNL     1      -3.419  -4.018  41.046  1.00  0.00    -0.508 OA
ATOM     27  H   UNL     1      -2.962  -4.469  40.263  1.00  0.00     0.293 HD
ENDBRANCH   8  26
TORSDOF 6
ENDMDL
MODEL 2
REMARK VINA RESULT:    -5.020      5.525     10.586
REMARK INTER + INTRA:          -6.340
REMARK INTER:                  -6.092
REMARK INTRA:                  -0.248
REMARK UNBOUND:                -0.293
REMARK SMILES O=c1c(O)c(-c2ccc(O)c(O)c2)oc2cc(O)cc(O)c12
REMARK SMILES IDX 5 1 3 2 2 3 1 4 22 5 20 6 19 7 17 8 16 9 15 10 14 11 6 12
REMARK SMILES IDX 7 13 8 14 9 15 13 16 11 17 10 18 12 20 4 22 21 24 18 26
REMARK H PARENT 10 19 12 21 4 23 21 25 18 27
REMARK Flexibility Score: inf
ROOT
ATOM      1  C   UNL     1      -3.260  -1.726  38.617  1.00  0.00     0.180 A 
ATOM      2  C   UNL     1      -2.828  -0.395  38.747  1.00  0.00     0.208 A 
ATOM      3  C   UNL     1      -3.165   0.320  39.907  1.00  0.00     0.238 A 
ATOM      4  O   UNL     1      -2.822   1.528  39.993  1.00  0.00    -0.285 OA
ATOM      5  C   UNL     1      -3.915  -0.309  40.930  1.00  0.00     0.111 A 
ATOM      6  C   UNL     1      -4.278   0.308  42.164  1.00  0.00     0.134 A 
ATOM      7  C   UNL     1      -5.132  -0.364  43.048  1.00  0.00     0.093 A 
ATOM      8  C   UNL     1      -5.582  -1.657  42.769  1.00  0.00     0.123 A 
ATOM      9  C   UNL     1      -5.186  -2.291  41.594  1.00  0.00     0.094 A 
ATOM     10  C   UNL     1      -4.363  -1.631  40.677  1.00  0.00     0.146 A 
ATOM     11  O   UNL     1      -4.017  -2.268  39.564  1.00  0.00    -0.452 OA
ENDROOT
BRANCH   1  12
ATOM     12  C   UNL     1      -2.924  -2.552  37.435  1.00  0.00     0.025 A 
ATOM     13  C   UNL     1      -3.940  -2.939  36.551  1.00  0.00     0.016 A 
ATOM     14  C   UNL     1      -3.647  -3.734  35.441  1.00  0.00     0.051 A 
ATOM     15  C   UNL     1      -2.340  -4.170  35.200  1.00  0.00     0.157 A 
ATOM     16  C   UNL     1      -1.613  -3.007  37.208  1.00  0.00     0.062 A 
ATOM     17  C   UNL     1      -1.310  -3.807  36.100  1.00  0.00     0.158 A 
BRANCH  15  18
ATOM     18  O   UNL     1      -2.113  -4.957  34.069  1.00  0.00    -0.504 OA
ATOM     19  H   UNL     1      -2.789  -5.602  33.685  1.00  0.00     0.293 HD
ENDBRANCH  15  18
BRANCH  17  20
ATOM     20  O   UNL     1       0.013  -4.221  35.936  1.00  0.00    -0.504 OA
ATOM     21  H   UNL     1       0.601  -3.943  35.164  1.00  0.00     0.293 HD
ENDBRANCH  17  20
ENDBRANCH   1  12
BRANCH   2  22
ATOM     22  O   UNL     1      -2.107   0.214  37.715  1.00  0.00    -0.502 OA
ATOM     23  H   UNL     1      -1.611   1.087  37.840  1.00  0.00     0.293 HD
ENDBRANCH   2  22
BRANCH   6  24
ATOM     24  O   UNL     1      -3.808   1.557  42.581  1.00  0.00    -0.507 OA
ATOM     25  H   UNL     1      -2.922   1.956  42.313  1.00  0.00     0.293 HD
ENDBRANCH   6  24
BRANCH   8  26
ATOM     26  O   UNL     1      -6.420  -2.325  43.660  1.00  0.00    -0.508 OA
ATOM     27  H   UNL     1      -6.546  -2.002  44.612  1.00  0.00     0.293 HD
ENDBRANCH   8  26
TORSDOF 6
ENDMDL
MODEL 3
REMARK VINA RESULT:    -5.004      6.512     10.715
REMARK INTER + INTRA:          -6.321
REMARK INTER:                  -5.990
REMARK INTRA:                  -0.331
REMARK UNBOUND:                -0.293
REMARK SMILES O=c1c(O)c(-c2ccc(O)c(O)c2)oc2cc(O)cc(O)c12
REMARK SMILES IDX 5 1 3 2 2 3 1 4 22 5 20 6 19 7 17 8 16 9 15 10 14 11 6 12
REMARK SMILES IDX 7 13 8 14 9 15 13 16 11 17 10 18 12 20 4 22 21 24 18 26
REMARK H PARENT 10 19 12 21 4 23 21 25 18 27
REMARK Flexibility Score: inf
ROOT
ATOM      1  C   UNL     1      -1.614  -1.971  37.880  1.00  0.00     0.180 A 
ATOM      2  C   UNL     1      -0.621  -2.702  37.206  1.00  0.00     0.208 A 
ATOM      3  C   UNL     1       0.486  -2.019  36.676  1.00  0.00     0.238 A 
ATOM      4  O   UNL     1       1.344  -2.671  36.025  1.00  0.00    -0.285 OA
ATOM      5  C   UNL     1       0.593  -0.617  36.841  1.00  0.00     0.111 A 
ATOM      6  C   UNL     1       1.691   0.171  36.379  1.00  0.00     0.134 A 
ATOM      7  C   UNL     1       1.630   1.566  36.482  1.00  0.00     0.093 A 
ATOM      8  C   UNL     1       0.541   2.196  37.089  1.00  0.00     0.123 A 
ATOM      9  C   UNL     1      -0.508   1.433  37.595  1.00  0.00     0.094 A 
ATOM     10  C   UNL     1      -0.492   0.040  37.474  1.00  0.00     0.146 A 
ATOM     11  O   UNL     1      -1.517  -0.649  37.962  1.00  0.00    -0.452 OA
ENDROOT
BRANCH   1  12
ATOM     12  C   UNL     1      -2.796  -2.623  38.488  1.00  0.00     0.025 A 
ATOM     13  C   UNL     1      -4.003  -2.667  37.776  1.00  0.00     0.016 A 
ATOM     14  C   UNL     1      -5.135  -3.259  38.338  1.00  0.00     0.051 A 
ATOM     15  C   UNL     1      -5.090  -3.806  39.625  1.00  0.00     0.157 A 
ATOM     16  C   UNL     1      -2.753  -3.151  39.790  1.00  0.00     0.062 A 
ATOM     17  C   UNL     1      -3.884  -3.745  40.364  1.00  0.00     0.158 A 
BRANCH  15  18
ATOM     18  O   UNL     1      -6.255  -4.390  40.127  1.00  0.00    -0.504 OA
ATOM     19  H   UNL     1      -7.089  -4.548  39.579  1.00  0.00     0.293 HD
ENDBRANCH  15  18
BRANCH  17  20
ATOM     20  O   UNL     1      -3.769  -4.250  41.660  1.00  0.00    -0.504 OA
ATOM     21  H   UNL     1      -3.705  -5.234  41.880  1.00  0.00     0.293 HD
ENDBRANCH  17  20
ENDBRANCH   1  12
BRANCH   2  22
ATOM     22  O   UNL     1      -0.758  -4.083  37.035  1.00  0.00    -0.502 OA
ATOM     23  H   UNL     1      -0.266  -4.754  37.612  1.00  0.00     0.293 HD
ENDBRANCH   2  22
BRANCH   6  24
ATOM     24  O   UNL     1       2.865  -0.365  35.842  1.00  0.00    -0.507 OA
ATOM     25  H   UNL     1       3.443  -1.054  36.298  1.00  0.00     0.293 HD
ENDBRANCH   6  24
BRANCH   8  26
ATOM     26  O   UNL     1       0.495   3.585  37.200  1.00  0.00    -0.508 OA
ATOM     27  H   UNL     1       0.198   4.039  38.056  1.00  0.00     0.293 HD
ENDBRANCH   8  26
TORSDOF 6
ENDMDL
MODEL 4
REMARK VINA RESULT:    -5.000      4.965      9.941
REMARK INTER + INTRA:          -6.315
REMARK INTER:                  -5.981
REMARK INTRA:                  -0.335
REMARK UNBOUND:                -0.293
REMARK SMILES O=c1c(O)c(-c2ccc(O)c(O)c2)oc2cc(O)cc(O)c12
REMARK SMILES IDX 5 1 3 2 2 3 1 4 22 5 20 6 19 7 17 8 16 9 15 10 14 11 6 12
REMARK SMILES IDX 7 13 8 14 9 15 13 16 11 17 10 18 12 20 4 22 21 24 18 26
REMARK H PARENT 10 19 12 21 4 23 21 25 18 27
REMARK Flexibility Score: inf
ROOT
ATOM      1  C   UNL     1      -3.992  -0.909  39.726  1.00  0.00     0.180 A 
ATOM      2  C   UNL     1      -3.723  -0.407  41.010  1.00  0.00     0.208 A 
ATOM      3  C   UNL     1      -3.812  -1.272  42.113  1.00  0.00     0.238 A 
ATOM      4  O   UNL     1      -3.623  -0.804  43.266  1.00  0.00    -0.285 OA
ATOM      5  C   UNL     1      -4.152  -2.632  41.914  1.00  0.00     0.111 A 
ATOM      6  C   UNL     1      -4.232  -3.607  42.954  1.00  0.00     0.134 A 
ATOM      7  C   UNL     1      -4.705  -4.892  42.661  1.00  0.00     0.093 A 
ATOM      8  C   UNL     1      -5.039  -5.255  41.354  1.00  0.00     0.123 A 
ATOM      9  C   UNL     1      -4.908  -4.329  40.323  1.00  0.00     0.094 A 
ATOM     10  C   UNL     1      -4.473  -3.028  40.591  1.00  0.00     0.146 A 
ATOM     11  O   UNL     1      -4.373  -2.173  39.580  1.00  0.00    -0.452 OA
ENDROOT
BRANCH   1  12
ATOM     12  C   UNL     1      -3.895  -0.064  38.514  1.00  0.00     0.025 A 
ATOM     13  C   UNL     1      -5.043   0.569  38.019  1.00  0.00     0.016 A 
ATOM     14  C   UNL     1      -4.978   1.354  36.866  1.00  0.00     0.051 A 
ATOM     15  C   UNL     1      -3.770   1.510  36.177  1.00  0.00     0.157 A 
ATOM     16  C   UNL     1      -2.685   0.072  37.811  1.00  0.00     0.062 A 
ATOM     17  C   UNL     1      -2.610   0.854  36.652  1.00  0.00     0.158 A 
BRANCH  15  18
ATOM     18  O   UNL     1      -3.771   2.313  35.034  1.00  0.00    -0.504 OA
ATOM     19  H   UNL     1      -3.750   3.323  35.054  1.00  0.00     0.293 HD
ENDBRANCH  15  18
BRANCH  17  20
ATOM     20  O   UNL     1      -1.375   0.946  36.006  1.00  0.00    -0.504 OA
ATOM     21  H   UNL     1      -1.066   0.312  35.285  1.00  0.00     0.293 HD
ENDBRANCH  17  20
ENDBRANCH   1  12
BRANCH   2  22
ATOM     22  O   UNL     1      -3.410   0.945  41.186  1.00  0.00    -0.502 OA
ATOM     23  H   UNL     1      -4.039   1.689  40.912  1.00  0.00     0.293 HD
ENDBRANCH   2  22
BRANCH   6  24
ATOM     24  O   UNL     1      -3.836  -3.374  44.275  1.00  0.00    -0.507 OA
ATOM     25  H   UNL     1      -3.759  -2.463  44.700  1.00  0.00     0.293 HD
ENDBRANCH   6  24
BRANCH   8  26
ATOM     26  O   UNL     1      -5.495  -6.541  41.069  1.00  0.00    -0.508 OA
ATOM     27  H   UNL     1      -6.419  -6.849  41.346  1.00  0.00     0.293 HD
ENDBRANCH   8  26
TORSDOF 6
ENDMDL
MODEL 5
REMARK VINA RESULT:    -4.985     12.364     14.981
REMARK INTER + INTRA:          -6.297
REMARK INTER:                  -5.970
REMARK INTRA:                  -0.327
REMARK UNBOUND:                -0.293
REMARK SMILES O=c1c(O)c(-c2ccc(O)c(O)c2)oc2cc(O)cc(O)c12
REMARK SMILES IDX 5 1 3 2 2 3 1 4 22 5 20 6 19 7 17 8 16 9 15 10 14 11 6 12
REMARK SMILES IDX 7 13 8 14 9 15 13 16 11 17 10 18 12 20 4 22 21 24 18 26
REMARK H PARENT 10 19 12 21 4 23 21 25 18 27
REMARK Flexibility Score: inf
ROOT
ATOM      1  C   UNL     1       3.340   1.382  38.963  1.00  0.00     0.180 A 
ATOM      2  C   UNL     1       3.194  -0.015  39.015  1.00  0.00     0.208 A 
ATOM      3  C   UNL     1       3.516  -0.690  40.203  1.00  0.00     0.238 A 
ATOM      4  O   UNL     1       3.436  -1.946  40.226  1.00  0.00    -0.285 OA
ATOM      5  C   UNL     1       3.965   0.042  41.329  1.00  0.00     0.111 A 
ATOM      6  C   UNL     1       4.281  -0.535  42.596  1.00  0.00     0.134 A 
ATOM      7  C   UNL     1       4.841   0.266  43.599  1.00  0.00     0.093 A 
ATOM      8  C   UNL     1       5.033   1.636  43.402  1.00  0.00     0.123 A 
ATOM      9  C   UNL     1       4.672   2.219  42.191  1.00  0.00     0.094 A 
ATOM     10  C   UNL     1       4.146   1.438  41.158  1.00  0.00     0.146 A 
ATOM     11  O   UNL     1       3.825   2.032  40.015  1.00  0.00    -0.452 OA
ENDROOT
BRANCH   1  12
ATOM     12  C   UNL     1       2.997   2.166  37.755  1.00  0.00     0.025 A 
ATOM     13  C   UNL     1       4.012   2.548  36.868  1.00  0.00     0.016 A 
ATOM     14  C   UNL     1       3.713   3.304  35.733  1.00  0.00     0.051 A 
ATOM     15  C   UNL     1       2.399   3.706  35.469  1.00  0.00     0.157 A 
ATOM     16  C   UNL     1       1.679   2.586  37.504  1.00  0.00     0.062 A 
ATOM     17  C   UNL     1       1.369   3.347  36.371  1.00  0.00     0.158 A 
BRANCH  15  18
ATOM     18  O   UNL     1       2.166   4.455  34.313  1.00  0.00    -0.504 OA
ATOM     19  H   UNL     1       1.977   4.050  33.407  1.00  0.00     0.293 HD
ENDBRANCH  15  18
BRANCH  17  20
ATOM     20  O   UNL     1       0.039   3.728  36.183  1.00  0.00    -0.504 OA
ATOM     21  H   UNL     1      -0.743   3.303  36.659  1.00  0.00     0.293 HD
ENDBRANCH  17  20
ENDBRANCH   1  12
BRANCH   2  22
ATOM     22  O   UNL     1       2.770  -0.720  37.884  1.00  0.00    -0.502 OA
ATOM     23  H   UNL     1       2.903  -1.718  37.785  1.00  0.00     0.293 HD
ENDBRANCH   2  22
BRANCH   6  24
ATOM     24  O   UNL     1       4.042  -1.872  42.927  1.00  0.00    -0.507 OA
ATOM     25  H   UNL     1       4.514  -2.375  43.663  1.00  0.00     0.293 HD
ENDBRANCH   6  24
BRANCH   8  26
ATOM     26  O   UNL     1       5.576   2.429  44.412  1.00  0.00    -0.508 OA
ATOM     27  H   UNL     1       6.555   2.367  44.666  1.00  0.00     0.293 HD
ENDBRANCH   8  26
TORSDOF 6
ENDMDL
MODEL 6
REMARK VINA RESULT:    -4.878      9.590     10.475
REMARK INTER + INTRA:          -6.169
REMARK INTER:                  -5.909
REMARK INTRA:                  -0.260
REMARK UNBOUND:                -0.293
REMARK SMILES O=c1c(O)c(-c2ccc(O)c(O)c2)oc2cc(O)cc(O)c12
REMARK SMILES IDX 5 1 3 2 2 3 1 4 22 5 20 6 19 7 17 8 16 9 15 10 14 11 6 12
REMARK SMILES IDX 7 13 8 14 9 15 13 16 11 17 10 18 12 20 4 22 21 24 18 26
REMARK H PARENT 10 19 12 21 4 23 21 25 18 27
REMARK Flexibility Score: inf
ROOT
ATOM      1  C   UNL     1      -5.720   4.689  46.213  1.00  0.00     0.180 A 
ATOM      2  C   UNL     1      -7.031   4.543  45.728  1.00  0.00     0.208 A 
ATOM      3  C   UNL     1      -7.351   3.414  44.957  1.00  0.00     0.238 A 
ATOM      4  O   UNL     1      -8.512   3.317  44.479  1.00  0.00    -0.285 OA
ATOM      5  C   UNL     1      -6.361   2.437  44.695  1.00  0.00     0.111 A 
ATOM      6  C   UNL     1      -6.584   1.234  43.959  1.00  0.00     0.134 A 
ATOM      7  C   UNL     1      -5.501   0.403  43.649  1.00  0.00     0.093 A 
ATOM      8  C   UNL     1      -4.214   0.698  44.105  1.00  0.00     0.123 A 
ATOM      9  C   UNL     1      -3.996   1.838  44.874  1.00  0.00     0.094 A 
ATOM     10  C   UNL     1      -5.051   2.706  45.168  1.00  0.00     0.146 A 
ATOM     11  O   UNL     1      -4.797   3.788  45.895  1.00  0.00    -0.452 OA
ENDROOT
BRANCH   1  12
ATOM     12  C   UNL     1      -5.314   5.838  47.053  1.00  0.00     0.025 A 
ATOM     13  C   UNL     1      -5.179   5.668  48.437  1.00  0.00     0.016 A 
ATOM     14  C   UNL     1      -4.816   6.743  49.251  1.00  0.00     0.051 A 
ATOM     15  C   UNL     1      -4.598   8.012  48.702  1.00  0.00     0.157 A 
ATOM     16  C   UNL     1      -5.118   7.116  46.501  1.00  0.00     0.062 A 
ATOM     17  C   UNL     1      -4.758   8.202  47.308  1.00  0.00     0.158 A 
BRANCH  15  18
ATOM     18  O   UNL     1      -4.231   9.043  49.568  1.00  0.00    -0.504 OA
ATOM     19  H   UNL     1      -3.788   8.898  50.464  1.00  0.00     0.293 HD
ENDBRANCH  15  18
BRANCH  17  20
ATOM     20  O   UNL     1      -4.576   9.442  46.692  1.00  0.00    -0.504 OA
ATOM     21  H   UNL     1      -3.686   9.783  46.360  1.00  0.00     0.293 HD
ENDBRANCH  17  20
ENDBRANCH   1  12
BRANCH   2  22
ATOM     22  O   UNL     1      -7.988   5.532  45.980  1.00  0.00    -0.502 OA
ATOM     23  H   UNL     1      -7.743   6.448  46.334  1.00  0.00     0.293 HD
ENDBRANCH   2  22
BRANCH   6  24
ATOM     24  O   UNL     1      -7.845   0.800  43.537  1.00  0.00    -0.507 OA
ATOM     25  H   UNL     1      -8.050   0.440  42.618  1.00  0.00     0.293 HD
ENDBRANCH   6  24
BRANCH   8  26
ATOM     26  O   UNL     1      -3.143  -0.143  43.805  1.00  0.00    -0.508 OA
ATOM     27  H   UNL     1      -3.243  -0.918  43.161  1.00  0.00     0.293 HD
ENDBRANCH   8  26
TORSDOF 6
ENDMDL
MODEL 7
REMARK VINA RESULT:    -4.867      5.259      9.099
REMARK INTER + INTRA:          -6.156
REMARK INTER:                  -5.839
REMARK INTRA:                  -0.317
REMARK UNBOUND:                -0.293
REMARK SMILES O=c1c(O)c(-c2ccc(O)c(O)c2)oc2cc(O)cc(O)c12
REMARK SMILES IDX 5 1 3 2 2 3 1 4 22 5 20 6 19 7 17 8 16 9 15 10 14 11 6 12
REMARK SMILES IDX 7 13 8 14 9 15 13 16 11 17 10 18 12 20 4 22 21 24 18 26
REMARK H PARENT 10 19 12 21 4 23 21 25 18 27
REMARK Flexibility Score: inf
ROOT
ATOM      1  C   UNL     1      -2.974  -2.398  38.868  1.00  0.00     0.180 A 
ATOM      2  C   UNL     1      -2.974  -0.994  38.931  1.00  0.00     0.208 A 
ATOM      3  C   UNL     1      -2.060  -0.276  38.143  1.00  0.00     0.238 A 
ATOM      4  O   UNL     1      -2.028   0.978  38.246  1.00  0.00    -0.285 OA
ATOM      5  C   UNL     1      -1.169  -0.971  37.290  1.00  0.00     0.111 A 
ATOM      6  C   UNL     1      -0.228  -0.344  36.418  1.00  0.00     0.134 A 
ATOM      7  C   UNL     1       0.693  -1.131  35.716  1.00  0.00     0.093 A 
ATOM      8  C   UNL     1       0.663  -2.525  35.804  1.00  0.00     0.123 A 
ATOM      9  C   UNL     1      -0.289  -3.148  36.606  1.00  0.00     0.094 A 
ATOM     10  C   UNL     1      -1.198  -2.388  37.347  1.00  0.00     0.146 A 
ATOM     11  O   UNL     1      -2.082  -3.022  38.107  1.00  0.00    -0.452 OA
ENDROOT
BRANCH   1  12
ATOM     12  C   UNL     1      -3.924  -3.221  39.650  1.00  0.00     0.025 A 
ATOM     13  C   UNL     1      -5.212  -3.453  39.148  1.00  0.00     0.016 A 
ATOM     14  C   UNL     1      -6.130  -4.210  39.878  1.00  0.00     0.051 A 
ATOM     15  C   UNL     1      -5.788  -4.737  41.128  1.00  0.00     0.157 A 
ATOM     16  C   UNL     1      -3.584  -3.731  40.915  1.00  0.00     0.062 A 
ATOM     17  C   UNL     1      -4.499  -4.488  41.656  1.00  0.00     0.158 A 
BRANCH  15  18
ATOM     18  O   UNL     1      -6.750  -5.491  41.804  1.00  0.00    -0.504 OA
ATOM     19  H   UNL     1      -6.728  -6.498  41.879  1.00  0.00     0.293 HD
ENDBRANCH  15  18
BRANCH  17  20
ATOM     20  O   UNL     1      -4.093  -4.964  42.905  1.00  0.00    -0.504 OA
ATOM     21  H   UNL     1      -3.154  -5.270  43.115  1.00  0.00     0.293 HD
ENDBRANCH  17  20
ENDBRANCH   1  12
BRANCH   2  22
ATOM     22  O   UNL     1      -3.848  -0.329  39.797  1.00  0.00    -0.502 OA
ATOM     23  H   UNL     1      -4.591   0.273  39.464  1.00  0.00     0.293 HD
ENDBRANCH   2  22
BRANCH   6  24
ATOM     24  O   UNL     1      -0.176   1.034  36.187  1.00  0.00    -0.507 OA
ATOM     25  H   UNL     1      -0.380   1.477  35.304  1.00  0.00     0.293 HD
ENDBRANCH   6  24
BRANCH   8  26
ATOM     26  O   UNL     1       1.574  -3.301  35.090  1.00  0.00    -0.508 OA
ATOM     27  H   UNL     1       1.308  -4.189  34.680  1.00  0.00     0.293 HD
ENDBRANCH   8  26
TORSDOF 6
ENDMDL
MODEL 8
REMARK VINA RESULT:    -4.843      5.709     10.895
REMARK INTER + INTRA:          -6.126
REMARK INTER:                  -5.791
REMARK INTRA:                  -0.335
REMARK UNBOUND:                -0.293
REMARK SMILES O=c1c(O)c(-c2ccc(O)c(O)c2)oc2cc(O)cc(O)c12
REMARK SMILES IDX 5 1 3 2 2 3 1 4 22 5 20 6 19 7 17 8 16 9 15 10 14 11 6 12
REMARK SMILES IDX 7 13 8 14 9 15 13 16 11 17 10 18 12 20 4 22 21 24 18 26
REMARK H PARENT 10 19 12 21 4 23 21 25 18 27
REMARK Flexibility Score: inf
ROOT
ATOM      1  C   UNL     1      -2.718  -0.527  38.942  1.00  0.00     0.180 A 
ATOM      2  C   UNL     1      -3.122   0.394  39.924  1.00  0.00     0.208 A 
ATOM      3  C   UNL     1      -3.706  -0.084  41.108  1.00  0.00     0.238 A 
ATOM      4  O   UNL     1      -4.117   0.748  41.958  1.00  0.00    -0.285 OA
ATOM      5  C   UNL     1      -3.864  -1.478  41.302  1.00  0.00     0.111 A 
ATOM      6  C   UNL     1      -4.406  -2.075  42.480  1.00  0.00     0.134 A 
ATOM      7  C   UNL     1      -4.636  -3.456  42.510  1.00  0.00     0.093 A 
ATOM      8  C   UNL     1      -4.281  -4.269  41.431  1.00  0.00     0.123 A 
ATOM      9  C   UNL     1      -3.696  -3.703  40.301  1.00  0.00     0.094 A 
ATOM     10  C   UNL     1      -3.489  -2.323  40.227  1.00  0.00     0.146 A 
ATOM     11  O   UNL     1      -2.938  -1.824  39.127  1.00  0.00    -0.452 OA
ENDROOT
BRANCH   1  12
ATOM     12  C   UNL     1      -2.072  -0.100  37.680  1.00  0.00     0.025 A 
ATOM     13  C   UNL     1      -2.859   0.117  36.541  1.00  0.00     0.016 A 
ATOM     14  C   UNL     1      -2.268   0.501  35.336  1.00  0.00     0.051 A 
ATOM     15  C   UNL     1      -0.881   0.660  35.239  1.00  0.00     0.157 A 
ATOM     16  C   UNL     1      -0.676   0.037  37.581  1.00  0.00     0.062 A 
ATOM     17  C   UNL     1      -0.074   0.417  36.376  1.00  0.00     0.158 A 
BRANCH  15  18
ATOM     18  O   UNL     1      -0.353   1.051  34.007  1.00  0.00    -0.504 OA
ATOM     19  H   UNL     1       0.018   1.972  33.818  1.00  0.00     0.293 HD
ENDBRANCH  15  18
BRANCH  17  20
ATOM     20  O   UNL     1       1.318   0.536  36.350  1.00  0.00    -0.504 OA
ATOM     21  H   UNL     1       1.953  -0.231  36.511  1.00  0.00     0.293 HD
ENDBRANCH  17  20
ENDBRANCH   1  12
BRANCH   2  22
ATOM     22  O   UNL     1      -2.978   1.767  39.702  1.00  0.00    -0.502 OA
ATOM     23  H   UNL     1      -3.160   2.195  38.802  1.00  0.00     0.293 HD
ENDBRANCH   2  22
BRANCH   6  24
ATOM     24  O   UNL     1      -4.708  -1.366  43.647  1.00  0.00    -0.507 OA
ATOM     25  H   UNL     1      -4.337  -0.458  43.879  1.00  0.00     0.293 HD
ENDBRANCH   6  24
BRANCH   8  26
ATOM     26  O   UNL     1      -4.499  -5.645  41.475  1.00  0.00    -0.508 OA
ATOM     27  H   UNL     1      -3.859  -6.267  41.954  1.00  0.00     0.293 HD
ENDBRANCH   8  26
TORSDOF 6
ENDMDL
MODEL 9
REMARK VINA RESULT:    -4.800      5.816      8.979
REMARK INTER + INTRA:          -6.075
REMARK INTER:                  -5.804
REMARK INTRA:                  -0.271
REMARK UNBOUND:                -0.293
REMARK SMILES O=c1c(O)c(-c2ccc(O)c(O)c2)oc2cc(O)cc(O)c12
REMARK SMILES IDX 5 1 3 2 2 3 1 4 22 5 20 6 19 7 17 8 16 9 15 10 14 11 6 12
REMARK SMILES IDX 7 13 8 14 9 15 13 16 11 17 10 18 12 20 4 22 21 24 18 26
REMARK H PARENT 10 19 12 21 4 23 21 25 18 27
REMARK Flexibility Score: inf
ROOT
ATOM      1  C   UNL     1      -3.535  -0.804  39.423  1.00  0.00     0.180 A 
ATOM      2  C   UNL     1      -4.541  -0.013  38.842  1.00  0.00     0.208 A 
ATOM      3  C   UNL     1      -4.225   0.784  37.730  1.00  0.00     0.238 A 
ATOM      4  O   UNL     1      -5.116   1.532  37.249  1.00  0.00    -0.285 OA
ATOM      5  C   UNL     1      -2.910   0.768  37.204  1.00  0.00     0.111 A 
ATOM      6  C   UNL     1      -2.489   1.506  36.057  1.00  0.00     0.134 A 
ATOM      7  C   UNL     1      -1.133   1.516  35.703  1.00  0.00     0.093 A 
ATOM      8  C   UNL     1      -0.198   0.763  36.416  1.00  0.00     0.123 A 
ATOM      9  C   UNL     1      -0.609  -0.006  37.501  1.00  0.00     0.094 A 
ATOM     10  C   UNL     1      -1.949  -0.008  37.900  1.00  0.00     0.146 A 
ATOM     11  O   UNL     1      -2.297  -0.748  38.946  1.00  0.00    -0.452 OA
ENDROOT
BRANCH   1  12
ATOM     12  C   UNL     1      -3.799  -1.689  40.580  1.00  0.00     0.025 A 
ATOM     13  C   UNL     1      -3.890  -1.136  41.865  1.00  0.00     0.016 A 
ATOM     14  C   UNL     1      -4.119  -1.955  42.973  1.00  0.00     0.051 A 
ATOM     15  C   UNL     1      -4.245  -3.340  42.823  1.00  0.00     0.157 A 
ATOM     16  C   UNL     1      -3.903  -3.083  40.428  1.00  0.00     0.062 A 
ATOM     17  C   UNL     1      -4.128  -3.912  41.533  1.00  0.00     0.158 A 
BRANCH  15  18
ATOM     18  O   UNL     1      -4.479  -4.102  43.969  1.00  0.00    -0.504 OA
ATOM     19  H   UNL     1      -5.326  -4.627  44.135  1.00  0.00     0.293 HD
ENDBRANCH  15  18
BRANCH  17  20
ATOM     20  O   UNL     1      -4.222  -5.287  41.309  1.00  0.00    -0.504 OA
ATOM     21  H   UNL     1      -4.665  -5.935  41.944  1.00  0.00     0.293 HD
ENDBRANCH  17  20
ENDBRANCH   1  12
BRANCH   2  22
ATOM     22  O   UNL     1      -5.827   0.004  39.392  1.00  0.00    -0.502 OA
ATOM     23  H   UNL     1      -6.370  -0.838  39.532  1.00  0.00     0.293 HD
ENDBRANCH   2  22
BRANCH   6  24
ATOM     24  O   UNL     1      -3.357   2.215  35.222  1.00  0.00    -0.507 OA
ATOM     25  H   UNL     1      -4.055   2.869  35.541  1.00  0.00     0.293 HD
ENDBRANCH   6  24
BRANCH   8  26
ATOM     26  O   UNL     1       1.147   0.768  36.048  1.00  0.00    -0.508 OA
ATOM     27  H   UNL     1       1.439   1.021  35.111  1.00  0.00     0.293 HD
ENDBRANCH   8  26
TORSDOF 6
ENDMDL
