MODEL 1
REMARK VINA RESULT:    63.432      0.000      0.000
REMARK INTER + INTRA:          86.451
REMARK INTER:                  87.535
REMARK INTRA:                  -1.085
REMARK UNBOUND:                -1.085
REMARK SMILES CC[C@H](CC[C@@H](C)[C@H]1CC[C@@H]2C3=CC[C@@H]4C[C@H](O)CC[C@@]4(C)[C@H]3CC[C@]21C)C(C)C
REMARK SMILES IDX 5 1 4 2 3 3 2 4 1 5 28 6 29 7 30 8 6 9 7 10 8 11 9 12 26 13
REMARK SMILES IDX 10 14 11 15 25 16 27 17 12 18 24 19 23 20 13 21 21 22 14 23
REMARK SMILES IDX 15 24 20 25 22 26 16 27 19 28 17 29 18 30
REMARK H PARENT 18 31
REMARK Flexibility Score: inf
ROOT
ATOM      1  C   UNL     1     -14.288  -3.211  14.767  1.00  0.00     0.004 C 
ENDROOT
BRANCH   1   2
ATOM      2  C   UNL     1     -15.826  -3.032  14.784  1.00  0.00     0.004 C 
BRANCH   2   3
ATOM      3  C   UNL     1     -16.481  -3.217  16.188  1.00  0.00    -0.009 C 
BRANCH   3   4
ATOM      4  C   UNL     1     -15.448  -2.881  17.305  1.00  0.00     0.000 C 
ATOM      5  C   UNL     1     -15.199  -4.020  18.301  1.00  0.00     0.004 C 
ENDBRANCH   3   4
BRANCH   3   6
ATOM      6  C   UNL     1     -17.824  -2.414  16.350  1.00  0.00    -0.014 C 
ATOM      7  C   UNL     1     -17.895  -1.189  15.423  1.00  0.00     0.007 C 
ATOM      8  C   UNL     1     -19.055  -3.304  16.083  1.00  0.00     0.007 C 
ENDBRANCH   3   6
ENDBRANCH   2   3
ENDBRANCH   1   2
BRANCH   1   9
ATOM      9  C   UNL     1     -13.563  -2.976  13.404  1.00  0.00    -0.011 C 
ATOM     10  C   UNL     1     -14.405  -3.545  12.244  1.00  0.00     0.008 C 
BRANCH   9  11
ATOM     11  C   UNL     1     -12.971  -1.538  13.152  1.00  0.00    -0.002 C 
ATOM     12  C   UNL     1     -13.801  -0.449  13.884  1.00  0.00     0.005 C 
ATOM     13  C   UNL     1     -11.476  -1.187  13.505  1.00  0.00    -0.023 C 
ATOM     14  C   UNL     1     -12.879   0.239  14.893  1.00  0.00     0.009 C 
ATOM     15  C   UNL     1     -11.606  -0.606  14.921  1.00  0.00     0.021 C 
ATOM     16  C   UNL     1     -10.421  -2.325  13.540  1.00  0.00     0.008 C 
ATOM     17  C   UNL     1     -11.014  -0.125  12.445  1.00  0.00     0.012 C 
ATOM     18  C   UNL     1     -10.322   0.046  15.401  1.00  0.00    -0.067 C 
ATOM     19  C   UNL     1      -9.172  -2.049  14.440  1.00  0.00     0.009 C 
ATOM     20  C   UNL     1      -8.987  -0.599  14.998  1.00  0.00     0.021 C 
ATOM     21  C   UNL     1     -10.351   1.099  16.250  1.00  0.00    -0.027 C 
ATOM     22  C   UNL     1      -7.779  -0.411  16.044  1.00  0.00    -0.023 C 
ATOM     23  C   UNL     1      -9.109   1.571  16.949  1.00  0.00     0.031 C 
ATOM     24  C   UNL     1      -8.283   0.337  17.320  1.00  0.00     0.002 C 
ATOM     25  C   UNL     1      -7.152  -1.753  16.555  1.00  0.00     0.010 C 
ATOM     26  C   UNL     1      -6.657   0.388  15.300  1.00  0.00     0.012 C 
ATOM     27  C   UNL     1      -7.157   0.638  18.327  1.00  0.00     0.036 C 
ATOM     28  C   UNL     1      -6.042  -1.547  17.611  1.00  0.00     0.032 C 
ATOM     29  C   UNL     1      -6.499  -0.675  18.799  1.00  0.00     0.114 C 
BRANCH  29  30
ATOM     30  O   UNL     1      -5.384  -0.382  19.600  1.00  0.00    -0.393 OA
ATOM     31  H   UNL     1      -4.594  -0.769  19.144  1.00  0.00     0.210 HD
ENDBRANCH  29  30
ENDBRANCH   9  11
ENDBRANCH   1   9
TORSDOF 7
ENDMDL
