MODEL 1
REMARK VINA RESULT:    -7.700      0.000      0.000
REMARK INTER + INTRA:         -11.775
REMARK INTER:                 -10.626
REMARK INTRA:                  -1.149
REMARK UNBOUND:                -1.149
REMARK SMILES O=C([O-])[C@H]1O[C@@H](Oc2cc3oc(-c4ccccc4)cc(=O)c3c(O)c2O)[C@@H](O)[C@H](O)[C@H]1O
REMARK SMILES IDX 7 1 6 2 4 3 31 4 5 5 29 6 27 7 2 8 1 9 3 10 32 11 30 13
REMARK SMILES IDX 28 15 8 17 25 18 9 19 23 20 10 21 22 22 11 23 20 24 12 25
REMARK SMILES IDX 19 26 21 27 26 28 24 30 13 32 14 33 18 34 15 35 17 36 16 37
REMARK H PARENT 32 12 30 14 28 16 26 29 24 31
REMARK Flexibility Score: inf
ROOT
ATOM      1  O   UNL     1      12.602  20.402   2.194  1.00  0.00    -0.458 OA
ENDROOT
BRANCH   1   2
ATOM      2  C   UNL     1      12.221  21.488   1.342  1.00  0.00     0.339 C 
ATOM      3  C   UNL     1      11.745  20.155  -0.577  1.00  0.00     0.199 C 
ATOM      4  C   UNL     1      12.957  20.748  -1.343  1.00  0.00     0.180 C 
ATOM      5  O   UNL     1      11.240  21.060   0.402  1.00  0.00    -0.328 OA
ATOM      6  C   UNL     1      14.057  21.172  -0.364  1.00  0.00     0.181 C 
ATOM      7  C   UNL     1      13.445  22.137   0.664  1.00  0.00     0.214 C 
BRANCH   3   8
ATOM      8  C   UNL     1      11.952  18.766  -0.002  1.00  0.00     0.073 C 
ATOM      9  O   UNL     1      13.013  18.120  -0.226  1.00  0.00    -0.547 OA
ATOM     10  O   UNL     1      10.913  18.138   0.678  1.00  0.00    -0.547 OA
ENDBRANCH   3   8
BRANCH   4  11
ATOM     11  O   UNL     1      13.456  19.821  -2.277  1.00  0.00    -0.387 OA
ATOM     12  H   UNL     1      12.800  19.076  -2.328  1.00  0.00     0.211 HD
ENDBRANCH   4  11
BRANCH   6  13
ATOM     13  O   UNL     1      15.084  21.812  -1.076  1.00  0.00    -0.387 OA
ATOM     14  H   UNL     1      14.746  22.713  -1.320  1.00  0.00     0.211 HD
ENDBRANCH   6  13
BRANCH   7  15
ATOM     15  O   UNL     1      14.398  22.488   1.634  1.00  0.00    -0.384 OA
ATOM     16  H   UNL     1      14.937  21.675   1.819  1.00  0.00     0.211 HD
ENDBRANCH   7  15
ENDBRANCH   1   2
BRANCH   1  17
ATOM     17  C   UNL     1      12.272  20.302   3.552  1.00  0.00     0.172 A 
ATOM     18  C   UNL     1      13.093  19.616   4.468  1.00  0.00     0.201 A 
ATOM     19  C   UNL     1      11.120  20.949   3.994  1.00  0.00     0.098 A 
ATOM     20  C   UNL     1      12.707  19.529   5.832  1.00  0.00     0.176 A 
ATOM     21  C   UNL     1      10.739  20.891   5.331  1.00  0.00     0.146 A 
ATOM     22  C   UNL     1      11.524  20.178   6.265  1.00  0.00     0.111 A 
ATOM     23  O   UNL     1       9.630  21.517   5.713  1.00  0.00    -0.456 OA
ATOM     24  C   UNL     1      11.077  20.156   7.605  1.00  0.00     0.197 A 
ATOM     25  C   UNL     1       9.191  21.528   6.970  1.00  0.00     0.138 A 
ATOM     26  C   UNL     1       9.908  20.829   7.957  1.00  0.00     0.100 A 
ATOM     27  O   UNL     1      11.713  19.537   8.502  1.00  0.00    -0.289 OA
BRANCH  18  28
ATOM     28  O   UNL     1      14.293  19.075   4.000  1.00  0.00    -0.502 OA
ATOM     29  H   UNL     1      14.363  18.337   3.316  1.00  0.00     0.293 HD
ENDBRANCH  18  28
BRANCH  20  30
ATOM     30  O   UNL     1      13.478  18.822   6.763  1.00  0.00    -0.504 OA
ATOM     31  H   UNL     1      14.397  19.099   7.077  1.00  0.00     0.293 HD
ENDBRANCH  20  30
BRANCH  25  32
ATOM     32  C   UNL     1       7.942  22.272   7.284  1.00  0.00     0.017 A 
ATOM     33  C   UNL     1       7.920  23.153   8.382  1.00  0.00     0.012 A 
ATOM     34  C   UNL     1       6.761  22.092   6.536  1.00  0.00     0.012 A 
ATOM     35  C   UNL     1       6.752  23.850   8.710  1.00  0.00     0.001 A 
ATOM     36  C   UNL     1       5.597  22.792   6.869  1.00  0.00     0.001 A 
ATOM     37  C   UNL     1       5.592  23.670   7.953  1.00  0.00     0.000 A 
ENDBRANCH  25  32
ENDBRANCH   1  17
TORSDOF 9
ENDMDL
MODEL 2
REMARK VINA RESULT:    -7.601      2.139      8.332
REMARK INTER + INTRA:         -11.638
REMARK INTER:                 -10.170
REMARK INTRA:                  -1.468
REMARK UNBOUND:                -1.149
REMARK SMILES O=C([O-])[C@H]1O[C@@H](Oc2cc3oc(-c4ccccc4)cc(=O)c3c(O)c2O)[C@@H](O)[C@H](O)[C@H]1O
REMARK SMILES IDX 7 1 6 2 4 3 31 4 5 5 29 6 27 7 2 8 1 9 3 10 32 11 30 13
REMARK SMILES IDX 28 15 8 17 25 18 9 19 23 20 10 21 22 22 11 23 20 24 12 25
REMARK SMILES IDX 19 26 21 27 26 28 24 30 13 32 14 33 18 34 15 35 17 36 16 37
REMARK H PARENT 32 12 30 14 28 16 26 29 24 31
REMARK Flexibility Score: inf
ROOT
ATOM      1  O   UNL     1       9.119  21.313   6.890  1.00  0.00    -0.458 OA
ENDROOT
BRANCH   1   2
ATOM      2  C   UNL     1       9.139  22.620   7.475  1.00  0.00     0.339 C 
ATOM      3  C   UNL     1       7.909  22.044   9.435  1.00  0.00     0.199 C 
ATOM      4  C   UNL     1       6.700  22.903   8.982  1.00  0.00     0.180 C 
ATOM      5  O   UNL     1       9.137  22.528   8.897  1.00  0.00    -0.328 OA
ATOM      6  C   UNL     1       6.638  22.981   7.452  1.00  0.00     0.181 C 
ATOM      7  C   UNL     1       7.991  23.500   6.940  1.00  0.00     0.214 C 
BRANCH   3   8
ATOM      8  C   UNL     1       7.760  20.547   9.232  1.00  0.00     0.073 C 
ATOM      9  O   UNL     1       6.673  20.051   8.827  1.00  0.00    -0.547 OA
ATOM     10  O   UNL     1       8.789  19.692   9.616  1.00  0.00    -0.547 OA
ENDBRANCH   3   8
BRANCH   4  11
ATOM     11  O   UNL     1       5.499  22.382   9.498  1.00  0.00    -0.387 OA
ATOM     12  H   UNL     1       5.213  22.985  10.235  1.00  0.00     0.211 HD
ENDBRANCH   4  11
BRANCH   6  13
ATOM     13  O   UNL     1       5.609  23.859   7.078  1.00  0.00    -0.387 OA
ATOM     14  H   UNL     1       5.023  23.363   6.449  1.00  0.00     0.211 HD
ENDBRANCH   6  13
BRANCH   7  15
ATOM     15  O   UNL     1       8.012  23.510   5.535  1.00  0.00    -0.384 OA
ATOM     16  H   UNL     1       7.139  23.875   5.234  1.00  0.00     0.211 HD
ENDBRANCH   7  15
ENDBRANCH   1   2
BRANCH   1  17
ATOM     17  C   UNL     1      10.191  20.736   6.195  1.00  0.00     0.172 A 
ATOM     18  C   UNL     1      11.214  20.032   6.859  1.00  0.00     0.201 A 
ATOM     19  C   UNL     1      10.198  20.835   4.805  1.00  0.00     0.098 A 
ATOM     20  C   UNL     1      12.288  19.480   6.112  1.00  0.00     0.176 A 
ATOM     21  C   UNL     1      11.232  20.281   4.056  1.00  0.00     0.146 A 
ATOM     22  C   UNL     1      12.291  19.601   4.699  1.00  0.00     0.111 A 
ATOM     23  O   UNL     1      11.205  20.401   2.733  1.00  0.00    -0.456 OA
ATOM     24  C   UNL     1      13.311  19.067   3.881  1.00  0.00     0.197 A 
ATOM     25  C   UNL     1      12.142  19.895   1.933  1.00  0.00     0.138 A 
ATOM     26  C   UNL     1      13.236  19.217   2.496  1.00  0.00     0.100 A 
ATOM     27  O   UNL     1      14.297  18.453   4.372  1.00  0.00    -0.289 OA
BRANCH  18  28
ATOM     28  O   UNL     1      11.110  19.867   8.242  1.00  0.00    -0.502 OA
ATOM     29  H   UNL     1      10.557  20.452   8.851  1.00  0.00     0.293 HD
ENDBRANCH  18  28
BRANCH  20  30
ATOM     30  O   UNL     1      13.343  18.807   6.741  1.00  0.00    -0.504 OA
ATOM     31  H   UNL     1      14.202  18.533   6.287  1.00  0.00     0.293 HD
ENDBRANCH  20  30
BRANCH  25  32
ATOM     32  C   UNL     1      12.002  20.080   0.464  1.00  0.00     0.017 A 
ATOM     33  C   UNL     1      13.157  20.226  -0.328  1.00  0.00     0.012 A 
ATOM     34  C   UNL     1      10.740  20.154  -0.160  1.00  0.00     0.012 A 
ATOM     35  C   UNL     1      13.051  20.421  -1.709  1.00  0.00     0.001 A 
ATOM     36  C   UNL     1      10.641  20.349  -1.541  1.00  0.00     0.001 A 
ATOM     37  C   UNL     1      11.794  20.480  -2.315  1.00  0.00     0.000 A 
ENDBRANCH  25  32
ENDBRANCH   1  17
TORSDOF 9
ENDMDL
MODEL 3
REMARK VINA RESULT:    -7.509      2.497      3.136
REMARK INTER + INTRA:         -11.511
REMARK INTER:                 -10.045
REMARK INTRA:                  -1.466
REMARK UNBOUND:                -1.149
REMARK SMILES O=C([O-])[C@H]1O[C@@H](Oc2cc3oc(-c4ccccc4)cc(=O)c3c(O)c2O)[C@@H](O)[C@H](O)[C@H]1O
REMARK SMILES IDX 7 1 6 2 4 3 31 4 5 5 29 6 27 7 2 8 1 9 3 10 32 11 30 13
REMARK SMILES IDX 28 15 8 17 25 18 9 19 23 20 10 21 22 22 11 23 20 24 12 25
REMARK SMILES IDX 19 26 21 27 26 28 24 30 13 32 14 33 18 34 15 35 17 36 16 37
REMARK H PARENT 32 12 30 14 28 16 26 29 24 31
REMARK Flexibility Score: inf
ROOT
ATOM      1  O   UNL     1      13.014  19.632   0.584  1.00  0.00    -0.458 OA
ENDROOT
BRANCH   1   2
ATOM      2  C   UNL     1      12.684  20.945   0.116  1.00  0.00     0.339 C 
ATOM      3  C   UNL     1      12.027  20.278  -2.077  1.00  0.00     0.199 C 
ATOM      4  C   UNL     1      13.248  20.995  -2.709  1.00  0.00     0.180 C 
ATOM      5  O   UNL     1      11.634  20.879  -0.846  1.00  0.00    -0.328 OA
ATOM      6  C   UNL     1      14.417  21.038  -1.720  1.00  0.00     0.181 C 
ATOM      7  C   UNL     1      13.925  21.689  -0.417  1.00  0.00     0.214 C 
BRANCH   3   8
ATOM      8  C   UNL     1      12.147  18.770  -1.951  1.00  0.00     0.073 C 
ATOM      9  O   UNL     1      13.111  18.148  -2.478  1.00  0.00    -0.547 OA
ATOM     10  O   UNL     1      11.121  18.043  -1.356  1.00  0.00    -0.547 OA
ENDBRANCH   3   8
BRANCH   4  11
ATOM     11  O   UNL     1      13.634  20.360  -3.903  1.00  0.00    -0.387 OA
ATOM     12  H   UNL     1      12.813  20.244  -4.451  1.00  0.00     0.211 HD
ENDBRANCH   4  11
BRANCH   6  13
ATOM     13  O   UNL     1      15.461  21.796  -2.274  1.00  0.00    -0.387 OA
ATOM     14  H   UNL     1      15.757  21.320  -3.094  1.00  0.00     0.211 HD
ENDBRANCH   6  13
BRANCH   7  15
ATOM     15  O   UNL     1      14.943  21.674   0.553  1.00  0.00    -0.384 OA
ATOM     16  H   UNL     1      14.532  21.960   1.409  1.00  0.00     0.211 HD
ENDBRANCH   7  15
ENDBRANCH   1   2
BRANCH   1  17
ATOM     17  C   UNL     1      12.611  19.104   1.818  1.00  0.00     0.172 A 
ATOM     18  C   UNL     1      12.404  17.723   2.002  1.00  0.00     0.201 A 
ATOM     19  C   UNL     1      12.464  19.982   2.889  1.00  0.00     0.098 A 
ATOM     20  C   UNL     1      11.979  17.237   3.267  1.00  0.00     0.176 A 
ATOM     21  C   UNL     1      12.069  19.519   4.141  1.00  0.00     0.146 A 
ATOM     22  C   UNL     1      11.818  18.143   4.345  1.00  0.00     0.111 A 
ATOM     23  O   UNL     1      11.934  20.389   5.137  1.00  0.00    -0.456 OA
ATOM     24  C   UNL     1      11.416  17.742   5.638  1.00  0.00     0.197 A 
ATOM     25  C   UNL     1      11.572  20.041   6.370  1.00  0.00     0.138 A 
ATOM     26  C   UNL     1      11.291  18.693   6.650  1.00  0.00     0.100 A 
ATOM     27  O   UNL     1      11.164  16.535   5.905  1.00  0.00    -0.289 OA
BRANCH  18  28
ATOM     28  O   UNL     1      12.667  16.868   0.929  1.00  0.00    -0.502 OA
ATOM     29  H   UNL     1      13.572  16.746   0.499  1.00  0.00     0.293 HD
ENDBRANCH  18  28
BRANCH  20  30
ATOM     30  O   UNL     1      11.726  15.875   3.477  1.00  0.00    -0.504 OA
ATOM     31  H   UNL     1      11.185  15.289   2.859  1.00  0.00     0.293 HD
ENDBRANCH  20  30
BRANCH  25  32
ATOM     32  C   UNL     1      11.466  21.099   7.409  1.00  0.00     0.017 A 
ATOM     33  C   UNL     1      11.700  20.771   8.758  1.00  0.00     0.012 A 
ATOM     34  C   UNL     1      11.096  22.422   7.089  1.00  0.00     0.012 A 
ATOM     35  C   UNL     1      11.587  21.744   9.756  1.00  0.00     0.001 A 
ATOM     36  C   UNL     1      10.984  23.390   8.091  1.00  0.00     0.001 A 
ATOM     37  C   UNL     1      11.231  23.053   9.422  1.00  0.00     0.000 A 
ENDBRANCH  25  32
ENDBRANCH   1  17
TORSDOF 9
ENDMDL
MODEL 4
REMARK VINA RESULT:    -7.301      1.984      8.453
REMARK INTER + INTRA:         -11.224
REMARK INTER:                 -10.209
REMARK INTRA:                  -1.015
REMARK UNBOUND:                -1.149
REMARK SMILES O=C([O-])[C@H]1O[C@@H](Oc2cc3oc(-c4ccccc4)cc(=O)c3c(O)c2O)[C@@H](O)[C@H](O)[C@H]1O
REMARK SMILES IDX 7 1 6 2 4 3 31 4 5 5 29 6 27 7 2 8 1 9 3 10 32 11 30 13
REMARK SMILES IDX 28 15 8 17 25 18 9 19 23 20 10 21 22 22 11 23 20 24 12 25
REMARK SMILES IDX 19 26 21 27 26 28 24 30 13 32 14 33 18 34 15 35 17 36 16 37
REMARK H PARENT 32 12 30 14 28 16 26 29 24 31
REMARK Flexibility Score: inf
ROOT
ATOM      1  O   UNL     1      10.592  21.017   5.425  1.00  0.00    -0.458 OA
ENDROOT
BRANCH   1   2
ATOM      2  C   UNL     1      10.369  19.909   6.305  1.00  0.00     0.339 C 
ATOM      3  C   UNL     1       8.957  21.075   7.833  1.00  0.00     0.199 C 
ATOM      4  C   UNL     1      10.028  20.995   8.952  1.00  0.00     0.180 C 
ATOM      5  O   UNL     1       9.078  20.003   6.902  1.00  0.00    -0.328 OA
ATOM      6  C   UNL     1      11.435  20.946   8.347  1.00  0.00     0.181 C 
ATOM      7  C   UNL     1      11.494  19.777   7.351  1.00  0.00     0.214 C 
BRANCH   3   8
ATOM      8  C   UNL     1       8.845  22.416   7.131  1.00  0.00     0.073 C 
ATOM      9  O   UNL     1       9.580  23.387   7.461  1.00  0.00    -0.547 OA
ATOM     10  O   UNL     1       7.835  22.624   6.196  1.00  0.00    -0.547 OA
ENDBRANCH   3   8
BRANCH   4  11
ATOM     11  O   UNL     1       9.907  22.084   9.835  1.00  0.00    -0.387 OA
ATOM     12  H   UNL     1      10.630  21.992  10.511  1.00  0.00     0.211 HD
ENDBRANCH   4  11
BRANCH   6  13
ATOM     13  O   UNL     1      12.372  20.754   9.376  1.00  0.00    -0.387 OA
ATOM     14  H   UNL     1      12.291  21.532   9.987  1.00  0.00     0.211 HD
ENDBRANCH   6  13
BRANCH   7  15
ATOM     15  O   UNL     1      12.743  19.744   6.708  1.00  0.00    -0.384 OA
ATOM     16  H   UNL     1      12.649  19.146   5.922  1.00  0.00     0.211 HD
ENDBRANCH   7  15
ENDBRANCH   1   2
BRANCH   1  17
ATOM     17  C   UNL     1      11.411  20.978   4.289  1.00  0.00     0.172 A 
ATOM     18  C   UNL     1      12.552  21.794   4.167  1.00  0.00     0.201 A 
ATOM     19  C   UNL     1      11.095  20.063   3.286  1.00  0.00     0.098 A 
ATOM     20  C   UNL     1      13.341  21.730   2.988  1.00  0.00     0.176 A 
ATOM     21  C   UNL     1      11.870  19.972   2.134  1.00  0.00     0.146 A 
ATOM     22  C   UNL     1      12.999  20.806   1.968  1.00  0.00     0.111 A 
ATOM     23  O   UNL     1      11.533  19.092   1.198  1.00  0.00    -0.456 OA
ATOM     24  C   UNL     1      13.739  20.666   0.774  1.00  0.00     0.197 A 
ATOM     25  C   UNL     1      12.218  18.924   0.069  1.00  0.00     0.138 A 
ATOM     26  C   UNL     1      13.346  19.725  -0.177  1.00  0.00     0.100 A 
ATOM     27  O   UNL     1      14.756  21.374   0.541  1.00  0.00    -0.289 OA
BRANCH  18  28
ATOM     28  O   UNL     1      12.890  22.618   5.243  1.00  0.00    -0.502 OA
ATOM     29  H   UNL     1      12.668  22.424   6.208  1.00  0.00     0.293 HD
ENDBRANCH  18  28
BRANCH  20  30
ATOM     30  O   UNL     1      14.461  22.553   2.815  1.00  0.00    -0.504 OA
ATOM     31  H   UNL     1      15.220  22.365   2.177  1.00  0.00     0.293 HD
ENDBRANCH  20  30
BRANCH  25  32
ATOM     32  C   UNL     1      11.754  17.898  -0.903  1.00  0.00     0.017 A 
ATOM     33  C   UNL     1      12.094  18.030  -2.263  1.00  0.00     0.012 A 
ATOM     34  C   UNL     1      10.946  16.812  -0.509  1.00  0.00     0.012 A 
ATOM     35  C   UNL     1      11.653  17.088  -3.199  1.00  0.00     0.001 A 
ATOM     36  C   UNL     1      10.509  15.875  -1.450  1.00  0.00     0.001 A 
ATOM     37  C   UNL     1      10.863  16.012  -2.793  1.00  0.00     0.000 A 
ENDBRANCH  25  32
ENDBRANCH   1  17
TORSDOF 9
ENDMDL
MODEL 5
REMARK VINA RESULT:    -7.301      1.192      2.264
REMARK INTER + INTRA:         -11.224
REMARK INTER:                  -9.666
REMARK INTRA:                  -1.558
REMARK UNBOUND:                -1.149
REMARK SMILES O=C([O-])[C@H]1O[C@@H](Oc2cc3oc(-c4ccccc4)cc(=O)c3c(O)c2O)[C@@H](O)[C@H](O)[C@H]1O
REMARK SMILES IDX 7 1 6 2 4 3 31 4 5 5 29 6 27 7 2 8 1 9 3 10 32 11 30 13
REMARK SMILES IDX 28 15 8 17 25 18 9 19 23 20 10 21 22 22 11 23 20 24 12 25
REMARK SMILES IDX 19 26 21 27 26 28 24 30 13 32 14 33 18 34 15 35 17 36 16 37
REMARK H PARENT 32 12 30 14 28 16 26 29 24 31
REMARK Flexibility Score: inf
ROOT
ATOM      1  O   UNL     1      11.829  20.276   2.592  1.00  0.00    -0.458 OA
ENDROOT
BRANCH   1   2
ATOM      2  C   UNL     1      11.586  19.091   1.824  1.00  0.00     0.339 C 
ATOM      3  C   UNL     1      13.500  19.301   0.417  1.00  0.00     0.199 C 
ATOM      4  C   UNL     1      12.611  19.582  -0.823  1.00  0.00     0.180 C 
ATOM      5  O   UNL     1      12.818  18.519   1.394  1.00  0.00    -0.328 OA
ATOM      6  C   UNL     1      11.296  20.249  -0.403  1.00  0.00     0.181 C 
ATOM      7  C   UNL     1      10.620  19.360   0.653  1.00  0.00     0.214 C 
BRANCH   3   8
ATOM      8  C   UNL     1      14.161  20.518   1.036  1.00  0.00     0.073 C 
ATOM      9  O   UNL     1      13.926  21.679   0.601  1.00  0.00    -0.547 OA
ATOM     10  O   UNL     1      15.137  20.351   2.014  1.00  0.00    -0.547 OA
ENDBRANCH   3   8
BRANCH   4  11
ATOM     11  O   UNL     1      13.296  20.385  -1.754  1.00  0.00    -0.387 OA
ATOM     12  H   UNL     1      12.904  21.296  -1.698  1.00  0.00     0.211 HD
ENDBRANCH   4  11
BRANCH   6  13
ATOM     13  O   UNL     1      10.467  20.380  -1.528  1.00  0.00    -0.387 OA
ATOM     14  H   UNL     1       9.841  21.127  -1.337  1.00  0.00     0.211 HD
ENDBRANCH   6  13
BRANCH   7  15
ATOM     15  O   UNL     1       9.449  19.973   1.131  1.00  0.00    -0.384 OA
ATOM     16  H   UNL     1       9.521  20.004   2.121  1.00  0.00     0.211 HD
ENDBRANCH   7  15
ENDBRANCH   1   2
BRANCH   1  17
ATOM     17  C   UNL     1      11.725  20.354   3.987  1.00  0.00     0.172 A 
ATOM     18  C   UNL     1      12.709  19.812   4.837  1.00  0.00     0.201 A 
ATOM     19  C   UNL     1      10.633  21.034   4.525  1.00  0.00     0.098 A 
ATOM     20  C   UNL     1      12.550  19.902   6.246  1.00  0.00     0.176 A 
ATOM     21  C   UNL     1      10.474  21.149   5.902  1.00  0.00     0.146 A 
ATOM     22  C   UNL     1      11.426  20.583   6.780  1.00  0.00     0.111 A 
ATOM     23  O   UNL     1       9.417  21.800   6.376  1.00  0.00    -0.456 OA
ATOM     24  C   UNL     1      11.201  20.732   8.166  1.00  0.00     0.197 A 
ATOM     25  C   UNL     1       9.185  21.972   7.676  1.00  0.00     0.138 A 
ATOM     26  C   UNL     1      10.078  21.426   8.614  1.00  0.00     0.100 A 
ATOM     27  O   UNL     1      11.996  20.252   9.019  1.00  0.00    -0.289 OA
BRANCH  18  28
ATOM     28  O   UNL     1      13.838  19.235   4.253  1.00  0.00    -0.502 OA
ATOM     29  H   UNL     1      14.584  19.750   3.810  1.00  0.00     0.293 HD
ENDBRANCH  18  28
BRANCH  20  30
ATOM     30  O   UNL     1      13.488  19.342   7.122  1.00  0.00    -0.504 OA
ATOM     31  H   UNL     1      13.335  18.508   7.670  1.00  0.00     0.293 HD
ENDBRANCH  20  30
BRANCH  25  32
ATOM     32  C   UNL     1       7.974  22.729   8.091  1.00  0.00     0.017 A 
ATOM     33  C   UNL     1       7.984  23.439   9.308  1.00  0.00     0.012 A 
ATOM     34  C   UNL     1       6.794  22.727   7.320  1.00  0.00     0.012 A 
ATOM     35  C   UNL     1       6.852  24.142   9.730  1.00  0.00     0.001 A 
ATOM     36  C   UNL     1       5.665  23.432   7.747  1.00  0.00     0.001 A 
ATOM     37  C   UNL     1       5.694  24.140   8.949  1.00  0.00     0.000 A 
ENDBRANCH  25  32
ENDBRANCH   1  17
TORSDOF 9
ENDMDL
MODEL 6
REMARK VINA RESULT:    -7.216      3.010      9.057
REMARK INTER + INTRA:         -11.107
REMARK INTER:                 -10.269
REMARK INTRA:                  -0.838
REMARK UNBOUND:                -1.149
REMARK SMILES O=C([O-])[C@H]1O[C@@H](Oc2cc3oc(-c4ccccc4)cc(=O)c3c(O)c2O)[C@@H](O)[C@H](O)[C@H]1O
REMARK SMILES IDX 7 1 6 2 4 3 31 4 5 5 29 6 27 7 2 8 1 9 3 10 32 11 30 13
REMARK SMILES IDX 28 15 8 17 25 18 9 19 23 20 10 21 22 22 11 23 20 24 12 25
REMARK SMILES IDX 19 26 21 27 26 28 24 30 13 32 14 33 18 34 15 35 17 36 16 37
REMARK H PARENT 32 12 30 14 28 16 26 29 24 31
REMARK Flexibility Score: inf
ROOT
ATOM      1  O   UNL     1      12.681  20.414   2.814  1.00  0.00    -0.458 OA
ENDROOT
BRANCH   1   2
ATOM      2  C   UNL     1      13.560  20.454   3.945  1.00  0.00     0.339 C 
ATOM      3  C   UNL     1      12.759  18.451   4.963  1.00  0.00     0.199 C 
ATOM      4  C   UNL     1      12.150  19.245   6.147  1.00  0.00     0.180 C 
ATOM      5  O   UNL     1      13.868  19.132   4.380  1.00  0.00    -0.328 OA
ATOM      6  C   UNL     1      11.756  20.658   5.702  1.00  0.00     0.181 C 
ATOM      7  C   UNL     1      12.990  21.330   5.079  1.00  0.00     0.214 C 
BRANCH   3   8
ATOM      8  C   UNL     1      11.770  17.987   3.909  1.00  0.00     0.073 C 
ATOM      9  O   UNL     1      10.528  18.012   4.127  1.00  0.00    -0.547 OA
ATOM     10  O   UNL     1      12.236  17.406   2.733  1.00  0.00    -0.547 OA
ENDBRANCH   3   8
BRANCH   4  11
ATOM     11  O   UNL     1      11.037  18.567   6.680  1.00  0.00    -0.387 OA
ATOM     12  H   UNL     1      11.127  18.592   7.669  1.00  0.00     0.211 HD
ENDBRANCH   4  11
BRANCH   6  13
ATOM     13  O   UNL     1      11.321  21.387   6.820  1.00  0.00    -0.387 OA
ATOM     14  H   UNL     1      10.405  21.068   7.032  1.00  0.00     0.211 HD
ENDBRANCH   6  13
BRANCH   7  15
ATOM     15  O   UNL     1      12.656  22.600   4.579  1.00  0.00    -0.384 OA
ATOM     16  H   UNL     1      12.225  22.460   3.696  1.00  0.00     0.211 HD
ENDBRANCH   7  15
ENDBRANCH   1   2
BRANCH   1  17
ATOM     17  C   UNL     1      13.082  20.621   1.488  1.00  0.00     0.172 A 
ATOM     18  C   UNL     1      13.903  21.705   1.121  1.00  0.00     0.201 A 
ATOM     19  C   UNL     1      12.685  19.689   0.531  1.00  0.00     0.098 A 
ATOM     20  C   UNL     1      14.270  21.882  -0.240  1.00  0.00     0.176 A 
ATOM     21  C   UNL     1      13.052  19.837  -0.803  1.00  0.00     0.146 A 
ATOM     22  C   UNL     1      13.845  20.936  -1.206  1.00  0.00     0.111 A 
ATOM     23  O   UNL     1      12.649  18.930  -1.687  1.00  0.00    -0.456 OA
ATOM     24  C   UNL     1      14.178  21.027  -2.575  1.00  0.00     0.197 A 
ATOM     25  C   UNL     1      12.959  18.979  -2.981  1.00  0.00     0.138 A 
ATOM     26  C   UNL     1      13.733  20.049  -3.463  1.00  0.00     0.100 A 
ATOM     27  O   UNL     1      14.875  21.979  -3.022  1.00  0.00    -0.289 OA
BRANCH  18  28
ATOM     28  O   UNL     1      14.365  22.552   2.131  1.00  0.00    -0.502 OA
ATOM     29  H   UNL     1      14.328  23.560   2.098  1.00  0.00     0.293 HD
ENDBRANCH  18  28
BRANCH  20  30
ATOM     30  O   UNL     1      15.053  22.969  -0.648  1.00  0.00    -0.504 OA
ATOM     31  H   UNL     1      14.816  23.939  -0.493  1.00  0.00     0.293 HD
ENDBRANCH  20  30
BRANCH  25  32
ATOM     32  C   UNL     1      12.462  17.901  -3.876  1.00  0.00     0.017 A 
ATOM     33  C   UNL     1      12.789  17.933  -5.246  1.00  0.00     0.012 A 
ATOM     34  C   UNL     1      11.634  16.863  -3.402  1.00  0.00     0.012 A 
ATOM     35  C   UNL     1      12.317  16.942  -6.112  1.00  0.00     0.001 A 
ATOM     36  C   UNL     1      11.166  15.875  -4.273  1.00  0.00     0.001 A 
ATOM     37  C   UNL     1      11.507  15.913  -5.625  1.00  0.00     0.000 A 
ENDBRANCH  25  32
ENDBRANCH   1  17
TORSDOF 9
ENDMDL
MODEL 7
REMARK VINA RESULT:    -7.127      2.960      9.313
REMARK INTER + INTRA:         -10.984
REMARK INTER:                  -9.611
REMARK INTRA:                  -1.374
REMARK UNBOUND:                -1.149
REMARK SMILES O=C([O-])[C@H]1O[C@@H](Oc2cc3oc(-c4ccccc4)cc(=O)c3c(O)c2O)[C@@H](O)[C@H](O)[C@H]1O
REMARK SMILES IDX 7 1 6 2 4 3 31 4 5 5 29 6 27 7 2 8 1 9 3 10 32 11 30 13
REMARK SMILES IDX 28 15 8 17 25 18 9 19 23 20 10 21 22 22 11 23 20 24 12 25
REMARK SMILES IDX 19 26 21 27 26 28 24 30 13 32 14 33 18 34 15 35 17 36 16 37
REMARK H PARENT 32 12 30 14 28 16 26 29 24 31
REMARK Flexibility Score: inf
ROOT
ATOM      1  O   UNL     1      12.428  19.590   2.826  1.00  0.00    -0.458 OA
ENDROOT
BRANCH   1   2
ATOM      2  C   UNL     1      11.195  18.917   3.109  1.00  0.00     0.339 C 
ATOM      3  C   UNL     1      10.685  20.138   5.093  1.00  0.00     0.199 C 
ATOM      4  C   UNL     1      10.897  18.880   5.974  1.00  0.00     0.180 C 
ATOM      5  O   UNL     1      10.289  19.799   3.766  1.00  0.00    -0.328 OA
ATOM      6  C   UNL     1      11.908  17.931   5.322  1.00  0.00     0.181 C 
ATOM      7  C   UNL     1      11.426  17.613   3.898  1.00  0.00     0.214 C 
BRANCH   3   8
ATOM      8  C   UNL     1      11.826  21.139   5.098  1.00  0.00     0.073 C 
ATOM      9  O   UNL     1      12.733  21.087   5.973  1.00  0.00    -0.547 OA
ATOM     10  O   UNL     1      11.812  22.207   4.205  1.00  0.00    -0.547 OA
ENDBRANCH   3   8
BRANCH   4  11
ATOM     11  O   UNL     1      11.321  19.243   7.265  1.00  0.00    -0.387 OA
ATOM     12  H   UNL     1      12.308  19.129   7.291  1.00  0.00     0.211 HD
ENDBRANCH   4  11
BRANCH   6  13
ATOM     13  O   UNL     1      11.987  16.752   6.080  1.00  0.00    -0.387 OA
ATOM     14  H   UNL     1      12.947  16.498   6.118  1.00  0.00     0.211 HD
ENDBRANCH   6  13
BRANCH   7  15
ATOM     15  O   UNL     1      12.367  16.811   3.230  1.00  0.00    -0.384 OA
ATOM     16  H   UNL     1      12.575  17.262   2.370  1.00  0.00     0.211 HD
ENDBRANCH   7  15
ENDBRANCH   1   2
BRANCH   1  17
ATOM     17  C   UNL     1      12.850  19.973   1.546  1.00  0.00     0.172 A 
ATOM     18  C   UNL     1      13.595  21.148   1.330  1.00  0.00     0.201 A 
ATOM     19  C   UNL     1      12.553  19.127   0.479  1.00  0.00     0.098 A 
ATOM     20  C   UNL     1      13.986  21.503   0.011  1.00  0.00     0.176 A 
ATOM     21  C   UNL     1      12.946  19.449  -0.816  1.00  0.00     0.146 A 
ATOM     22  C   UNL     1      13.663  20.641  -1.067  1.00  0.00     0.111 A 
ATOM     23  O   UNL     1      12.640  18.619  -1.808  1.00  0.00    -0.456 OA
ATOM     24  C   UNL     1      14.028  20.909  -2.405  1.00  0.00     0.197 A 
ATOM     25  C   UNL     1      12.982  18.835  -3.077  1.00  0.00     0.138 A 
ATOM     26  C   UNL     1      13.684  20.006  -3.410  1.00  0.00     0.100 A 
ATOM     27  O   UNL     1      14.661  21.953  -2.719  1.00  0.00    -0.289 OA
BRANCH  18  28
ATOM     28  O   UNL     1      13.961  21.909   2.442  1.00  0.00    -0.502 OA
ATOM     29  H   UNL     1      14.640  21.628   3.134  1.00  0.00     0.293 HD
ENDBRANCH  18  28
BRANCH  20  30
ATOM     30  O   UNL     1      14.694  22.683  -0.246  1.00  0.00    -0.504 OA
ATOM     31  H   UNL     1      14.270  23.586  -0.398  1.00  0.00     0.293 HD
ENDBRANCH  20  30
BRANCH  25  32
ATOM     32  C   UNL     1      12.595  17.830  -4.102  1.00  0.00     0.017 A 
ATOM     33  C   UNL     1      13.120  17.933  -5.405  1.00  0.00     0.012 A 
ATOM     34  C   UNL     1      11.682  16.793  -3.820  1.00  0.00     0.012 A 
ATOM     35  C   UNL     1      12.756  17.012  -6.392  1.00  0.00     0.001 A 
ATOM     36  C   UNL     1      11.322  15.876  -4.812  1.00  0.00     0.001 A 
ATOM     37  C   UNL     1      11.859  15.983  -6.095  1.00  0.00     0.000 A 
ENDBRANCH  25  32
ENDBRANCH   1  17
TORSDOF 9
ENDMDL
MODEL 8
REMARK VINA RESULT:    -6.902      1.009      2.056
REMARK INTER + INTRA:         -10.673
REMARK INTER:                  -9.911
REMARK INTRA:                  -0.762
REMARK UNBOUND:                -1.149
REMARK SMILES O=C([O-])[C@H]1O[C@@H](Oc2cc3oc(-c4ccccc4)cc(=O)c3c(O)c2O)[C@@H](O)[C@H](O)[C@H]1O
REMARK SMILES IDX 7 1 6 2 4 3 31 4 5 5 29 6 27 7 2 8 1 9 3 10 32 11 30 13
REMARK SMILES IDX 28 15 8 17 25 18 9 19 23 20 10 21 22 22 11 23 20 24 12 25
REMARK SMILES IDX 19 26 21 27 26 28 24 30 13 32 14 33 18 34 15 35 17 36 16 37
REMARK H PARENT 32 12 30 14 28 16 26 29 24 31
REMARK Flexibility Score: inf
ROOT
ATOM      1  O   UNL     1      12.134  19.875   2.473  1.00  0.00    -0.458 OA
ENDROOT
BRANCH   1   2
ATOM      2  C   UNL     1      13.420  19.889   1.843  1.00  0.00     0.339 C 
ATOM      3  C   UNL     1      12.870  21.499   0.172  1.00  0.00     0.199 C 
ATOM      4  C   UNL     1      12.980  20.436  -0.951  1.00  0.00     0.180 C 
ATOM      5  O   UNL     1      13.689  21.176   1.293  1.00  0.00    -0.328 OA
ATOM      6  C   UNL     1      12.645  19.043  -0.408  1.00  0.00     0.181 C 
ATOM      7  C   UNL     1      13.555  18.762   0.798  1.00  0.00     0.214 C 
BRANCH   3   8
ATOM      8  C   UNL     1      11.458  21.859   0.596  1.00  0.00     0.073 C 
ATOM      9  O   UNL     1      10.457  21.304   0.063  1.00  0.00    -0.547 OA
ATOM     10  O   UNL     1      11.250  22.903   1.492  1.00  0.00    -0.547 OA
ENDBRANCH   3   8
BRANCH   4  11
ATOM     11  O   UNL     1      12.135  20.762  -2.028  1.00  0.00    -0.387 OA
ATOM     12  H   UNL     1      11.947  21.736  -1.966  1.00  0.00     0.211 HD
ENDBRANCH   4  11
BRANCH   6  13
ATOM     13  O   UNL     1      12.869  18.090  -1.415  1.00  0.00    -0.387 OA
ATOM     14  H   UNL     1      13.846  17.911  -1.428  1.00  0.00     0.211 HD
ENDBRANCH   6  13
BRANCH   7  15
ATOM     15  O   UNL     1      13.226  17.527   1.383  1.00  0.00    -0.384 OA
ATOM     16  H   UNL     1      12.501  17.131   0.834  1.00  0.00     0.211 HD
ENDBRANCH   7  15
ENDBRANCH   1   2
BRANCH   1  17
ATOM     17  C   UNL     1      11.925  19.966   3.855  1.00  0.00     0.172 A 
ATOM     18  C   UNL     1      12.828  19.408   4.781  1.00  0.00     0.201 A 
ATOM     19  C   UNL     1      10.812  20.675   4.303  1.00  0.00     0.098 A 
ATOM     20  C   UNL     1      12.564  19.513   6.173  1.00  0.00     0.176 A 
ATOM     21  C   UNL     1      10.550  20.805   5.664  1.00  0.00     0.146 A 
ATOM     22  C   UNL     1      11.419  20.223   6.615  1.00  0.00     0.111 A 
ATOM     23  O   UNL     1       9.476  21.484   6.052  1.00  0.00    -0.456 OA
ATOM     24  C   UNL     1      11.093  20.389   7.979  1.00  0.00     0.197 A 
ATOM     25  C   UNL     1       9.149  21.672   7.329  1.00  0.00     0.138 A 
ATOM     26  C   UNL     1       9.955  21.112   8.335  1.00  0.00     0.100 A 
ATOM     27  O   UNL     1      11.808  19.897   8.893  1.00  0.00    -0.289 OA
BRANCH  18  28
ATOM     28  O   UNL     1      13.985  18.800   4.289  1.00  0.00    -0.502 OA
ATOM     29  H   UNL     1      14.012  17.904   3.827  1.00  0.00     0.293 HD
ENDBRANCH  18  28
BRANCH  20  30
ATOM     30  O   UNL     1      13.418  18.938   7.122  1.00  0.00    -0.504 OA
ATOM     31  H   UNL     1      13.316  19.035   8.122  1.00  0.00     0.293 HD
ENDBRANCH  20  30
BRANCH  25  32
ATOM     32  C   UNL     1       7.928  22.460   7.645  1.00  0.00     0.017 A 
ATOM     33  C   UNL     1       7.940  23.344   8.741  1.00  0.00     0.012 A 
ATOM     34  C   UNL     1       6.738  22.320   6.902  1.00  0.00     0.012 A 
ATOM     35  C   UNL     1       6.799  24.082   9.071  1.00  0.00     0.001 A 
ATOM     36  C   UNL     1       5.601  23.060   7.237  1.00  0.00     0.001 A 
ATOM     37  C   UNL     1       5.631  23.941   8.319  1.00  0.00     0.000 A 
ENDBRANCH  25  32
ENDBRANCH   1  17
TORSDOF 9
ENDMDL
MODEL 9
REMARK VINA RESULT:    -6.637      2.159      3.041
REMARK INTER + INTRA:         -10.308
REMARK INTER:                  -9.032
REMARK INTRA:                  -1.275
REMARK UNBOUND:                -1.149
REMARK SMILES O=C([O-])[C@H]1O[C@@H](Oc2cc3oc(-c4ccccc4)cc(=O)c3c(O)c2O)[C@@H](O)[C@H](O)[C@H]1O
REMARK SMILES IDX 7 1 6 2 4 3 31 4 5 5 29 6 27 7 2 8 1 9 3 10 32 11 30 13
REMARK SMILES IDX 28 15 8 17 25 18 9 19 23 20 10 21 22 22 11 23 20 24 12 25
REMARK SMILES IDX 19 26 21 27 26 28 24 30 13 32 14 33 18 34 15 35 17 36 16 37
REMARK H PARENT 32 12 30 14 28 16 26 29 24 31
REMARK Flexibility Score: inf
ROOT
ATOM      1  O   UNL     1      11.671  18.801   0.641  1.00  0.00    -0.458 OA
ENDROOT
BRANCH   1   2
ATOM      2  C   UNL     1      10.726  19.158  -0.375  1.00  0.00     0.339 C 
ATOM      3  C   UNL     1      10.504  16.970  -1.297  1.00  0.00     0.199 C 
ATOM      4  C   UNL     1      11.200  17.406  -2.612  1.00  0.00     0.180 C 
ATOM      5  O   UNL     1       9.857  18.063  -0.649  1.00  0.00    -0.328 OA
ATOM      6  C   UNL     1      12.184  18.550  -2.347  1.00  0.00     0.181 C 
ATOM      7  C   UNL     1      11.426  19.687  -1.643  1.00  0.00     0.214 C 
BRANCH   3   8
ATOM      8  C   UNL     1      11.367  16.179  -0.332  1.00  0.00     0.073 C 
ATOM      9  O   UNL     1      10.947  15.875   0.818  1.00  0.00    -0.547 OA
ATOM     10  O   UNL     1      12.687  15.889  -0.665  1.00  0.00    -0.547 OA
ENDBRANCH   3   8
BRANCH   4  11
ATOM     11  O   UNL     1      11.859  16.317  -3.211  1.00  0.00    -0.387 OA
ATOM     12  H   UNL     1      12.401  15.879  -2.502  1.00  0.00     0.211 HD
ENDBRANCH   4  11
BRANCH   6  13
ATOM     13  O   UNL     1      12.707  19.001  -3.569  1.00  0.00    -0.387 OA
ATOM     14  H   UNL     1      12.536  18.285  -4.236  1.00  0.00     0.211 HD
ENDBRANCH   6  13
BRANCH   7  15
ATOM     15  O   UNL     1      12.309  20.727  -1.302  1.00  0.00    -0.384 OA
ATOM     16  H   UNL     1      11.759  21.542  -1.169  1.00  0.00     0.211 HD
ENDBRANCH   7  15
ENDBRANCH   1   2
BRANCH   1  17
ATOM     17  C   UNL     1      11.836  19.491   1.850  1.00  0.00     0.172 A 
ATOM     18  C   UNL     1      13.008  20.218   2.135  1.00  0.00     0.201 A 
ATOM     19  C   UNL     1      10.780  19.481   2.759  1.00  0.00     0.098 A 
ATOM     20  C   UNL     1      13.135  20.887   3.382  1.00  0.00     0.176 A 
ATOM     21  C   UNL     1      10.880  20.149   3.976  1.00  0.00     0.146 A 
ATOM     22  C   UNL     1      12.059  20.856   4.304  1.00  0.00     0.111 A 
ATOM     23  O   UNL     1       9.853  20.112   4.818  1.00  0.00    -0.456 OA
ATOM     24  C   UNL     1      12.096  21.507   5.557  1.00  0.00     0.197 A 
ATOM     25  C   UNL     1       9.851  20.728   5.998  1.00  0.00     0.138 A 
ATOM     26  C   UNL     1      10.992  21.441   6.405  1.00  0.00     0.100 A 
ATOM     27  O   UNL     1      13.111  22.154   5.934  1.00  0.00    -0.289 OA
BRANCH  18  28
ATOM     28  O   UNL     1      13.996  20.288   1.151  1.00  0.00    -0.502 OA
ATOM     29  H   UNL     1      13.962  19.804   0.267  1.00  0.00     0.293 HD
ENDBRANCH  18  28
BRANCH  20  30
ATOM     30  O   UNL     1      14.300  21.588   3.717  1.00  0.00    -0.504 OA
ATOM     31  H   UNL     1      15.234  21.206   3.675  1.00  0.00     0.293 HD
ENDBRANCH  20  30
BRANCH  25  32
ATOM     32  C   UNL     1       8.639  20.627   6.854  1.00  0.00     0.017 A 
ATOM     33  C   UNL     1       8.782  20.592   8.255  1.00  0.00     0.012 A 
ATOM     34  C   UNL     1       7.345  20.525   6.303  1.00  0.00     0.012 A 
ATOM     35  C   UNL     1       7.659  20.478   9.081  1.00  0.00     0.001 A 
ATOM     36  C   UNL     1       6.227  20.411   7.135  1.00  0.00     0.001 A 
ATOM     37  C   UNL     1       6.383  20.390   8.521  1.00  0.00     0.000 A 
ENDBRANCH  25  32
ENDBRANCH   1  17
TORSDOF 9
ENDMDL
