MODEL 1
REMARK VINA RESULT:    -5.403      0.000      0.000
REMARK INTER + INTRA:         -11.121
REMARK INTER:                  -8.878
REMARK INTRA:                  -2.244
REMARK UNBOUND:                -2.244
REMARK SMILES COc1ccc([C@@H]2CC(=O)c3c(O)cc(O[C@@H]4O[C@@H](CO[C@H]5O[C@H](C)[C@H](O)[C@H](O)[C@H]5O)[C@@H](O)[C@H](O)[C@H]4O)cc3O2)cc1O
REMARK SMILES IDX 19 1 32 2 34 3 36 4 17 5 18 6 20 7 21 8 22 9 25 10 24 11
REMARK SMILES IDX 26 12 23 13 28 14 30 15 27 16 29 18 31 20 33 22 35 24 16 26
REMARK SMILES IDX 15 27 14 28 38 29 12 30 39 31 11 32 40 33 9 34 7 35 10 36
REMARK SMILES IDX 8 37 13 38 6 40 41 41 5 42 42 43 4 44 3 45 43 46 2 48 1 49
REMARK SMILES IDX 37 50
REMARK H PARENT 27 17 29 19 31 21 33 23 35 25 13 39 43 47 37 51
REMARK Flexibility Score: inf
ROOT
ATOM      1  C   UNL     1       1.577 -20.167  24.640  1.00  0.00     0.180 C 
ATOM      2  C   UNL     1       1.524 -19.905  26.164  1.00  0.00     0.177 C 
ATOM      3  C   UNL     1       2.752 -19.084  26.602  1.00  0.00     0.180 C 
ATOM      4  C   UNL     1       4.060 -19.670  26.022  1.00  0.00     0.214 C 
ATOM      5  C   UNL     1       3.916 -20.014  24.521  1.00  0.00     0.339 C 
ATOM      6  O   UNL     1       2.778 -20.827  24.276  1.00  0.00    -0.332 OA
ENDROOT
BRANCH   1   7
ATOM      7  C   UNL     1       0.381 -21.004  24.167  1.00  0.00     0.198 C 
BRANCH   7   8
ATOM      8  O   UNL     1       0.358 -21.060  22.750  1.00  0.00    -0.347 OA
BRANCH   8   9
ATOM      9  C   UNL     1      -0.022 -19.812  22.190  1.00  0.00     0.281 C 
ATOM     10  C   UNL     1       2.441 -19.616  19.454  1.00  0.00     0.041 C 
ATOM     11  C   UNL     1       1.235 -20.144  20.231  1.00  0.00     0.150 C 
ATOM     12  C   UNL     1      -0.012 -20.230  19.325  1.00  0.00     0.174 C 
ATOM     13  O   UNL     1       0.994 -19.289  21.339  1.00  0.00    -0.344 OA
ATOM     14  C   UNL     1      -1.189 -20.784  20.148  1.00  0.00     0.179 C 
ATOM     15  C   UNL     1      -1.365 -19.948  21.434  1.00  0.00     0.202 C 
BRANCH  12  16
ATOM     16  O   UNL     1      -0.325 -18.953  18.821  1.00  0.00    -0.388 OA
ATOM     17  H   UNL     1      -0.980 -18.547  19.446  1.00  0.00     0.211 HD
ENDBRANCH  12  16
BRANCH  14  18
ATOM     18  O   UNL     1      -2.364 -20.750  19.379  1.00  0.00    -0.387 OA
ATOM     19  H   UNL     1      -3.110 -20.550  20.004  1.00  0.00     0.211 HD
ENDBRANCH  14  18
BRANCH  15  20
ATOM     20  O   UNL     1      -2.362 -20.492  22.268  1.00  0.00    -0.385 OA
ATOM     21  H   UNL     1      -3.156 -19.896  22.223  1.00  0.00     0.211 HD
ENDBRANCH  15  20
ENDBRANCH   8   9
ENDBRANCH   7   8
ENDBRANCH   1   7
BRANCH   2  22
ATOM     22  O   UNL     1       1.482 -21.120  26.867  1.00  0.00    -0.387 OA
ATOM     23  H   UNL     1       0.992 -20.946  27.713  1.00  0.00     0.211 HD
ENDBRANCH   2  22
BRANCH   3  24
ATOM     24  O   UNL     1       2.593 -17.755  26.169  1.00  0.00    -0.387 OA
ATOM     25  H   UNL     1       1.727 -17.709  25.688  1.00  0.00     0.211 HD
ENDBRANCH   3  24
BRANCH   5  26
ATOM     26  O   UNL     1       3.878 -18.814  23.743  1.00  0.00    -0.462 OA
BRANCH  26  27
ATOM     27  C   UNL     1       4.574 -18.607  22.542  1.00  0.00     0.130 A 
ATOM     28  C   UNL     1       4.379 -17.471  21.736  1.00  0.00     0.093 A 
ATOM     29  C   UNL     1       5.501 -19.571  22.146  1.00  0.00     0.094 A 
ATOM     30  C   UNL     1       5.098 -17.302  20.546  1.00  0.00     0.133 A 
ATOM     31  C   UNL     1       6.216 -19.426  20.957  1.00  0.00     0.138 A 
ATOM     32  C   UNL     1       5.991 -18.320  20.113  1.00  0.00     0.102 A 
ATOM     33  O   UNL     1       7.159 -20.399  20.612  1.00  0.00    -0.484 OA
ATOM     34  C   UNL     1       6.654 -18.341  18.778  1.00  0.00     0.174 C 
ATOM     35  C   UNL     1       8.188 -20.152  19.655  1.00  0.00     0.211 C 
ATOM     36  O   UNL     1       6.361 -17.500  17.888  1.00  0.00    -0.294 OA
ATOM     37  C   UNL     1       7.598 -19.457  18.412  1.00  0.00     0.131 C 
BRANCH  30  38
ATOM     38  O   UNL     1       4.906 -16.104  19.853  1.00  0.00    -0.507 OA
ATOM     39  H   UNL     1       4.547 -15.259  20.273  1.00  0.00     0.293 HD
ENDBRANCH  30  38
BRANCH  35  40
ATOM     40  C   UNL     1       9.341 -19.426  20.333  1.00  0.00    -0.003 A 
ATOM     41  C   UNL     1      10.293 -18.794  19.516  1.00  0.00     0.057 A 
ATOM     42  C   UNL     1       9.531 -19.402  21.730  1.00  0.00     0.011 A 
ATOM     43  C   UNL     1      11.402 -18.143  20.071  1.00  0.00     0.158 A 
ATOM     44  C   UNL     1      10.633 -18.748  22.287  1.00  0.00     0.051 A 
ATOM     45  C   UNL     1      11.579 -18.113  21.460  1.00  0.00     0.160 A 
BRANCH  43  46
ATOM     46  O   UNL     1      12.338 -17.520  19.245  1.00  0.00    -0.504 OA
ATOM     47  H   UNL     1      13.028 -18.054  18.727  1.00  0.00     0.293 HD
ENDBRANCH  43  46
BRANCH  45  48
ATOM     48  O   UNL     1      12.702 -17.452  21.980  1.00  0.00    -0.493 OA
ATOM     49  C   UNL     1      12.672 -16.156  22.571  1.00  0.00     0.278 C 
ENDBRANCH  45  48
ENDBRANCH  35  40
ENDBRANCH  26  27
ENDBRANCH   5  26
BRANCH   4  50
ATOM     50  O   UNL     1       4.482 -20.788  26.765  1.00  0.00    -0.384 OA
ATOM     51  H   UNL     1       5.255 -21.197  26.301  1.00  0.00     0.211 HD
ENDBRANCH   4  50
TORSDOF 15
ENDMDL
MODEL 2
REMARK VINA RESULT:    -5.244      1.844      4.856
REMARK INTER + INTRA:         -10.859
REMARK INTER:                  -8.832
REMARK INTRA:                  -2.028
REMARK UNBOUND:                -2.244
REMARK SMILES COc1ccc([C@@H]2CC(=O)c3c(O)cc(O[C@@H]4O[C@@H](CO[C@H]5O[C@H](C)[C@H](O)[C@H](O)[C@H]5O)[C@@H](O)[C@H](O)[C@H]4O)cc3O2)cc1O
REMARK SMILES IDX 19 1 32 2 34 3 36 4 17 5 18 6 20 7 21 8 22 9 25 10 24 11
REMARK SMILES IDX 26 12 23 13 28 14 30 15 27 16 29 18 31 20 33 22 35 24 16 26
REMARK SMILES IDX 15 27 14 28 38 29 12 30 39 31 11 32 40 33 9 34 7 35 10 36
REMARK SMILES IDX 8 37 13 38 6 40 41 41 5 42 42 43 4 44 3 45 43 46 2 48 1 49
REMARK SMILES IDX 37 50
REMARK H PARENT 27 17 29 19 31 21 33 23 35 25 13 39 43 47 37 51
REMARK Flexibility Score: inf
ROOT
ATOM      1  C   UNL     1      -0.071 -20.068  20.809  1.00  0.00     0.180 C 
ATOM      2  C   UNL     1      -0.651 -20.495  19.439  1.00  0.00     0.177 C 
ATOM      3  C   UNL     1       0.240 -19.966  18.300  1.00  0.00     0.180 C 
ATOM      4  C   UNL     1       0.583 -18.471  18.498  1.00  0.00     0.214 C 
ATOM      5  C   UNL     1       1.012 -18.170  19.952  1.00  0.00     0.339 C 
ATOM      6  O   UNL     1       0.064 -18.659  20.890  1.00  0.00    -0.332 OA
ENDROOT
BRANCH   1   7
ATOM      7  C   UNL     1      -0.947 -20.556  21.972  1.00  0.00     0.198 C 
BRANCH   7   8
ATOM      8  O   UNL     1      -0.437 -20.065  23.201  1.00  0.00    -0.347 OA
BRANCH   8   9
ATOM      9  C   UNL     1       0.278 -21.070  23.903  1.00  0.00     0.281 C 
ATOM     10  C   UNL     1       3.720 -19.970  23.168  1.00  0.00     0.041 C 
ATOM     11  C   UNL     1       2.319 -19.910  23.778  1.00  0.00     0.150 C 
ATOM     12  C   UNL     1       2.389 -19.667  25.301  1.00  0.00     0.174 C 
ATOM     13  O   UNL     1       1.642 -21.125  23.492  1.00  0.00    -0.344 OA
ATOM     14  C   UNL     1       0.957 -19.594  25.861  1.00  0.00     0.179 C 
ATOM     15  C   UNL     1       0.165 -20.846  25.429  1.00  0.00     0.202 C 
BRANCH  12  16
ATOM     16  O   UNL     1       3.104 -20.710  25.919  1.00  0.00    -0.388 OA
ATOM     17  H   UNL     1       3.857 -20.293  26.411  1.00  0.00     0.211 HD
ENDBRANCH  12  16
BRANCH  14  18
ATOM     18  O   UNL     1       0.999 -19.502  27.262  1.00  0.00    -0.387 OA
ATOM     19  H   UNL     1       0.752 -18.569  27.495  1.00  0.00     0.211 HD
ENDBRANCH  14  18
BRANCH  15  20
ATOM     20  O   UNL     1      -1.184 -20.764  25.829  1.00  0.00    -0.385 OA
ATOM     21  H   UNL     1      -1.246 -20.086  26.553  1.00  0.00     0.211 HD
ENDBRANCH  15  20
ENDBRANCH   8   9
ENDBRANCH   7   8
ENDBRANCH   1   7
BRANCH   2  22
ATOM     22  O   UNL     1      -1.960 -20.009  19.291  1.00  0.00    -0.387 OA
ATOM     23  H   UNL     1      -1.898 -19.170  18.762  1.00  0.00     0.211 HD
ENDBRANCH   2  22
BRANCH   3  24
ATOM     24  O   UNL     1       1.425 -20.724  18.257  1.00  0.00    -0.387 OA
ATOM     25  H   UNL     1       1.839 -20.565  17.369  1.00  0.00     0.211 HD
ENDBRANCH   3  24
BRANCH   5  26
ATOM     26  O   UNL     1       2.316 -18.704  20.202  1.00  0.00    -0.462 OA
BRANCH  26  27
ATOM     27  C   UNL     1       3.525 -18.060  19.896  1.00  0.00     0.130 A 
ATOM     28  C   UNL     1       3.760 -16.705  20.191  1.00  0.00     0.093 A 
ATOM     29  C   UNL     1       4.531 -18.806  19.283  1.00  0.00     0.094 A 
ATOM     30  C   UNL     1       4.983 -16.102  19.873  1.00  0.00     0.133 A 
ATOM     31  C   UNL     1       5.751 -18.218  18.947  1.00  0.00     0.138 A 
ATOM     32  C   UNL     1       5.978 -16.849  19.187  1.00  0.00     0.102 A 
ATOM     33  O   UNL     1       6.744 -19.010  18.363  1.00  0.00    -0.484 OA
ATOM     34  C   UNL     1       7.229 -16.262  18.626  1.00  0.00     0.174 C 
ATOM     35  C   UNL     1       8.115 -18.616  18.346  1.00  0.00     0.211 C 
ATOM     36  O   UNL     1       7.424 -15.019  18.620  1.00  0.00    -0.294 OA
ATOM     37  C   UNL     1       8.235 -17.137  17.924  1.00  0.00     0.131 C 
BRANCH  30  38
ATOM     38  O   UNL     1       5.163 -14.777  20.280  1.00  0.00    -0.507 OA
ATOM     39  H   UNL     1       5.842 -14.484  20.967  1.00  0.00     0.293 HD
ENDBRANCH  30  38
BRANCH  35  40
ATOM     40  C   UNL     1       8.758 -18.977  19.678  1.00  0.00    -0.003 A 
ATOM     41  C   UNL     1       8.077 -19.876  20.515  1.00  0.00     0.057 A 
ATOM     42  C   UNL     1       9.968 -18.415  20.134  1.00  0.00     0.011 A 
ATOM     43  C   UNL     1       8.590 -20.220  21.772  1.00  0.00     0.158 A 
ATOM     44  C   UNL     1      10.485 -18.762  21.386  1.00  0.00     0.051 A 
ATOM     45  C   UNL     1       9.798 -19.668  22.215  1.00  0.00     0.160 A 
BRANCH  43  46
ATOM     46  O   UNL     1       7.901 -21.115  22.591  1.00  0.00    -0.504 OA
ATOM     47  H   UNL     1       8.089 -21.176  23.586  1.00  0.00     0.293 HD
ENDBRANCH  43  46
BRANCH  45  48
ATOM     48  O   UNL     1      10.280 -20.036  23.481  1.00  0.00    -0.493 OA
ATOM     49  C   UNL     1      11.318 -19.353  24.178  1.00  0.00     0.278 C 
ENDBRANCH  45  48
ENDBRANCH  35  40
ENDBRANCH  26  27
ENDBRANCH   5  26
BRANCH   4  50
ATOM     50  O   UNL     1      -0.491 -17.653  18.101  1.00  0.00    -0.384 OA
ATOM     51  H   UNL     1      -1.330 -18.056  18.437  1.00  0.00     0.211 HD
ENDBRANCH   4  50
TORSDOF 15
ENDMDL
MODEL 3
REMARK VINA RESULT:    -5.185      2.476     10.688
REMARK INTER + INTRA:         -10.763
REMARK INTER:                  -8.721
REMARK INTRA:                  -2.042
REMARK UNBOUND:                -2.244
REMARK SMILES COc1ccc([C@@H]2CC(=O)c3c(O)cc(O[C@@H]4O[C@@H](CO[C@H]5O[C@H](C)[C@H](O)[C@H](O)[C@H]5O)[C@@H](O)[C@H](O)[C@H]4O)cc3O2)cc1O
REMARK SMILES IDX 19 1 32 2 34 3 36 4 17 5 18 6 20 7 21 8 22 9 25 10 24 11
REMARK SMILES IDX 26 12 23 13 28 14 30 15 27 16 29 18 31 20 33 22 35 24 16 26
REMARK SMILES IDX 15 27 14 28 38 29 12 30 39 31 11 32 40 33 9 34 7 35 10 36
REMARK SMILES IDX 8 37 13 38 6 40 41 41 5 42 42 43 4 44 3 45 43 46 2 48 1 49
REMARK SMILES IDX 37 50
REMARK H PARENT 27 17 29 19 31 21 33 23 35 25 13 39 43 47 37 51
REMARK Flexibility Score: inf
ROOT
ATOM      1  C   UNL     1       8.503 -17.325  19.813  1.00  0.00     0.180 C 
ATOM      2  C   UNL     1       9.227 -18.482  19.084  1.00  0.00     0.177 C 
ATOM      3  C   UNL     1       8.312 -19.720  19.021  1.00  0.00     0.180 C 
ATOM      4  C   UNL     1       7.679 -20.025  20.398  1.00  0.00     0.214 C 
ATOM      5  C   UNL     1       7.124 -18.748  21.069  1.00  0.00     0.339 C 
ATOM      6  O   UNL     1       8.096 -17.714  21.114  1.00  0.00    -0.332 OA
ENDROOT
BRANCH   1   7
ATOM      7  C   UNL     1       9.393 -16.078  19.918  1.00  0.00     0.198 C 
BRANCH   7   8
ATOM      8  O   UNL     1      10.438 -16.305  20.850  1.00  0.00    -0.347 OA
BRANCH   8   9
ATOM      9  C   UNL     1      11.479 -15.352  20.703  1.00  0.00     0.281 C 
ATOM     10  C   UNL     1      12.072 -14.571  24.257  1.00  0.00     0.041 C 
ATOM     11  C   UNL     1      12.055 -15.413  22.982  1.00  0.00     0.150 C 
ATOM     12  C   UNL     1      13.438 -16.046  22.718  1.00  0.00     0.174 C 
ATOM     13  O   UNL     1      11.662 -14.590  21.894  1.00  0.00    -0.344 OA
ATOM     14  C   UNL     1      13.361 -16.898  21.438  1.00  0.00     0.179 C 
ATOM     15  C   UNL     1      12.793 -16.049  20.281  1.00  0.00     0.202 C 
BRANCH  12  16
ATOM     16  O   UNL     1      14.406 -15.035  22.576  1.00  0.00    -0.388 OA
ATOM     17  H   UNL     1      13.989 -14.306  22.048  1.00  0.00     0.211 HD
ENDBRANCH  12  16
BRANCH  14  18
ATOM     18  O   UNL     1      14.639 -17.378  21.110  1.00  0.00    -0.387 OA
ATOM     19  H   UNL     1      14.795 -17.151  20.156  1.00  0.00     0.211 HD
ENDBRANCH  14  18
BRANCH  15  20
ATOM     20  O   UNL     1      12.603 -16.825  19.120  1.00  0.00    -0.385 OA
ATOM     21  H   UNL     1      12.734 -17.779  19.367  1.00  0.00     0.211 HD
ENDBRANCH  15  20
ENDBRANCH   8   9
ENDBRANCH   7   8
ENDBRANCH   1   7
BRANCH   2  22
ATOM     22  O   UNL     1      10.424 -18.802  19.745  1.00  0.00    -0.387 OA
ATOM     23  H   UNL     1      10.857 -17.943  19.990  1.00  0.00     0.211 HD
ENDBRANCH   2  22
BRANCH   3  24
ATOM     24  O   UNL     1       7.299 -19.493  18.072  1.00  0.00    -0.387 OA
ATOM     25  H   UNL     1       7.632 -19.837  17.204  1.00  0.00     0.211 HD
ENDBRANCH   3  24
BRANCH   5  26
ATOM     26  O   UNL     1       5.934 -18.317  20.399  1.00  0.00    -0.462 OA
BRANCH  26  27
ATOM     27  C   UNL     1       4.648 -18.832  20.624  1.00  0.00     0.130 A 
ATOM     28  C   UNL     1       4.136 -19.062  21.913  1.00  0.00     0.093 A 
ATOM     29  C   UNL     1       3.851 -19.114  19.515  1.00  0.00     0.094 A 
ATOM     30  C   UNL     1       2.845 -19.573  22.093  1.00  0.00     0.133 A 
ATOM     31  C   UNL     1       2.567 -19.636  19.676  1.00  0.00     0.138 A 
ATOM     32  C   UNL     1       2.063 -19.923  20.960  1.00  0.00     0.102 A 
ATOM     33  O   UNL     1       1.788 -19.876  18.539  1.00  0.00    -0.484 OA
ATOM     34  C   UNL     1       0.765 -20.653  21.030  1.00  0.00     0.174 C 
ATOM     35  C   UNL     1       0.371 -20.029  18.610  1.00  0.00     0.211 C 
ATOM     36  O   UNL     1       0.334 -21.121  22.117  1.00  0.00    -0.294 OA
ATOM     37  C   UNL     1      -0.002 -20.970  19.773  1.00  0.00     0.131 C 
BRANCH  30  38
ATOM     38  O   UNL     1       2.385 -19.688  23.408  1.00  0.00    -0.507 OA
ATOM     39  H   UNL     1       2.799 -19.211  24.195  1.00  0.00     0.293 HD
ENDBRANCH  30  38
BRANCH  35  40
ATOM     40  C   UNL     1      -0.281 -18.653  18.639  1.00  0.00    -0.003 A 
ATOM     41  C   UNL     1      -1.557 -18.541  19.216  1.00  0.00     0.057 A 
ATOM     42  C   UNL     1       0.303 -17.504  18.068  1.00  0.00     0.011 A 
ATOM     43  C   UNL     1      -2.234 -17.315  19.239  1.00  0.00     0.158 A 
ATOM     44  C   UNL     1      -0.368 -16.278  18.096  1.00  0.00     0.051 A 
ATOM     45  C   UNL     1      -1.643 -16.175  18.681  1.00  0.00     0.160 A 
BRANCH  43  46
ATOM     46  O   UNL     1      -3.500 -17.221  19.818  1.00  0.00    -0.504 OA
ATOM     47  H   UNL     1      -4.151 -17.999  19.798  1.00  0.00     0.293 HD
ENDBRANCH  43  46
BRANCH  45  48
ATOM     48  O   UNL     1      -2.351 -14.963  18.723  1.00  0.00    -0.493 OA
ATOM     49  C   UNL     1      -1.772 -13.702  19.042  1.00  0.00     0.278 C 
ENDBRANCH  45  48
ENDBRANCH  35  40
ENDBRANCH  26  27
ENDBRANCH   5  26
BRANCH   4  50
ATOM     50  O   UNL     1       8.595 -20.686  21.237  1.00  0.00    -0.384 OA
ATOM     51  H   UNL     1       8.522 -21.660  21.073  1.00  0.00     0.211 HD
ENDBRANCH   4  50
TORSDOF 15
ENDMDL
MODEL 4
REMARK VINA RESULT:    -5.169      5.431      8.185
REMARK INTER + INTRA:         -10.737
REMARK INTER:                  -6.865
REMARK INTRA:                  -3.872
REMARK UNBOUND:                -2.244
REMARK SMILES COc1ccc([C@@H]2CC(=O)c3c(O)cc(O[C@@H]4O[C@@H](CO[C@H]5O[C@H](C)[C@H](O)[C@H](O)[C@H]5O)[C@@H](O)[C@H](O)[C@H]4O)cc3O2)cc1O
REMARK SMILES IDX 19 1 32 2 34 3 36 4 17 5 18 6 20 7 21 8 22 9 25 10 24 11
REMARK SMILES IDX 26 12 23 13 28 14 30 15 27 16 29 18 31 20 33 22 35 24 16 26
REMARK SMILES IDX 15 27 14 28 38 29 12 30 39 31 11 32 40 33 9 34 7 35 10 36
REMARK SMILES IDX 8 37 13 38 6 40 41 41 5 42 42 43 4 44 3 45 43 46 2 48 1 49
REMARK SMILES IDX 37 50
REMARK H PARENT 27 17 29 19 31 21 33 23 35 25 13 39 43 47 37 51
REMARK Flexibility Score: inf
ROOT
ATOM      1  C   UNL     1       6.440 -14.999  18.629  1.00  0.00     0.180 C 
ATOM      2  C   UNL     1       4.966 -14.872  18.178  1.00  0.00     0.177 C 
ATOM      3  C   UNL     1       4.265 -13.754  18.973  1.00  0.00     0.180 C 
ATOM      4  C   UNL     1       4.543 -13.879  20.489  1.00  0.00     0.214 C 
ATOM      5  C   UNL     1       6.038 -14.145  20.777  1.00  0.00     0.339 C 
ATOM      6  O   UNL     1       6.530 -15.243  20.023  1.00  0.00    -0.332 OA
ENDROOT
BRANCH   1   7
ATOM      7  C   UNL     1       7.168 -16.122  17.875  1.00  0.00     0.198 C 
BRANCH   7   8
ATOM      8  O   UNL     1       7.269 -17.272  18.699  1.00  0.00    -0.347 OA
BRANCH   8   9
ATOM      9  C   UNL     1       8.603 -17.752  18.756  1.00  0.00     0.281 C 
ATOM     10  C   UNL     1       9.677 -16.145  21.896  1.00  0.00     0.041 C 
ATOM     11  C   UNL     1       8.895 -17.104  20.997  1.00  0.00     0.150 C 
ATOM     12  C   UNL     1       9.006 -18.556  21.507  1.00  0.00     0.174 C 
ATOM     13  O   UNL     1       9.392 -16.996  19.671  1.00  0.00    -0.344 OA
ATOM     14  C   UNL     1       8.189 -19.475  20.582  1.00  0.00     0.179 C 
ATOM     15  C   UNL     1       8.621 -19.256  19.116  1.00  0.00     0.202 C 
BRANCH  12  16
ATOM     16  O   UNL     1      10.357 -18.954  21.523  1.00  0.00    -0.388 OA
ATOM     17  H   UNL     1      10.632 -19.082  20.579  1.00  0.00     0.211 HD
ENDBRANCH  12  16
BRANCH  14  18
ATOM     18  O   UNL     1       8.380 -20.815  20.953  1.00  0.00    -0.387 OA
ATOM     19  H   UNL     1       7.659 -21.041  21.597  1.00  0.00     0.211 HD
ENDBRANCH  14  18
BRANCH  15  20
ATOM     20  O   UNL     1       7.817 -19.998  18.227  1.00  0.00    -0.385 OA
ATOM     21  H   UNL     1       7.628 -20.877  18.650  1.00  0.00     0.211 HD
ENDBRANCH  15  20
ENDBRANCH   8   9
ENDBRANCH   7   8
ENDBRANCH   1   7
BRANCH   2  22
ATOM     22  O   UNL     1       4.291 -16.089  18.365  1.00  0.00    -0.387 OA
ATOM     23  H   UNL     1       4.139 -16.187  19.341  1.00  0.00     0.211 HD
ENDBRANCH   2  22
BRANCH   3  24
ATOM     24  O   UNL     1       4.722 -12.507  18.508  1.00  0.00    -0.387 OA
ATOM     25  H   UNL     1       4.673 -12.531  17.518  1.00  0.00     0.211 HD
ENDBRANCH   3  24
BRANCH   5  26
ATOM     26  O   UNL     1       6.804 -12.960  20.536  1.00  0.00    -0.462 OA
BRANCH  26  27
ATOM     27  C   UNL     1       8.093 -12.716  21.035  1.00  0.00     0.130 A 
ATOM     28  C   UNL     1       8.335 -12.350  22.371  1.00  0.00     0.093 A 
ATOM     29  C   UNL     1       9.172 -12.856  20.163  1.00  0.00     0.094 A 
ATOM     30  C   UNL     1       9.638 -12.120  22.829  1.00  0.00     0.133 A 
ATOM     31  C   UNL     1      10.476 -12.618  20.598  1.00  0.00     0.138 A 
ATOM     32  C   UNL     1      10.727 -12.197  21.919  1.00  0.00     0.102 A 
ATOM     33  O   UNL     1      11.532 -12.800  19.699  1.00  0.00    -0.484 OA
ATOM     34  C   UNL     1      12.121 -11.782  22.244  1.00  0.00     0.174 C 
ATOM     35  C   UNL     1      12.880 -12.962  20.138  1.00  0.00     0.211 C 
ATOM     36  O   UNL     1      12.399 -11.213  23.331  1.00  0.00    -0.294 OA
ATOM     37  C   UNL     1      13.216 -11.913  21.216  1.00  0.00     0.131 C 
BRANCH  30  38
ATOM     38  O   UNL     1       9.794 -11.846  24.190  1.00  0.00    -0.507 OA
ATOM     39  H   UNL     1      10.629 -12.056  24.717  1.00  0.00     0.293 HD
ENDBRANCH  30  38
BRANCH  35  40
ATOM     40  C   UNL     1      13.107 -14.414  20.536  1.00  0.00    -0.003 A 
ATOM     41  C   UNL     1      12.551 -15.415  19.722  1.00  0.00     0.057 A 
ATOM     42  C   UNL     1      13.796 -14.801  21.704  1.00  0.00     0.011 A 
ATOM     43  C   UNL     1      12.685 -16.770  20.051  1.00  0.00     0.158 A 
ATOM     44  C   UNL     1      13.936 -16.153  22.031  1.00  0.00     0.051 A 
ATOM     45  C   UNL     1      13.381 -17.148  21.207  1.00  0.00     0.160 A 
BRANCH  43  46
ATOM     46  O   UNL     1      12.128 -17.751  19.232  1.00  0.00    -0.504 OA
ATOM     47  H   UNL     1      11.819 -18.642  19.605  1.00  0.00     0.293 HD
ENDBRANCH  43  46
BRANCH  45  48
ATOM     48  O   UNL     1      13.494 -18.515  21.504  1.00  0.00    -0.493 OA
ATOM     49  C   UNL     1      14.015 -19.034  22.725  1.00  0.00     0.278 C 
ENDBRANCH  45  48
ENDBRANCH  35  40
ENDBRANCH  26  27
ENDBRANCH   5  26
BRANCH   4  50
ATOM     50  O   UNL     1       3.726 -14.868  21.069  1.00  0.00    -0.384 OA
ATOM     51  H   UNL     1       2.780 -14.632  20.897  1.00  0.00     0.211 HD
ENDBRANCH   4  50
TORSDOF 15
ENDMDL
MODEL 5
REMARK VINA RESULT:    -5.075      1.958      4.949
REMARK INTER + INTRA:         -10.583
REMARK INTER:                  -8.265
REMARK INTRA:                  -2.318
REMARK UNBOUND:                -2.244
REMARK SMILES COc1ccc([C@@H]2CC(=O)c3c(O)cc(O[C@@H]4O[C@@H](CO[C@H]5O[C@H](C)[C@H](O)[C@H](O)[C@H]5O)[C@@H](O)[C@H](O)[C@H]4O)cc3O2)cc1O
REMARK SMILES IDX 19 1 32 2 34 3 36 4 17 5 18 6 20 7 21 8 22 9 25 10 24 11
REMARK SMILES IDX 26 12 23 13 28 14 30 15 27 16 29 18 31 20 33 22 35 24 16 26
REMARK SMILES IDX 15 27 14 28 38 29 12 30 39 31 11 32 40 33 9 34 7 35 10 36
REMARK SMILES IDX 8 37 13 38 6 40 41 41 5 42 42 43 4 44 3 45 43 46 2 48 1 49
REMARK SMILES IDX 37 50
REMARK H PARENT 27 17 29 19 31 21 33 23 35 25 13 39 43 47 37 51
REMARK Flexibility Score: inf
ROOT
ATOM      1  C   UNL     1       1.518 -20.082  20.743  1.00  0.00     0.180 C 
ATOM      2  C   UNL     1       0.152 -20.601  20.234  1.00  0.00     0.177 C 
ATOM      3  C   UNL     1      -0.303 -19.781  19.013  1.00  0.00     0.180 C 
ATOM      4  C   UNL     1      -0.164 -18.262  19.269  1.00  0.00     0.214 C 
ATOM      5  C   UNL     1       1.199 -17.912  19.909  1.00  0.00     0.339 C 
ATOM      6  O   UNL     1       1.455 -18.702  21.061  1.00  0.00    -0.332 OA
ENDROOT
BRANCH   1   7
ATOM      7  C   UNL     1       1.996 -20.861  21.977  1.00  0.00     0.198 C 
BRANCH   7   8
ATOM      8  O   UNL     1       1.562 -20.207  23.159  1.00  0.00    -0.347 OA
BRANCH   8   9
ATOM      9  C   UNL     1       1.412 -21.125  24.232  1.00  0.00     0.281 C 
ATOM     10  C   UNL     1       4.069 -19.873  26.459  1.00  0.00     0.041 C 
ATOM     11  C   UNL     1       2.745 -19.857  25.695  1.00  0.00     0.150 C 
ATOM     12  C   UNL     1       1.568 -19.519  26.635  1.00  0.00     0.174 C 
ATOM     13  O   UNL     1       2.554 -21.125  25.084  1.00  0.00    -0.344 OA
ATOM     14  C   UNL     1       0.266 -19.496  25.816  1.00  0.00     0.179 C 
ATOM     15  C   UNL     1       0.123 -20.817  25.028  1.00  0.00     0.202 C 
BRANCH  12  16
ATOM     16  O   UNL     1       1.485 -20.480  27.661  1.00  0.00    -0.388 OA
ATOM     17  H   UNL     1       0.576 -20.408  28.052  1.00  0.00     0.211 HD
ENDBRANCH  12  16
BRANCH  14  18
ATOM     18  O   UNL     1      -0.832 -19.318  26.673  1.00  0.00    -0.387 OA
ATOM     19  H   UNL     1      -1.509 -19.998  26.418  1.00  0.00     0.211 HD
ENDBRANCH  14  18
BRANCH  15  20
ATOM     20  O   UNL     1      -1.002 -20.789  24.179  1.00  0.00    -0.385 OA
ATOM     21  H   UNL     1      -1.549 -19.996  24.425  1.00  0.00     0.211 HD
ENDBRANCH  15  20
ENDBRANCH   8   9
ENDBRANCH   7   8
ENDBRANCH   1   7
BRANCH   2  22
ATOM     22  O   UNL     1      -0.811 -20.521  21.253  1.00  0.00    -0.387 OA
ATOM     23  H   UNL     1      -0.521 -19.795  21.866  1.00  0.00     0.211 HD
ENDBRANCH   2  22
BRANCH   3  24
ATOM     24  O   UNL     1       0.474 -20.148  17.899  1.00  0.00    -0.387 OA
ATOM     25  H   UNL     1       0.782 -19.308  17.470  1.00  0.00     0.211 HD
ENDBRANCH   3  24
BRANCH   5  26
ATOM     26  O   UNL     1       2.246 -18.043  18.942  1.00  0.00    -0.462 OA
BRANCH  26  27
ATOM     27  C   UNL     1       3.548 -17.543  19.089  1.00  0.00     0.130 A 
ATOM     28  C   UNL     1       3.826 -16.322  19.728  1.00  0.00     0.093 A 
ATOM     29  C   UNL     1       4.604 -18.301  18.585  1.00  0.00     0.094 A 
ATOM     30  C   UNL     1       5.142 -15.860  19.857  1.00  0.00     0.133 A 
ATOM     31  C   UNL     1       5.921 -17.851  18.693  1.00  0.00     0.138 A 
ATOM     32  C   UNL     1       6.207 -16.604  19.282  1.00  0.00     0.102 A 
ATOM     33  O   UNL     1       6.952 -18.657  18.202  1.00  0.00    -0.484 OA
ATOM     34  C   UNL     1       7.613 -16.116  19.184  1.00  0.00     0.174 C 
ATOM     35  C   UNL     1       8.310 -18.479  18.604  1.00  0.00     0.211 C 
ATOM     36  O   UNL     1       7.922 -14.939  19.505  1.00  0.00    -0.294 OA
ATOM     37  C   UNL     1       8.680 -16.982  18.567  1.00  0.00     0.131 C 
BRANCH  30  38
ATOM     38  O   UNL     1       5.334 -14.681  20.582  1.00  0.00    -0.507 OA
ATOM     39  H   UNL     1       4.582 -14.110  20.942  1.00  0.00     0.293 HD
ENDBRANCH  30  38
BRANCH  35  40
ATOM     40  C   UNL     1       8.536 -19.182  19.936  1.00  0.00    -0.003 A 
ATOM     41  C   UNL     1       9.696 -18.863  20.660  1.00  0.00     0.057 A 
ATOM     42  C   UNL     1       7.672 -20.172  20.448  1.00  0.00     0.011 A 
ATOM     43  C   UNL     1       9.988 -19.502  21.872  1.00  0.00     0.158 A 
ATOM     44  C   UNL     1       7.958 -20.806  21.660  1.00  0.00     0.051 A 
ATOM     45  C   UNL     1       9.120 -20.476  22.382  1.00  0.00     0.160 A 
BRANCH  43  46
ATOM     46  O   UNL     1      11.144 -19.173  22.580  1.00  0.00    -0.504 OA
ATOM     47  H   UNL     1      11.277 -18.250  22.980  1.00  0.00     0.293 HD
ENDBRANCH  43  46
BRANCH  45  48
ATOM     48  O   UNL     1       9.446 -21.095  23.599  1.00  0.00    -0.493 OA
ATOM     49  C   UNL     1       8.801 -20.822  24.839  1.00  0.00     0.278 C 
ENDBRANCH  45  48
ENDBRANCH  35  40
ENDBRANCH  26  27
ENDBRANCH   5  26
BRANCH   4  50
ATOM     50  O   UNL     1      -1.234 -17.784  20.048  1.00  0.00    -0.384 OA
ATOM     51  H   UNL     1      -1.207 -16.795  20.040  1.00  0.00     0.211 HD
ENDBRANCH   4  50
TORSDOF 15
ENDMDL
MODEL 6
REMARK VINA RESULT:    -5.057      1.823     10.549
REMARK INTER + INTRA:         -10.553
REMARK INTER:                  -8.554
REMARK INTRA:                  -1.999
REMARK UNBOUND:                -2.244
REMARK SMILES COc1ccc([C@@H]2CC(=O)c3c(O)cc(O[C@@H]4O[C@@H](CO[C@H]5O[C@H](C)[C@H](O)[C@H](O)[C@H]5O)[C@@H](O)[C@H](O)[C@H]4O)cc3O2)cc1O
REMARK SMILES IDX 19 1 32 2 34 3 36 4 17 5 18 6 20 7 21 8 22 9 25 10 24 11
REMARK SMILES IDX 26 12 23 13 28 14 30 15 27 16 29 18 31 20 33 22 35 24 16 26
REMARK SMILES IDX 15 27 14 28 38 29 12 30 39 31 11 32 40 33 9 34 7 35 10 36
REMARK SMILES IDX 8 37 13 38 6 40 41 41 5 42 42 43 4 44 3 45 43 46 2 48 1 49
REMARK SMILES IDX 37 50
REMARK H PARENT 27 17 29 19 31 21 33 23 35 25 13 39 43 47 37 51
REMARK Flexibility Score: inf
ROOT
ATOM      1  C   UNL     1       8.641 -17.090  19.527  1.00  0.00     0.180 C 
ATOM      2  C   UNL     1       8.694 -17.817  18.162  1.00  0.00     0.177 C 
ATOM      3  C   UNL     1       7.547 -18.841  18.065  1.00  0.00     0.180 C 
ATOM      4  C   UNL     1       7.460 -19.714  19.339  1.00  0.00     0.214 C 
ATOM      5  C   UNL     1       7.563 -18.861  20.625  1.00  0.00     0.339 C 
ATOM      6  O   UNL     1       8.701 -18.013  20.602  1.00  0.00    -0.332 OA
ENDROOT
BRANCH   1   7
ATOM      7  C   UNL     1       9.785 -16.075  19.672  1.00  0.00     0.198 C 
BRANCH   7   8
ATOM      8  O   UNL     1      10.747 -16.559  20.596  1.00  0.00    -0.347 OA
BRANCH   8   9
ATOM      9  C   UNL     1      11.951 -16.930  19.941  1.00  0.00     0.281 C 
ATOM     10  C   UNL     1      14.270 -14.592  21.599  1.00  0.00     0.041 C 
ATOM     11  C   UNL     1      13.310 -15.776  21.473  1.00  0.00     0.150 C 
ATOM     12  C   UNL     1      13.945 -17.065  22.035  1.00  0.00     0.174 C 
ATOM     13  O   UNL     1      12.962 -15.939  20.106  1.00  0.00    -0.344 OA
ATOM     14  C   UNL     1      12.934 -18.218  21.903  1.00  0.00     0.179 C 
ATOM     15  C   UNL     1      12.436 -18.310  20.445  1.00  0.00     0.202 C 
BRANCH  12  16
ATOM     16  O   UNL     1      15.124 -17.365  21.327  1.00  0.00    -0.388 OA
ATOM     17  H   UNL     1      15.063 -18.316  21.052  1.00  0.00     0.211 HD
ENDBRANCH  12  16
BRANCH  14  18
ATOM     18  O   UNL     1      13.537 -19.426  22.290  1.00  0.00    -0.387 OA
ATOM     19  H   UNL     1      13.270 -19.591  23.232  1.00  0.00     0.211 HD
ENDBRANCH  14  18
BRANCH  15  20
ATOM     20  O   UNL     1      11.424 -19.282  20.308  1.00  0.00    -0.385 OA
ATOM     21  H   UNL     1      11.499 -19.672  19.396  1.00  0.00     0.211 HD
ENDBRANCH  15  20
ENDBRANCH   8   9
ENDBRANCH   7   8
ENDBRANCH   1   7
BRANCH   2  22
ATOM     22  O   UNL     1       9.930 -18.463  18.001  1.00  0.00    -0.387 OA
ATOM     23  H   UNL     1       9.802 -19.406  18.285  1.00  0.00     0.211 HD
ENDBRANCH   2  22
BRANCH   3  24
ATOM     24  O   UNL     1       6.335 -18.154  17.875  1.00  0.00    -0.387 OA
ATOM     25  H   UNL     1       5.616 -18.727  18.248  1.00  0.00     0.211 HD
ENDBRANCH   3  24
BRANCH   5  26
ATOM     26  O   UNL     1       6.357 -18.113  20.817  1.00  0.00    -0.462 OA
BRANCH  26  27
ATOM     27  C   UNL     1       5.382 -18.389  21.787  1.00  0.00     0.130 A 
ATOM     28  C   UNL     1       5.192 -17.584  22.924  1.00  0.00     0.093 A 
ATOM     29  C   UNL     1       4.566 -19.504  21.600  1.00  0.00     0.094 A 
ATOM     30  C   UNL     1       4.203 -17.893  23.867  1.00  0.00     0.133 A 
ATOM     31  C   UNL     1       3.584 -19.834  22.535  1.00  0.00     0.138 A 
ATOM     32  C   UNL     1       3.421 -19.068  23.706  1.00  0.00     0.102 A 
ATOM     33  O   UNL     1       2.767 -20.943  22.293  1.00  0.00    -0.484 OA
ATOM     34  C   UNL     1       2.484 -19.599  24.737  1.00  0.00     0.174 C 
ATOM     35  C   UNL     1       1.520 -21.125  22.963  1.00  0.00     0.211 C 
ATOM     36  O   UNL     1       2.419 -19.092  25.887  1.00  0.00    -0.294 OA
ATOM     37  C   UNL     1       1.685 -20.848  24.471  1.00  0.00     0.131 C 
BRANCH  30  38
ATOM     38  O   UNL     1       4.026 -16.992  24.921  1.00  0.00    -0.507 OA
ATOM     39  H   UNL     1       4.531 -16.123  25.012  1.00  0.00     0.293 HD
ENDBRANCH  30  38
BRANCH  35  40
ATOM     40  C   UNL     1       0.446 -20.310  22.256  1.00  0.00    -0.003 A 
ATOM     41  C   UNL     1      -0.008 -20.763  21.006  1.00  0.00     0.057 A 
ATOM     42  C   UNL     1      -0.073 -19.101  22.763  1.00  0.00     0.011 A 
ATOM     43  C   UNL     1      -0.964 -20.041  20.281  1.00  0.00     0.158 A 
ATOM     44  C   UNL     1      -1.032 -18.382  22.045  1.00  0.00     0.051 A 
ATOM     45  C   UNL     1      -1.484 -18.847  20.796  1.00  0.00     0.160 A 
BRANCH  43  46
ATOM     46  O   UNL     1      -1.404 -20.505  19.041  1.00  0.00    -0.504 OA
ATOM     47  H   UNL     1      -1.109 -21.403  18.675  1.00  0.00     0.293 HD
ENDBRANCH  43  46
BRANCH  45  48
ATOM     48  O   UNL     1      -2.440 -18.150  20.040  1.00  0.00    -0.493 OA
ATOM     49  C   UNL     1      -2.194 -16.919  19.367  1.00  0.00     0.278 C 
ENDBRANCH  45  48
ENDBRANCH  35  40
ENDBRANCH  26  27
ENDBRANCH   5  26
BRANCH   4  50
ATOM     50  O   UNL     1       8.433 -20.730  19.320  1.00  0.00    -0.384 OA
ATOM     51  H   UNL     1       9.170 -20.445  18.723  1.00  0.00     0.211 HD
ENDBRANCH   4  50
TORSDOF 15
ENDMDL
MODEL 7
REMARK VINA RESULT:    -5.002      1.943      5.167
REMARK INTER + INTRA:         -10.463
REMARK INTER:                  -7.423
REMARK INTRA:                  -3.040
REMARK UNBOUND:                -2.244
REMARK SMILES COc1ccc([C@@H]2CC(=O)c3c(O)cc(O[C@@H]4O[C@@H](CO[C@H]5O[C@H](C)[C@H](O)[C@H](O)[C@H]5O)[C@@H](O)[C@H](O)[C@H]4O)cc3O2)cc1O
REMARK SMILES IDX 19 1 32 2 34 3 36 4 17 5 18 6 20 7 21 8 22 9 25 10 24 11
REMARK SMILES IDX 26 12 23 13 28 14 30 15 27 16 29 18 31 20 33 22 35 24 16 26
REMARK SMILES IDX 15 27 14 28 38 29 12 30 39 31 11 32 40 33 9 34 7 35 10 36
REMARK SMILES IDX 8 37 13 38 6 40 41 41 5 42 42 43 4 44 3 45 43 46 2 48 1 49
REMARK SMILES IDX 37 50
REMARK H PARENT 27 17 29 19 31 21 33 23 35 25 13 39 43 47 37 51
REMARK Flexibility Score: inf
ROOT
ATOM      1  C   UNL     1       1.425 -20.492  20.981  1.00  0.00     0.180 C 
ATOM      2  C   UNL     1       0.106 -21.071  20.417  1.00  0.00     0.177 C 
ATOM      3  C   UNL     1      -0.216 -20.425  19.057  1.00  0.00     0.180 C 
ATOM      4  C   UNL     1      -0.077 -18.886  19.115  1.00  0.00     0.214 C 
ATOM      5  C   UNL     1       1.223 -18.456  19.832  1.00  0.00     0.339 C 
ATOM      6  O   UNL     1       1.355 -19.081  21.100  1.00  0.00    -0.332 OA
ENDROOT
BRANCH   1   7
ATOM      7  C   UNL     1       1.769 -21.095  22.351  1.00  0.00     0.198 C 
BRANCH   7   8
ATOM      8  O   UNL     1       2.375 -20.112  23.174  1.00  0.00    -0.347 OA
BRANCH   8   9
ATOM      9  C   UNL     1       3.634 -20.551  23.661  1.00  0.00     0.281 C 
ATOM     10  C   UNL     1       5.717 -17.714  22.562  1.00  0.00     0.041 C 
ATOM     11  C   UNL     1       4.645 -18.449  23.367  1.00  0.00     0.150 C 
ATOM     12  C   UNL     1       4.835 -18.217  24.882  1.00  0.00     0.174 C 
ATOM     13  O   UNL     1       4.708 -19.834  23.058  1.00  0.00    -0.344 OA
ATOM     14  C   UNL     1       3.722 -18.959  25.644  1.00  0.00     0.179 C 
ATOM     15  C   UNL     1       3.686 -20.438  25.203  1.00  0.00     0.202 C 
BRANCH  12  16
ATOM     16  O   UNL     1       6.100 -18.687  25.282  1.00  0.00    -0.388 OA
ATOM     17  H   UNL     1       6.776 -18.113  24.839  1.00  0.00     0.211 HD
ENDBRANCH  12  16
BRANCH  14  18
ATOM     18  O   UNL     1       3.950 -18.867  27.026  1.00  0.00    -0.387 OA
ATOM     19  H   UNL     1       3.713 -17.941  27.295  1.00  0.00     0.211 HD
ENDBRANCH  14  18
BRANCH  15  20
ATOM     20  O   UNL     1       2.607 -21.124  25.796  1.00  0.00    -0.385 OA
ATOM     21  H   UNL     1       2.558 -22.028  25.384  1.00  0.00     0.211 HD
ENDBRANCH  15  20
ENDBRANCH   8   9
ENDBRANCH   7   8
ENDBRANCH   1   7
BRANCH   2  22
ATOM     22  O   UNL     1      -0.949 -20.848  21.317  1.00  0.00    -0.387 OA
ATOM     23  H   UNL     1      -1.744 -20.602  20.775  1.00  0.00     0.211 HD
ENDBRANCH   2  22
BRANCH   3  24
ATOM     24  O   UNL     1       0.658 -20.945  18.085  1.00  0.00    -0.387 OA
ATOM     25  H   UNL     1       1.241 -20.198  17.790  1.00  0.00     0.211 HD
ENDBRANCH   3  24
BRANCH   5  26
ATOM     26  O   UNL     1       2.356 -18.723  18.998  1.00  0.00    -0.462 OA
BRANCH  26  27
ATOM     27  C   UNL     1       3.563 -18.007  19.022  1.00  0.00     0.130 A 
ATOM     28  C   UNL     1       3.652 -16.682  19.484  1.00  0.00     0.093 A 
ATOM     29  C   UNL     1       4.717 -18.650  18.575  1.00  0.00     0.094 A 
ATOM     30  C   UNL     1       4.878 -16.005  19.494  1.00  0.00     0.133 A 
ATOM     31  C   UNL     1       5.944 -17.987  18.566  1.00  0.00     0.138 A 
ATOM     32  C   UNL     1       6.037 -16.642  18.974  1.00  0.00     0.102 A 
ATOM     33  O   UNL     1       7.082 -18.678  18.140  1.00  0.00    -0.484 OA
ATOM     34  C   UNL     1       7.342 -15.956  18.753  1.00  0.00     0.174 C 
ATOM     35  C   UNL     1       8.401 -18.234  18.456  1.00  0.00     0.211 C 
ATOM     36  O   UNL     1       7.463 -14.712  18.904  1.00  0.00    -0.294 OA
ATOM     37  C   UNL     1       8.522 -16.718  18.208  1.00  0.00     0.131 C 
BRANCH  30  38
ATOM     38  O   UNL     1       4.891 -14.723  20.050  1.00  0.00    -0.507 OA
ATOM     39  H   UNL     1       5.732 -14.232  20.319  1.00  0.00     0.293 HD
ENDBRANCH  30  38
BRANCH  35  40
ATOM     40  C   UNL     1       8.768 -18.706  19.856  1.00  0.00    -0.003 A 
ATOM     41  C   UNL     1       7.961 -19.689  20.452  1.00  0.00     0.057 A 
ATOM     42  C   UNL     1       9.836 -18.168  20.603  1.00  0.00     0.011 A 
ATOM     43  C   UNL     1       8.215 -20.140  21.754  1.00  0.00     0.158 A 
ATOM     44  C   UNL     1      10.096 -18.621  21.900  1.00  0.00     0.051 A 
ATOM     45  C   UNL     1       9.285 -19.610  22.486  1.00  0.00     0.160 A 
BRANCH  43  46
ATOM     46  O   UNL     1       7.404 -21.118  22.330  1.00  0.00    -0.504 OA
ATOM     47  H   UNL     1       7.666 -22.098  22.320  1.00  0.00     0.293 HD
ENDBRANCH  43  46
BRANCH  45  48
ATOM     48  O   UNL     1       9.508 -20.086  23.788  1.00  0.00    -0.493 OA
ATOM     49  C   UNL     1       9.630 -19.255  24.939  1.00  0.00     0.278 C 
ENDBRANCH  45  48
ENDBRANCH  35  40
ENDBRANCH  26  27
ENDBRANCH   5  26
BRANCH   4  50
ATOM     50  O   UNL     1      -1.208 -18.302  19.714  1.00  0.00    -0.384 OA
ATOM     51  H   UNL     1      -1.179 -17.326  19.550  1.00  0.00     0.211 HD
ENDBRANCH   4  50
TORSDOF 15
ENDMDL
MODEL 8
REMARK VINA RESULT:    -4.840      3.647      8.998
REMARK INTER + INTRA:         -10.196
REMARK INTER:                  -6.409
REMARK INTRA:                  -3.787
REMARK UNBOUND:                -2.244
REMARK SMILES COc1ccc([C@@H]2CC(=O)c3c(O)cc(O[C@@H]4O[C@@H](CO[C@H]5O[C@H](C)[C@H](O)[C@H](O)[C@H]5O)[C@@H](O)[C@H](O)[C@H]4O)cc3O2)cc1O
REMARK SMILES IDX 19 1 32 2 34 3 36 4 17 5 18 6 20 7 21 8 22 9 25 10 24 11
REMARK SMILES IDX 26 12 23 13 28 14 30 15 27 16 29 18 31 20 33 22 35 24 16 26
REMARK SMILES IDX 15 27 14 28 38 29 12 30 39 31 11 32 40 33 9 34 7 35 10 36
REMARK SMILES IDX 8 37 13 38 6 40 41 41 5 42 42 43 4 44 3 45 43 46 2 48 1 49
REMARK SMILES IDX 37 50
REMARK H PARENT 27 17 29 19 31 21 33 23 35 25 13 39 43 47 37 51
REMARK Flexibility Score: inf
ROOT
ATOM      1  C   UNL     1      10.886 -16.606  20.168  1.00  0.00     0.180 C 
ATOM      2  C   UNL     1      12.375 -17.027  20.139  1.00  0.00     0.177 C 
ATOM      3  C   UNL     1      12.495 -18.556  20.278  1.00  0.00     0.180 C 
ATOM      4  C   UNL     1      11.623 -19.088  21.439  1.00  0.00     0.214 C 
ATOM      5  C   UNL     1      10.205 -18.471  21.419  1.00  0.00     0.339 C 
ATOM      6  O   UNL     1      10.251 -17.053  21.354  1.00  0.00    -0.332 OA
ENDROOT
BRANCH   1   7
ATOM      7  C   UNL     1      10.726 -15.083  20.056  1.00  0.00     0.198 C 
BRANCH   7   8
ATOM      8  O   UNL     1      10.168 -14.566  21.253  1.00  0.00    -0.347 OA
BRANCH   8   9
ATOM      9  C   UNL     1       9.086 -13.687  20.982  1.00  0.00     0.281 C 
ATOM     10  C   UNL     1       6.283 -15.892  21.917  1.00  0.00     0.041 C 
ATOM     11  C   UNL     1       7.524 -15.023  22.123  1.00  0.00     0.150 C 
ATOM     12  C   UNL     1       7.288 -13.976  23.232  1.00  0.00     0.174 C 
ATOM     13  O   UNL     1       7.850 -14.391  20.894  1.00  0.00    -0.344 OA
ATOM     14  C   UNL     1       8.570 -13.143  23.414  1.00  0.00     0.179 C 
ATOM     15  C   UNL     1       9.017 -12.572  22.051  1.00  0.00     0.202 C 
BRANCH  12  16
ATOM     16  O   UNL     1       6.209 -13.143  22.880  1.00  0.00    -0.388 OA
ATOM     17  H   UNL     1       5.400 -13.517  23.316  1.00  0.00     0.211 HD
ENDBRANCH  12  16
BRANCH  14  18
ATOM     18  O   UNL     1       8.336 -12.103  24.327  1.00  0.00    -0.387 OA
ATOM     19  H   UNL     1       8.922 -12.271  25.110  1.00  0.00     0.211 HD
ENDBRANCH  14  18
BRANCH  15  20
ATOM     20  O   UNL     1      10.249 -11.896  22.157  1.00  0.00    -0.385 OA
ATOM     21  H   UNL     1      10.134 -11.153  22.807  1.00  0.00     0.211 HD
ENDBRANCH  15  20
ENDBRANCH   8   9
ENDBRANCH   7   8
ENDBRANCH   1   7
BRANCH   2  22
ATOM     22  O   UNL     1      13.081 -16.393  21.175  1.00  0.00    -0.387 OA
ATOM     23  H   UNL     1      14.007 -16.753  21.154  1.00  0.00     0.211 HD
ENDBRANCH   2  22
BRANCH   3  24
ATOM     24  O   UNL     1      12.097 -19.158  19.070  1.00  0.00    -0.387 OA
ATOM     25  H   UNL     1      11.880 -18.425  18.439  1.00  0.00     0.211 HD
ENDBRANCH   3  24
BRANCH   5  26
ATOM     26  O   UNL     1       9.445 -19.019  20.336  1.00  0.00    -0.462 OA
BRANCH  26  27
ATOM     27  C   UNL     1       8.048 -18.963  20.221  1.00  0.00     0.130 A 
ATOM     28  C   UNL     1       7.184 -19.582  21.142  1.00  0.00     0.093 A 
ATOM     29  C   UNL     1       7.505 -18.254  19.150  1.00  0.00     0.094 A 
ATOM     30  C   UNL     1       5.793 -19.497  20.992  1.00  0.00     0.133 A 
ATOM     31  C   UNL     1       6.123 -18.170  18.978  1.00  0.00     0.138 A 
ATOM     32  C   UNL     1       5.247 -18.832  19.862  1.00  0.00     0.102 A 
ATOM     33  O   UNL     1       5.620 -17.423  17.909  1.00  0.00    -0.484 OA
ATOM     34  C   UNL     1       3.802 -18.849  19.496  1.00  0.00     0.174 C 
ATOM     35  C   UNL     1       4.269 -16.963  17.875  1.00  0.00     0.211 C 
ATOM     36  O   UNL     1       2.979 -19.573  20.114  1.00  0.00    -0.294 OA
ATOM     37  C   UNL     1       3.313 -18.101  18.283  1.00  0.00     0.131 C 
BRANCH  30  38
ATOM     38  O   UNL     1       5.010 -20.067  21.999  1.00  0.00    -0.507 OA
ATOM     39  H   UNL     1       5.358 -20.725  22.681  1.00  0.00     0.293 HD
ENDBRANCH  30  38
BRANCH  35  40
ATOM     40  C   UNL     1       4.155 -15.681  18.689  1.00  0.00    -0.003 A 
ATOM     41  C   UNL     1       5.162 -14.713  18.538  1.00  0.00     0.057 A 
ATOM     42  C   UNL     1       3.126 -15.442  19.622  1.00  0.00     0.011 A 
ATOM     43  C   UNL     1       5.143 -13.529  19.286  1.00  0.00     0.158 A 
ATOM     44  C   UNL     1       3.100 -14.258  20.365  1.00  0.00     0.051 A 
ATOM     45  C   UNL     1       4.111 -13.292  20.203  1.00  0.00     0.160 A 
BRANCH  43  46
ATOM     46  O   UNL     1       6.150 -12.578  19.124  1.00  0.00    -0.504 OA
ATOM     47  H   UNL     1       6.074 -11.837  18.435  1.00  0.00     0.293 HD
ENDBRANCH  43  46
BRANCH  45  48
ATOM     48  O   UNL     1       4.125 -12.094  20.935  1.00  0.00    -0.493 OA
ATOM     49  C   UNL     1       3.307 -10.964  20.646  1.00  0.00     0.278 C 
ENDBRANCH  45  48
ENDBRANCH  35  40
ENDBRANCH  26  27
ENDBRANCH   5  26
BRANCH   4  50
ATOM     50  O   UNL     1      12.254 -18.878  22.678  1.00  0.00    -0.384 OA
ATOM     51  H   UNL     1      13.232 -18.844  22.529  1.00  0.00     0.211 HD
ENDBRANCH   4  50
TORSDOF 15
ENDMDL
