MODEL 1
REMARK VINA RESULT:    -3.244      0.000      0.000
REMARK INTER + INTRA:         -13.708
REMARK INTER:                  -8.460
REMARK INTRA:                  -5.248
REMARK UNBOUND:                -5.248
REMARK SMILES CCCCCCCCCCCCCCCCCCCCCCCCCCCCCO
REMARK SMILES IDX 16 1 15 2 14 3 13 4 12 5 11 6 10 7 9 8 8 9 7 10 6 11 5 12
REMARK SMILES IDX 4 13 3 14 2 15 1 16 17 17 18 18 19 19 20 20 21 21 22 22
REMARK SMILES IDX 23 23 24 24 25 25 26 26 27 27 28 28 29 29 30 30
REMARK H PARENT 30 31
REMARK Flexibility Score: inf
ROOT
ATOM      1  C   UNL     1     105.646 108.221 102.948  1.00  0.00     0.000 C 
ENDROOT
BRANCH   1   2
ATOM      2  C   UNL     1     104.339 107.436 102.735  1.00  0.00     0.000 C 
BRANCH   2   3
ATOM      3  C   UNL     1     104.566 106.110 101.993  1.00  0.00     0.000 C 
BRANCH   3   4
ATOM      4  C   UNL     1     104.489 104.886 102.925  1.00  0.00     0.000 C 
BRANCH   4   5
ATOM      5  C   UNL     1     104.076 105.274 104.354  1.00  0.00     0.000 C 
BRANCH   5   6
ATOM      6  C   UNL     1     105.029 104.703 105.420  1.00  0.00     0.000 C 
BRANCH   6   7
ATOM      7  C   UNL     1     106.194 103.895 104.824  1.00  0.00     0.000 C 
BRANCH   7   8
ATOM      8  C   UNL     1     107.129 103.204 105.843  1.00  0.00    -0.000 C 
BRANCH   8   9
ATOM      9  C   UNL     1     107.356 103.976 107.163  1.00  0.00    -0.000 C 
BRANCH   9  10
ATOM     10  C   UNL     1     106.750 103.356 108.439  1.00  0.00    -0.000 C 
BRANCH  10  11
ATOM     11  C   UNL     1     105.810 104.298 109.204  1.00  0.00    -0.000 C 
BRANCH  11  12
ATOM     12  C   UNL     1     106.229 105.765 109.016  1.00  0.00    -0.000 C 
BRANCH  12  13
ATOM     13  C   UNL     1     105.077 106.638 108.473  1.00  0.00    -0.000 C 
BRANCH  13  14
ATOM     14  C   UNL     1     105.104 108.090 108.989  1.00  0.00    -0.000 C 
BRANCH  14  15
ATOM     15  C   UNL     1     105.019 109.166 107.895  1.00  0.00    -0.003 C 
ATOM     16  C   UNL     1     104.700 108.588 106.515  1.00  0.00     0.004 C 
ENDBRANCH  14  15
ENDBRANCH  13  14
ENDBRANCH  12  13
ENDBRANCH  11  12
ENDBRANCH  10  11
ENDBRANCH   9  10
ENDBRANCH   8   9
ENDBRANCH   7   8
ENDBRANCH   6   7
ENDBRANCH   5   6
ENDBRANCH   4   5
ENDBRANCH   3   4
ENDBRANCH   2   3
ENDBRANCH   1   2
BRANCH   1  17
ATOM     17  C   UNL     1     106.844 107.602 102.196  1.00  0.00     0.000 C 
BRANCH  17  18
ATOM     18  C   UNL     1     108.147 107.561 103.017  1.00  0.00     0.000 C 
BRANCH  18  19
ATOM     19  C   UNL     1     108.156 106.560 104.189  1.00  0.00     0.000 C 
BRANCH  19  20
ATOM     20  C   UNL     1     107.818 107.161 105.567  1.00  0.00     0.000 C 
BRANCH  20  21
ATOM     21  C   UNL     1     109.016 107.287 106.527  1.00  0.00     0.000 C 
BRANCH  21  22
ATOM     22  C   UNL     1     108.700 108.080 107.817  1.00  0.00     0.000 C 
BRANCH  22  23
ATOM     23  C   UNL     1     109.926 108.765 108.446  1.00  0.00     0.000 C 
BRANCH  23  24
ATOM     24  C   UNL     1     110.679 107.840 109.419  1.00  0.00     0.000 C 
BRANCH  24  25
ATOM     25  C   UNL     1     109.759 107.250 110.505  1.00  0.00     0.000 C 
BRANCH  25  26
ATOM     26  C   UNL     1     109.756 105.711 110.565  1.00  0.00     0.000 C 
BRANCH  26  27
ATOM     27  C   UNL     1     110.270 105.070 109.263  1.00  0.00     0.002 C 
BRANCH  27  28
ATOM     28  C   UNL     1     111.641 104.400 109.434  1.00  0.00     0.028 C 
BRANCH  28  29
ATOM     29  C   UNL     1     111.677 102.968 108.887  1.00  0.00     0.156 C 
BRANCH  29  30
ATOM     30  O   UNL     1     112.581 102.879 107.820  1.00  0.00    -0.396 OA
ATOM     31  H   UNL     1     112.533 101.946 107.482  1.00  0.00     0.210 HD
ENDBRANCH  29  30
ENDBRANCH  28  29
ENDBRANCH  27  28
ENDBRANCH  26  27
ENDBRANCH  25  26
ENDBRANCH  24  25
ENDBRANCH  23  24
ENDBRANCH  22  23
ENDBRANCH  21  22
ENDBRANCH  20  21
ENDBRANCH  19  20
ENDBRANCH  18  19
ENDBRANCH  17  18
ENDBRANCH   1  17
TORSDOF 28
ENDMDL
MODEL 2
REMARK VINA RESULT:    -3.176      1.922      5.201
REMARK INTER + INTRA:         -13.530
REMARK INTER:                  -7.829
REMARK INTRA:                  -5.700
REMARK UNBOUND:                -5.248
REMARK SMILES CCCCCCCCCCCCCCCCCCCCCCCCCCCCCO
REMARK SMILES IDX 16 1 15 2 14 3 13 4 12 5 11 6 10 7 9 8 8 9 7 10 6 11 5 12
REMARK SMILES IDX 4 13 3 14 2 15 1 16 17 17 18 18 19 19 20 20 21 21 22 22
REMARK SMILES IDX 23 23 24 24 25 25 26 26 27 27 28 28 29 29 30 30
REMARK H PARENT 30 31
REMARK Flexibility Score: inf
ROOT
ATOM      1  C   UNL     1     108.225 106.789 104.699  1.00  0.00     0.000 C 
ENDROOT
BRANCH   1   2
ATOM      2  C   UNL     1     108.884 107.093 106.057  1.00  0.00     0.000 C 
BRANCH   2   3
ATOM      3  C   UNL     1     107.857 107.447 107.142  1.00  0.00     0.000 C 
BRANCH   3   4
ATOM      4  C   UNL     1     106.472 107.788 106.561  1.00  0.00     0.000 C 
BRANCH   4   5
ATOM      5  C   UNL     1     105.520 108.347 107.631  1.00  0.00     0.000 C 
BRANCH   5   6
ATOM      6  C   UNL     1     104.503 109.348 107.052  1.00  0.00     0.000 C 
BRANCH   6   7
ATOM      7  C   UNL     1     103.454 109.810 108.077  1.00  0.00     0.000 C 
BRANCH   7   8
ATOM      8  C   UNL     1     103.563 109.181 109.486  1.00  0.00    -0.000 C 
BRANCH   8   9
ATOM      9  C   UNL     1     102.291 108.461 109.989  1.00  0.00    -0.000 C 
BRANCH   9  10
ATOM     10  C   UNL     1     102.351 106.920 110.056  1.00  0.00    -0.000 C 
BRANCH  10  11
ATOM     11  C   UNL     1     102.857 106.259 108.766  1.00  0.00    -0.000 C 
BRANCH  11  12
ATOM     12  C   UNL     1     103.105 104.758 108.978  1.00  0.00    -0.000 C 
BRANCH  12  13
ATOM     13  C   UNL     1     104.337 104.487 109.869  1.00  0.00    -0.000 C 
BRANCH  13  14
ATOM     14  C   UNL     1     105.604 105.240 109.421  1.00  0.00    -0.000 C 
BRANCH  14  15
ATOM     15  C   UNL     1     106.505 105.725 110.567  1.00  0.00    -0.003 C 
ATOM     16  C   UNL     1     106.116 107.111 111.085  1.00  0.00     0.004 C 
ENDBRANCH  14  15
ENDBRANCH  13  14
ENDBRANCH  12  13
ENDBRANCH  11  12
ENDBRANCH  10  11
ENDBRANCH   9  10
ENDBRANCH   8   9
ENDBRANCH   7   8
ENDBRANCH   6   7
ENDBRANCH   5   6
ENDBRANCH   4   5
ENDBRANCH   3   4
ENDBRANCH   2   3
ENDBRANCH   1   2
BRANCH   1  17
ATOM     17  C   UNL     1     108.934 107.492 103.521  1.00  0.00     0.000 C 
BRANCH  17  18
ATOM     18  C   UNL     1     108.193 107.364 102.176  1.00  0.00     0.000 C 
BRANCH  18  19
ATOM     19  C   UNL     1     106.744 106.849 102.269  1.00  0.00     0.000 C 
BRANCH  19  20
ATOM     20  C   UNL     1     105.671 107.940 102.452  1.00  0.00     0.000 C 
BRANCH  20  21
ATOM     21  C   UNL     1     104.594 107.617 103.505  1.00  0.00     0.000 C 
BRANCH  21  22
ATOM     22  C   UNL     1     104.259 106.110 103.610  1.00  0.00     0.000 C 
BRANCH  22  23
ATOM     23  C   UNL     1     103.898 105.649 105.033  1.00  0.00     0.000 C 
BRANCH  23  24
ATOM     24  C   UNL     1     105.033 104.848 105.696  1.00  0.00     0.000 C 
BRANCH  24  25
ATOM     25  C   UNL     1     105.898 104.090 104.671  1.00  0.00     0.000 C 
BRANCH  25  26
ATOM     26  C   UNL     1     107.137 103.401 105.273  1.00  0.00     0.000 C 
BRANCH  26  27
ATOM     27  C   UNL     1     106.971 103.099 106.773  1.00  0.00     0.002 C 
BRANCH  27  28
ATOM     28  C   UNL     1     108.121 103.664 107.621  1.00  0.00     0.028 C 
BRANCH  28  29
ATOM     29  C   UNL     1     108.952 102.571 108.303  1.00  0.00     0.156 C 
BRANCH  29  30
ATOM     30  O   UNL     1     109.183 101.512 107.415  1.00  0.00    -0.396 OA
ATOM     31  H   UNL     1     109.601 100.782 107.944  1.00  0.00     0.210 HD
ENDBRANCH  29  30
ENDBRANCH  28  29
ENDBRANCH  27  28
ENDBRANCH  26  27
ENDBRANCH  25  26
ENDBRANCH  24  25
ENDBRANCH  23  24
ENDBRANCH  22  23
ENDBRANCH  21  22
ENDBRANCH  20  21
ENDBRANCH  19  20
ENDBRANCH  18  19
ENDBRANCH  17  18
ENDBRANCH   1  17
TORSDOF 28
ENDMDL
MODEL 3
REMARK VINA RESULT:    -3.095      2.814      6.156
REMARK INTER + INTRA:         -13.319
REMARK INTER:                  -7.663
REMARK INTRA:                  -5.656
REMARK UNBOUND:                -5.248
REMARK SMILES CCCCCCCCCCCCCCCCCCCCCCCCCCCCCO
REMARK SMILES IDX 16 1 15 2 14 3 13 4 12 5 11 6 10 7 9 8 8 9 7 10 6 11 5 12
REMARK SMILES IDX 4 13 3 14 2 15 1 16 17 17 18 18 19 19 20 20 21 21 22 22
REMARK SMILES IDX 23 23 24 24 25 25 26 26 27 27 28 28 29 29 30 30
REMARK H PARENT 30 31
REMARK Flexibility Score: inf
ROOT
ATOM      1  C   UNL     1     107.938 106.131 104.667  1.00  0.00     0.000 C 
ENDROOT
BRANCH   1   2
ATOM      2  C   UNL     1     108.197 107.206 105.738  1.00  0.00     0.000 C 
BRANCH   2   3
ATOM      3  C   UNL     1     108.565 106.601 107.100  1.00  0.00     0.000 C 
BRANCH   3   4
ATOM      4  C   UNL     1     107.945 107.372 108.281  1.00  0.00     0.000 C 
BRANCH   4   5
ATOM      5  C   UNL     1     108.312 106.745 109.636  1.00  0.00     0.000 C 
BRANCH   5   6
ATOM      6  C   UNL     1     107.096 106.126 110.349  1.00  0.00     0.000 C 
BRANCH   6   7
ATOM      7  C   UNL     1     107.480 105.077 111.406  1.00  0.00     0.000 C 
BRANCH   7   8
ATOM      8  C   UNL     1     107.281 103.600 110.995  1.00  0.00    -0.000 C 
BRANCH   8   9
ATOM      9  C   UNL     1     108.058 103.152 109.735  1.00  0.00    -0.000 C 
BRANCH   9  10
ATOM     10  C   UNL     1     107.667 101.788 109.130  1.00  0.00    -0.000 C 
BRANCH  10  11
ATOM     11  C   UNL     1     107.589 101.786 107.596  1.00  0.00    -0.000 C 
BRANCH  11  12
ATOM     12  C   UNL     1     107.665 103.216 107.040  1.00  0.00    -0.000 C 
BRANCH  12  13
ATOM     13  C   UNL     1     106.391 103.612 106.262  1.00  0.00    -0.000 C 
BRANCH  13  14
ATOM     14  C   UNL     1     105.432 104.515 107.062  1.00  0.00    -0.000 C 
BRANCH  14  15
ATOM     15  C   UNL     1     104.447 103.765 107.973  1.00  0.00    -0.003 C 
ATOM     16  C   UNL     1     104.113 104.536 109.251  1.00  0.00     0.004 C 
ENDBRANCH  14  15
ENDBRANCH  13  14
ENDBRANCH  12  13
ENDBRANCH  11  12
ENDBRANCH  10  11
ENDBRANCH   9  10
ENDBRANCH   8   9
ENDBRANCH   7   8
ENDBRANCH   6   7
ENDBRANCH   5   6
ENDBRANCH   4   5
ENDBRANCH   3   4
ENDBRANCH   2   3
ENDBRANCH   1   2
BRANCH   1  17
ATOM     17  C   UNL     1     108.163 106.654 103.231  1.00  0.00     0.000 C 
BRANCH  17  18
ATOM     18  C   UNL     1     107.848 105.621 102.132  1.00  0.00     0.000 C 
BRANCH  18  19
ATOM     19  C   UNL     1     107.313 104.266 102.634  1.00  0.00     0.000 C 
BRANCH  19  20
ATOM     20  C   UNL     1     105.832 103.986 102.313  1.00  0.00     0.000 C 
BRANCH  20  21
ATOM     21  C   UNL     1     104.826 104.827 103.121  1.00  0.00     0.000 C 
BRANCH  21  22
ATOM     22  C   UNL     1     104.184 105.978 102.312  1.00  0.00     0.000 C 
BRANCH  22  23
ATOM     23  C   UNL     1     104.464 107.378 102.886  1.00  0.00     0.000 C 
BRANCH  23  24
ATOM     24  C   UNL     1     104.673 107.355 104.411  1.00  0.00     0.000 C 
BRANCH  24  25
ATOM     25  C   UNL     1     104.888 108.762 105.000  1.00  0.00     0.000 C 
BRANCH  25  26
ATOM     26  C   UNL     1     105.171 108.780 106.514  1.00  0.00     0.000 C 
BRANCH  26  27
ATOM     27  C   UNL     1     104.240 107.837 107.297  1.00  0.00     0.002 C 
BRANCH  27  28
ATOM     28  C   UNL     1     104.199 108.160 108.799  1.00  0.00     0.028 C 
BRANCH  28  29
ATOM     29  C   UNL     1     103.175 109.246 109.148  1.00  0.00     0.156 C 
BRANCH  29  30
ATOM     30  O   UNL     1     102.325 109.479 108.059  1.00  0.00    -0.396 OA
ATOM     31  H   UNL     1     102.895 109.474 107.246  1.00  0.00     0.210 HD
ENDBRANCH  29  30
ENDBRANCH  28  29
ENDBRANCH  27  28
ENDBRANCH  26  27
ENDBRANCH  25  26
ENDBRANCH  24  25
ENDBRANCH  23  24
ENDBRANCH  22  23
ENDBRANCH  21  22
ENDBRANCH  20  21
ENDBRANCH  19  20
ENDBRANCH  18  19
ENDBRANCH  17  18
ENDBRANCH   1  17
TORSDOF 28
ENDMDL
MODEL 4
REMARK VINA RESULT:    -3.083      3.237      6.164
REMARK INTER + INTRA:         -13.289
REMARK INTER:                  -8.062
REMARK INTRA:                  -5.227
REMARK UNBOUND:                -5.248
REMARK SMILES CCCCCCCCCCCCCCCCCCCCCCCCCCCCCO
REMARK SMILES IDX 16 1 15 2 14 3 13 4 12 5 11 6 10 7 9 8 8 9 7 10 6 11 5 12
REMARK SMILES IDX 4 13 3 14 2 15 1 16 17 17 18 18 19 19 20 20 21 21 22 22
REMARK SMILES IDX 23 23 24 24 25 25 26 26 27 27 28 28 29 29 30 30
REMARK H PARENT 30 31
REMARK Flexibility Score: inf
ROOT
ATOM      1  C   UNL     1     107.909 106.031 102.396  1.00  0.00     0.000 C 
ENDROOT
BRANCH   1   2
ATOM      2  C   UNL     1     107.202 107.372 102.129  1.00  0.00     0.000 C 
BRANCH   2   3
ATOM      3  C   UNL     1     105.680 107.216 101.996  1.00  0.00     0.000 C 
BRANCH   3   4
ATOM      4  C   UNL     1     104.910 107.882 103.152  1.00  0.00     0.000 C 
BRANCH   4   5
ATOM      5  C   UNL     1     105.827 108.217 104.339  1.00  0.00     0.000 C 
BRANCH   5   6
ATOM      6  C   UNL     1     105.065 108.278 105.675  1.00  0.00     0.000 C 
BRANCH   6   7
ATOM      7  C   UNL     1     105.883 107.750 106.866  1.00  0.00     0.000 C 
BRANCH   7   8
ATOM      8  C   UNL     1     107.301 107.230 106.534  1.00  0.00    -0.000 C 
BRANCH   8   9
ATOM      9  C   UNL     1     108.112 106.702 107.739  1.00  0.00    -0.000 C 
BRANCH   9  10
ATOM     10  C   UNL     1     107.300 106.197 108.951  1.00  0.00    -0.000 C 
BRANCH  10  11
ATOM     11  C   UNL     1     107.380 104.679 109.166  1.00  0.00    -0.000 C 
BRANCH  11  12
ATOM     12  C   UNL     1     106.087 104.145 109.801  1.00  0.00    -0.000 C 
BRANCH  12  13
ATOM     13  C   UNL     1     105.562 102.880 109.089  1.00  0.00    -0.000 C 
BRANCH  13  14
ATOM     14  C   UNL     1     106.458 101.642 109.283  1.00  0.00    -0.000 C 
BRANCH  14  15
ATOM     15  C   UNL     1     105.713 100.298 109.277  1.00  0.00    -0.003 C 
ATOM     16  C   UNL     1     105.007 100.002 110.602  1.00  0.00     0.004 C 
ENDBRANCH  14  15
ENDBRANCH  13  14
ENDBRANCH  12  13
ENDBRANCH  11  12
ENDBRANCH  10  11
ENDBRANCH   9  10
ENDBRANCH   8   9
ENDBRANCH   7   8
ENDBRANCH   6   7
ENDBRANCH   5   6
ENDBRANCH   4   5
ENDBRANCH   3   4
ENDBRANCH   2   3
ENDBRANCH   1   2
BRANCH   1  17
ATOM     17  C   UNL     1     107.080 104.815 101.927  1.00  0.00     0.000 C 
BRANCH  17  18
ATOM     18  C   UNL     1     106.903 103.725 103.002  1.00  0.00     0.000 C 
BRANCH  18  19
ATOM     19  C   UNL     1     107.116 104.192 104.455  1.00  0.00     0.000 C 
BRANCH  19  20
ATOM     20  C   UNL     1     105.836 104.282 105.308  1.00  0.00     0.000 C 
BRANCH  20  21
ATOM     21  C   UNL     1     104.572 104.705 104.535  1.00  0.00     0.000 C 
BRANCH  21  22
ATOM     22  C   UNL     1     103.388 105.104 105.447  1.00  0.00     0.000 C 
BRANCH  22  23
ATOM     23  C   UNL     1     103.475 104.527 106.871  1.00  0.00     0.000 C 
BRANCH  23  24
ATOM     24  C   UNL     1     103.247 105.598 107.953  1.00  0.00     0.000 C 
BRANCH  24  25
ATOM     25  C   UNL     1     102.524 105.040 109.193  1.00  0.00     0.000 C 
BRANCH  25  26
ATOM     26  C   UNL     1     101.500 103.931 108.885  1.00  0.00     0.000 C 
BRANCH  26  27
ATOM     27  C   UNL     1     101.851 102.599 109.572  1.00  0.00     0.002 C 
BRANCH  27  28
ATOM     28  C   UNL     1     102.151 101.476 108.568  1.00  0.00     0.028 C 
BRANCH  28  29
ATOM     29  C   UNL     1     101.214 100.272 108.721  1.00  0.00     0.156 C 
BRANCH  29  30
ATOM     30  O   UNL     1     101.882  99.091 108.372  1.00  0.00    -0.396 OA
ATOM     31  H   UNL     1     102.647  99.355 107.797  1.00  0.00     0.210 HD
ENDBRANCH  29  30
ENDBRANCH  28  29
ENDBRANCH  27  28
ENDBRANCH  26  27
ENDBRANCH  25  26
ENDBRANCH  24  25
ENDBRANCH  23  24
ENDBRANCH  22  23
ENDBRANCH  21  22
ENDBRANCH  20  21
ENDBRANCH  19  20
ENDBRANCH  18  19
ENDBRANCH  17  18
ENDBRANCH   1  17
TORSDOF 28
ENDMDL
MODEL 5
REMARK VINA RESULT:    -3.070      2.779      4.031
REMARK INTER + INTRA:         -13.254
REMARK INTER:                  -7.735
REMARK INTRA:                  -5.519
REMARK UNBOUND:                -5.248
REMARK SMILES CCCCCCCCCCCCCCCCCCCCCCCCCCCCCO
REMARK SMILES IDX 16 1 15 2 14 3 13 4 12 5 11 6 10 7 9 8 8 9 7 10 6 11 5 12
REMARK SMILES IDX 4 13 3 14 2 15 1 16 17 17 18 18 19 19 20 20 21 21 22 22
REMARK SMILES IDX 23 23 24 24 25 25 26 26 27 27 28 28 29 29 30 30
REMARK H PARENT 30 31
REMARK Flexibility Score: inf
ROOT
ATOM      1  C   UNL     1     106.997 106.976 101.934  1.00  0.00     0.000 C 
ENDROOT
BRANCH   1   2
ATOM      2  C   UNL     1     105.689 107.787 101.946  1.00  0.00     0.000 C 
BRANCH   2   3
ATOM      3  C   UNL     1     104.535 107.031 102.621  1.00  0.00     0.000 C 
BRANCH   3   4
ATOM      4  C   UNL     1     104.482 105.545 102.218  1.00  0.00     0.000 C 
BRANCH   4   5
ATOM      5  C   UNL     1     104.994 104.625 103.338  1.00  0.00     0.000 C 
BRANCH   5   6
ATOM      6  C   UNL     1     106.225 103.804 102.912  1.00  0.00     0.000 C 
BRANCH   6   7
ATOM      7  C   UNL     1     107.156 103.452 104.085  1.00  0.00     0.000 C 
BRANCH   7   8
ATOM      8  C   UNL     1     106.599 103.736 105.499  1.00  0.00    -0.000 C 
BRANCH   8   9
ATOM      9  C   UNL     1     107.554 103.399 106.667  1.00  0.00    -0.000 C 
BRANCH   9  10
ATOM     10  C   UNL     1     107.007 102.452 107.756  1.00  0.00    -0.000 C 
BRANCH  10  11
ATOM     11  C   UNL     1     107.184 102.980 109.187  1.00  0.00    -0.000 C 
BRANCH  11  12
ATOM     12  C   UNL     1     107.218 104.516 109.206  1.00  0.00    -0.000 C 
BRANCH  12  13
ATOM     13  C   UNL     1     106.065 105.118 110.039  1.00  0.00    -0.000 C 
BRANCH  13  14
ATOM     14  C   UNL     1     105.009 105.857 109.193  1.00  0.00    -0.000 C 
BRANCH  14  15
ATOM     15  C   UNL     1     104.378 105.018 108.071  1.00  0.00    -0.003 C 
ATOM     16  C   UNL     1     103.994 105.852 106.848  1.00  0.00     0.004 C 
ENDBRANCH  14  15
ENDBRANCH  13  14
ENDBRANCH  12  13
ENDBRANCH  11  12
ENDBRANCH  10  11
ENDBRANCH   9  10
ENDBRANCH   8   9
ENDBRANCH   7   8
ENDBRANCH   6   7
ENDBRANCH   5   6
ENDBRANCH   4   5
ENDBRANCH   3   4
ENDBRANCH   2   3
ENDBRANCH   1   2
BRANCH   1  17
ATOM     17  C   UNL     1     108.094 107.600 102.825  1.00  0.00     0.000 C 
BRANCH  17  18
ATOM     18  C   UNL     1     108.173 106.992 104.238  1.00  0.00     0.000 C 
BRANCH  18  19
ATOM     19  C   UNL     1     107.006 107.351 105.178  1.00  0.00     0.000 C 
BRANCH  19  20
ATOM     20  C   UNL     1     107.362 107.400 106.676  1.00  0.00     0.000 C 
BRANCH  20  21
ATOM     21  C   UNL     1     108.778 106.900 107.020  1.00  0.00     0.000 C 
BRANCH  21  22
ATOM     22  C   UNL     1     109.332 107.464 108.350  1.00  0.00     0.000 C 
BRANCH  22  23
ATOM     23  C   UNL     1     109.436 108.998 108.381  1.00  0.00     0.000 C 
BRANCH  23  24
ATOM     24  C   UNL     1     108.596 109.620 109.511  1.00  0.00     0.000 C 
BRANCH  24  25
ATOM     25  C   UNL     1     107.627 108.608 110.152  1.00  0.00     0.000 C 
BRANCH  25  26
ATOM     26  C   UNL     1     106.156 109.065 110.175  1.00  0.00     0.000 C 
BRANCH  26  27
ATOM     27  C   UNL     1     105.871 110.179 109.152  1.00  0.00     0.002 C 
BRANCH  27  28
ATOM     28  C   UNL     1     104.781 109.788 108.142  1.00  0.00     0.028 C 
BRANCH  28  29
ATOM     29  C   UNL     1     103.584 109.087 108.797  1.00  0.00     0.156 C 
BRANCH  29  30
ATOM     30  O   UNL     1     102.408 109.374 108.091  1.00  0.00    -0.396 OA
ATOM     31  H   UNL     1     102.280 110.358 108.140  1.00  0.00     0.210 HD
ENDBRANCH  29  30
ENDBRANCH  28  29
ENDBRANCH  27  28
ENDBRANCH  26  27
ENDBRANCH  25  26
ENDBRANCH  24  25
ENDBRANCH  23  24
ENDBRANCH  22  23
ENDBRANCH  21  22
ENDBRANCH  20  21
ENDBRANCH  19  20
ENDBRANCH  18  19
ENDBRANCH  17  18
ENDBRANCH   1  17
TORSDOF 28
ENDMDL
MODEL 6
REMARK VINA RESULT:    -3.047      2.312      5.288
REMARK INTER + INTRA:         -13.194
REMARK INTER:                  -7.697
REMARK INTRA:                  -5.496
REMARK UNBOUND:                -5.248
REMARK SMILES CCCCCCCCCCCCCCCCCCCCCCCCCCCCCO
REMARK SMILES IDX 16 1 15 2 14 3 13 4 12 5 11 6 10 7 9 8 8 9 7 10 6 11 5 12
REMARK SMILES IDX 4 13 3 14 2 15 1 16 17 17 18 18 19 19 20 20 21 21 22 22
REMARK SMILES IDX 23 23 24 24 25 25 26 26 27 27 28 28 29 29 30 30
REMARK H PARENT 30 31
REMARK Flexibility Score: inf
ROOT
ATOM      1  C   UNL     1     103.848 104.941 104.269  1.00  0.00     0.000 C 
ENDROOT
BRANCH   1   2
ATOM      2  C   UNL     1     103.275 104.937 105.698  1.00  0.00     0.000 C 
BRANCH   2   3
ATOM      3  C   UNL     1     104.319 104.531 106.748  1.00  0.00     0.000 C 
BRANCH   3   4
ATOM      4  C   UNL     1     103.697 104.262 108.132  1.00  0.00     0.000 C 
BRANCH   4   5
ATOM      5  C   UNL     1     104.666 104.603 109.276  1.00  0.00     0.000 C 
BRANCH   5   6
ATOM      6  C   UNL     1     104.679 103.529 110.379  1.00  0.00     0.000 C 
BRANCH   6   7
ATOM      7  C   UNL     1     105.130 102.147 109.876  1.00  0.00     0.000 C 
BRANCH   7   8
ATOM      8  C   UNL     1     106.383 102.134 108.971  1.00  0.00    -0.000 C 
BRANCH   8   9
ATOM      9  C   UNL     1     107.625 102.851 109.547  1.00  0.00    -0.000 C 
BRANCH   9  10
ATOM     10  C   UNL     1     108.435 103.726 108.567  1.00  0.00    -0.000 C 
BRANCH  10  11
ATOM     11  C   UNL     1     107.778 103.889 107.189  1.00  0.00    -0.000 C 
BRANCH  11  12
ATOM     12  C   UNL     1     107.647 105.373 106.815  1.00  0.00    -0.000 C 
BRANCH  12  13
ATOM     13  C   UNL     1     108.049 106.309 107.975  1.00  0.00    -0.000 C 
BRANCH  13  14
ATOM     14  C   UNL     1     108.625 107.661 107.511  1.00  0.00    -0.000 C 
BRANCH  14  15
ATOM     15  C   UNL     1     110.143 107.814 107.696  1.00  0.00    -0.003 C 
ATOM     16  C   UNL     1     110.746 106.729 108.590  1.00  0.00     0.004 C 
ENDBRANCH  14  15
ENDBRANCH  13  14
ENDBRANCH  12  13
ENDBRANCH  11  12
ENDBRANCH  10  11
ENDBRANCH   9  10
ENDBRANCH   8   9
ENDBRANCH   7   8
ENDBRANCH   6   7
ENDBRANCH   5   6
ENDBRANCH   4   5
ENDBRANCH   3   4
ENDBRANCH   2   3
ENDBRANCH   1   2
BRANCH   1  17
ATOM     17  C   UNL     1     105.318 104.469 104.215  1.00  0.00     0.000 C 
BRANCH  17  18
ATOM     18  C   UNL     1     105.813 104.124 102.798  1.00  0.00     0.000 C 
BRANCH  18  19
ATOM     19  C   UNL     1     106.831 105.112 102.196  1.00  0.00     0.000 C 
BRANCH  19  20
ATOM     20  C   UNL     1     107.663 105.903 103.224  1.00  0.00     0.000 C 
BRANCH  20  21
ATOM     21  C   UNL     1     107.401 107.421 103.235  1.00  0.00     0.000 C 
BRANCH  21  22
ATOM     22  C   UNL     1     105.985 107.812 102.751  1.00  0.00     0.000 C 
BRANCH  22  23
ATOM     23  C   UNL     1     105.081 108.381 103.859  1.00  0.00     0.000 C 
BRANCH  23  24
ATOM     24  C   UNL     1     105.637 108.105 105.268  1.00  0.00     0.000 C 
BRANCH  24  25
ATOM     25  C   UNL     1     104.709 108.627 106.381  1.00  0.00     0.000 C 
BRANCH  25  26
ATOM     26  C   UNL     1     104.797 107.839 107.702  1.00  0.00     0.000 C 
BRANCH  26  27
ATOM     27  C   UNL     1     104.563 108.730 108.935  1.00  0.00     0.002 C 
BRANCH  27  28
ATOM     28  C   UNL     1     105.872 109.123 109.638  1.00  0.00     0.028 C 
BRANCH  28  29
ATOM     29  C   UNL     1     106.272 110.581 109.381  1.00  0.00     0.156 C 
BRANCH  29  30
ATOM     30  O   UNL     1     107.636 110.661 109.069  1.00  0.00    -0.396 OA
ATOM     31  H   UNL     1     108.075 109.886 109.508  1.00  0.00     0.210 HD
ENDBRANCH  29  30
ENDBRANCH  28  29
ENDBRANCH  27  28
ENDBRANCH  26  27
ENDBRANCH  25  26
ENDBRANCH  24  25
ENDBRANCH  23  24
ENDBRANCH  22  23
ENDBRANCH  21  22
ENDBRANCH  20  21
ENDBRANCH  19  20
ENDBRANCH  18  19
ENDBRANCH  17  18
ENDBRANCH   1  17
TORSDOF 28
ENDMDL
MODEL 7
REMARK VINA RESULT:    -3.016      2.740      5.984
REMARK INTER + INTRA:         -13.112
REMARK INTER:                  -7.644
REMARK INTRA:                  -5.468
REMARK UNBOUND:                -5.248
REMARK SMILES CCCCCCCCCCCCCCCCCCCCCCCCCCCCCO
REMARK SMILES IDX 16 1 15 2 14 3 13 4 12 5 11 6 10 7 9 8 8 9 7 10 6 11 5 12
REMARK SMILES IDX 4 13 3 14 2 15 1 16 17 17 18 18 19 19 20 20 21 21 22 22
REMARK SMILES IDX 23 23 24 24 25 25 26 26 27 27 28 28 29 29 30 30
REMARK H PARENT 30 31
REMARK Flexibility Score: inf
ROOT
ATOM      1  C   UNL     1     105.181 105.751 109.762  1.00  0.00     0.000 C 
ENDROOT
BRANCH   1   2
ATOM      2  C   UNL     1     103.806 106.326 109.374  1.00  0.00     0.000 C 
BRANCH   2   3
ATOM      3  C   UNL     1     103.646 106.491 107.856  1.00  0.00     0.000 C 
BRANCH   3   4
ATOM      4  C   UNL     1     104.606 105.591 107.054  1.00  0.00     0.000 C 
BRANCH   4   5
ATOM      5  C   UNL     1     103.874 104.797 105.960  1.00  0.00     0.000 C 
BRANCH   5   6
ATOM      6  C   UNL     1     103.824 105.550 104.618  1.00  0.00     0.000 C 
BRANCH   6   7
ATOM      7  C   UNL     1     103.592 104.625 103.411  1.00  0.00     0.000 C 
BRANCH   7   8
ATOM      8  C   UNL     1     104.478 104.894 102.173  1.00  0.00    -0.000 C 
BRANCH   8   9
ATOM      9  C   UNL     1     105.711 103.972 102.028  1.00  0.00    -0.000 C 
BRANCH   9  10
ATOM     10  C   UNL     1     107.057 104.535 102.530  1.00  0.00    -0.000 C 
BRANCH  10  11
ATOM     11  C   UNL     1     107.274 104.378 104.042  1.00  0.00    -0.000 C 
BRANCH  11  12
ATOM     12  C   UNL     1     107.545 105.739 104.702  1.00  0.00    -0.000 C 
BRANCH  12  13
ATOM     13  C   UNL     1     107.542 106.897 103.682  1.00  0.00    -0.000 C 
BRANCH  13  14
ATOM     14  C   UNL     1     106.329 107.838 103.816  1.00  0.00    -0.000 C 
BRANCH  14  15
ATOM     15  C   UNL     1     105.675 108.243 102.485  1.00  0.00    -0.003 C 
ATOM     16  C   UNL     1     104.327 108.941 102.672  1.00  0.00     0.004 C 
ENDBRANCH  14  15
ENDBRANCH  13  14
ENDBRANCH  12  13
ENDBRANCH  11  12
ENDBRANCH  10  11
ENDBRANCH   9  10
ENDBRANCH   8   9
ENDBRANCH   7   8
ENDBRANCH   6   7
ENDBRANCH   5   6
ENDBRANCH   4   5
ENDBRANCH   3   4
ENDBRANCH   2   3
ENDBRANCH   1   2
BRANCH   1  17
ATOM     17  C   UNL     1     105.093 104.716 110.905  1.00  0.00     0.000 C 
BRANCH  17  18
ATOM     18  C   UNL     1     105.369 103.267 110.460  1.00  0.00     0.000 C 
BRANCH  18  19
ATOM     19  C   UNL     1     106.788 103.001 109.923  1.00  0.00     0.000 C 
BRANCH  19  20
ATOM     20  C   UNL     1     106.911 102.965 108.387  1.00  0.00     0.000 C 
BRANCH  20  21
ATOM     21  C   UNL     1     107.954 103.936 107.800  1.00  0.00     0.000 C 
BRANCH  21  22
ATOM     22  C   UNL     1     108.779 104.686 108.873  1.00  0.00     0.000 C 
BRANCH  22  23
ATOM     23  C   UNL     1     109.069 106.156 108.522  1.00  0.00     0.000 C 
BRANCH  23  24
ATOM     24  C   UNL     1     107.819 106.895 108.010  1.00  0.00     0.000 C 
BRANCH  24  25
ATOM     25  C   UNL     1     107.825 108.390 108.379  1.00  0.00     0.000 C 
BRANCH  25  26
ATOM     26  C   UNL     1     107.430 108.685 109.839  1.00  0.00     0.000 C 
BRANCH  26  27
ATOM     27  C   UNL     1     106.037 109.330 109.952  1.00  0.00     0.002 C 
BRANCH  27  28
ATOM     28  C   UNL     1     105.416 109.641 108.581  1.00  0.00     0.028 C 
BRANCH  28  29
ATOM     29  C   UNL     1     104.010 110.244 108.686  1.00  0.00     0.156 C 
BRANCH  29  30
ATOM     30  O   UNL     1     103.420 110.322 107.418  1.00  0.00    -0.396 OA
ATOM     31  H   UNL     1     102.706 109.631 107.393  1.00  0.00     0.210 HD
ENDBRANCH  29  30
ENDBRANCH  28  29
ENDBRANCH  27  28
ENDBRANCH  26  27
ENDBRANCH  25  26
ENDBRANCH  24  25
ENDBRANCH  23  24
ENDBRANCH  22  23
ENDBRANCH  21  22
ENDBRANCH  20  21
ENDBRANCH  19  20
ENDBRANCH  18  19
ENDBRANCH  17  18
ENDBRANCH   1  17
TORSDOF 28
ENDMDL
MODEL 8
REMARK VINA RESULT:    -2.970      2.655      4.708
REMARK INTER + INTRA:         -12.993
REMARK INTER:                  -8.033
REMARK INTRA:                  -4.960
REMARK UNBOUND:                -5.248
REMARK SMILES CCCCCCCCCCCCCCCCCCCCCCCCCCCCCO
REMARK SMILES IDX 16 1 15 2 14 3 13 4 12 5 11 6 10 7 9 8 8 9 7 10 6 11 5 12
REMARK SMILES IDX 4 13 3 14 2 15 1 16 17 17 18 18 19 19 20 20 21 21 22 22
REMARK SMILES IDX 23 23 24 24 25 25 26 26 27 27 28 28 29 29 30 30
REMARK H PARENT 30 31
REMARK Flexibility Score: inf
ROOT
ATOM      1  C   UNL     1     105.599 104.115 102.459  1.00  0.00     0.000 C 
ENDROOT
BRANCH   1   2
ATOM      2  C   UNL     1     104.429 105.016 102.024  1.00  0.00     0.000 C 
BRANCH   2   3
ATOM      3  C   UNL     1     104.122 106.116 103.050  1.00  0.00     0.000 C 
BRANCH   3   4
ATOM      4  C   UNL     1     104.392 107.531 102.505  1.00  0.00     0.000 C 
BRANCH   4   5
ATOM      5  C   UNL     1     105.083 108.429 103.545  1.00  0.00     0.000 C 
BRANCH   5   6
ATOM      6  C   UNL     1     104.904 107.910 104.984  1.00  0.00     0.000 C 
BRANCH   6   7
ATOM      7  C   UNL     1     104.708 109.035 106.014  1.00  0.00     0.000 C 
BRANCH   7   8
ATOM      8  C   UNL     1     105.108 108.695 107.469  1.00  0.00    -0.000 C 
BRANCH   8   9
ATOM      9  C   UNL     1     103.985 108.083 108.338  1.00  0.00    -0.000 C 
BRANCH   9  10
ATOM     10  C   UNL     1     104.391 106.931 109.281  1.00  0.00    -0.000 C 
BRANCH  10  11
ATOM     11  C   UNL     1     103.771 105.576 108.914  1.00  0.00    -0.000 C 
BRANCH  11  12
ATOM     12  C   UNL     1     103.299 105.565 107.452  1.00  0.00    -0.000 C 
BRANCH  12  13
ATOM     13  C   UNL     1     104.089 104.558 106.588  1.00  0.00    -0.000 C 
BRANCH  13  14
ATOM     14  C   UNL     1     105.593 104.876 106.482  1.00  0.00    -0.000 C 
BRANCH  14  15
ATOM     15  C   UNL     1     106.526 103.692 106.783  1.00  0.00    -0.003 C 
ATOM     16  C   UNL     1     106.905 103.593 108.261  1.00  0.00     0.004 C 
ENDBRANCH  14  15
ENDBRANCH  13  14
ENDBRANCH  12  13
ENDBRANCH  11  12
ENDBRANCH  10  11
ENDBRANCH   9  10
ENDBRANCH   8   9
ENDBRANCH   7   8
ENDBRANCH   6   7
ENDBRANCH   5   6
ENDBRANCH   4   5
ENDBRANCH   3   4
ENDBRANCH   2   3
ENDBRANCH   1   2
BRANCH   1  17
ATOM     17  C   UNL     1     106.971 104.810 102.321  1.00  0.00     0.000 C 
BRANCH  17  18
ATOM     18  C   UNL     1     107.527 105.369 103.645  1.00  0.00     0.000 C 
BRANCH  18  19
ATOM     19  C   UNL     1     108.236 106.733 103.539  1.00  0.00     0.000 C 
BRANCH  19  20
ATOM     20  C   UNL     1     108.959 107.196 104.818  1.00  0.00     0.000 C 
BRANCH  20  21
ATOM     21  C   UNL     1     108.088 107.192 106.089  1.00  0.00     0.000 C 
BRANCH  21  22
ATOM     22  C   UNL     1     108.869 106.837 107.377  1.00  0.00     0.000 C 
BRANCH  22  23
ATOM     23  C   UNL     1     108.081 107.090 108.674  1.00  0.00     0.000 C 
BRANCH  23  24
ATOM     24  C   UNL     1     108.426 108.446 109.315  1.00  0.00     0.000 C 
BRANCH  24  25
ATOM     25  C   UNL     1     109.676 109.094 108.691  1.00  0.00     0.000 C 
BRANCH  25  26
ATOM     26  C   UNL     1     110.511 109.937 109.673  1.00  0.00     0.000 C 
BRANCH  26  27
ATOM     27  C   UNL     1     109.784 111.223 110.108  1.00  0.00     0.002 C 
BRANCH  27  28
ATOM     28  C   UNL     1     110.400 112.488 109.491  1.00  0.00     0.028 C 
BRANCH  28  29
ATOM     29  C   UNL     1     109.381 113.327 108.710  1.00  0.00     0.156 C 
BRANCH  29  30
ATOM     30  O   UNL     1     108.292 112.533 108.326  1.00  0.00    -0.396 OA
ATOM     31  H   UNL     1     108.601 111.589 108.358  1.00  0.00     0.210 HD
ENDBRANCH  29  30
ENDBRANCH  28  29
ENDBRANCH  27  28
ENDBRANCH  26  27
ENDBRANCH  25  26
ENDBRANCH  24  25
ENDBRANCH  23  24
ENDBRANCH  22  23
ENDBRANCH  21  22
ENDBRANCH  20  21
ENDBRANCH  19  20
ENDBRANCH  18  19
ENDBRANCH  17  18
ENDBRANCH   1  17
TORSDOF 28
ENDMDL
