MODEL 1
REMARK VINA RESULT:    -3.806      0.000      0.000
REMARK INTER + INTRA:          -6.014
REMARK INTER:                  -5.809
REMARK INTRA:                  -0.206
REMARK UNBOUND:                -0.206
REMARK SMILES CC1=CCC[C@H](C)C(=O)C[C@@H](C(C)C)C(=O)C1
REMARK SMILES IDX 8 1 9 2 6 3 7 4 5 5 4 6 3 7 2 8 1 9 10 11 11 12 15 13 16 14
REMARK SMILES IDX 17 15 12 17 13 18 14 19
REMARK H PARENT
REMARK Flexibility Score: 70.00
ROOT
ATOM      1  C   UNL     1      10.178 -20.109  22.496  1.00  0.00     0.136 C 
ATOM      2  O   UNL     1      11.110 -20.621  23.101  1.00  0.00    -0.299 OA
ENDROOT
BRANCH   1   3
ATOM      3  C   UNL     1       9.326 -20.959  21.573  1.00  0.00     0.053 C 
ATOM      4  C   UNL     1      10.198 -21.973  20.818  1.00  0.00     0.016 C 
BRANCH   3   5
ATOM      5  C   UNL     1       8.217 -21.673  22.377  1.00  0.00     0.015 C 
BRANCH   5   6
ATOM      6  C   UNL     1       7.013 -20.751  22.654  1.00  0.00     0.028 C 
BRANCH   6   7
ATOM      7  C   UNL     1       6.772 -20.590  24.133  1.00  0.00    -0.028 C 
ATOM      8  C   UNL     1       6.967 -19.449  24.833  1.00  0.00    -0.070 CG0
ATOM      9  C   UNL     1       6.732 -19.487  26.323  1.00  0.00     0.039 C 
ATOM     10  G   UNL     1       7.420 -18.145  24.198  1.00  0.00     0.000 G0
ENDBRANCH   6   7
ENDBRANCH   5   6
ENDBRANCH   3   5
ENDBRANCH   1   3
BRANCH   1  11
ATOM     11  C   UNL     1       9.900 -18.636  22.684  1.00  0.00     0.087 C 
BRANCH  11  12
ATOM     12  C   UNL     1      10.066 -18.184  24.158  1.00  0.00     0.066 C 
BRANCH  12  13
ATOM     13  C   UNL     1       8.750 -17.652  24.715  1.00  0.00     0.140 C 
ATOM     14  O   UNL     1       8.786 -16.778  25.569  1.00  0.00    -0.299 OA
BRANCH  13  15
ATOM     15  C   UNL     1       7.410 -18.117  24.192  1.00  0.00     0.106 CG0
ATOM     16  G   UNL     1       6.972 -19.430  24.818  1.00  0.00     0.000 G0
ENDBRANCH  13  15
ENDBRANCH  12  13
BRANCH  12  17
ATOM     17  C   UNL     1      11.230 -17.159  24.356  1.00  0.00    -0.006 C 
ATOM     18  C   UNL     1      11.308 -16.132  23.212  1.00  0.00     0.008 C 
ATOM     19  C   UNL     1      12.586 -17.878  24.468  1.00  0.00     0.008 C 
ENDBRANCH  12  17
ENDBRANCH  11  12
ENDBRANCH   1  11
TORSDOF 1
ENDMDL
MODEL 2
REMARK VINA RESULT:    -3.717      2.263      4.756
REMARK INTER + INTRA:          -5.878
REMARK INTER:                  -5.753
REMARK INTRA:                  -0.125
REMARK UNBOUND:                -0.206
REMARK SMILES CC1=CCC[C@H](C)C(=O)C[C@@H](C(C)C)C(=O)C1
REMARK SMILES IDX 8 1 9 2 6 3 7 4 5 5 4 6 3 7 2 8 1 9 10 11 11 12 15 13 16 14
REMARK SMILES IDX 17 15 12 17 13 18 14 19
REMARK H PARENT
REMARK Flexibility Score: 70.00
ROOT
ATOM      1  C   UNL     1       7.066 -19.431  24.150  1.00  0.00     0.136 C 
ATOM      2  O   UNL     1       6.785 -20.610  23.980  1.00  0.00    -0.299 OA
ENDROOT
BRANCH   1   3
ATOM      3  C   UNL     1       7.142 -18.875  25.558  1.00  0.00     0.053 C 
ATOM      4  C   UNL     1       6.691 -19.930  26.580  1.00  0.00     0.016 C 
BRANCH   3   5
ATOM      5  C   UNL     1       8.576 -18.387  25.863  1.00  0.00     0.015 C 
BRANCH   5   6
ATOM      6  C   UNL     1       8.710 -16.856  25.735  1.00  0.00     0.028 C 
BRANCH   6   7
ATOM      7  C   UNL     1      10.058 -16.466  25.186  1.00  0.00    -0.028 C 
ATOM      8  C   UNL     1      10.321 -16.192  23.887  1.00  0.00    -0.070 CG0
ATOM      9  C   UNL     1      11.746 -15.877  23.508  1.00  0.00     0.039 C 
ATOM     10  G   UNL     1       9.259 -16.199  22.801  1.00  0.00     0.000 G0
ENDBRANCH   6   7
ENDBRANCH   5   6
ENDBRANCH   3   5
ENDBRANCH   1   3
BRANCH   1  11
ATOM     11  C   UNL     1       7.329 -18.557  22.946  1.00  0.00     0.087 C 
BRANCH  11  12
ATOM     12  C   UNL     1       8.753 -18.758  22.366  1.00  0.00     0.066 C 
BRANCH  12  13
ATOM     13  C   UNL     1       9.357 -17.426  21.937  1.00  0.00     0.140 C 
ATOM     14  O   UNL     1       9.868 -17.344  20.829  1.00  0.00    -0.299 OA
BRANCH  13  15
ATOM     15  C   UNL     1       9.279 -16.192  22.806  1.00  0.00     0.106 CG0
ATOM     16  G   UNL     1      10.327 -16.195  23.907  1.00  0.00     0.000 G0
ENDBRANCH  13  15
ENDBRANCH  12  13
BRANCH  12  17
ATOM     17  C   UNL     1       8.799 -19.809  21.209  1.00  0.00    -0.006 C 
ATOM     18  C   UNL     1       7.445 -19.950  20.491  1.00  0.00     0.008 C 
ATOM     19  C   UNL     1       9.225 -21.191  21.736  1.00  0.00     0.008 C 
ENDBRANCH  12  17
ENDBRANCH  11  12
ENDBRANCH   1  11
TORSDOF 1
ENDMDL
MODEL 3
REMARK VINA RESULT:    -3.716      2.169      5.321
REMARK INTER + INTRA:          -5.876
REMARK INTER:                  -5.982
REMARK INTRA:                   0.106
REMARK UNBOUND:                -0.206
REMARK SMILES CC1=CCC[C@H](C)C(=O)C[C@@H](C(C)C)C(=O)C1
REMARK SMILES IDX 8 1 9 2 6 3 7 4 5 5 4 6 3 7 2 8 1 9 10 11 11 12 15 13 16 14
REMARK SMILES IDX 17 15 12 17 13 18 14 19
REMARK H PARENT
REMARK Flexibility Score: 70.00
ROOT
ATOM      1  C   UNL     1       7.905 -16.995  23.404  1.00  0.00     0.136 C 
ATOM      2  O   UNL     1       6.775 -16.548  23.549  1.00  0.00    -0.299 OA
ENDROOT
BRANCH   1   3
ATOM      3  C   UNL     1       9.054 -16.396  24.190  1.00  0.00     0.053 C 
ATOM      4  C   UNL     1       8.943 -14.864  24.223  1.00  0.00     0.016 C 
BRANCH   3   5
ATOM      5  C   UNL     1       9.085 -16.979  25.621  1.00  0.00     0.015 C 
BRANCH   5   6
ATOM      6  C   UNL     1      10.402 -17.722  25.918  1.00  0.00     0.028 C 
BRANCH   6   7
ATOM      7  C   UNL     1      11.482 -17.340  24.938  1.00  0.00    -0.028 C 
ATOM      8  C   UNL     1      11.943 -18.130  23.941  1.00  0.00    -0.070 CG0
ATOM      9  C   UNL     1      13.074 -17.605  23.092  1.00  0.00     0.039 C 
ATOM     10  G   UNL     1      11.388 -19.513  23.645  1.00  0.00     0.000 G0
ENDBRANCH   6   7
ENDBRANCH   5   6
ENDBRANCH   3   5
ENDBRANCH   1   3
BRANCH   1  11
ATOM     11  C   UNL     1       8.125 -18.137  22.439  1.00  0.00     0.087 C 
BRANCH  11  12
ATOM     12  C   UNL     1       8.804 -19.359  23.111  1.00  0.00     0.066 C 
BRANCH  12  13
ATOM     13  C   UNL     1      10.251 -19.498  22.650  1.00  0.00     0.140 C 
ATOM     14  O   UNL     1      10.484 -19.522  21.450  1.00  0.00    -0.299 OA
BRANCH  13  15
ATOM     15  C   UNL     1      11.405 -19.531  23.626  1.00  0.00     0.106 CG0
ATOM     16  G   UNL     1      11.940 -18.143  23.934  1.00  0.00     0.000 G0
ENDBRANCH  13  15
ENDBRANCH  12  13
BRANCH  12  17
ATOM     17  C   UNL     1       8.007 -20.689  22.908  1.00  0.00    -0.006 C 
ATOM     18  C   UNL     1       7.638 -20.933  21.434  1.00  0.00     0.008 C 
ATOM     19  C   UNL     1       6.716 -20.692  23.748  1.00  0.00     0.008 C 
ENDBRANCH  12  17
ENDBRANCH  11  12
ENDBRANCH   1  11
TORSDOF 1
ENDMDL
MODEL 4
REMARK VINA RESULT:    -3.677      2.724      5.318
REMARK INTER + INTRA:          -5.818
REMARK INTER:                  -5.711
REMARK INTRA:                  -0.107
REMARK UNBOUND:                -0.206
REMARK SMILES CC1=CCC[C@H](C)C(=O)C[C@@H](C(C)C)C(=O)C1
REMARK SMILES IDX 8 1 9 2 6 3 7 4 5 5 4 6 3 7 2 8 1 9 10 11 11 12 15 13 16 14
REMARK SMILES IDX 17 15 12 17 13 18 14 19
REMARK H PARENT
REMARK Flexibility Score: 70.00
ROOT
ATOM      1  C   UNL     1       7.245 -20.219  23.099  1.00  0.00     0.136 C 
ATOM      2  O   UNL     1       7.072 -21.098  23.933  1.00  0.00    -0.299 OA
ENDROOT
BRANCH   1   3
ATOM      3  C   UNL     1       7.412 -18.781  23.549  1.00  0.00     0.053 C 
ATOM      4  C   UNL     1       6.732 -18.561  24.909  1.00  0.00     0.016 C 
BRANCH   3   5
ATOM      5  C   UNL     1       8.910 -18.411  23.612  1.00  0.00     0.015 C 
BRANCH   5   6
ATOM      6  C   UNL     1       9.233 -17.150  22.786  1.00  0.00     0.028 C 
BRANCH   6   7
ATOM      7  C   UNL     1       8.226 -16.941  21.684  1.00  0.00    -0.028 C 
ATOM      8  C   UNL     1       8.311 -17.471  20.442  1.00  0.00    -0.070 CG0
ATOM      9  C   UNL     1       7.241 -17.105  19.444  1.00  0.00     0.039 C 
ATOM     10  G   UNL     1       9.431 -18.400  20.004  1.00  0.00     0.000 G0
ENDBRANCH   6   7
ENDBRANCH   5   6
ENDBRANCH   3   5
ENDBRANCH   1   3
BRANCH   1  11
ATOM     11  C   UNL     1       7.289 -20.593  21.636  1.00  0.00     0.087 C 
BRANCH  11  12
ATOM     12  C   UNL     1       8.738 -20.739  21.103  1.00  0.00     0.066 C 
BRANCH  12  13
ATOM     13  C   UNL     1       8.958 -19.855  19.880  1.00  0.00     0.140 C 
ATOM     14  O   UNL     1       8.686 -20.304  18.775  1.00  0.00    -0.299 OA
BRANCH  13  15
ATOM     15  C   UNL     1       9.430 -18.424  19.998  1.00  0.00     0.106 CG0
ATOM     16  G   UNL     1       8.319 -17.485  20.439  1.00  0.00     0.000 G0
ENDBRANCH  13  15
ENDBRANCH  12  13
BRANCH  12  17
ATOM     17  C   UNL     1       9.139 -22.223  20.818  1.00  0.00    -0.006 C 
ATOM     18  C   UNL     1       7.980 -23.203  21.073  1.00  0.00     0.008 C 
ATOM     19  C   UNL     1      10.342 -22.645  21.681  1.00  0.00     0.008 C 
ENDBRANCH  12  17
ENDBRANCH  11  12
ENDBRANCH   1  11
TORSDOF 1
ENDMDL
MODEL 5
REMARK VINA RESULT:    -3.636      2.502      4.197
REMARK INTER + INTRA:          -5.754
REMARK INTER:                  -5.572
REMARK INTRA:                  -0.182
REMARK UNBOUND:                -0.206
REMARK SMILES CC1=CCC[C@H](C)C(=O)C[C@@H](C(C)C)C(=O)C1
REMARK SMILES IDX 8 1 9 2 6 3 7 4 5 5 4 6 3 7 2 8 1 9 10 11 11 12 15 13 16 14
REMARK SMILES IDX 17 15 12 17 13 18 14 19
REMARK H PARENT
REMARK Flexibility Score: 70.00
ROOT
ATOM      1  C   UNL     1       8.253 -19.158  23.342  1.00  0.00     0.136 C 
ATOM      2  O   UNL     1       7.433 -18.267  23.164  1.00  0.00    -0.299 OA
ENDROOT
BRANCH   1   3
ATOM      3  C   UNL     1       7.796 -20.604  23.359  1.00  0.00     0.053 C 
ATOM      4  C   UNL     1       6.585 -20.776  24.288  1.00  0.00     0.016 C 
BRANCH   3   5
ATOM      5  C   UNL     1       7.465 -21.076  21.925  1.00  0.00     0.015 C 
BRANCH   5   6
ATOM      6  C   UNL     1       8.734 -21.381  21.105  1.00  0.00     0.028 C 
BRANCH   6   7
ATOM      7  C   UNL     1       8.902 -20.407  19.967  1.00  0.00    -0.028 C 
ATOM      8  C   UNL     1       9.861 -19.455  19.892  1.00  0.00    -0.070 CG0
ATOM      9  C   UNL     1       9.840 -18.526  18.705  1.00  0.00     0.039 C 
ATOM     10  G   UNL     1      10.942 -19.273  20.944  1.00  0.00     0.000 G0
ENDBRANCH   6   7
ENDBRANCH   5   6
ENDBRANCH   3   5
ENDBRANCH   1   3
BRANCH   1  11
ATOM     11  C   UNL     1       9.705 -18.792  23.543  1.00  0.00     0.087 C 
BRANCH  11  12
ATOM     12  C   UNL     1      10.112 -17.523  22.750  1.00  0.00     0.066 C 
BRANCH  12  13
ATOM     13  C   UNL     1      10.966 -17.889  21.542  1.00  0.00     0.140 C 
ATOM     14  O   UNL     1      11.725 -17.047  21.083  1.00  0.00    -0.299 OA
BRANCH  13  15
ATOM     15  C   UNL     1      10.957 -19.278  20.943  1.00  0.00     0.106 CG0
ATOM     16  G   UNL     1       9.870 -19.446  19.895  1.00  0.00     0.000 G0
ENDBRANCH  13  15
ENDBRANCH  12  13
BRANCH  12  17
ATOM     17  C   UNL     1      10.810 -16.444  23.641  1.00  0.00    -0.006 C 
ATOM     18  C   UNL     1      11.380 -17.036  24.942  1.00  0.00     0.008 C 
ATOM     19  C   UNL     1       9.833 -15.309  24.000  1.00  0.00     0.008 C 
ENDBRANCH  12  17
ENDBRANCH  11  12
ENDBRANCH   1  11
TORSDOF 1
ENDMDL
MODEL 6
REMARK VINA RESULT:    -3.571      2.744      4.806
REMARK INTER + INTRA:          -5.656
REMARK INTER:                  -5.834
REMARK INTRA:                   0.178
REMARK UNBOUND:                -0.206
REMARK SMILES CC1=CCC[C@H](C)C(=O)C[C@@H](C(C)C)C(=O)C1
REMARK SMILES IDX 8 1 9 2 6 3 7 4 5 5 4 6 3 7 2 8 1 9 10 11 11 12 15 13 16 14
REMARK SMILES IDX 17 15 12 17 13 18 14 19
REMARK H PARENT
REMARK Flexibility Score: 70.00
ROOT
ATOM      1  C   UNL     1       7.669 -18.102  19.919  1.00  0.00     0.136 C 
ATOM      2  O   UNL     1       6.905 -18.340  18.993  1.00  0.00    -0.299 OA
ENDROOT
BRANCH   1   3
ATOM      3  C   UNL     1       7.976 -16.664  20.287  1.00  0.00     0.053 C 
ATOM      4  C   UNL     1       8.257 -15.834  19.026  1.00  0.00     0.016 C 
BRANCH   3   5
ATOM      5  C   UNL     1       6.808 -16.059  21.099  1.00  0.00     0.015 C 
BRANCH   5   6
ATOM      6  C   UNL     1       7.147 -15.930  22.597  1.00  0.00     0.028 C 
BRANCH   6   7
ATOM      7  C   UNL     1       8.628 -15.749  22.813  1.00  0.00    -0.028 C 
ATOM      8  C   UNL     1       9.425 -16.601  23.499  1.00  0.00    -0.070 CG0
ATOM      9  C   UNL     1      10.876 -16.228  23.667  1.00  0.00     0.039 C 
ATOM     10  G   UNL     1       8.928 -17.900  24.112  1.00  0.00     0.000 G0
ENDBRANCH   6   7
ENDBRANCH   5   6
ENDBRANCH   3   5
ENDBRANCH   1   3
BRANCH   1  11
ATOM     11  C   UNL     1       8.289 -19.254  20.674  1.00  0.00     0.087 C 
BRANCH  11  12
ATOM     12  C   UNL     1       7.815 -19.321  22.150  1.00  0.00     0.066 C 
BRANCH  12  13
ATOM     13  C   UNL     1       8.973 -19.048  23.104  1.00  0.00     0.140 C 
ATOM     14  O   UNL     1       9.980 -19.735  23.017  1.00  0.00    -0.299 OA
BRANCH  13  15
ATOM     15  C   UNL     1       8.941 -17.910  24.100  1.00  0.00     0.106 CG0
ATOM     16  G   UNL     1       9.407 -16.598  23.491  1.00  0.00     0.000 G0
ENDBRANCH  13  15
ENDBRANCH  12  13
BRANCH  12  17
ATOM     17  C   UNL     1       7.088 -20.660  22.499  1.00  0.00    -0.006 C 
ATOM     18  C   UNL     1       6.702 -20.747  23.986  1.00  0.00     0.008 C 
ATOM     19  C   UNL     1       7.966 -21.874  22.144  1.00  0.00     0.008 C 
ENDBRANCH  12  17
ENDBRANCH  11  12
ENDBRANCH   1  11
TORSDOF 1
ENDMDL
MODEL 7
REMARK VINA RESULT:    -3.560      2.309      5.599
REMARK INTER + INTRA:          -5.638
REMARK INTER:                  -5.731
REMARK INTRA:                   0.093
REMARK UNBOUND:                -0.206
REMARK SMILES CC1=CCC[C@H](C)C(=O)C[C@@H](C(C)C)C(=O)C1
REMARK SMILES IDX 8 1 9 2 6 3 7 4 5 5 4 6 3 7 2 8 1 9 10 11 11 12 15 13 16 14
REMARK SMILES IDX 17 15 12 17 13 18 14 19
REMARK H PARENT
REMARK Flexibility Score: 70.00
ROOT
ATOM      1  C   UNL     1       8.408 -17.246  24.718  1.00  0.00     0.136 C 
ATOM      2  O   UNL     1       7.679 -17.553  25.652  1.00  0.00    -0.299 OA
ENDROOT
BRANCH   1   3
ATOM      3  C   UNL     1       9.677 -16.461  24.985  1.00  0.00     0.053 C 
ATOM      4  C   UNL     1      10.705 -17.331  25.724  1.00  0.00     0.016 C 
BRANCH   3   5
ATOM      5  C   UNL     1      10.260 -15.921  23.659  1.00  0.00     0.015 C 
BRANCH   5   6
ATOM      6  C   UNL     1      11.740 -16.312  23.474  1.00  0.00     0.028 C 
BRANCH   6   7
ATOM      7  C   UNL     1      12.085 -16.483  22.016  1.00  0.00    -0.028 C 
ATOM      8  C   UNL     1      11.843 -17.595  21.284  1.00  0.00    -0.070 CG0
ATOM      9  C   UNL     1      12.313 -17.612  19.852  1.00  0.00     0.039 C 
ATOM     10  G   UNL     1      11.135 -18.821  21.836  1.00  0.00     0.000 G0
ENDBRANCH   6   7
ENDBRANCH   5   6
ENDBRANCH   3   5
ENDBRANCH   1   3
BRANCH   1  11
ATOM     11  C   UNL     1       8.022 -17.660  23.318  1.00  0.00     0.087 C 
BRANCH  11  12
ATOM     12  C   UNL     1       8.696 -18.988  22.883  1.00  0.00     0.066 C 
BRANCH  12  13
ATOM     13  C   UNL     1       9.624 -18.762  21.695  1.00  0.00     0.140 C 
ATOM     14  O   UNL     1       9.135 -18.446  20.620  1.00  0.00    -0.299 OA
BRANCH  13  15
ATOM     15  C   UNL     1      11.128 -18.845  21.825  1.00  0.00     0.106 CG0
ATOM     16  G   UNL     1      11.823 -17.610  21.274  1.00  0.00     0.000 G0
ENDBRANCH  13  15
ENDBRANCH  12  13
BRANCH  12  17
ATOM     17  C   UNL     1       7.668 -20.131  22.599  1.00  0.00    -0.006 C 
ATOM     18  C   UNL     1       6.782 -20.440  23.819  1.00  0.00     0.008 C 
ATOM     19  C   UNL     1       8.385 -21.424  22.169  1.00  0.00     0.008 C 
ENDBRANCH  12  17
ENDBRANCH  11  12
ENDBRANCH   1  11
TORSDOF 1
ENDMDL
MODEL 8
REMARK VINA RESULT:    -3.558      1.756      2.653
REMARK INTER + INTRA:          -5.636
REMARK INTER:                  -5.410
REMARK INTRA:                  -0.226
REMARK UNBOUND:                -0.206
REMARK SMILES CC1=CCC[C@H](C)C(=O)C[C@@H](C(C)C)C(=O)C1
REMARK SMILES IDX 8 1 9 2 6 3 7 4 5 5 4 6 3 7 2 8 1 9 10 11 11 12 15 13 16 14
REMARK SMILES IDX 17 15 12 17 13 18 14 19
REMARK H PARENT
REMARK Flexibility Score: 70.00
ROOT
ATOM      1  C   UNL     1       9.408 -20.400  22.310  1.00  0.00     0.136 C 
ATOM      2  O   UNL     1       9.881 -21.493  22.594  1.00  0.00    -0.299 OA
ENDROOT
BRANCH   1   3
ATOM      3  C   UNL     1       7.903 -20.221  22.281  1.00  0.00     0.053 C 
ATOM      4  C   UNL     1       7.261 -21.218  21.305  1.00  0.00     0.016 C 
BRANCH   3   5
ATOM      5  C   UNL     1       7.318 -20.380  23.702  1.00  0.00     0.015 C 
BRANCH   5   6
ATOM      6  C   UNL     1       7.611 -19.157  24.592  1.00  0.00     0.028 C 
BRANCH   6   7
ATOM      7  C   UNL     1       7.227 -17.871  23.905  1.00  0.00    -0.028 C 
ATOM      8  C   UNL     1       8.007 -16.768  23.826  1.00  0.00    -0.070 CG0
ATOM      9  C   UNL     1       7.434 -15.547  23.151  1.00  0.00     0.039 C 
ATOM     10  G   UNL     1       9.416 -16.698  24.390  1.00  0.00     0.000 G0
ENDBRANCH   6   7
ENDBRANCH   5   6
ENDBRANCH   3   5
ENDBRANCH   1   3
BRANCH   1  11
ATOM     11  C   UNL     1      10.341 -19.255  21.995  1.00  0.00     0.087 C 
BRANCH  11  12
ATOM     12  C   UNL     1      10.916 -18.589  23.272  1.00  0.00     0.066 C 
BRANCH  12  13
ATOM     13  C   UNL     1      10.457 -17.139  23.382  1.00  0.00     0.140 C 
ATOM     14  O   UNL     1      10.902 -16.321  22.590  1.00  0.00    -0.299 OA
BRANCH  13  15
ATOM     15  C   UNL     1       9.417 -16.700  24.388  1.00  0.00     0.106 CG0
ATOM     16  G   UNL     1       8.008 -16.750  23.820  1.00  0.00     0.000 G0
ENDBRANCH  13  15
ENDBRANCH  12  13
BRANCH  12  17
ATOM     17  C   UNL     1      12.471 -18.707  23.377  1.00  0.00    -0.006 C 
ATOM     18  C   UNL     1      13.141 -18.876  22.002  1.00  0.00     0.008 C 
ATOM     19  C   UNL     1      12.876 -19.892  24.273  1.00  0.00     0.008 C 
ENDBRANCH  12  17
ENDBRANCH  11  12
ENDBRANCH   1  11
TORSDOF 1
ENDMDL
MODEL 9
REMARK VINA RESULT:    -3.439      2.666      4.223
REMARK INTER + INTRA:          -5.454
REMARK INTER:                  -5.162
REMARK INTRA:                  -0.293
REMARK UNBOUND:                -0.206
REMARK SMILES CC1=CCC[C@H](C)C(=O)C[C@@H](C(C)C)C(=O)C1
REMARK SMILES IDX 8 1 9 2 6 3 7 4 5 5 4 6 3 7 2 8 1 9 10 11 11 12 15 13 16 14
REMARK SMILES IDX 17 15 12 17 13 18 14 19
REMARK H PARENT
REMARK Flexibility Score: 70.00
ROOT
ATOM      1  C   UNL     1       7.999 -19.589  23.122  1.00  0.00     0.136 C 
ATOM      2  O   UNL     1       6.865 -19.427  23.553  1.00  0.00    -0.299 OA
ENDROOT
BRANCH   1   3
ATOM      3  C   UNL     1       8.209 -20.374  21.842  1.00  0.00     0.053 C 
ATOM      4  C   UNL     1       7.589 -21.774  21.961  1.00  0.00     0.016 C 
BRANCH   3   5
ATOM      5  C   UNL     1       7.616 -19.606  20.640  1.00  0.00     0.015 C 
BRANCH   5   6
ATOM      6  C   UNL     1       8.635 -18.639  20.007  1.00  0.00     0.028 C 
BRANCH   6   7
ATOM      7  C   UNL     1      10.019 -19.236  19.983  1.00  0.00    -0.028 C 
ATOM      8  C   UNL     1      11.121 -18.670  20.529  1.00  0.00    -0.070 CG0
ATOM      9  C   UNL     1      12.438 -19.383  20.356  1.00  0.00     0.039 C 
ATOM     10  G   UNL     1      11.095 -17.356  21.291  1.00  0.00     0.000 G0
ENDBRANCH   6   7
ENDBRANCH   5   6
ENDBRANCH   3   5
ENDBRANCH   1   3
BRANCH   1  11
ATOM     11  C   UNL     1       9.165 -19.002  23.882  1.00  0.00     0.087 C 
BRANCH  11  12
ATOM     12  C   UNL     1       9.520 -17.568  23.410  1.00  0.00     0.066 C 
BRANCH  12  13
ATOM     13  C   UNL     1      10.906 -17.533  22.775  1.00  0.00     0.140 C 
ATOM     14  O   UNL     1      11.882 -17.723  23.487  1.00  0.00    -0.299 OA
BRANCH  13  15
ATOM     15  C   UNL     1      11.104 -17.344  21.288  1.00  0.00     0.106 CG0
ATOM     16  G   UNL     1      11.109 -18.663  20.535  1.00  0.00     0.000 G0
ENDBRANCH  13  15
ENDBRANCH  12  13
BRANCH  12  17
ATOM     17  C   UNL     1       9.380 -16.499  24.541  1.00  0.00    -0.006 C 
ATOM     18  C   UNL     1       8.412 -16.943  25.652  1.00  0.00     0.008 C 
ATOM     19  C   UNL     1       8.893 -15.153  23.972  1.00  0.00     0.008 C 
ENDBRANCH  12  17
ENDBRANCH  11  12
ENDBRANCH   1  11
TORSDOF 1
ENDMDL
