MODEL 1
REMARK VINA RESULT:    22.776      0.000      0.000
REMARK INTER + INTRA:          48.199
REMARK INTER:                  49.406
REMARK INTRA:                  -1.208
REMARK UNBOUND:                -1.208
REMARK SMILES CCCCCCCCCCCCCCCCCCCCCC(=O)[O-]
REMARK SMILES IDX 12 1 11 2 10 3 9 4 8 5 7 6 6 7 5 8 4 9 3 10 2 11 1 12 13 13
REMARK SMILES IDX 14 14 15 15 16 16 17 17 18 18 19 19 20 20 21 21 22 22 23 23
REMARK SMILES IDX 24 24
REMARK H PARENT
REMARK Flexibility Score: inf
ROOT
ATOM      1  C   UNL     1      -0.671  19.090  20.342  1.00  0.00     0.000 C 
ENDROOT
BRANCH   1   2
ATOM      2  C   UNL     1      -0.846  17.629  20.798  1.00  0.00     0.000 C 
BRANCH   2   3
ATOM      3  C   UNL     1      -0.024  16.593  20.007  1.00  0.00     0.000 C 
BRANCH   3   4
ATOM      4  C   UNL     1      -0.696  15.218  19.835  1.00  0.00    -0.000 C 
BRANCH   4   5
ATOM      5  C   UNL     1      -0.573  14.641  18.409  1.00  0.00    -0.000 C 
BRANCH   5   6
ATOM      6  C   UNL     1      -1.119  13.205  18.304  1.00  0.00    -0.000 C 
BRANCH   6   7
ATOM      7  C   UNL     1      -1.750  12.720  19.627  1.00  0.00    -0.000 C 
BRANCH   7   8
ATOM      8  C   UNL     1      -3.289  12.664  19.599  1.00  0.00    -0.000 C 
BRANCH   8   9
ATOM      9  C   UNL     1      -3.989  13.612  20.589  1.00  0.00    -0.000 C 
BRANCH   9  10
ATOM     10  C   UNL     1      -4.180  15.027  20.024  1.00  0.00    -0.000 C 
BRANCH  10  11
ATOM     11  C   UNL     1      -4.511  16.023  21.141  1.00  0.00    -0.003 C 
ATOM     12  C   UNL     1      -5.618  16.984  20.714  1.00  0.00     0.004 C 
ENDBRANCH  10  11
ENDBRANCH   9  10
ENDBRANCH   8   9
ENDBRANCH   7   8
ENDBRANCH   6   7
ENDBRANCH   5   6
ENDBRANCH   4   5
ENDBRANCH   3   4
ENDBRANCH   2   3
ENDBRANCH   1   2
BRANCH   1  13
ATOM     13  C   UNL     1      -1.272  20.101  21.332  1.00  0.00     0.000 C 
BRANCH  13  14
ATOM     14  C   UNL     1      -0.202  20.875  22.125  1.00  0.00     0.000 C 
BRANCH  14  15
ATOM     15  C   UNL     1      -0.457  22.389  22.278  1.00  0.00     0.000 C 
BRANCH  15  16
ATOM     16  C   UNL     1      -1.939  22.805  22.304  1.00  0.00     0.000 C 
BRANCH  16  17
ATOM     17  C   UNL     1      -2.216  24.162  22.981  1.00  0.00     0.000 C 
BRANCH  17  18
ATOM     18  C   UNL     1      -3.370  24.955  22.328  1.00  0.00     0.000 C 
BRANCH  18  19
ATOM     19  C   UNL     1      -2.874  26.208  21.586  1.00  0.00     0.000 C 
BRANCH  19  20
ATOM     20  C   UNL     1      -4.012  26.993  20.904  1.00  0.00     0.006 C 
BRANCH  20  21
ATOM     21  C   UNL     1      -3.577  27.753  19.639  1.00  0.00     0.053 C 
BRANCH  21  22
ATOM     22  C   UNL     1      -3.236  29.185  19.914  1.00  0.00     0.041 C 
ATOM     23  O   UNL     1      -4.151  30.029  20.111  1.00  0.00    -0.550 OA
ATOM     24  O   UNL     1      -1.908  29.592  19.944  1.00  0.00    -0.550 OA
ENDBRANCH  21  22
ENDBRANCH  20  21
ENDBRANCH  19  20
ENDBRANCH  18  19
ENDBRANCH  17  18
ENDBRANCH  16  17
ENDBRANCH  15  16
ENDBRANCH  14  15
ENDBRANCH  13  14
ENDBRANCH   1  13
TORSDOF 20
ENDMDL
MODEL 2
REMARK VINA RESULT:    22.822      0.855      1.079
REMARK INTER + INTRA:          48.297
REMARK INTER:                  49.651
REMARK INTRA:                  -1.354
REMARK UNBOUND:                -1.208
REMARK SMILES CCCCCCCCCCCCCCCCCCCCCC(=O)[O-]
REMARK SMILES IDX 12 1 11 2 10 3 9 4 8 5 7 6 6 7 5 8 4 9 3 10 2 11 1 12 13 13
REMARK SMILES IDX 14 14 15 15 16 16 17 17 18 18 19 19 20 20 21 21 22 22 23 23
REMARK SMILES IDX 24 24
REMARK H PARENT
REMARK Flexibility Score: inf
ROOT
ATOM      1  C   UNL     1      -1.052  17.929  20.943  1.00  0.00     0.000 C 
ENDROOT
BRANCH   1   2
ATOM      2  C   UNL     1      -0.069  17.112  20.084  1.00  0.00     0.000 C 
BRANCH   2   3
ATOM      3  C   UNL     1      -0.372  15.603  19.997  1.00  0.00     0.000 C 
BRANCH   3   4
ATOM      4  C   UNL     1      -0.803  15.102  18.605  1.00  0.00    -0.000 C 
BRANCH   4   5
ATOM      5  C   UNL     1      -0.520  13.604  18.370  1.00  0.00    -0.000 C 
BRANCH   5   6
ATOM      6  C   UNL     1      -1.447  12.691  19.193  1.00  0.00    -0.000 C 
BRANCH   6   7
ATOM      7  C   UNL     1      -2.936  13.062  19.024  1.00  0.00    -0.000 C 
BRANCH   7   8
ATOM      8  C   UNL     1      -3.808  12.708  20.243  1.00  0.00    -0.000 C 
BRANCH   8   9
ATOM      9  C   UNL     1      -4.330  13.918  21.037  1.00  0.00    -0.000 C 
BRANCH   9  10
ATOM     10  C   UNL     1      -4.041  15.256  20.341  1.00  0.00    -0.000 C 
BRANCH  10  11
ATOM     11  C   UNL     1      -4.601  16.429  21.153  1.00  0.00    -0.003 C 
ATOM     12  C   UNL     1      -5.908  16.942  20.553  1.00  0.00     0.004 C 
ENDBRANCH  10  11
ENDBRANCH   9  10
ENDBRANCH   8   9
ENDBRANCH   7   8
ENDBRANCH   6   7
ENDBRANCH   5   6
ENDBRANCH   4   5
ENDBRANCH   3   4
ENDBRANCH   2   3
ENDBRANCH   1   2
BRANCH   1  13
ATOM     13  C   UNL     1      -1.029  19.430  20.614  1.00  0.00     0.000 C 
BRANCH  13  14
ATOM     14  C   UNL     1      -0.351  20.275  21.709  1.00  0.00     0.000 C 
BRANCH  14  15
ATOM     15  C   UNL     1      -0.842  21.734  21.819  1.00  0.00     0.000 C 
BRANCH  15  16
ATOM     16  C   UNL     1      -1.560  22.086  23.135  1.00  0.00     0.000 C 
BRANCH  16  17
ATOM     17  C   UNL     1      -1.825  23.590  23.343  1.00  0.00     0.000 C 
BRANCH  17  18
ATOM     18  C   UNL     1      -2.971  24.144  22.466  1.00  0.00     0.000 C 
BRANCH  18  19
ATOM     19  C   UNL     1      -2.935  25.678  22.355  1.00  0.00     0.000 C 
BRANCH  19  20
ATOM     20  C   UNL     1      -3.476  26.196  21.008  1.00  0.00     0.006 C 
BRANCH  20  21
ATOM     21  C   UNL     1      -3.856  27.687  21.019  1.00  0.00     0.053 C 
BRANCH  21  22
ATOM     22  C   UNL     1      -3.453  28.395  19.762  1.00  0.00     0.041 C 
ATOM     23  O   UNL     1      -3.907  28.018  18.647  1.00  0.00    -0.550 OA
ATOM     24  O   UNL     1      -2.570  29.466  19.818  1.00  0.00    -0.550 OA
ENDBRANCH  21  22
ENDBRANCH  20  21
ENDBRANCH  19  20
ENDBRANCH  18  19
ENDBRANCH  17  18
ENDBRANCH  16  17
ENDBRANCH  15  16
ENDBRANCH  14  15
ENDBRANCH  13  14
ENDBRANCH   1  13
TORSDOF 20
ENDMDL
MODEL 3
REMARK VINA RESULT:    23.369     11.967     15.083
REMARK INTER + INTRA:          49.485
REMARK INTER:                  50.496
REMARK INTRA:                  -1.010
REMARK UNBOUND:                -1.208
REMARK SMILES CCCCCCCCCCCCCCCCCCCCCC(=O)[O-]
REMARK SMILES IDX 12 1 11 2 10 3 9 4 8 5 7 6 6 7 5 8 4 9 3 10 2 11 1 12 13 13
REMARK SMILES IDX 14 14 15 15 16 16 17 17 18 18 19 19 20 20 21 21 22 22 23 23
REMARK SMILES IDX 24 24
REMARK H PARENT
REMARK Flexibility Score: inf
ROOT
ATOM      1  C   UNL     1      -5.263  20.831   6.328  1.00  0.00     0.000 C 
ENDROOT
BRANCH   1   2
ATOM      2  C   UNL     1      -5.061  22.133   7.127  1.00  0.00     0.000 C 
BRANCH   2   3
ATOM      3  C   UNL     1      -3.597  22.473   7.464  1.00  0.00     0.000 C 
BRANCH   3   4
ATOM      4  C   UNL     1      -2.972  21.629   8.592  1.00  0.00    -0.000 C 
BRANCH   4   5
ATOM      5  C   UNL     1      -1.462  21.880   8.791  1.00  0.00    -0.000 C 
BRANCH   5   6
ATOM      6  C   UNL     1      -1.163  22.704  10.056  1.00  0.00    -0.000 C 
BRANCH   6   7
ATOM      7  C   UNL     1      -0.067  23.766   9.819  1.00  0.00    -0.000 C 
BRANCH   7   8
ATOM      8  C   UNL     1      -0.617  25.152   9.432  1.00  0.00    -0.000 C 
BRANCH   8   9
ATOM      9  C   UNL     1       0.169  26.342  10.008  1.00  0.00    -0.000 C 
BRANCH   9  10
ATOM     10  C   UNL     1      -0.729  27.347  10.746  1.00  0.00    -0.000 C 
BRANCH  10  11
ATOM     11  C   UNL     1      -1.313  26.726  12.020  1.00  0.00    -0.003 C 
ATOM     12  C   UNL     1      -1.673  27.801  13.042  1.00  0.00     0.004 C 
ENDBRANCH  10  11
ENDBRANCH   9  10
ENDBRANCH   8   9
ENDBRANCH   7   8
ENDBRANCH   6   7
ENDBRANCH   5   6
ENDBRANCH   4   5
ENDBRANCH   3   4
ENDBRANCH   2   3
ENDBRANCH   1   2
BRANCH   1  13
ATOM     13  C   UNL     1      -6.741  20.546   6.013  1.00  0.00     0.000 C 
BRANCH  13  14
ATOM     14  C   UNL     1      -7.304  19.351   6.804  1.00  0.00     0.000 C 
BRANCH  14  15
ATOM     15  C   UNL     1      -6.280  18.591   7.675  1.00  0.00     0.000 C 
BRANCH  15  16
ATOM     16  C   UNL     1      -6.877  17.822   8.868  1.00  0.00     0.000 C 
BRANCH  16  17
ATOM     17  C   UNL     1      -6.930  18.619  10.186  1.00  0.00     0.000 C 
BRANCH  17  18
ATOM     18  C   UNL     1      -5.538  18.989  10.743  1.00  0.00     0.000 C 
BRANCH  18  19
ATOM     19  C   UNL     1      -4.412  18.728   9.728  1.00  0.00     0.000 C 
BRANCH  19  20
ATOM     20  C   UNL     1      -3.319  17.786  10.270  1.00  0.00     0.006 C 
BRANCH  20  21
ATOM     21  C   UNL     1      -1.899  18.134   9.790  1.00  0.00     0.053 C 
BRANCH  21  22
ATOM     22  C   UNL     1      -1.115  16.924   9.385  1.00  0.00     0.041 C 
ATOM     23  O   UNL     1      -0.094  16.580  10.039  1.00  0.00    -0.550 OA
ATOM     24  O   UNL     1      -1.506  16.178   8.279  1.00  0.00    -0.550 OA
ENDBRANCH  21  22
ENDBRANCH  20  21
ENDBRANCH  19  20
ENDBRANCH  18  19
ENDBRANCH  17  18
ENDBRANCH  16  17
ENDBRANCH  15  16
ENDBRANCH  14  15
ENDBRANCH  13  14
ENDBRANCH   1  13
TORSDOF 20
ENDMDL
MODEL 4
REMARK VINA RESULT:    24.091     11.617     12.874
REMARK INTER + INTRA:          51.050
REMARK INTER:                  51.607
REMARK INTRA:                  -0.557
REMARK UNBOUND:                -1.208
REMARK SMILES CCCCCCCCCCCCCCCCCCCCCC(=O)[O-]
REMARK SMILES IDX 12 1 11 2 10 3 9 4 8 5 7 6 6 7 5 8 4 9 3 10 2 11 1 12 13 13
REMARK SMILES IDX 14 14 15 15 16 16 17 17 18 18 19 19 20 20 21 21 22 22 23 23
REMARK SMILES IDX 24 24
REMARK H PARENT
REMARK Flexibility Score: inf
ROOT
ATOM      1  C   UNL     1      -5.726  20.727   6.220  1.00  0.00     0.000 C 
ENDROOT
BRANCH   1   2
ATOM      2  C   UNL     1      -7.053  20.805   5.442  1.00  0.00     0.000 C 
BRANCH   2   3
ATOM      3  C   UNL     1      -8.216  19.994   6.047  1.00  0.00     0.000 C 
BRANCH   3   4
ATOM      4  C   UNL     1      -7.913  19.327   7.402  1.00  0.00    -0.000 C 
BRANCH   4   5
ATOM      5  C   UNL     1      -6.540  18.622   7.453  1.00  0.00    -0.000 C 
BRANCH   5   6
ATOM      6  C   UNL     1      -6.354  17.787   8.733  1.00  0.00    -0.000 C 
BRANCH   6   7
ATOM      7  C   UNL     1      -5.808  18.628   9.907  1.00  0.00    -0.000 C 
BRANCH   7   8
ATOM      8  C   UNL     1      -4.308  18.959   9.791  1.00  0.00    -0.000 C 
BRANCH   8   9
ATOM      9  C   UNL     1      -3.365  17.756   9.968  1.00  0.00    -0.000 C 
BRANCH   9  10
ATOM     10  C   UNL     1      -1.890  18.119   9.739  1.00  0.00    -0.000 C 
BRANCH  10  11
ATOM     11  C   UNL     1      -1.136  16.957   9.082  1.00  0.00    -0.003 C 
ATOM     12  C   UNL     1      -0.136  16.330  10.051  1.00  0.00     0.004 C 
ENDBRANCH  10  11
ENDBRANCH   9  10
ENDBRANCH   8   9
ENDBRANCH   7   8
ENDBRANCH   6   7
ENDBRANCH   5   6
ENDBRANCH   4   5
ENDBRANCH   3   4
ENDBRANCH   2   3
ENDBRANCH   1   2
BRANCH   1  13
ATOM     13  C   UNL     1      -5.413  22.016   6.998  1.00  0.00     0.000 C 
BRANCH  13  14
ATOM     14  C   UNL     1      -4.413  21.795   8.148  1.00  0.00     0.000 C 
BRANCH  14  15
ATOM     15  C   UNL     1      -2.961  22.229   7.856  1.00  0.00     0.000 C 
BRANCH  15  16
ATOM     16  C   UNL     1      -1.898  21.647   8.807  1.00  0.00     0.000 C 
BRANCH  16  17
ATOM     17  C   UNL     1      -1.680  22.454  10.101  1.00  0.00     0.000 C 
BRANCH  17  18
ATOM     18  C   UNL     1      -0.344  23.230  10.130  1.00  0.00     0.000 C 
BRANCH  18  19
ATOM     19  C   UNL     1      -0.227  24.239   8.975  1.00  0.00     0.000 C 
BRANCH  19  20
ATOM     20  C   UNL     1      -0.247  25.705   9.453  1.00  0.00     0.006 C 
BRANCH  20  21
ATOM     21  C   UNL     1      -0.491  25.867  10.963  1.00  0.00     0.053 C 
BRANCH  21  22
ATOM     22  C   UNL     1      -0.901  27.258  11.336  1.00  0.00     0.041 C 
ATOM     23  O   UNL     1      -0.726  28.210  10.529  1.00  0.00    -0.550 OA
ATOM     24  O   UNL     1      -1.471  27.507  12.579  1.00  0.00    -0.550 OA
ENDBRANCH  21  22
ENDBRANCH  20  21
ENDBRANCH  19  20
ENDBRANCH  18  19
ENDBRANCH  17  18
ENDBRANCH  16  17
ENDBRANCH  15  16
ENDBRANCH  14  15
ENDBRANCH  13  14
ENDBRANCH   1  13
TORSDOF 20
ENDMDL
MODEL 5
REMARK VINA RESULT:    24.110     11.442     12.655
REMARK INTER + INTRA:          51.092
REMARK INTER:                  52.476
REMARK INTRA:                  -1.384
REMARK UNBOUND:                -1.208
REMARK SMILES CCCCCCCCCCCCCCCCCCCCCC(=O)[O-]
REMARK SMILES IDX 12 1 11 2 10 3 9 4 8 5 7 6 6 7 5 8 4 9 3 10 2 11 1 12 13 13
REMARK SMILES IDX 14 14 15 15 16 16 17 17 18 18 19 19 20 20 21 21 22 22 23 23
REMARK SMILES IDX 24 24
REMARK H PARENT
REMARK Flexibility Score: inf
ROOT
ATOM      1  C   UNL     1      -5.293  22.055   6.954  1.00  0.00     0.000 C 
ENDROOT
BRANCH   1   2
ATOM      2  C   UNL     1      -5.299  20.804   6.055  1.00  0.00     0.000 C 
BRANCH   2   3
ATOM      3  C   UNL     1      -6.655  20.474   5.401  1.00  0.00     0.000 C 
BRANCH   3   4
ATOM      4  C   UNL     1      -7.852  20.418   6.369  1.00  0.00    -0.000 C 
BRANCH   4   5
ATOM      5  C   UNL     1      -7.946  19.098   7.164  1.00  0.00    -0.000 C 
BRANCH   5   6
ATOM      6  C   UNL     1      -6.568  18.582   7.615  1.00  0.00    -0.000 C 
BRANCH   6   7
ATOM      7  C   UNL     1      -6.532  18.246   9.121  1.00  0.00    -0.000 C 
BRANCH   7   8
ATOM      8  C   UNL     1      -5.196  18.595   9.805  1.00  0.00    -0.000 C 
BRANCH   8   9
ATOM      9  C   UNL     1      -3.956  17.942   9.172  1.00  0.00    -0.000 C 
BRANCH   9  10
ATOM     10  C   UNL     1      -2.729  17.975  10.096  1.00  0.00    -0.000 C 
BRANCH  10  11
ATOM     11  C   UNL     1      -1.459  17.577   9.335  1.00  0.00    -0.003 C 
ATOM     12  C   UNL     1      -0.788  16.366   9.977  1.00  0.00     0.004 C 
ENDBRANCH  10  11
ENDBRANCH   9  10
ENDBRANCH   8   9
ENDBRANCH   7   8
ENDBRANCH   6   7
ENDBRANCH   5   6
ENDBRANCH   4   5
ENDBRANCH   3   4
ENDBRANCH   2   3
ENDBRANCH   1   2
BRANCH   1  13
ATOM     13  C   UNL     1      -4.490  21.857   8.249  1.00  0.00     0.000 C 
BRANCH  13  14
ATOM     14  C   UNL     1      -2.967  21.917   8.027  1.00  0.00     0.000 C 
BRANCH  14  15
ATOM     15  C   UNL     1      -2.112  21.215   9.103  1.00  0.00     0.000 C 
BRANCH  15  16
ATOM     16  C   UNL     1      -1.063  22.107   9.793  1.00  0.00     0.000 C 
BRANCH  16  17
ATOM     17  C   UNL     1      -0.828  23.469   9.112  1.00  0.00     0.000 C 
BRANCH  17  18
ATOM     18  C   UNL     1      -0.201  24.528  10.046  1.00  0.00     0.000 C 
BRANCH  18  19
ATOM     19  C   UNL     1      -0.261  25.945   9.449  1.00  0.00     0.000 C 
BRANCH  19  20
ATOM     20  C   UNL     1       0.167  27.037  10.449  1.00  0.00     0.006 C 
BRANCH  20  21
ATOM     21  C   UNL     1      -0.997  27.901  10.966  1.00  0.00     0.053 C 
BRANCH  21  22
ATOM     22  C   UNL     1      -1.535  27.419  12.279  1.00  0.00     0.041 C 
ATOM     23  O   UNL     1      -1.970  26.241  12.393  1.00  0.00    -0.550 OA
ATOM     24  O   UNL     1      -1.562  28.271  13.375  1.00  0.00    -0.550 OA
ENDBRANCH  21  22
ENDBRANCH  20  21
ENDBRANCH  19  20
ENDBRANCH  18  19
ENDBRANCH  17  18
ENDBRANCH  16  17
ENDBRANCH  15  16
ENDBRANCH  14  15
ENDBRANCH  13  14
ENDBRANCH   1  13
TORSDOF 20
ENDMDL
MODEL 6
REMARK VINA RESULT:    24.340      3.844     10.745
REMARK INTER + INTRA:          51.591
REMARK INTER:                  52.703
REMARK INTRA:                  -1.112
REMARK UNBOUND:                -1.208
REMARK SMILES CCCCCCCCCCCCCCCCCCCCCC(=O)[O-]
REMARK SMILES IDX 12 1 11 2 10 3 9 4 8 5 7 6 6 7 5 8 4 9 3 10 2 11 1 12 13 13
REMARK SMILES IDX 14 14 15 15 16 16 17 17 18 18 19 19 20 20 21 21 22 22 23 23
REMARK SMILES IDX 24 24
REMARK H PARENT
REMARK Flexibility Score: inf
ROOT
ATOM      1  C   UNL     1      -0.920  17.988  20.821  1.00  0.00     0.000 C 
ENDROOT
BRANCH   1   2
ATOM      2  C   UNL     1      -0.507  19.464  20.665  1.00  0.00     0.000 C 
BRANCH   2   3
ATOM      3  C   UNL     1      -1.520  20.488  21.213  1.00  0.00     0.000 C 
BRANCH   3   4
ATOM      4  C   UNL     1      -1.003  21.365  22.370  1.00  0.00    -0.000 C 
BRANCH   4   5
ATOM      5  C   UNL     1      -2.024  22.414  22.858  1.00  0.00    -0.000 C 
BRANCH   5   6
ATOM      6  C   UNL     1      -1.705  23.830  22.346  1.00  0.00    -0.000 C 
BRANCH   6   7
ATOM      7  C   UNL     1      -2.921  24.776  22.442  1.00  0.00    -0.000 C 
BRANCH   7   8
ATOM      8  C   UNL     1      -2.876  25.951  21.446  1.00  0.00    -0.000 C 
BRANCH   8   9
ATOM      9  C   UNL     1      -4.132  26.838  21.436  1.00  0.00    -0.000 C 
BRANCH   9  10
ATOM     10  C   UNL     1      -4.298  27.619  20.123  1.00  0.00    -0.000 C 
BRANCH  10  11
ATOM     11  C   UNL     1      -2.967  28.240  19.683  1.00  0.00    -0.003 C 
ATOM     12  C   UNL     1      -2.950  29.745  19.938  1.00  0.00     0.004 C 
ENDBRANCH  10  11
ENDBRANCH   9  10
ENDBRANCH   8   9
ENDBRANCH   7   8
ENDBRANCH   6   7
ENDBRANCH   5   6
ENDBRANCH   4   5
ENDBRANCH   3   4
ENDBRANCH   2   3
ENDBRANCH   1   2
BRANCH   1  13
ATOM     13  C   UNL     1      -0.003  17.026  20.048  1.00  0.00     0.000 C 
BRANCH  13  14
ATOM     14  C   UNL     1      -0.402  15.548  20.217  1.00  0.00     0.000 C 
BRANCH  14  15
ATOM     15  C   UNL     1      -0.314  14.688  18.939  1.00  0.00     0.000 C 
BRANCH  15  16
ATOM     16  C   UNL     1      -1.638  14.041  18.491  1.00  0.00     0.000 C 
BRANCH  16  17
ATOM     17  C   UNL     1      -2.017  12.756  19.251  1.00  0.00     0.000 C 
BRANCH  17  18
ATOM     18  C   UNL     1      -3.519  12.666  19.604  1.00  0.00     0.000 C 
BRANCH  18  19
ATOM     19  C   UNL     1      -3.838  13.283  20.976  1.00  0.00     0.000 C 
BRANCH  19  20
ATOM     20  C   UNL     1      -4.986  14.309  20.921  1.00  0.00     0.006 C 
BRANCH  20  21
ATOM     21  C   UNL     1      -4.516  15.767  20.778  1.00  0.00     0.053 C 
BRANCH  21  22
ATOM     22  C   UNL     1      -5.652  16.726  20.596  1.00  0.00     0.041 C 
ATOM     23  O   UNL     1      -5.482  17.959  20.795  1.00  0.00    -0.550 OA
ATOM     24  O   UNL     1      -6.904  16.258  20.215  1.00  0.00    -0.550 OA
ENDBRANCH  21  22
ENDBRANCH  20  21
ENDBRANCH  19  20
ENDBRANCH  18  19
ENDBRANCH  17  18
ENDBRANCH  16  17
ENDBRANCH  15  16
ENDBRANCH  14  15
ENDBRANCH  13  14
ENDBRANCH   1  13
TORSDOF 20
ENDMDL
MODEL 7
REMARK VINA RESULT:    24.569     10.842     14.685
REMARK INTER + INTRA:          52.088
REMARK INTER:                  53.119
REMARK INTRA:                  -1.031
REMARK UNBOUND:                -1.208
REMARK SMILES CCCCCCCCCCCCCCCCCCCCCC(=O)[O-]
REMARK SMILES IDX 12 1 11 2 10 3 9 4 8 5 7 6 6 7 5 8 4 9 3 10 2 11 1 12 13 13
REMARK SMILES IDX 14 14 15 15 16 16 17 17 18 18 19 19 20 20 21 21 22 22 23 23
REMARK SMILES IDX 24 24
REMARK H PARENT
REMARK Flexibility Score: inf
ROOT
ATOM      1  C   UNL     1      -1.985  18.327  10.476  1.00  0.00     0.000 C 
ENDROOT
BRANCH   1   2
ATOM      2  C   UNL     1      -1.378  19.213   9.372  1.00  0.00     0.000 C 
BRANCH   2   3
ATOM      3  C   UNL     1      -2.227  20.437   8.974  1.00  0.00     0.000 C 
BRANCH   3   4
ATOM      4  C   UNL     1      -1.498  21.792   9.052  1.00  0.00    -0.000 C 
BRANCH   4   5
ATOM      5  C   UNL     1      -1.229  22.270  10.494  1.00  0.00    -0.000 C 
BRANCH   5   6
ATOM      6  C   UNL     1      -0.570  23.660  10.542  1.00  0.00    -0.000 C 
BRANCH   6   7
ATOM      7  C   UNL     1      -0.195  24.179   9.137  1.00  0.00    -0.000 C 
BRANCH   7   8
ATOM      8  C   UNL     1      -0.177  25.716   9.025  1.00  0.00    -0.000 C 
BRANCH   8   9
ATOM      9  C   UNL     1       0.180  26.454  10.327  1.00  0.00    -0.000 C 
BRANCH   9  10
ATOM     10  C   UNL     1      -1.002  27.244  10.906  1.00  0.00    -0.000 C 
BRANCH  10  11
ATOM     11  C   UNL     1      -1.334  26.771  12.326  1.00  0.00    -0.003 C 
ATOM     12  C   UNL     1      -1.732  27.943  13.220  1.00  0.00     0.004 C 
ENDBRANCH  10  11
ENDBRANCH   9  10
ENDBRANCH   8   9
ENDBRANCH   7   8
ENDBRANCH   6   7
ENDBRANCH   5   6
ENDBRANCH   4   5
ENDBRANCH   3   4
ENDBRANCH   2   3
ENDBRANCH   1   2
BRANCH   1  13
ATOM     13  C   UNL     1      -1.459  16.883  10.439  1.00  0.00     0.000 C 
BRANCH  13  14
ATOM     14  C   UNL     1      -0.702  16.552   9.140  1.00  0.00     0.000 C 
BRANCH  14  15
ATOM     15  C   UNL     1      -1.586  16.344   7.892  1.00  0.00     0.000 C 
BRANCH  15  16
ATOM     16  C   UNL     1      -2.824  15.454   8.107  1.00  0.00     0.000 C 
BRANCH  16  17
ATOM     17  C   UNL     1      -3.939  15.634   7.059  1.00  0.00     0.000 C 
BRANCH  17  18
ATOM     18  C   UNL     1      -5.239  14.872   7.399  1.00  0.00     0.000 C 
BRANCH  18  19
ATOM     19  C   UNL     1      -6.373  15.815   7.836  1.00  0.00     0.000 C 
BRANCH  19  20
ATOM     20  C   UNL     1      -5.868  17.207   8.262  1.00  0.00     0.006 C 
BRANCH  20  21
ATOM     21  C   UNL     1      -6.788  17.926   9.265  1.00  0.00     0.053 C 
BRANCH  21  22
ATOM     22  C   UNL     1      -6.053  18.920  10.112  1.00  0.00     0.041 C 
ATOM     23  O   UNL     1      -5.152  19.642   9.606  1.00  0.00    -0.550 OA
ATOM     24  O   UNL     1      -6.358  19.044  11.461  1.00  0.00    -0.550 OA
ENDBRANCH  21  22
ENDBRANCH  20  21
ENDBRANCH  19  20
ENDBRANCH  18  19
ENDBRANCH  17  18
ENDBRANCH  16  17
ENDBRANCH  15  16
ENDBRANCH  14  15
ENDBRANCH  13  14
ENDBRANCH   1  13
TORSDOF 20
ENDMDL
MODEL 8
REMARK VINA RESULT:    24.573      4.641      9.194
REMARK INTER + INTRA:          52.097
REMARK INTER:                  53.232
REMARK INTRA:                  -1.135
REMARK UNBOUND:                -1.208
REMARK SMILES CCCCCCCCCCCCCCCCCCCCCC(=O)[O-]
REMARK SMILES IDX 12 1 11 2 10 3 9 4 8 5 7 6 6 7 5 8 4 9 3 10 2 11 1 12 13 13
REMARK SMILES IDX 14 14 15 15 16 16 17 17 18 18 19 19 20 20 21 21 22 22 23 23
REMARK SMILES IDX 24 24
REMARK H PARENT
REMARK Flexibility Score: inf
ROOT
ATOM      1  C   UNL     1      -0.332  13.048  18.134  1.00  0.00     0.000 C 
ENDROOT
BRANCH   1   2
ATOM      2  C   UNL     1      -0.491  14.577  18.227  1.00  0.00     0.000 C 
BRANCH   2   3
ATOM      3  C   UNL     1      -0.901  15.110  19.614  1.00  0.00     0.000 C 
BRANCH   3   4
ATOM      4  C   UNL     1       0.140  16.013  20.302  1.00  0.00    -0.000 C 
BRANCH   4   5
ATOM      5  C   UNL     1       0.047  17.496  19.885  1.00  0.00    -0.000 C 
BRANCH   5   6
ATOM      6  C   UNL     1      -0.980  18.281  20.722  1.00  0.00    -0.000 C 
BRANCH   6   7
ATOM      7  C   UNL     1      -0.718  19.802  20.698  1.00  0.00    -0.000 C 
BRANCH   7   8
ATOM      8  C   UNL     1      -0.583  20.433  22.097  1.00  0.00    -0.000 C 
BRANCH   8   9
ATOM      9  C   UNL     1       0.161  21.778  22.130  1.00  0.00    -0.000 C 
BRANCH   9  10
ATOM     10  C   UNL     1      -0.780  22.982  21.976  1.00  0.00    -0.000 C 
BRANCH  10  11
ATOM     11  C   UNL     1      -2.100  22.745  22.719  1.00  0.00    -0.003 C 
ATOM     12  C   UNL     1      -2.533  23.991  23.488  1.00  0.00     0.004 C 
ENDBRANCH  10  11
ENDBRANCH   9  10
ENDBRANCH   8   9
ENDBRANCH   7   8
ENDBRANCH   6   7
ENDBRANCH   5   6
ENDBRANCH   4   5
ENDBRANCH   3   4
ENDBRANCH   2   3
ENDBRANCH   1   2
BRANCH   1  13
ATOM     13  C   UNL     1      -1.304  12.290  19.052  1.00  0.00     0.000 C 
BRANCH  13  14
ATOM     14  C   UNL     1      -2.780  12.642  18.787  1.00  0.00     0.000 C 
BRANCH  14  15
ATOM     15  C   UNL     1      -3.788  12.094  19.819  1.00  0.00     0.000 C 
BRANCH  15  16
ATOM     16  C   UNL     1      -4.236  13.100  20.896  1.00  0.00     0.000 C 
BRANCH  16  17
ATOM     17  C   UNL     1      -3.797  14.555  20.642  1.00  0.00     0.000 C 
BRANCH  17  18
ATOM     18  C   UNL     1      -4.558  15.590  21.500  1.00  0.00     0.000 C 
BRANCH  18  19
ATOM     19  C   UNL     1      -4.541  16.995  20.876  1.00  0.00     0.000 C 
BRANCH  19  20
ATOM     20  C   UNL     1      -5.952  17.578  20.667  1.00  0.00     0.006 C 
BRANCH  20  21
ATOM     21  C   UNL     1      -6.695  16.999  19.450  1.00  0.00     0.053 C 
BRANCH  21  22
ATOM     22  C   UNL     1      -7.926  16.237  19.833  1.00  0.00     0.041 C 
ATOM     23  O   UNL     1      -8.840  16.797  20.497  1.00  0.00    -0.550 OA
ATOM     24  O   UNL     1      -8.063  14.904  19.465  1.00  0.00    -0.550 OA
ENDBRANCH  21  22
ENDBRANCH  20  21
ENDBRANCH  19  20
ENDBRANCH  18  19
ENDBRANCH  17  18
ENDBRANCH  16  17
ENDBRANCH  15  16
ENDBRANCH  14  15
ENDBRANCH  13  14
ENDBRANCH   1  13
TORSDOF 20
ENDMDL
MODEL 9
REMARK VINA RESULT:    24.791     11.991     15.620
REMARK INTER + INTRA:          52.570
REMARK INTER:                  53.944
REMARK INTRA:                  -1.375
REMARK UNBOUND:                -1.208
REMARK SMILES CCCCCCCCCCCCCCCCCCCCCC(=O)[O-]
REMARK SMILES IDX 12 1 11 2 10 3 9 4 8 5 7 6 6 7 5 8 4 9 3 10 2 11 1 12 13 13
REMARK SMILES IDX 14 14 15 15 16 16 17 17 18 18 19 19 20 20 21 21 22 22 23 23
REMARK SMILES IDX 24 24
REMARK H PARENT
REMARK Flexibility Score: inf
ROOT
ATOM      1  C   UNL     1      -5.538  21.545   7.385  1.00  0.00     0.000 C 
ENDROOT
BRANCH   1   2
ATOM      2  C   UNL     1      -4.728  22.827   7.117  1.00  0.00     0.000 C 
BRANCH   2   3
ATOM      3  C   UNL     1      -3.209  22.701   7.344  1.00  0.00     0.000 C 
BRANCH   3   4
ATOM      4  C   UNL     1      -2.779  21.544   8.264  1.00  0.00    -0.000 C 
BRANCH   4   5
ATOM      5  C   UNL     1      -2.170  22.009   9.604  1.00  0.00    -0.000 C 
BRANCH   5   6
ATOM      6  C   UNL     1      -0.668  22.329   9.490  1.00  0.00    -0.000 C 
BRANCH   6   7
ATOM      7  C   UNL     1      -0.411  23.770   9.000  1.00  0.00    -0.000 C 
BRANCH   7   8
ATOM      8  C   UNL     1      -0.497  24.831  10.114  1.00  0.00    -0.000 C 
BRANCH   8   9
ATOM      9  C   UNL     1      -0.298  26.281   9.642  1.00  0.00    -0.000 C 
BRANCH   9  10
ATOM     10  C   UNL     1       0.125  27.224  10.778  1.00  0.00    -0.000 C 
BRANCH  10  11
ATOM     11  C   UNL     1      -1.093  27.926  11.390  1.00  0.00    -0.003 C 
ATOM     12  C   UNL     1      -1.539  27.237  12.677  1.00  0.00     0.004 C 
ENDBRANCH  10  11
ENDBRANCH   9  10
ENDBRANCH   8   9
ENDBRANCH   7   8
ENDBRANCH   6   7
ENDBRANCH   5   6
ENDBRANCH   4   5
ENDBRANCH   3   4
ENDBRANCH   2   3
ENDBRANCH   1   2
BRANCH   1  13
ATOM     13  C   UNL     1      -6.059  20.887   6.096  1.00  0.00     0.000 C 
BRANCH  13  14
ATOM     14  C   UNL     1      -6.041  19.349   6.157  1.00  0.00     0.000 C 
BRANCH  14  15
ATOM     15  C   UNL     1      -6.630  18.729   7.442  1.00  0.00     0.000 C 
BRANCH  15  16
ATOM     16  C   UNL     1      -5.647  17.882   8.272  1.00  0.00     0.000 C 
BRANCH  16  17
ATOM     17  C   UNL     1      -5.670  16.374   7.957  1.00  0.00     0.000 C 
BRANCH  17  18
ATOM     18  C   UNL     1      -4.606  15.941   6.924  1.00  0.00     0.000 C 
BRANCH  18  19
ATOM     19  C   UNL     1      -3.434  15.185   7.572  1.00  0.00     0.000 C 
BRANCH  19  20
ATOM     20  C   UNL     1      -2.161  16.044   7.700  1.00  0.00     0.006 C 
BRANCH  20  21
ATOM     21  C   UNL     1      -1.498  15.978   9.087  1.00  0.00     0.053 C 
BRANCH  21  22
ATOM     22  C   UNL     1      -1.433  17.314   9.761  1.00  0.00     0.041 C 
ATOM     23  O   UNL     1      -0.993  18.319   9.139  1.00  0.00    -0.550 OA
ATOM     24  O   UNL     1      -1.851  17.451  11.079  1.00  0.00    -0.550 OA
ENDBRANCH  21  22
ENDBRANCH  20  21
ENDBRANCH  19  20
ENDBRANCH  18  19
ENDBRANCH  17  18
ENDBRANCH  16  17
ENDBRANCH  15  16
ENDBRANCH  14  15
ENDBRANCH  13  14
ENDBRANCH   1  13
TORSDOF 20
ENDMDL
