MODEL 1
REMARK VINA RESULT:    -4.937      0.000      0.000
REMARK INTER + INTRA:          -5.704
REMARK INTER:                  -5.659
REMARK INTRA:                  -0.045
REMARK UNBOUND:                -0.045
REMARK SMILES O=C([O-])c1cc(O)c(O)c(O)c1
REMARK SMILES IDX 4 1 5 2 12 3 6 4 10 5 8 6 2 7 1 8 3 9 7 10 11 12 9 14
REMARK H PARENT 7 11 11 13 9 15
REMARK Flexibility Score: inf
ROOT
ATOM      1  C   UNL     1      -5.595  38.076  19.587  1.00  0.00     0.005 A 
ATOM      2  C   UNL     1      -6.663  38.914  19.955  1.00  0.00     0.060 A 
ATOM      3  C   UNL     1      -5.092  37.161  20.527  1.00  0.00     0.060 A 
ATOM      4  C   UNL     1      -7.219  38.839  21.239  1.00  0.00     0.162 A 
ATOM      5  C   UNL     1      -5.644  37.083  21.812  1.00  0.00     0.162 A 
ATOM      6  C   UNL     1      -6.708  37.920  22.171  1.00  0.00     0.200 A 
ENDROOT
BRANCH   1   7
ATOM      7  C   UNL     1      -5.008  38.154  18.230  1.00  0.00     0.072 C 
ATOM      8  O   UNL     1      -5.481  37.466  17.288  1.00  0.00    -0.545 OA
ATOM      9  O   UNL     1      -3.926  38.990  17.979  1.00  0.00    -0.545 OA
ENDBRANCH   1   7
BRANCH   4  10
ATOM     10  O   UNL     1      -8.277  39.675  21.594  1.00  0.00    -0.504 OA
ATOM     11  H   UNL     1      -8.244  40.675  21.426  1.00  0.00     0.293 HD
ENDBRANCH   4  10
BRANCH   5  12
ATOM     12  O   UNL     1      -5.141  36.173  22.741  1.00  0.00    -0.504 OA
ATOM     13  H   UNL     1      -5.689  35.383  23.061  1.00  0.00     0.293 HD
ENDBRANCH   5  12
BRANCH   6  14
ATOM     14  O   UNL     1      -7.244  37.827  23.456  1.00  0.00    -0.502 OA
ATOM     15  H   UNL     1      -6.802  38.263  24.258  1.00  0.00     0.293 HD
ENDBRANCH   6  14
TORSDOF 4
ENDMDL
MODEL 2
REMARK VINA RESULT:    -4.889     14.015     14.960
REMARK INTER + INTRA:          -5.648
REMARK INTER:                  -5.603
REMARK INTRA:                  -0.045
REMARK UNBOUND:                -0.045
REMARK SMILES O=C([O-])c1cc(O)c(O)c(O)c1
REMARK SMILES IDX 4 1 5 2 12 3 6 4 10 5 8 6 2 7 1 8 3 9 7 10 11 12 9 14
REMARK H PARENT 7 11 11 13 9 15
REMARK Flexibility Score: inf
ROOT
ATOM      1  C   UNL     1      -1.504  23.857  17.561  1.00  0.00     0.005 A 
ATOM      2  C   UNL     1      -0.380  24.626  17.215  1.00  0.00     0.060 A 
ATOM      3  C   UNL     1      -1.943  23.854  18.895  1.00  0.00     0.060 A 
ATOM      4  C   UNL     1       0.295  25.381  18.184  1.00  0.00     0.162 A 
ATOM      5  C   UNL     1      -1.272  24.607  19.868  1.00  0.00     0.162 A 
ATOM      6  C   UNL     1      -0.153  25.372  19.516  1.00  0.00     0.200 A 
ENDROOT
BRANCH   1   7
ATOM      7  C   UNL     1      -2.218  23.060  16.538  1.00  0.00     0.072 C 
ATOM      8  O   UNL     1      -3.161  23.567  15.875  1.00  0.00    -0.545 OA
ATOM      9  O   UNL     1      -1.854  21.741  16.293  1.00  0.00    -0.545 OA
ENDBRANCH   1   7
BRANCH   4  10
ATOM     10  O   UNL     1       1.409  26.141  17.829  1.00  0.00    -0.504 OA
ATOM     11  H   UNL     1       1.402  26.748  17.017  1.00  0.00     0.293 HD
ENDBRANCH   4  10
BRANCH   5  12
ATOM     12  O   UNL     1      -1.712  24.601  21.191  1.00  0.00    -0.504 OA
ATOM     13  H   UNL     1      -1.617  23.780  21.778  1.00  0.00     0.293 HD
ENDBRANCH   5  12
BRANCH   6  14
ATOM     14  O   UNL     1       0.502  26.115  20.498  1.00  0.00    -0.502 OA
ATOM     15  H   UNL     1       0.134  26.209  21.438  1.00  0.00     0.293 HD
ENDBRANCH   6  14
TORSDOF 4
ENDMDL
MODEL 3
REMARK VINA RESULT:    -4.878     13.998     14.942
REMARK INTER + INTRA:          -5.636
REMARK INTER:                  -5.591
REMARK INTRA:                  -0.045
REMARK UNBOUND:                -0.045
REMARK SMILES O=C([O-])c1cc(O)c(O)c(O)c1
REMARK SMILES IDX 4 1 5 2 12 3 6 4 10 5 8 6 2 7 1 8 3 9 7 10 11 12 9 14
REMARK H PARENT 7 11 11 13 9 15
REMARK Flexibility Score: inf
ROOT
ATOM      1  C   UNL     1      -1.513  23.869  17.565  1.00  0.00     0.005 A 
ATOM      2  C   UNL     1      -1.950  23.876  18.901  1.00  0.00     0.060 A 
ATOM      3  C   UNL     1      -0.389  24.632  17.212  1.00  0.00     0.060 A 
ATOM      4  C   UNL     1      -1.276  24.632  19.869  1.00  0.00     0.162 A 
ATOM      5  C   UNL     1       0.289  25.391  18.176  1.00  0.00     0.162 A 
ATOM      6  C   UNL     1      -0.152  25.393  19.505  1.00  0.00     0.200 A 
ENDROOT
BRANCH   1   7
ATOM      7  C   UNL     1      -2.225  23.069  16.542  1.00  0.00     0.072 C 
ATOM      8  O   UNL     1      -3.166  23.574  15.875  1.00  0.00    -0.545 OA
ATOM      9  O   UNL     1      -1.861  21.748  16.304  1.00  0.00    -0.545 OA
ENDBRANCH   1   7
BRANCH   4  10
ATOM     10  O   UNL     1      -1.718  24.632  21.192  1.00  0.00    -0.504 OA
ATOM     11  H   UNL     1      -2.062  25.475  21.637  1.00  0.00     0.293 HD
ENDBRANCH   4  10
BRANCH   5  12
ATOM     12  O   UNL     1       1.405  26.148  17.820  1.00  0.00    -0.504 OA
ATOM     13  H   UNL     1       1.588  27.053  18.237  1.00  0.00     0.293 HD
ENDBRANCH   5  12
BRANCH   6  14
ATOM     14  O   UNL     1       0.536  26.154  20.450  1.00  0.00    -0.502 OA
ATOM     15  H   UNL     1       1.493  26.455  20.307  1.00  0.00     0.293 HD
ENDBRANCH   6  14
TORSDOF 4
ENDMDL
MODEL 4
REMARK VINA RESULT:    -4.817      0.192      2.427
REMARK INTER + INTRA:          -5.566
REMARK INTER:                  -5.521
REMARK INTRA:                  -0.045
REMARK UNBOUND:                -0.045
REMARK SMILES O=C([O-])c1cc(O)c(O)c(O)c1
REMARK SMILES IDX 4 1 5 2 12 3 6 4 10 5 8 6 2 7 1 8 3 9 7 10 11 12 9 14
REMARK H PARENT 7 11 11 13 9 15
REMARK Flexibility Score: inf
ROOT
ATOM      1  C   UNL     1      -5.467  37.994  19.509  1.00  0.00     0.005 A 
ATOM      2  C   UNL     1      -4.909  37.125  20.464  1.00  0.00     0.060 A 
ATOM      3  C   UNL     1      -6.584  38.769  19.863  1.00  0.00     0.060 A 
ATOM      4  C   UNL     1      -5.458  37.031  21.750  1.00  0.00     0.162 A 
ATOM      5  C   UNL     1      -7.136  38.678  21.148  1.00  0.00     0.162 A 
ATOM      6  C   UNL     1      -6.575  37.811  22.093  1.00  0.00     0.200 A 
ENDROOT
BRANCH   1   7
ATOM      7  C   UNL     1      -4.887  38.095  18.151  1.00  0.00     0.072 C 
ATOM      8  O   UNL     1      -5.358  37.414  17.202  1.00  0.00    -0.545 OA
ATOM      9  O   UNL     1      -3.814  38.944  17.905  1.00  0.00    -0.545 OA
ENDBRANCH   1   7
BRANCH   4  10
ATOM     10  O   UNL     1      -4.897  36.166  22.689  1.00  0.00    -0.504 OA
ATOM     11  H   UNL     1      -4.822  35.170  22.515  1.00  0.00     0.293 HD
ENDBRANCH   4  10
BRANCH   5  12
ATOM     12  O   UNL     1      -8.245  39.449  21.493  1.00  0.00    -0.504 OA
ATOM     13  H   UNL     1      -8.229  40.075  22.290  1.00  0.00     0.293 HD
ENDBRANCH   5  12
BRANCH   6  14
ATOM     14  O   UNL     1      -7.139  37.735  23.367  1.00  0.00    -0.502 OA
ATOM     15  H   UNL     1      -7.946  38.287  23.633  1.00  0.00     0.293 HD
ENDBRANCH   6  14
TORSDOF 4
ENDMDL
MODEL 5
REMARK VINA RESULT:    -4.610     13.560     14.960
REMARK INTER + INTRA:          -5.328
REMARK INTER:                  -5.283
REMARK INTRA:                  -0.045
REMARK UNBOUND:                -0.045
REMARK SMILES O=C([O-])c1cc(O)c(O)c(O)c1
REMARK SMILES IDX 4 1 5 2 12 3 6 4 10 5 8 6 2 7 1 8 3 9 7 10 11 12 9 14
REMARK H PARENT 7 11 11 13 9 15
REMARK Flexibility Score: inf
ROOT
ATOM      1  C   UNL     1      -4.948  35.719  34.593  1.00  0.00     0.005 A 
ATOM      2  C   UNL     1      -4.684  34.354  34.383  1.00  0.00     0.060 A 
ATOM      3  C   UNL     1      -6.168  36.095  35.177  1.00  0.00     0.060 A 
ATOM      4  C   UNL     1      -5.623  33.381  34.750  1.00  0.00     0.162 A 
ATOM      5  C   UNL     1      -7.111  35.126  35.545  1.00  0.00     0.162 A 
ATOM      6  C   UNL     1      -6.841  33.768  35.333  1.00  0.00     0.200 A 
ENDROOT
BRANCH   1   7
ATOM      7  C   UNL     1      -3.955  36.748  34.206  1.00  0.00     0.072 C 
ATOM      8  O   UNL     1      -3.303  37.371  35.085  1.00  0.00    -0.545 OA
ATOM      9  O   UNL     1      -3.729  37.038  32.865  1.00  0.00    -0.545 OA
ENDBRANCH   1   7
BRANCH   4  10
ATOM     10  O   UNL     1      -5.351  32.030  34.537  1.00  0.00    -0.504 OA
ATOM     11  H   UNL     1      -6.028  31.310  34.762  1.00  0.00     0.293 HD
ENDBRANCH   4  10
BRANCH   5  12
ATOM     12  O   UNL     1      -8.321  35.505  36.124  1.00  0.00    -0.504 OA
ATOM     13  H   UNL     1      -8.553  36.479  36.280  1.00  0.00     0.293 HD
ENDBRANCH   5  12
BRANCH   6  14
ATOM     14  O   UNL     1      -7.792  32.818  35.707  1.00  0.00    -0.502 OA
ATOM     15  H   UNL     1      -8.787  32.998  35.645  1.00  0.00     0.293 HD
ENDBRANCH   6  14
TORSDOF 4
ENDMDL
MODEL 6
REMARK VINA RESULT:    -4.481     13.432     14.916
REMARK INTER + INTRA:          -5.180
REMARK INTER:                  -5.134
REMARK INTRA:                  -0.046
REMARK UNBOUND:                -0.045
REMARK SMILES O=C([O-])c1cc(O)c(O)c(O)c1
REMARK SMILES IDX 4 1 5 2 12 3 6 4 10 5 8 6 2 7 1 8 3 9 7 10 11 12 9 14
REMARK H PARENT 7 11 11 13 9 15
REMARK Flexibility Score: inf
ROOT
ATOM      1  C   UNL     1      -1.093  24.905  19.950  1.00  0.00     0.005 A 
ATOM      2  C   UNL     1      -1.758  24.006  19.098  1.00  0.00     0.060 A 
ATOM      3  C   UNL     1      -0.075  25.716  19.423  1.00  0.00     0.060 A 
ATOM      4  C   UNL     1      -1.413  23.918  17.743  1.00  0.00     0.162 A 
ATOM      5  C   UNL     1       0.275  25.632  18.068  1.00  0.00     0.162 A 
ATOM      6  C   UNL     1      -0.392  24.734  17.226  1.00  0.00     0.200 A 
ENDROOT
BRANCH   1   7
ATOM      7  C   UNL     1      -1.459  24.999  21.381  1.00  0.00     0.072 C 
ATOM      8  O   UNL     1      -1.243  24.035  22.162  1.00  0.00    -0.545 OA
ATOM      9  O   UNL     1      -2.044  26.156  21.883  1.00  0.00    -0.545 OA
ENDBRANCH   1   7
BRANCH   4  10
ATOM     10  O   UNL     1      -2.078  23.022  16.907  1.00  0.00    -0.504 OA
ATOM     11  H   UNL     1      -2.220  22.054  17.172  1.00  0.00     0.293 HD
ENDBRANCH   4  10
BRANCH   5  12
ATOM     12  O   UNL     1       1.287  26.440  17.551  1.00  0.00    -0.504 OA
ATOM     13  H   UNL     1       1.929  26.099  16.845  1.00  0.00     0.293 HD
ENDBRANCH   5  12
BRANCH   6  14
ATOM     14  O   UNL     1      -0.030  24.665  15.880  1.00  0.00    -0.502 OA
ATOM     15  H   UNL     1       0.735  24.084  15.557  1.00  0.00     0.293 HD
ENDBRANCH   6  14
TORSDOF 4
ENDMDL
MODEL 7
REMARK VINA RESULT:    -4.472     13.398     14.905
REMARK INTER + INTRA:          -5.170
REMARK INTER:                  -5.124
REMARK INTRA:                  -0.046
REMARK UNBOUND:                -0.045
REMARK SMILES O=C([O-])c1cc(O)c(O)c(O)c1
REMARK SMILES IDX 4 1 5 2 12 3 6 4 10 5 8 6 2 7 1 8 3 9 7 10 11 12 9 14
REMARK H PARENT 7 11 11 13 9 15
REMARK Flexibility Score: inf
ROOT
ATOM      1  C   UNL     1      -1.081  24.930  19.945  1.00  0.00     0.005 A 
ATOM      2  C   UNL     1      -0.076  25.753  19.408  1.00  0.00     0.060 A 
ATOM      3  C   UNL     1      -1.725  24.006  19.106  1.00  0.00     0.060 A 
ATOM      4  C   UNL     1       0.282  25.655  18.057  1.00  0.00     0.162 A 
ATOM      5  C   UNL     1      -1.371  23.903  17.754  1.00  0.00     0.162 A 
ATOM      6  C   UNL     1      -0.368  24.726  17.226  1.00  0.00     0.200 A 
ENDROOT
BRANCH   1   7
ATOM      7  C   UNL     1      -1.459  25.033  21.373  1.00  0.00     0.072 C 
ATOM      8  O   UNL     1      -1.240  24.078  22.163  1.00  0.00    -0.545 OA
ATOM      9  O   UNL     1      -2.059  26.189  21.860  1.00  0.00    -0.545 OA
ENDBRANCH   1   7
BRANCH   4  10
ATOM     10  O   UNL     1       1.281  26.476  17.535  1.00  0.00    -0.504 OA
ATOM     11  H   UNL     1       1.083  27.156  16.809  1.00  0.00     0.293 HD
ENDBRANCH   4  10
BRANCH   5  12
ATOM     12  O   UNL     1      -2.014  22.983  16.926  1.00  0.00    -0.504 OA
ATOM     13  H   UNL     1      -1.772  22.893  15.946  1.00  0.00     0.293 HD
ENDBRANCH   5  12
BRANCH   6  14
ATOM     14  O   UNL     1      -0.030  24.609  15.878  1.00  0.00    -0.502 OA
ATOM     15  H   UNL     1       0.293  23.736  15.476  1.00  0.00     0.293 HD
ENDBRANCH   6  14
TORSDOF 4
ENDMDL
MODEL 8
REMARK VINA RESULT:    -4.449     16.752     18.886
REMARK INTER + INTRA:          -5.144
REMARK INTER:                  -5.098
REMARK INTRA:                  -0.045
REMARK UNBOUND:                -0.045
REMARK SMILES O=C([O-])c1cc(O)c(O)c(O)c1
REMARK SMILES IDX 4 1 5 2 12 3 6 4 10 5 8 6 2 7 1 8 3 9 7 10 11 12 9 14
REMARK H PARENT 7 11 11 13 9 15
REMARK Flexibility Score: inf
ROOT
ATOM      1  C   UNL     1      -6.041  27.392  35.067  1.00  0.00     0.005 A 
ATOM      2  C   UNL     1      -7.121  26.635  34.581  1.00  0.00     0.060 A 
ATOM      3  C   UNL     1      -4.918  26.725  35.582  1.00  0.00     0.060 A 
ATOM      4  C   UNL     1      -7.081  25.234  34.608  1.00  0.00     0.162 A 
ATOM      5  C   UNL     1      -4.872  25.324  35.612  1.00  0.00     0.162 A 
ATOM      6  C   UNL     1      -5.951  24.576  35.126  1.00  0.00     0.200 A 
ENDROOT
BRANCH   1   7
ATOM      7  C   UNL     1      -6.083  28.872  35.037  1.00  0.00     0.072 C 
ATOM      8  O   UNL     1      -6.221  29.530  36.102  1.00  0.00    -0.545 OA
ATOM      9  O   UNL     1      -5.969  29.555  33.831  1.00  0.00    -0.545 OA
ENDBRANCH   1   7
BRANCH   4  10
ATOM     10  O   UNL     1      -8.157  24.493  34.124  1.00  0.00    -0.504 OA
ATOM     11  H   UNL     1      -8.019  23.661  33.560  1.00  0.00     0.293 HD
ENDBRANCH   4  10
BRANCH   5  12
ATOM     12  O   UNL     1      -3.755  24.667  36.125  1.00  0.00    -0.504 OA
ATOM     13  H   UNL     1      -2.827  25.069  36.060  1.00  0.00     0.293 HD
ENDBRANCH   5  12
BRANCH   6  14
ATOM     14  O   UNL     1      -5.888  23.183  35.164  1.00  0.00    -0.502 OA
ATOM     15  H   UNL     1      -5.604  22.679  35.996  1.00  0.00     0.293 HD
ENDBRANCH   6  14
TORSDOF 4
ENDMDL
MODEL 9
REMARK VINA RESULT:    -4.402     16.634     18.531
REMARK INTER + INTRA:          -5.090
REMARK INTER:                  -5.045
REMARK INTRA:                  -0.045
REMARK UNBOUND:                -0.045
REMARK SMILES O=C([O-])c1cc(O)c(O)c(O)c1
REMARK SMILES IDX 4 1 5 2 12 3 6 4 10 5 8 6 2 7 1 8 3 9 7 10 11 12 9 14
REMARK H PARENT 7 11 11 13 9 15
REMARK Flexibility Score: inf
ROOT
ATOM      1  C   UNL     1      -6.886  25.224  34.522  1.00  0.00     0.005 A 
ATOM      2  C   UNL     1      -7.664  26.121  35.276  1.00  0.00     0.060 A 
ATOM      3  C   UNL     1      -5.937  25.736  33.623  1.00  0.00     0.060 A 
ATOM      4  C   UNL     1      -7.497  27.505  35.135  1.00  0.00     0.162 A 
ATOM      5  C   UNL     1      -5.766  27.119  33.477  1.00  0.00     0.162 A 
ATOM      6  C   UNL     1      -6.543  28.006  34.231  1.00  0.00     0.200 A 
ENDROOT
BRANCH   1   7
ATOM      7  C   UNL     1      -7.063  23.762  34.673  1.00  0.00     0.072 C 
ATOM      8  O   UNL     1      -7.802  23.121  33.881  1.00  0.00    -0.545 OA
ATOM      9  O   UNL     1      -6.411  23.076  35.692  1.00  0.00    -0.545 OA
ENDBRANCH   1   7
BRANCH   4  10
ATOM     10  O   UNL     1      -8.273  28.385  35.887  1.00  0.00    -0.504 OA
ATOM     11  H   UNL     1      -8.389  29.356  35.616  1.00  0.00     0.293 HD
ENDBRANCH   4  10
BRANCH   5  12
ATOM     12  O   UNL     1      -4.822  27.621  32.582  1.00  0.00    -0.504 OA
ATOM     13  H   UNL     1      -3.978  28.081  32.904  1.00  0.00     0.293 HD
ENDBRANCH   5  12
BRANCH   6  14
ATOM     14  O   UNL     1      -6.358  29.380  34.072  1.00  0.00    -0.502 OA
ATOM     15  H   UNL     1      -5.518  29.766  33.658  1.00  0.00     0.293 HD
ENDBRANCH   6  14
TORSDOF 4
ENDMDL
