MODEL 1
REMARK VINA RESULT:    -6.725      0.000      0.000
REMARK INTER + INTRA:          -7.332
REMARK INTER:                  -7.118
REMARK INTRA:                  -0.213
REMARK UNBOUND:                -0.213
REMARK SMILES CC1=C[C@@H]2C(=C(C)CC[C@H]2C(C)C)CC1
REMARK SMILES IDX 1 1 2 2 3 3 4 4 10 5 9 6 8 7 6 8 5 9 14 10 15 11 7 12 11 13
REMARK SMILES IDX 12 14 13 15
REMARK H PARENT
REMARK Flexibility Score: inf
ROOT
ATOM      1  C   UNL     1      -0.361  13.753   5.909  1.00  0.00     0.039 C 
ATOM      2  C   UNL     1       0.737  13.565   4.900  1.00  0.00    -0.076 C 
ATOM      3  C   UNL     1       0.477  13.815   3.593  1.00  0.00    -0.020 C 
ATOM      4  C   UNL     1       1.510  13.596   2.503  1.00  0.00     0.041 C 
ATOM      5  C   UNL     1       1.243  14.489   1.254  1.00  0.00     0.003 C 
ATOM      6  C   UNL     1       1.771  15.906   1.557  1.00  0.00     0.009 C 
ATOM      7  C   UNL     1       3.278  15.887   1.816  1.00  0.00     0.031 C 
ATOM      8  C   UNL     1       3.669  14.865   2.863  1.00  0.00    -0.073 C 
ATOM      9  C   UNL     1       2.894  13.770   3.107  1.00  0.00    -0.064 C 
ATOM     10  C   UNL     1       3.124  12.852   4.284  1.00  0.00     0.036 C 
ATOM     11  C   UNL     1       2.140  13.235   5.401  1.00  0.00     0.035 C 
ATOM     12  C   UNL     1       4.983  15.075   3.577  1.00  0.00     0.039 C 
ENDROOT
BRANCH   5  13
ATOM     13  C   UNL     1       1.824  13.865  -0.067  1.00  0.00    -0.013 C 
ATOM     14  C   UNL     1       1.947  14.902  -1.202  1.00  0.00     0.007 C 
ATOM     15  C   UNL     1       0.954  12.698  -0.579  1.00  0.00     0.007 C 
ENDBRANCH   5  13
TORSDOF 1
ENDMDL
MODEL 2
REMARK VINA RESULT:    -6.455      0.930      4.520
REMARK INTER + INTRA:          -7.046
REMARK INTER:                  -6.740
REMARK INTRA:                  -0.306
REMARK UNBOUND:                -0.213
REMARK SMILES CC1=C[C@@H]2C(=C(C)CC[C@H]2C(C)C)CC1
REMARK SMILES IDX 1 1 2 2 3 3 4 4 10 5 9 6 8 7 6 8 5 9 14 10 15 11 7 12 11 13
REMARK SMILES IDX 12 14 13 15
REMARK H PARENT
REMARK Flexibility Score: inf
ROOT
ATOM      1  C   UNL     1       0.997  13.343  -1.661  1.00  0.00     0.039 C 
ATOM      2  C   UNL     1       1.196  14.139  -0.402  1.00  0.00    -0.076 C 
ATOM      3  C   UNL     1       1.115  13.506   0.794  1.00  0.00    -0.020 C 
ATOM      4  C   UNL     1       1.245  14.244   2.114  1.00  0.00     0.041 C 
ATOM      5  C   UNL     1       1.732  13.309   3.263  1.00  0.00     0.003 C 
ATOM      6  C   UNL     1       3.260  13.145   3.130  1.00  0.00     0.009 C 
ATOM      7  C   UNL     1       3.971  14.491   3.276  1.00  0.00     0.031 C 
ATOM      8  C   UNL     1       3.399  15.547   2.354  1.00  0.00    -0.073 C 
ATOM      9  C   UNL     1       2.117  15.470   1.898  1.00  0.00    -0.064 C 
ATOM     10  C   UNL     1       1.581  16.368   0.809  1.00  0.00     0.036 C 
ATOM     11  C   UNL     1       1.620  15.599  -0.521  1.00  0.00     0.035 C 
ATOM     12  C   UNL     1       4.286  16.722   2.014  1.00  0.00     0.039 C 
ENDROOT
BRANCH   5  13
ATOM     13  C   UNL     1       1.268  13.805   4.680  1.00  0.00    -0.013 C 
ATOM     14  C   UNL     1       1.907  12.993   5.825  1.00  0.00     0.007 C 
ATOM     15  C   UNL     1      -0.265  13.729   4.838  1.00  0.00     0.007 C 
ENDBRANCH   5  13
TORSDOF 1
ENDMDL
MODEL 3
REMARK VINA RESULT:    -6.393      0.942      4.493
REMARK INTER + INTRA:          -6.980
REMARK INTER:                  -6.743
REMARK INTRA:                  -0.237
REMARK UNBOUND:                -0.213
REMARK SMILES CC1=C[C@@H]2C(=C(C)CC[C@H]2C(C)C)CC1
REMARK SMILES IDX 1 1 2 2 3 3 4 4 10 5 9 6 8 7 6 8 5 9 14 10 15 11 7 12 11 13
REMARK SMILES IDX 12 14 13 15
REMARK H PARENT
REMARK Flexibility Score: inf
ROOT
ATOM      1  C   UNL     1       1.236  13.485  -1.098  1.00  0.00     0.039 C 
ATOM      2  C   UNL     1       1.538  14.115   0.233  1.00  0.00    -0.076 C 
ATOM      3  C   UNL     1       1.037  13.545   1.357  1.00  0.00    -0.020 C 
ATOM      4  C   UNL     1       1.245  14.149   2.735  1.00  0.00     0.041 C 
ATOM      5  C   UNL     1       1.150  13.078   3.864  1.00  0.00     0.003 C 
ATOM      6  C   UNL     1       2.494  12.323   3.921  1.00  0.00     0.009 C 
ATOM      7  C   UNL     1       3.643  13.274   4.260  1.00  0.00     0.031 C 
ATOM      8  C   UNL     1       3.675  14.486   3.353  1.00  0.00    -0.073 C 
ATOM      9  C   UNL     1       2.547  14.931   2.728  1.00  0.00    -0.064 C 
ATOM     10  C   UNL     1       2.575  15.987   1.649  1.00  0.00     0.036 C 
ATOM     11  C   UNL     1       2.511  15.289   0.281  1.00  0.00     0.035 C 
ATOM     12  C   UNL     1       4.989  15.217   3.222  1.00  0.00     0.039 C 
ENDROOT
BRANCH   5  13
ATOM     13  C   UNL     1       0.709  13.693   5.241  1.00  0.00    -0.013 C 
ATOM     14  C   UNL     1       0.970  12.736   6.422  1.00  0.00     0.007 C 
ATOM     15  C   UNL     1      -0.789  14.063   5.248  1.00  0.00     0.007 C 
ENDBRANCH   5  13
TORSDOF 1
ENDMDL
MODEL 4
REMARK VINA RESULT:    -5.479      1.655      3.838
REMARK INTER + INTRA:          -6.013
REMARK INTER:                  -5.720
REMARK INTRA:                  -0.293
REMARK UNBOUND:                -0.213
REMARK SMILES CC1=C[C@@H]2C(=C(C)CC[C@H]2C(C)C)CC1
REMARK SMILES IDX 1 1 2 2 3 3 4 4 10 5 9 6 8 7 6 8 5 9 14 10 15 11 7 12 11 13
REMARK SMILES IDX 12 14 13 15
REMARK H PARENT
REMARK Flexibility Score: inf
ROOT
ATOM      1  C   UNL     1       1.053  13.068   5.142  1.00  0.00     0.039 C 
ATOM      2  C   UNL     1       0.560  13.751   3.898  1.00  0.00    -0.076 C 
ATOM      3  C   UNL     1       1.425  13.948   2.872  1.00  0.00    -0.020 C 
ATOM      4  C   UNL     1       1.026  14.681   1.603  1.00  0.00     0.041 C 
ATOM      5  C   UNL     1       1.903  14.261   0.384  1.00  0.00     0.003 C 
ATOM      6  C   UNL     1       1.368  12.916  -0.149  1.00  0.00     0.009 C 
ATOM      7  C   UNL     1      -0.079  13.050  -0.626  1.00  0.00     0.031 C 
ATOM      8  C   UNL     1      -0.974  13.678   0.423  1.00  0.00    -0.073 C 
ATOM      9  C   UNL     1      -0.467  14.497   1.388  1.00  0.00    -0.064 C 
ATOM     10  C   UNL     1      -1.277  14.959   2.575  1.00  0.00     0.036 C 
ATOM     11  C   UNL     1      -0.926  14.073   3.781  1.00  0.00     0.035 C 
ATOM     12  C   UNL     1      -2.456  13.413   0.314  1.00  0.00     0.039 C 
ENDROOT
BRANCH   5  13
ATOM     13  C   UNL     1       1.990  15.387  -0.710  1.00  0.00    -0.013 C 
ATOM     14  C   UNL     1       2.656  14.892  -2.010  1.00  0.00     0.007 C 
ATOM     15  C   UNL     1       2.780  16.613  -0.205  1.00  0.00     0.007 C 
ENDBRANCH   5  13
TORSDOF 1
ENDMDL
MODEL 5
REMARK VINA RESULT:    -5.427      1.162      4.678
REMARK INTER + INTRA:          -5.958
REMARK INTER:                  -6.130
REMARK INTRA:                   0.172
REMARK UNBOUND:                -0.213
REMARK SMILES CC1=C[C@@H]2C(=C(C)CC[C@H]2C(C)C)CC1
REMARK SMILES IDX 1 1 2 2 3 3 4 4 10 5 9 6 8 7 6 8 5 9 14 10 15 11 7 12 11 13
REMARK SMILES IDX 12 14 13 15
REMARK H PARENT
REMARK Flexibility Score: inf
ROOT
ATOM      1  C   UNL     1      -0.138  13.639  -0.384  1.00  0.00     0.039 C 
ATOM      2  C   UNL     1       0.562  14.069   0.875  1.00  0.00    -0.076 C 
ATOM      3  C   UNL     1       0.021  13.734   2.073  1.00  0.00    -0.020 C 
ATOM      4  C   UNL     1       0.630  14.176   3.391  1.00  0.00     0.041 C 
ATOM      5  C   UNL     1       0.253  13.218   4.561  1.00  0.00     0.003 C 
ATOM      6  C   UNL     1       1.169  11.980   4.480  1.00  0.00     0.009 C 
ATOM      7  C   UNL     1       2.639  12.373   4.639  1.00  0.00     0.031 C 
ATOM      8  C   UNL     1       3.044  13.482   3.691  1.00  0.00    -0.073 C 
ATOM      9  C   UNL     1       2.126  14.359   3.194  1.00  0.00    -0.064 C 
ATOM     10  C   UNL     1       2.442  15.330   2.082  1.00  0.00     0.036 C 
ATOM     11  C   UNL     1       1.925  14.742   0.759  1.00  0.00     0.035 C 
ATOM     12  C   UNL     1       4.514  13.616   3.372  1.00  0.00     0.039 C 
ENDROOT
BRANCH   5  13
ATOM     13  C   UNL     1       0.281  13.937   5.960  1.00  0.00    -0.013 C 
ATOM     14  C   UNL     1       0.928  13.065   7.055  1.00  0.00     0.007 C 
ATOM     15  C   UNL     1      -1.137  14.322   6.432  1.00  0.00     0.007 C 
ENDBRANCH   5  13
TORSDOF 1
ENDMDL
MODEL 6
REMARK VINA RESULT:    -5.210      1.435      3.483
REMARK INTER + INTRA:          -5.727
REMARK INTER:                  -5.356
REMARK INTRA:                  -0.371
REMARK UNBOUND:                -0.213
REMARK SMILES CC1=C[C@@H]2C(=C(C)CC[C@H]2C(C)C)CC1
REMARK SMILES IDX 1 1 2 2 3 3 4 4 10 5 9 6 8 7 6 8 5 9 14 10 15 11 7 12 11 13
REMARK SMILES IDX 12 14 13 15
REMARK H PARENT
REMARK Flexibility Score: inf
ROOT
ATOM      1  C   UNL     1       3.406  11.120   3.880  1.00  0.00     0.039 C 
ATOM      2  C   UNL     1       2.688  12.417   3.637  1.00  0.00    -0.076 C 
ATOM      3  C   UNL     1       3.140  13.244   2.662  1.00  0.00    -0.020 C 
ATOM      4  C   UNL     1       2.510  14.598   2.389  1.00  0.00     0.041 C 
ATOM      5  C   UNL     1       2.744  15.069   0.921  1.00  0.00     0.003 C 
ATOM      6  C   UNL     1       1.726  14.343   0.018  1.00  0.00     0.009 C 
ATOM      7  C   UNL     1       0.291  14.699   0.411  1.00  0.00     0.031 C 
ATOM      8  C   UNL     1       0.032  14.498   1.889  1.00  0.00    -0.073 C 
ATOM      9  C   UNL     1       1.048  14.542   2.798  1.00  0.00    -0.064 C 
ATOM     10  C   UNL     1       0.872  14.128   4.240  1.00  0.00     0.036 C 
ATOM     11  C   UNL     1       1.397  12.692   4.402  1.00  0.00     0.035 C 
ATOM     12  C   UNL     1      -1.403  14.311   2.320  1.00  0.00     0.039 C 
ENDROOT
BRANCH   5  13
ATOM     13  C   UNL     1       2.714  16.634   0.779  1.00  0.00    -0.013 C 
ATOM     14  C   UNL     1       3.134  17.104  -0.628  1.00  0.00     0.007 C 
ATOM     15  C   UNL     1       3.639  17.319   1.807  1.00  0.00     0.007 C 
ENDBRANCH   5  13
TORSDOF 1
ENDMDL
MODEL 7
REMARK VINA RESULT:    -5.132      1.374      5.034
REMARK INTER + INTRA:          -5.645
REMARK INTER:                  -5.276
REMARK INTRA:                  -0.368
REMARK UNBOUND:                -0.213
REMARK SMILES CC1=C[C@@H]2C(=C(C)CC[C@H]2C(C)C)CC1
REMARK SMILES IDX 1 1 2 2 3 3 4 4 10 5 9 6 8 7 6 8 5 9 14 10 15 11 7 12 11 13
REMARK SMILES IDX 12 14 13 15
REMARK H PARENT
REMARK Flexibility Score: inf
ROOT
ATOM      1  C   UNL     1       3.580  17.166   0.078  1.00  0.00     0.039 C 
ATOM      2  C   UNL     1       2.877  15.862   0.330  1.00  0.00    -0.076 C 
ATOM      3  C   UNL     1       2.759  15.417   1.605  1.00  0.00    -0.020 C 
ATOM      4  C   UNL     1       2.115  14.084   1.944  1.00  0.00     0.041 C 
ATOM      5  C   UNL     1       1.541  14.061   3.393  1.00  0.00     0.003 C 
ATOM      6  C   UNL     1       0.181  14.787   3.380  1.00  0.00     0.009 C 
ATOM      7  C   UNL     1      -0.814  14.074   2.462  1.00  0.00     0.031 C 
ATOM      8  C   UNL     1      -0.249  13.835   1.078  1.00  0.00    -0.073 C 
ATOM      9  C   UNL     1       1.096  13.752   0.866  1.00  0.00    -0.064 C 
ATOM     10  C   UNL     1       1.707  13.740  -0.515  1.00  0.00     0.036 C 
ATOM     11  C   UNL     1       2.200  15.159  -0.842  1.00  0.00     0.035 C 
ATOM     12  C   UNL     1      -1.236  13.626  -0.045  1.00  0.00     0.039 C 
ENDROOT
BRANCH   5  13
ATOM     13  C   UNL     1       1.480  12.609   3.993  1.00  0.00    -0.013 C 
ATOM     14  C   UNL     1       1.055  12.604   5.475  1.00  0.00     0.007 C 
ATOM     15  C   UNL     1       2.839  11.887   3.883  1.00  0.00     0.007 C 
ENDBRANCH   5  13
TORSDOF 1
ENDMDL
MODEL 8
REMARK VINA RESULT:    -4.922      2.154      4.493
REMARK INTER + INTRA:          -5.423
REMARK INTER:                  -5.210
REMARK INTRA:                  -0.213
REMARK UNBOUND:                -0.213
REMARK SMILES CC1=C[C@@H]2C(=C(C)CC[C@H]2C(C)C)CC1
REMARK SMILES IDX 1 1 2 2 3 3 4 4 10 5 9 6 8 7 6 8 5 9 14 10 15 11 7 12 11 13
REMARK SMILES IDX 12 14 13 15
REMARK H PARENT
REMARK Flexibility Score: inf
ROOT
ATOM      1  C   UNL     1      -1.782  11.151   7.245  1.00  0.00     0.039 C 
ATOM      2  C   UNL     1      -1.139  12.301   6.521  1.00  0.00    -0.076 C 
ATOM      3  C   UNL     1       0.195  12.260   6.282  1.00  0.00    -0.020 C 
ATOM      4  C   UNL     1       0.934  13.404   5.611  1.00  0.00     0.041 C 
ATOM      5  C   UNL     1       2.237  12.923   4.901  1.00  0.00     0.003 C 
ATOM      6  C   UNL     1       1.841  12.299   3.547  1.00  0.00     0.009 C 
ATOM      7  C   UNL     1       1.159  13.330   2.646  1.00  0.00     0.031 C 
ATOM      8  C   UNL     1       0.011  14.032   3.341  1.00  0.00    -0.073 C 
ATOM      9  C   UNL     1      -0.035  14.137   4.700  1.00  0.00    -0.064 C 
ATOM     10  C   UNL     1      -1.258  14.625   5.440  1.00  0.00     0.036 C 
ATOM     11  C   UNL     1      -2.032  13.403   5.961  1.00  0.00     0.035 C 
ATOM     12  C   UNL     1      -1.043  14.666   2.465  1.00  0.00     0.039 C 
ENDROOT
BRANCH   5  13
ATOM     13  C   UNL     1       3.314  14.062   4.784  1.00  0.00    -0.013 C 
ATOM     14  C   UNL     1       4.399  13.739   3.737  1.00  0.00     0.007 C 
ATOM     15  C   UNL     1       4.015  14.326   6.133  1.00  0.00     0.007 C 
ENDBRANCH   5  13
TORSDOF 1
ENDMDL
MODEL 9
REMARK VINA RESULT:    -4.684      2.217      2.976
REMARK INTER + INTRA:          -5.171
REMARK INTER:                  -4.790
REMARK INTRA:                  -0.381
REMARK UNBOUND:                -0.213
REMARK SMILES CC1=C[C@@H]2C(=C(C)CC[C@H]2C(C)C)CC1
REMARK SMILES IDX 1 1 2 2 3 3 4 4 10 5 9 6 8 7 6 8 5 9 14 10 15 11 7 12 11 13
REMARK SMILES IDX 12 14 13 15
REMARK H PARENT
REMARK Flexibility Score: inf
ROOT
ATOM      1  C   UNL     1       0.356  13.833   5.477  1.00  0.00     0.039 C 
ATOM      2  C   UNL     1       0.543  13.799   3.987  1.00  0.00    -0.076 C 
ATOM      3  C   UNL     1      -0.533  14.001   3.186  1.00  0.00    -0.020 C 
ATOM      4  C   UNL     1      -0.444  13.925   1.672  1.00  0.00     0.041 C 
ATOM      5  C   UNL     1      -1.560  14.763   0.977  1.00  0.00     0.003 C 
ATOM      6  C   UNL     1      -1.128  16.243   0.992  1.00  0.00     0.009 C 
ATOM      7  C   UNL     1       0.174  16.443   0.214  1.00  0.00     0.031 C 
ATOM      8  C   UNL     1       1.265  15.494   0.664  1.00  0.00    -0.073 C 
ATOM      9  C   UNL     1       0.968  14.301   1.252  1.00  0.00    -0.064 C 
ATOM     10  C   UNL     1       2.012  13.434   1.914  1.00  0.00     0.036 C 
ATOM     11  C   UNL     1       1.958  13.678   3.431  1.00  0.00     0.035 C 
ATOM     12  C   UNL     1       2.692  15.896   0.375  1.00  0.00     0.039 C 
ENDROOT
BRANCH   5  13
ATOM     13  C   UNL     1      -1.915  14.220  -0.455  1.00  0.00    -0.013 C 
ATOM     14  C   UNL     1      -3.215  14.837  -1.011  1.00  0.00     0.007 C 
ATOM     15  C   UNL     1      -2.073  12.685  -0.462  1.00  0.00     0.007 C 
ENDBRANCH   5  13
TORSDOF 1
ENDMDL
