MODEL 1
REMARK VINA RESULT:    -1.360      0.000      0.000
REMARK INTER + INTRA:          -3.567
REMARK INTER:                  -1.996
REMARK INTRA:                  -1.570
REMARK UNBOUND:                -1.570
REMARK SMILES Cc1cc2c(C(C)C)c(O)c(O)c(C=O)c2c(O)c1-c1c(C)cc2c(C(C)C)c(O)c(O)c(C=O)c2c1O
REMARK SMILES IDX 1 1 2 2 3 3 4 4 16 5 13 6 11 7 9 8 5 9 17 10 19 11 20 12
REMARK SMILES IDX 37 13 21 14 36 15 23 16 22 17 24 18 33 19 25 20 31 21 29 22
REMARK SMILES IDX 38 23 34 25 35 26 26 27 27 28 28 29 32 30 30 32 18 34 6 36
REMARK SMILES IDX 7 37 8 38 14 39 15 40 10 41 12 43
REMARK H PARENT 38 24 32 31 30 33 18 35 10 42 12 44
REMARK Flexibility Score: inf
ROOT
ATOM      1  C   UNL     1      17.987   4.386  36.113  1.00  0.00     0.045 C 
ATOM      2  C   UNL     1      17.166   3.358  36.854  1.00  0.00    -0.039 A 
ATOM      3  C   UNL     1      17.267   2.014  36.494  1.00  0.00     0.013 A 
ATOM      4  C   UNL     1      16.530   1.001  37.144  1.00  0.00    -0.006 A 
ATOM      5  C   UNL     1      15.662   1.374  38.221  1.00  0.00     0.039 A 
ATOM      6  C   UNL     1      14.888   0.363  38.867  1.00  0.00     0.072 A 
ATOM      7  C   UNL     1      15.031  -0.986  38.486  1.00  0.00     0.169 A 
ATOM      8  C   UNL     1      15.923  -1.349  37.475  1.00  0.00     0.162 A 
ATOM      9  C   UNL     1      16.649  -0.374  36.754  1.00  0.00     0.008 A 
ATOM     10  C   UNL     1      15.620   2.743  38.634  1.00  0.00     0.132 A 
ATOM     11  C   UNL     1      16.348   3.726  37.932  1.00  0.00     0.031 A 
ENDROOT
BRANCH  11  12
ATOM     12  C   UNL     1      16.268   5.153  38.340  1.00  0.00     0.031 A 
ATOM     13  C   UNL     1      17.255   5.681  39.186  1.00  0.00     0.132 A 
ATOM     14  C   UNL     1      15.200   5.960  37.911  1.00  0.00    -0.039 A 
ATOM     15  C   UNL     1      17.264   7.073  39.501  1.00  0.00     0.039 A 
ATOM     16  C   UNL     1      15.118   7.280  38.361  1.00  0.00     0.013 A 
ATOM     17  C   UNL     1      14.148   5.430  36.968  1.00  0.00     0.045 C 
ATOM     18  C   UNL     1      16.101   7.842  39.208  1.00  0.00    -0.006 A 
ATOM     19  C   UNL     1      18.394   7.723  40.072  1.00  0.00     0.072 A 
ATOM     20  C   UNL     1      15.959   9.164  39.739  1.00  0.00     0.008 A 
ATOM     21  C   UNL     1      18.289   9.067  40.484  1.00  0.00     0.169 A 
ATOM     22  C   UNL     1      17.102   9.779  40.311  1.00  0.00     0.162 A 
BRANCH  13  23
ATOM     23  O   UNL     1      18.162   4.777  39.752  1.00  0.00    -0.507 OA
ATOM     24  H   UNL     1      17.916   4.148  40.505  1.00  0.00     0.293 HD
ENDBRANCH  13  23
BRANCH  19  25
ATOM     25  C   UNL     1      19.740   7.105  40.062  1.00  0.00     0.264 C 
ATOM     26  O   UNL     1      20.251   6.667  41.125  1.00  0.00    -0.298 OA
ENDBRANCH  19  25
BRANCH  20  27
ATOM     27  C   UNL     1      14.582   9.859  39.743  1.00  0.00     0.017 C 
ATOM     28  C   UNL     1      14.482  10.934  38.653  1.00  0.00     0.012 C 
ATOM     29  C   UNL     1      14.132  10.379  41.125  1.00  0.00     0.012 C 
ENDBRANCH  20  27
BRANCH  21  30
ATOM     30  O   UNL     1      19.374   9.757  41.041  1.00  0.00    -0.504 OA
ATOM     31  H   UNL     1      19.926   9.420  41.815  1.00  0.00     0.293 HD
ENDBRANCH  21  30
BRANCH  22  32
ATOM     32  O   UNL     1      17.128  11.125  40.686  1.00  0.00    -0.504 OA
ATOM     33  H   UNL     1      17.753  11.806  40.288  1.00  0.00     0.293 HD
ENDBRANCH  22  32
ENDBRANCH  11  12
BRANCH  10  34
ATOM     34  O   UNL     1      14.876   3.124  39.758  1.00  0.00    -0.507 OA
ATOM     35  H   UNL     1      14.983   2.711  40.675  1.00  0.00     0.293 HD
ENDBRANCH  10  34
BRANCH   9  36
ATOM     36  C   UNL     1      17.541  -0.866  35.592  1.00  0.00     0.017 C 
ATOM     37  C   UNL     1      16.717  -1.429  34.425  1.00  0.00     0.012 C 
ATOM     38  C   UNL     1      18.690  -1.797  36.034  1.00  0.00     0.012 C 
ENDBRANCH   9  36
BRANCH   6  39
ATOM     39  C   UNL     1      13.888   0.691  39.906  1.00  0.00     0.264 C 
ATOM     40  O   UNL     1      14.087   0.379  41.110  1.00  0.00    -0.298 OA
ENDBRANCH   6  39
BRANCH   8  41
ATOM     41  O   UNL     1      16.082  -2.707  37.168  1.00  0.00    -0.504 OA
ATOM     42  H   UNL     1      16.914  -3.083  36.731  1.00  0.00     0.293 HD
ENDBRANCH   8  41
BRANCH   7  43
ATOM     43  O   UNL     1      14.270  -2.001  39.079  1.00  0.00    -0.504 OA
ATOM     44  H   UNL     1      14.556  -2.969  39.138  1.00  0.00     0.293 HD
ENDBRANCH   7  43
TORSDOF 11
ENDMDL
MODEL 2
REMARK VINA RESULT:    -1.175      4.410      9.140
REMARK INTER + INTRA:          -3.296
REMARK INTER:                  -1.574
REMARK INTRA:                  -1.722
REMARK UNBOUND:                -1.570
REMARK SMILES Cc1cc2c(C(C)C)c(O)c(O)c(C=O)c2c(O)c1-c1c(C)cc2c(C(C)C)c(O)c(O)c(C=O)c2c1O
REMARK SMILES IDX 1 1 2 2 3 3 4 4 16 5 13 6 11 7 9 8 5 9 17 10 19 11 20 12
REMARK SMILES IDX 37 13 21 14 36 15 23 16 22 17 24 18 33 19 25 20 31 21 29 22
REMARK SMILES IDX 38 23 34 25 35 26 26 27 27 28 28 29 32 30 30 32 18 34 6 36
REMARK SMILES IDX 7 37 8 38 14 39 15 40 10 41 12 43
REMARK H PARENT 38 24 32 31 30 33 18 35 10 42 12 44
REMARK Flexibility Score: inf
ROOT
ATOM      1  C   UNL     1      18.112   4.270  37.300  1.00  0.00     0.045 C 
ATOM      2  C   UNL     1      18.131   5.576  38.058  1.00  0.00    -0.039 A 
ATOM      3  C   UNL     1      16.926   6.216  38.347  1.00  0.00     0.013 A 
ATOM      4  C   UNL     1      16.870   7.438  39.050  1.00  0.00    -0.006 A 
ATOM      5  C   UNL     1      18.098   8.027  39.493  1.00  0.00     0.039 A 
ATOM      6  C   UNL     1      18.058   9.279  40.178  1.00  0.00     0.072 A 
ATOM      7  C   UNL     1      16.819   9.885  40.467  1.00  0.00     0.169 A 
ATOM      8  C   UNL     1      15.622   9.275  40.085  1.00  0.00     0.162 A 
ATOM      9  C   UNL     1      15.617   8.078  39.334  1.00  0.00     0.008 A 
ATOM     10  C   UNL     1      19.324   7.329  39.258  1.00  0.00     0.132 A 
ATOM     11  C   UNL     1      19.335   6.127  38.520  1.00  0.00     0.031 A 
ENDROOT
BRANCH  11  12
ATOM     12  C   UNL     1      20.617   5.427  38.243  1.00  0.00     0.031 A 
ATOM     13  C   UNL     1      21.345   5.761  37.091  1.00  0.00     0.132 A 
ATOM     14  C   UNL     1      21.081   4.418  39.105  1.00  0.00    -0.039 A 
ATOM     15  C   UNL     1      22.631   5.186  36.861  1.00  0.00     0.039 A 
ATOM     16  C   UNL     1      22.257   3.735  38.786  1.00  0.00     0.013 A 
ATOM     17  C   UNL     1      20.339   4.068  40.372  1.00  0.00     0.045 C 
ATOM     18  C   UNL     1      23.017   4.054  37.636  1.00  0.00    -0.006 A 
ATOM     19  C   UNL     1      23.547   5.712  35.907  1.00  0.00     0.072 A 
ATOM     20  C   UNL     1      24.167   3.286  37.268  1.00  0.00     0.008 A 
ATOM     21  C   UNL     1      24.742   5.016  35.633  1.00  0.00     0.169 A 
ATOM     22  C   UNL     1      25.054   3.835  36.306  1.00  0.00     0.162 A 
BRANCH  13  23
ATOM     23  O   UNL     1      20.725   6.609  36.167  1.00  0.00    -0.507 OA
ATOM     24  H   UNL     1      20.628   7.605  36.310  1.00  0.00     0.293 HD
ENDBRANCH  13  23
BRANCH  19  25
ATOM     25  C   UNL     1      23.392   7.071  35.341  1.00  0.00     0.264 C 
ATOM     26  O   UNL     1      23.037   7.229  34.144  1.00  0.00    -0.298 OA
ENDBRANCH  19  25
BRANCH  20  27
ATOM     27  C   UNL     1      24.386   1.878  37.855  1.00  0.00     0.017 C 
ATOM     28  C   UNL     1      25.479   1.872  38.932  1.00  0.00     0.012 C 
ATOM     29  C   UNL     1      24.592   0.769  36.801  1.00  0.00     0.012 C 
ENDBRANCH  20  27
BRANCH  21  30
ATOM     30  O   UNL     1      25.682   5.496  34.713  1.00  0.00    -0.504 OA
ATOM     31  H   UNL     1      26.585   5.873  34.964  1.00  0.00     0.293 HD
ENDBRANCH  21  30
BRANCH  22  32
ATOM     32  O   UNL     1      26.296   3.265  36.011  1.00  0.00    -0.504 OA
ATOM     33  H   UNL     1      26.762   3.363  35.125  1.00  0.00     0.293 HD
ENDBRANCH  22  32
ENDBRANCH  11  12
BRANCH  10  34
ATOM     34  O   UNL     1      20.530   7.814  39.780  1.00  0.00    -0.507 OA
ATOM     35  H   UNL     1      21.442   7.586  39.406  1.00  0.00     0.293 HD
ENDBRANCH  10  34
BRANCH   9  36
ATOM     36  C   UNL     1      14.247   7.529  38.878  1.00  0.00     0.017 C 
ATOM     37  C   UNL     1      13.922   6.172  39.520  1.00  0.00     0.012 C 
ATOM     38  C   UNL     1      14.040   7.547  37.349  1.00  0.00     0.012 C 
ENDBRANCH   9  36
BRANCH   6  39
ATOM     39  C   UNL     1      19.291   9.999  40.561  1.00  0.00     0.264 C 
ATOM     40  O   UNL     1      19.734  10.938  39.848  1.00  0.00    -0.298 OA
ENDBRANCH   6  39
BRANCH   8  41
ATOM     41  O   UNL     1      14.410   9.879  40.444  1.00  0.00    -0.504 OA
ATOM     42  H   UNL     1      14.346  10.643  41.106  1.00  0.00     0.293 HD
ENDBRANCH   8  41
BRANCH   7  43
ATOM     43  O   UNL     1      16.741  11.124  41.115  1.00  0.00    -0.504 OA
ATOM     44  H   UNL     1      17.478  11.517  41.685  1.00  0.00     0.293 HD
ENDBRANCH   7  43
TORSDOF 11
ENDMDL
MODEL 3
REMARK VINA RESULT:    -1.142      5.588      7.440
REMARK INTER + INTRA:          -3.247
REMARK INTER:                  -1.445
REMARK INTRA:                  -1.802
REMARK UNBOUND:                -1.570
REMARK SMILES Cc1cc2c(C(C)C)c(O)c(O)c(C=O)c2c(O)c1-c1c(C)cc2c(C(C)C)c(O)c(O)c(C=O)c2c1O
REMARK SMILES IDX 1 1 2 2 3 3 4 4 16 5 13 6 11 7 9 8 5 9 17 10 19 11 20 12
REMARK SMILES IDX 37 13 21 14 36 15 23 16 22 17 24 18 33 19 25 20 31 21 29 22
REMARK SMILES IDX 38 23 34 25 35 26 26 27 27 28 28 29 32 30 30 32 18 34 6 36
REMARK SMILES IDX 7 37 8 38 14 39 15 40 10 41 12 43
REMARK H PARENT 38 24 32 31 30 33 18 35 10 42 12 44
REMARK Flexibility Score: inf
ROOT
ATOM      1  C   UNL     1      19.519   6.082  34.442  1.00  0.00     0.045 C 
ATOM      2  C   UNL     1      18.612   5.872  33.252  1.00  0.00    -0.039 A 
ATOM      3  C   UNL     1      19.173   5.577  32.009  1.00  0.00     0.013 A 
ATOM      4  C   UNL     1      18.386   5.370  30.856  1.00  0.00    -0.006 A 
ATOM      5  C   UNL     1      16.962   5.450  30.979  1.00  0.00     0.039 A 
ATOM      6  C   UNL     1      16.156   5.273  29.815  1.00  0.00     0.072 A 
ATOM      7  C   UNL     1      16.759   4.958  28.580  1.00  0.00     0.169 A 
ATOM      8  C   UNL     1      18.146   4.823  28.481  1.00  0.00     0.162 A 
ATOM      9  C   UNL     1      18.988   5.069  29.588  1.00  0.00     0.008 A 
ATOM     10  C   UNL     1      16.390   5.679  32.271  1.00  0.00     0.132 A 
ATOM     11  C   UNL     1      17.217   5.915  33.388  1.00  0.00     0.031 A 
ENDROOT
BRANCH  11  12
ATOM     12  C   UNL     1      16.618   6.194  34.720  1.00  0.00     0.031 A 
ATOM     13  C   UNL     1      16.330   7.520  35.078  1.00  0.00     0.132 A 
ATOM     14  C   UNL     1      16.372   5.149  35.626  1.00  0.00    -0.039 A 
ATOM     15  C   UNL     1      15.652   7.804  36.301  1.00  0.00     0.039 A 
ATOM     16  C   UNL     1      15.867   5.448  36.894  1.00  0.00     0.013 A 
ATOM     17  C   UNL     1      16.634   3.710  35.252  1.00  0.00     0.045 C 
ATOM     18  C   UNL     1      15.559   6.773  37.281  1.00  0.00    -0.006 A 
ATOM     19  C   UNL     1      15.049   9.065  36.570  1.00  0.00     0.072 A 
ATOM     20  C   UNL     1      15.132   7.080  38.612  1.00  0.00     0.008 A 
ATOM     21  C   UNL     1      14.517   9.324  37.849  1.00  0.00     0.169 A 
ATOM     22  C   UNL     1      14.545   8.350  38.847  1.00  0.00     0.162 A 
BRANCH  13  23
ATOM     23  O   UNL     1      16.799   8.528  34.227  1.00  0.00    -0.507 OA
ATOM     24  H   UNL     1      16.916   9.488  34.522  1.00  0.00     0.293 HD
ENDBRANCH  13  23
BRANCH  19  25
ATOM     25  C   UNL     1      14.774  10.045  35.494  1.00  0.00     0.264 C 
ATOM     26  O   UNL     1      15.422  11.121  35.427  1.00  0.00    -0.298 OA
ENDBRANCH  19  25
BRANCH  20  27
ATOM     27  C   UNL     1      15.371   6.077  39.758  1.00  0.00     0.017 C 
ATOM     28  C   UNL     1      14.054   5.516  40.310  1.00  0.00     0.012 C 
ATOM     29  C   UNL     1      16.305   6.592  40.874  1.00  0.00     0.012 C 
ENDBRANCH  20  27
BRANCH  21  30
ATOM     30  O   UNL     1      13.902  10.543  38.162  1.00  0.00    -0.504 OA
ATOM     31  H   UNL     1      13.484  10.758  39.056  1.00  0.00     0.293 HD
ENDBRANCH  21  30
BRANCH  22  32
ATOM     32  O   UNL     1      13.925   8.684  40.054  1.00  0.00    -0.504 OA
ATOM     33  H   UNL     1      13.342   9.495  40.181  1.00  0.00     0.293 HD
ENDBRANCH  22  32
ENDBRANCH  11  12
BRANCH  10  34
ATOM     34  O   UNL     1      15.002   5.646  32.450  1.00  0.00    -0.507 OA
ATOM     35  H   UNL     1      14.345   6.176  31.892  1.00  0.00     0.293 HD
ENDBRANCH  10  34
BRANCH   9  36
ATOM     36  C   UNL     1      20.512   4.983  29.356  1.00  0.00     0.017 C 
ATOM     37  C   UNL     1      21.151   3.810  30.115  1.00  0.00     0.012 C 
ATOM     38  C   UNL     1      21.255   6.321  29.563  1.00  0.00     0.012 C 
ENDBRANCH   9  36
BRANCH   6  39
ATOM     39  C   UNL     1      14.689   5.457  29.845  1.00  0.00     0.264 C 
ATOM     40  O   UNL     1      13.916   4.465  29.782  1.00  0.00    -0.298 OA
ENDBRANCH   6  39
BRANCH   8  41
ATOM     41  O   UNL     1      18.702   4.449  27.250  1.00  0.00    -0.504 OA
ATOM     42  H   UNL     1      18.541   3.547  26.820  1.00  0.00     0.293 HD
ENDBRANCH   8  41
BRANCH   7  43
ATOM     43  O   UNL     1      16.003   4.802  27.412  1.00  0.00    -0.504 OA
ATOM     44  H   UNL     1      15.358   5.492  27.053  1.00  0.00     0.293 HD
ENDBRANCH   7  43
TORSDOF 11
ENDMDL
MODEL 4
REMARK VINA RESULT:    -1.141      5.351      9.659
REMARK INTER + INTRA:          -3.245
REMARK INTER:                  -1.499
REMARK INTRA:                  -1.746
REMARK UNBOUND:                -1.570
REMARK SMILES Cc1cc2c(C(C)C)c(O)c(O)c(C=O)c2c(O)c1-c1c(C)cc2c(C(C)C)c(O)c(O)c(C=O)c2c1O
REMARK SMILES IDX 1 1 2 2 3 3 4 4 16 5 13 6 11 7 9 8 5 9 17 10 19 11 20 12
REMARK SMILES IDX 37 13 21 14 36 15 23 16 22 17 24 18 33 19 25 20 31 21 29 22
REMARK SMILES IDX 38 23 34 25 35 26 26 27 27 28 28 29 32 30 30 32 18 34 6 36
REMARK SMILES IDX 7 37 8 38 14 39 15 40 10 41 12 43
REMARK H PARENT 38 24 32 31 30 33 18 35 10 42 12 44
REMARK Flexibility Score: inf
ROOT
ATOM      1  C   UNL     1      18.398   4.877  36.305  1.00  0.00     0.045 C 
ATOM      2  C   UNL     1      17.637   6.174  36.441  1.00  0.00    -0.039 A 
ATOM      3  C   UNL     1      16.850   6.389  37.573  1.00  0.00     0.013 A 
ATOM      4  C   UNL     1      16.112   7.577  37.765  1.00  0.00    -0.006 A 
ATOM      5  C   UNL     1      16.193   8.598  36.765  1.00  0.00     0.039 A 
ATOM      6  C   UNL     1      15.428   9.792  36.932  1.00  0.00     0.072 A 
ATOM      7  C   UNL     1      14.659   9.979  38.099  1.00  0.00     0.169 A 
ATOM      8  C   UNL     1      14.632   9.003  39.097  1.00  0.00     0.162 A 
ATOM      9  C   UNL     1      15.309   7.773  38.938  1.00  0.00     0.008 A 
ATOM     10  C   UNL     1      17.059   8.403  35.644  1.00  0.00     0.132 A 
ATOM     11  C   UNL     1      17.750   7.185  35.476  1.00  0.00     0.031 A 
ENDROOT
BRANCH  11  12
ATOM     12  C   UNL     1      18.617   6.971  34.287  1.00  0.00     0.031 A 
ATOM     13  C   UNL     1      18.057   6.431  33.119  1.00  0.00     0.132 A 
ATOM     14  C   UNL     1      19.988   7.272  34.338  1.00  0.00    -0.039 A 
ATOM     15  C   UNL     1      18.839   6.321  31.930  1.00  0.00     0.039 A 
ATOM     16  C   UNL     1      20.790   7.002  33.226  1.00  0.00     0.013 A 
ATOM     17  C   UNL     1      20.609   7.892  35.567  1.00  0.00     0.045 C 
ATOM     18  C   UNL     1      20.253   6.466  32.033  1.00  0.00    -0.006 A 
ATOM     19  C   UNL     1      18.261   6.095  30.649  1.00  0.00     0.072 A 
ATOM     20  C   UNL     1      21.096   6.105  30.934  1.00  0.00     0.008 A 
ATOM     21  C   UNL     1      19.098   5.860  29.540  1.00  0.00     0.169 A 
ATOM     22  C   UNL     1      20.486   5.876  29.674  1.00  0.00     0.162 A 
BRANCH  13  23
ATOM     23  O   UNL     1      16.745   5.950  33.203  1.00  0.00    -0.507 OA
ATOM     24  H   UNL     1      16.067   6.066  32.462  1.00  0.00     0.293 HD
ENDBRANCH  13  23
BRANCH  19  25
ATOM     25  C   UNL     1      16.817   6.302  30.396  1.00  0.00     0.264 C 
ATOM     26  O   UNL     1      16.058   5.323  30.176  1.00  0.00    -0.298 OA
ENDBRANCH  19  25
BRANCH  20  27
ATOM     27  C   UNL     1      22.611   5.907  31.145  1.00  0.00     0.017 C 
ATOM     28  C   UNL     1      23.430   7.017  30.474  1.00  0.00     0.012 C 
ATOM     29  C   UNL     1      23.128   4.497  30.789  1.00  0.00     0.012 C 
ENDBRANCH  20  27
BRANCH  21  30
ATOM     30  O   UNL     1      18.581   5.644  28.256  1.00  0.00    -0.504 OA
ATOM     31  H   UNL     1      18.597   4.755  27.777  1.00  0.00     0.293 HD
ENDBRANCH  21  30
BRANCH  22  32
ATOM     32  O   UNL     1      21.222   5.704  28.498  1.00  0.00    -0.504 OA
ATOM     33  H   UNL     1      22.228   5.721  28.458  1.00  0.00     0.293 HD
ENDBRANCH  22  32
ENDBRANCH  11  12
BRANCH  10  34
ATOM     34  O   UNL     1      17.255   9.427  34.709  1.00  0.00    -0.507 OA
ATOM     35  H   UNL     1      18.141   9.888  34.550  1.00  0.00     0.293 HD
ENDBRANCH  10  34
BRANCH   9  36
ATOM     36  C   UNL     1      15.144   6.720  40.056  1.00  0.00     0.017 C 
ATOM     37  C   UNL     1      16.446   6.499  40.842  1.00  0.00     0.012 C 
ATOM     38  C   UNL     1      14.483   5.406  39.589  1.00  0.00     0.012 C 
ENDBRANCH   9  36
BRANCH   6  39
ATOM     39  C   UNL     1      15.372  10.836  35.888  1.00  0.00     0.264 C 
ATOM     40  O   UNL     1      14.391  10.908  35.101  1.00  0.00    -0.298 OA
ENDBRANCH   6  39
BRANCH   8  41
ATOM     41  O   UNL     1      13.905   9.253  40.268  1.00  0.00    -0.504 OA
ATOM     42  H   UNL     1      13.596  10.178  40.542  1.00  0.00     0.293 HD
ENDBRANCH   8  41
BRANCH   7  43
ATOM     43  O   UNL     1      13.876  11.125  38.286  1.00  0.00    -0.504 OA
ATOM     44  H   UNL     1      13.848  11.664  39.140  1.00  0.00     0.293 HD
ENDBRANCH   7  43
TORSDOF 11
ENDMDL
MODEL 5
REMARK VINA RESULT:    -1.128      4.471      8.956
REMARK INTER + INTRA:          -3.225
REMARK INTER:                  -1.527
REMARK INTRA:                  -1.699
REMARK UNBOUND:                -1.570
REMARK SMILES Cc1cc2c(C(C)C)c(O)c(O)c(C=O)c2c(O)c1-c1c(C)cc2c(C(C)C)c(O)c(O)c(C=O)c2c1O
REMARK SMILES IDX 1 1 2 2 3 3 4 4 16 5 13 6 11 7 9 8 5 9 17 10 19 11 20 12
REMARK SMILES IDX 37 13 21 14 36 15 23 16 22 17 24 18 33 19 25 20 31 21 29 22
REMARK SMILES IDX 38 23 34 25 35 26 26 27 27 28 28 29 32 30 30 32 18 34 6 36
REMARK SMILES IDX 7 37 8 38 14 39 15 40 10 41 12 43
REMARK H PARENT 38 24 32 31 30 33 18 35 10 42 12 44
REMARK Flexibility Score: inf
ROOT
ATOM      1  C   UNL     1      21.310   8.543  38.725  1.00  0.00     0.045 C 
ATOM      2  C   UNL     1      20.002   7.832  38.979  1.00  0.00    -0.039 A 
ATOM      3  C   UNL     1      18.860   8.582  39.259  1.00  0.00     0.013 A 
ATOM      4  C   UNL     1      17.605   7.984  39.506  1.00  0.00    -0.006 A 
ATOM      5  C   UNL     1      17.508   6.557  39.448  1.00  0.00     0.039 A 
ATOM      6  C   UNL     1      16.252   5.937  39.726  1.00  0.00     0.072 A 
ATOM      7  C   UNL     1      15.117   6.730  39.987  1.00  0.00     0.169 A 
ATOM      8  C   UNL     1      15.207   8.124  39.983  1.00  0.00     0.162 A 
ATOM      9  C   UNL     1      16.445   8.778  39.794  1.00  0.00     0.008 A 
ATOM     10  C   UNL     1      18.665   5.797  39.087  1.00  0.00     0.132 A 
ATOM     11  C   UNL     1      19.906   6.436  38.883  1.00  0.00     0.031 A 
ENDROOT
BRANCH  11  12
ATOM     12  C   UNL     1      21.115   5.638  38.549  1.00  0.00     0.031 A 
ATOM     13  C   UNL     1      21.447   5.428  37.202  1.00  0.00     0.132 A 
ATOM     14  C   UNL     1      21.902   5.072  39.567  1.00  0.00    -0.039 A 
ATOM     15  C   UNL     1      22.662   4.763  36.856  1.00  0.00     0.039 A 
ATOM     16  C   UNL     1      22.997   4.276  39.222  1.00  0.00     0.013 A 
ATOM     17  C   UNL     1      21.592   5.317  41.024  1.00  0.00     0.045 C 
ATOM     18  C   UNL     1      23.360   4.051  37.874  1.00  0.00    -0.006 A 
ATOM     19  C   UNL     1      23.210   4.803  35.543  1.00  0.00     0.072 A 
ATOM     20  C   UNL     1      24.424   3.159  37.528  1.00  0.00     0.008 A 
ATOM     21  C   UNL     1      24.337   4.013  35.235  1.00  0.00     0.169 A 
ATOM     22  C   UNL     1      24.940   3.216  36.209  1.00  0.00     0.162 A 
BRANCH  13  23
ATOM     23  O   UNL     1      20.509   5.827  36.243  1.00  0.00    -0.507 OA
ATOM     24  H   UNL     1      20.470   6.765  35.868  1.00  0.00     0.293 HD
ENDBRANCH  13  23
BRANCH  19  25
ATOM     25  C   UNL     1      22.769   5.800  34.541  1.00  0.00     0.264 C 
ATOM     26  O   UNL     1      22.399   5.435  33.395  1.00  0.00    -0.298 OA
ENDBRANCH  19  25
BRANCH  20  27
ATOM     27  C   UNL     1      24.936   2.123  38.550  1.00  0.00     0.017 C 
ATOM     28  C   UNL     1      26.313   2.505  39.108  1.00  0.00     0.012 C 
ATOM     29  C   UNL     1      24.885   0.661  38.060  1.00  0.00     0.012 C 
ENDBRANCH  20  27
BRANCH  21  30
ATOM     30  O   UNL     1      24.923   4.025  33.963  1.00  0.00    -0.504 OA
ATOM     31  H   UNL     1      24.815   3.290  33.280  1.00  0.00     0.293 HD
ENDBRANCH  21  30
BRANCH  22  32
ATOM     32  O   UNL     1      26.094   2.531  35.818  1.00  0.00    -0.504 OA
ATOM     33  H   UNL     1      26.284   1.571  36.052  1.00  0.00     0.293 HD
ENDBRANCH  22  32
ENDBRANCH  11  12
BRANCH  10  34
ATOM     34  O   UNL     1      18.579   4.411  38.905  1.00  0.00    -0.507 OA
ATOM     35  H   UNL     1      18.253   3.971  38.055  1.00  0.00     0.293 HD
ENDBRANCH  10  34
BRANCH   9  36
ATOM     36  C   UNL     1      16.460  10.319  39.897  1.00  0.00     0.017 C 
ATOM     37  C   UNL     1      16.847  10.987  38.569  1.00  0.00     0.012 C 
ATOM     38  C   UNL     1      17.251  10.860  41.107  1.00  0.00     0.012 C 
ENDBRANCH   9  36
BRANCH   6  39
ATOM     39  C   UNL     1      16.105   4.468  39.799  1.00  0.00     0.264 C 
ATOM     40  O   UNL     1      15.503   3.836  38.890  1.00  0.00    -0.298 OA
ENDBRANCH   6  39
BRANCH   8  41
ATOM     41  O   UNL     1      14.043   8.878  40.187  1.00  0.00    -0.504 OA
ATOM     42  H   UNL     1      14.053   9.872  40.377  1.00  0.00     0.293 HD
ENDBRANCH   8  41
BRANCH   7  43
ATOM     43  O   UNL     1      13.875   6.158  40.289  1.00  0.00    -0.504 OA
ATOM     44  H   UNL     1      13.052   6.241  39.708  1.00  0.00     0.293 HD
ENDBRANCH   7  43
TORSDOF 11
ENDMDL
MODEL 6
REMARK VINA RESULT:    -1.123      5.442      8.034
REMARK INTER + INTRA:          -3.219
REMARK INTER:                  -1.424
REMARK INTRA:                  -1.795
REMARK UNBOUND:                -1.570
REMARK SMILES Cc1cc2c(C(C)C)c(O)c(O)c(C=O)c2c(O)c1-c1c(C)cc2c(C(C)C)c(O)c(O)c(C=O)c2c1O
REMARK SMILES IDX 1 1 2 2 3 3 4 4 16 5 13 6 11 7 9 8 5 9 17 10 19 11 20 12
REMARK SMILES IDX 37 13 21 14 36 15 23 16 22 17 24 18 33 19 25 20 31 21 29 22
REMARK SMILES IDX 38 23 34 25 35 26 26 27 27 28 28 29 32 30 30 32 18 34 6 36
REMARK SMILES IDX 7 37 8 38 14 39 15 40 10 41 12 43
REMARK H PARENT 38 24 32 31 30 33 18 35 10 42 12 44
REMARK Flexibility Score: inf
ROOT
ATOM      1  C   UNL     1      20.513   4.805  36.857  1.00  0.00     0.045 C 
ATOM      2  C   UNL     1      21.530   5.503  37.728  1.00  0.00    -0.039 A 
ATOM      3  C   UNL     1      22.855   5.066  37.715  1.00  0.00     0.013 A 
ATOM      4  C   UNL     1      23.857   5.671  38.504  1.00  0.00    -0.006 A 
ATOM      5  C   UNL     1      23.495   6.782  39.331  1.00  0.00     0.039 A 
ATOM      6  C   UNL     1      24.492   7.383  40.158  1.00  0.00     0.072 A 
ATOM      7  C   UNL     1      25.824   6.925  40.102  1.00  0.00     0.169 A 
ATOM      8  C   UNL     1      26.182   5.879  39.248  1.00  0.00     0.162 A 
ATOM      9  C   UNL     1      25.213   5.201  38.474  1.00  0.00     0.008 A 
ATOM     10  C   UNL     1      22.152   7.272  39.284  1.00  0.00     0.132 A 
ATOM     11  C   UNL     1      21.176   6.614  38.507  1.00  0.00     0.031 A 
ENDROOT
BRANCH  11  12
ATOM     12  C   UNL     1      19.772   7.102  38.494  1.00  0.00     0.031 A 
ATOM     13  C   UNL     1      19.379   8.030  37.518  1.00  0.00     0.132 A 
ATOM     14  C   UNL     1      18.855   6.667  39.465  1.00  0.00    -0.039 A 
ATOM     15  C   UNL     1      18.012   8.428  37.413  1.00  0.00     0.039 A 
ATOM     16  C   UNL     1      17.560   7.190  39.466  1.00  0.00     0.013 A 
ATOM     17  C   UNL     1      19.240   5.637  40.500  1.00  0.00     0.045 C 
ATOM     18  C   UNL     1      17.131   8.121  38.491  1.00  0.00    -0.006 A 
ATOM     19  C   UNL     1      17.493   9.098  36.270  1.00  0.00     0.072 A 
ATOM     20  C   UNL     1      15.834   8.722  38.555  1.00  0.00     0.008 A 
ATOM     21  C   UNL     1      16.170   9.584  36.288  1.00  0.00     0.169 A 
ATOM     22  C   UNL     1      15.352   9.391  37.401  1.00  0.00     0.162 A 
BRANCH  13  23
ATOM     23  O   UNL     1      20.386   8.588  36.723  1.00  0.00    -0.507 OA
ATOM     24  H   UNL     1      20.347   8.602  35.713  1.00  0.00     0.293 HD
ENDBRANCH  13  23
BRANCH  19  25
ATOM     25  C   UNL     1      18.221   9.122  34.981  1.00  0.00     0.264 C 
ATOM     26  O   UNL     1      18.753  10.185  34.565  1.00  0.00    -0.298 OA
ENDBRANCH  19  25
BRANCH  20  27
ATOM     27  C   UNL     1      15.026   8.695  39.869  1.00  0.00     0.017 C 
ATOM     28  C   UNL     1      13.883   7.674  39.814  1.00  0.00     0.012 C 
ATOM     29  C   UNL     1      14.555  10.081  40.359  1.00  0.00     0.012 C 
ENDBRANCH  20  27
BRANCH  21  30
ATOM     30  O   UNL     1      15.607  10.239  35.185  1.00  0.00    -0.504 OA
ATOM     31  H   UNL     1      15.603  11.240  35.059  1.00  0.00     0.293 HD
ENDBRANCH  21  30
BRANCH  22  32
ATOM     32  O   UNL     1      14.036   9.848  37.287  1.00  0.00    -0.504 OA
ATOM     33  H   UNL     1      13.700  10.703  37.699  1.00  0.00     0.293 HD
ENDBRANCH  22  32
ENDBRANCH  11  12
BRANCH  10  34
ATOM     34  O   UNL     1      21.791   8.428  39.988  1.00  0.00    -0.507 OA
ATOM     35  H   UNL     1      21.333   8.423  40.889  1.00  0.00     0.293 HD
ENDBRANCH  10  34
BRANCH   9  36
ATOM     36  C   UNL     1      25.691   3.999  37.630  1.00  0.00     0.017 C 
ATOM     37  C   UNL     1      25.660   4.297  36.123  1.00  0.00     0.012 C 
ATOM     38  C   UNL     1      25.014   2.663  38.002  1.00  0.00     0.012 C 
ENDBRANCH   9  36
BRANCH   6  39
ATOM     39  C   UNL     1      24.165   8.456  41.120  1.00  0.00     0.264 C 
ATOM     40  O   UNL     1      24.511   9.646  40.898  1.00  0.00    -0.298 OA
ENDBRANCH   6  39
BRANCH   8  41
ATOM     41  O   UNL     1      27.527   5.493  39.178  1.00  0.00    -0.504 OA
ATOM     42  H   UNL     1      27.829   4.528  39.208  1.00  0.00     0.293 HD
ENDBRANCH   8  41
BRANCH   7  43
ATOM     43  O   UNL     1      26.823   7.473  40.916  1.00  0.00    -0.504 OA
ATOM     44  H   UNL     1      27.739   7.748  40.588  1.00  0.00     0.293 HD
ENDBRANCH   7  43
TORSDOF 11
ENDMDL
MODEL 7
REMARK VINA RESULT:    -1.108      2.786      9.039
REMARK INTER + INTRA:          -3.196
REMARK INTER:                  -1.542
REMARK INTRA:                  -1.654
REMARK UNBOUND:                -1.570
REMARK SMILES Cc1cc2c(C(C)C)c(O)c(O)c(C=O)c2c(O)c1-c1c(C)cc2c(C(C)C)c(O)c(O)c(C=O)c2c1O
REMARK SMILES IDX 1 1 2 2 3 3 4 4 16 5 13 6 11 7 9 8 5 9 17 10 19 11 20 12
REMARK SMILES IDX 37 13 21 14 36 15 23 16 22 17 24 18 33 19 25 20 31 21 29 22
REMARK SMILES IDX 38 23 34 25 35 26 26 27 27 28 28 29 32 30 30 32 18 34 6 36
REMARK SMILES IDX 7 37 8 38 14 39 15 40 10 41 12 43
REMARK H PARENT 38 24 32 31 30 33 18 35 10 42 12 44
REMARK Flexibility Score: inf
ROOT
ATOM      1  C   UNL     1      20.704   5.715  38.178  1.00  0.00     0.045 C 
ATOM      2  C   UNL     1      19.309   6.194  38.500  1.00  0.00    -0.039 A 
ATOM      3  C   UNL     1      19.129   7.479  39.013  1.00  0.00     0.013 A 
ATOM      4  C   UNL     1      17.854   7.990  39.336  1.00  0.00    -0.006 A 
ATOM      5  C   UNL     1      16.709   7.160  39.111  1.00  0.00     0.039 A 
ATOM      6  C   UNL     1      15.416   7.654  39.462  1.00  0.00     0.072 A 
ATOM      7  C   UNL     1      15.273   8.964  39.961  1.00  0.00     0.169 A 
ATOM      8  C   UNL     1      16.389   9.789  40.123  1.00  0.00     0.162 A 
ATOM      9  C   UNL     1      17.695   9.315  39.865  1.00  0.00     0.008 A 
ATOM     10  C   UNL     1      16.893   5.873  38.515  1.00  0.00     0.132 A 
ATOM     11  C   UNL     1      18.190   5.390  38.241  1.00  0.00     0.031 A 
ENDROOT
BRANCH  11  12
ATOM     12  C   UNL     1      18.379   4.034  37.660  1.00  0.00     0.031 A 
ATOM     13  C   UNL     1      18.422   3.886  36.265  1.00  0.00     0.132 A 
ATOM     14  C   UNL     1      18.481   2.908  38.493  1.00  0.00    -0.039 A 
ATOM     15  C   UNL     1      18.715   2.615  35.686  1.00  0.00     0.039 A 
ATOM     16  C   UNL     1      18.595   1.639  37.918  1.00  0.00     0.013 A 
ATOM     17  C   UNL     1      18.479   3.042  39.997  1.00  0.00     0.045 C 
ATOM     18  C   UNL     1      18.649   1.459  36.516  1.00  0.00    -0.006 A 
ATOM     19  C   UNL     1      19.090   2.462  34.321  1.00  0.00     0.072 A 
ATOM     20  C   UNL     1      18.670   0.151  35.934  1.00  0.00     0.008 A 
ATOM     21  C   UNL     1      19.231   1.169  33.779  1.00  0.00     0.169 A 
ATOM     22  C   UNL     1      19.038   0.036  34.569  1.00  0.00     0.162 A 
BRANCH  13  23
ATOM     23  O   UNL     1      18.096   5.007  35.493  1.00  0.00    -0.507 OA
ATOM     24  H   UNL     1      18.564   5.234  34.626  1.00  0.00     0.293 HD
ENDBRANCH  13  23
BRANCH  19  25
ATOM     25  C   UNL     1      19.540   3.610  33.501  1.00  0.00     0.264 C 
ATOM     26  O   UNL     1      18.786   4.105  32.624  1.00  0.00    -0.298 OA
ENDBRANCH  19  25
BRANCH  20  27
ATOM     27  C   UNL     1      18.238  -1.077  36.760  1.00  0.00     0.017 C 
ATOM     28  C   UNL     1      19.425  -1.993  37.084  1.00  0.00     0.012 C 
ATOM     29  C   UNL     1      17.039  -1.852  36.174  1.00  0.00     0.012 C 
ENDBRANCH  20  27
BRANCH  21  30
ATOM     30  O   UNL     1      19.610   0.963  32.446  1.00  0.00    -0.504 OA
ATOM     31  H   UNL     1      20.120   0.156  32.117  1.00  0.00     0.293 HD
ENDBRANCH  21  30
BRANCH  22  32
ATOM     32  O   UNL     1      19.274  -1.196  33.952  1.00  0.00    -0.504 OA
ATOM     33  H   UNL     1      18.598  -1.940  33.906  1.00  0.00     0.293 HD
ENDBRANCH  22  32
ENDBRANCH  11  12
BRANCH  10  34
ATOM     34  O   UNL     1      15.789   5.083  38.170  1.00  0.00    -0.507 OA
ATOM     35  H   UNL     1      14.850   5.243  38.511  1.00  0.00     0.293 HD
ENDBRANCH  10  34
BRANCH   9  36
ATOM     36  C   UNL     1      18.871  10.271  40.161  1.00  0.00     0.017 C 
ATOM     37  C   UNL     1      19.472  10.867  38.879  1.00  0.00     0.012 C 
ATOM     38  C   UNL     1      19.931   9.686  41.118  1.00  0.00     0.012 C 
ENDBRANCH   9  36
BRANCH   6  39
ATOM     39  C   UNL     1      14.206   6.811  39.365  1.00  0.00     0.264 C 
ATOM     40  O   UNL     1      13.875   6.049  40.313  1.00  0.00    -0.298 OA
ENDBRANCH   6  39
BRANCH   8  41
ATOM     41  O   UNL     1      16.198  11.105  40.564  1.00  0.00    -0.504 OA
ATOM     42  H   UNL     1      16.772  11.881  40.259  1.00  0.00     0.293 HD
ENDBRANCH   8  41
BRANCH   7  43
ATOM     43  O   UNL     1      14.025   9.473  40.340  1.00  0.00    -0.504 OA
ATOM     44  H   UNL     1      13.485  10.127  39.791  1.00  0.00     0.293 HD
ENDBRANCH   7  43
TORSDOF 11
ENDMDL
MODEL 8
REMARK VINA RESULT:    -1.100      4.667      9.115
REMARK INTER + INTRA:          -3.184
REMARK INTER:                  -1.374
REMARK INTRA:                  -1.810
REMARK UNBOUND:                -1.570
REMARK SMILES Cc1cc2c(C(C)C)c(O)c(O)c(C=O)c2c(O)c1-c1c(C)cc2c(C(C)C)c(O)c(O)c(C=O)c2c1O
REMARK SMILES IDX 1 1 2 2 3 3 4 4 16 5 13 6 11 7 9 8 5 9 17 10 19 11 20 12
REMARK SMILES IDX 37 13 21 14 36 15 23 16 22 17 24 18 33 19 25 20 31 21 29 22
REMARK SMILES IDX 38 23 34 25 35 26 26 27 27 28 28 29 32 30 30 32 18 34 6 36
REMARK SMILES IDX 7 37 8 38 14 39 15 40 10 41 12 43
REMARK H PARENT 38 24 32 31 30 33 18 35 10 42 12 44
REMARK Flexibility Score: inf
ROOT
ATOM      1  C   UNL     1      17.320   3.113  36.686  1.00  0.00     0.045 C 
ATOM      2  C   UNL     1      16.731   4.500  36.582  1.00  0.00    -0.039 A 
ATOM      3  C   UNL     1      16.175   5.093  37.715  1.00  0.00     0.013 A 
ATOM      4  C   UNL     1      15.608   6.386  37.690  1.00  0.00    -0.006 A 
ATOM      5  C   UNL     1      15.624   7.113  36.456  1.00  0.00     0.039 A 
ATOM      6  C   UNL     1      15.027   8.408  36.409  1.00  0.00     0.072 A 
ATOM      7  C   UNL     1      14.491   8.981  37.580  1.00  0.00     0.169 A 
ATOM      8  C   UNL     1      14.533   8.290  38.793  1.00  0.00     0.162 A 
ATOM      9  C   UNL     1      15.040   6.973  38.869  1.00  0.00     0.008 A 
ATOM     10  C   UNL     1      16.263   6.529  35.317  1.00  0.00     0.132 A 
ATOM     11  C   UNL     1      16.785   5.221  35.380  1.00  0.00     0.031 A 
ENDROOT
BRANCH  11  12
ATOM     12  C   UNL     1      17.410   4.603  34.181  1.00  0.00     0.031 A 
ATOM     13  C   UNL     1      18.792   4.742  33.980  1.00  0.00     0.132 A 
ATOM     14  C   UNL     1      16.626   3.914  33.240  1.00  0.00    -0.039 A 
ATOM     15  C   UNL     1      19.434   4.065  32.900  1.00  0.00     0.039 A 
ATOM     16  C   UNL     1      17.231   3.398  32.092  1.00  0.00     0.013 A 
ATOM     17  C   UNL     1      15.145   3.713  33.453  1.00  0.00     0.045 C 
ATOM     18  C   UNL     1      18.622   3.516  31.865  1.00  0.00    -0.006 A 
ATOM     19  C   UNL     1      20.846   3.899  32.828  1.00  0.00     0.072 A 
ATOM     20  C   UNL     1      19.217   3.068  30.643  1.00  0.00     0.008 A 
ATOM     21  C   UNL     1      21.424   3.343  31.669  1.00  0.00     0.169 A 
ATOM     22  C   UNL     1      20.628   2.924  30.602  1.00  0.00     0.162 A 
BRANCH  13  23
ATOM     23  O   UNL     1      19.476   5.620  34.829  1.00  0.00    -0.507 OA
ATOM     24  H   UNL     1      19.181   5.811  35.777  1.00  0.00     0.293 HD
ENDBRANCH  13  23
BRANCH  19  25
ATOM     25  C   UNL     1      21.716   4.098  34.009  1.00  0.00     0.264 C 
ATOM     26  O   UNL     1      22.501   5.080  34.069  1.00  0.00    -0.298 OA
ENDBRANCH  19  25
BRANCH  20  27
ATOM     27  C   UNL     1      18.345   2.820  29.396  1.00  0.00     0.017 C 
ATOM     28  C   UNL     1      18.262   1.328  29.045  1.00  0.00     0.012 C 
ATOM     29  C   UNL     1      18.711   3.691  28.175  1.00  0.00     0.012 C 
ENDBRANCH  20  27
BRANCH  21  30
ATOM     30  O   UNL     1      22.805   3.147  31.553  1.00  0.00    -0.504 OA
ATOM     31  H   UNL     1      23.381   2.714  32.260  1.00  0.00     0.293 HD
ENDBRANCH  21  30
BRANCH  22  32
ATOM     32  O   UNL     1      21.296   2.320  29.534  1.00  0.00    -0.504 OA
ATOM     33  H   UNL     1      21.327   2.702  28.603  1.00  0.00     0.293 HD
ENDBRANCH  22  32
ENDBRANCH  11  12
BRANCH  10  34
ATOM     34  O   UNL     1      16.403   7.258  34.129  1.00  0.00    -0.507 OA
ATOM     35  H   UNL     1      16.915   6.930  33.320  1.00  0.00     0.293 HD
ENDBRANCH  10  34
BRANCH   9  36
ATOM     36  C   UNL     1      14.959   6.257  40.235  1.00  0.00     0.017 C 
ATOM     37  C   UNL     1      16.347   6.020  40.851  1.00  0.00     0.012 C 
ATOM     38  C   UNL     1      14.070   4.996  40.232  1.00  0.00     0.012 C 
ENDBRANCH   9  36
BRANCH   6  39
ATOM     39  C   UNL     1      14.905   9.166  35.145  1.00  0.00     0.264 C 
ATOM     40  O   UNL     1      15.619  10.182  34.933  1.00  0.00    -0.298 OA
ENDBRANCH   6  39
BRANCH   8  41
ATOM     41  O   UNL     1      14.045   8.918  39.946  1.00  0.00    -0.504 OA
ATOM     42  H   UNL     1      14.019   8.469  40.854  1.00  0.00     0.293 HD
ENDBRANCH   8  41
BRANCH   7  43
ATOM     43  O   UNL     1      13.875  10.238  37.567  1.00  0.00    -0.504 OA
ATOM     44  H   UNL     1      12.932  10.415  37.882  1.00  0.00     0.293 HD
ENDBRANCH   7  43
TORSDOF 11
ENDMDL
MODEL 9
REMARK VINA RESULT:    -1.055      2.487      8.924
REMARK INTER + INTRA:          -3.119
REMARK INTER:                  -1.505
REMARK INTRA:                  -1.614
REMARK UNBOUND:                -1.570
REMARK SMILES Cc1cc2c(C(C)C)c(O)c(O)c(C=O)c2c(O)c1-c1c(C)cc2c(C(C)C)c(O)c(O)c(C=O)c2c1O
REMARK SMILES IDX 1 1 2 2 3 3 4 4 16 5 13 6 11 7 9 8 5 9 17 10 19 11 20 12
REMARK SMILES IDX 37 13 21 14 36 15 23 16 22 17 24 18 33 19 25 20 31 21 29 22
REMARK SMILES IDX 38 23 34 25 35 26 26 27 27 28 28 29 32 30 30 32 18 34 6 36
REMARK SMILES IDX 7 37 8 38 14 39 15 40 10 41 12 43
REMARK H PARENT 38 24 32 31 30 33 18 35 10 42 12 44
REMARK Flexibility Score: inf
ROOT
ATOM      1  C   UNL     1      20.771   6.049  37.889  1.00  0.00     0.045 C 
ATOM      2  C   UNL     1      19.356   6.418  38.263  1.00  0.00    -0.039 A 
ATOM      3  C   UNL     1      19.097   7.681  38.795  1.00  0.00     0.013 A 
ATOM      4  C   UNL     1      17.798   8.092  39.167  1.00  0.00    -0.006 A 
ATOM      5  C   UNL     1      16.713   7.180  38.971  1.00  0.00     0.039 A 
ATOM      6  C   UNL     1      15.399   7.571  39.370  1.00  0.00     0.072 A 
ATOM      7  C   UNL     1      15.175   8.863  39.888  1.00  0.00     0.169 A 
ATOM      8  C   UNL     1      16.230   9.769  40.021  1.00  0.00     0.162 A 
ATOM      9  C   UNL     1      17.558   9.397  39.715  1.00  0.00     0.008 A 
ATOM     10  C   UNL     1      16.973   5.915  38.355  1.00  0.00     0.132 A 
ATOM     11  C   UNL     1      18.292   5.534  38.033  1.00  0.00     0.031 A 
ENDROOT
BRANCH  11  12
ATOM     12  C   UNL     1      18.563   4.201  37.431  1.00  0.00     0.031 A 
ATOM     13  C   UNL     1      18.820   3.109  38.274  1.00  0.00     0.132 A 
ATOM     14  C   UNL     1      18.594   4.039  36.036  1.00  0.00    -0.039 A 
ATOM     15  C   UNL     1      18.971   1.799  37.728  1.00  0.00     0.039 A 
ATOM     16  C   UNL     1      18.913   2.789  35.500  1.00  0.00     0.013 A 
ATOM     17  C   UNL     1      18.280   5.187  35.107  1.00  0.00     0.045 C 
ATOM     18  C   UNL     1      19.170   1.668  36.322  1.00  0.00    -0.006 A 
ATOM     19  C   UNL     1      18.909   0.622  38.527  1.00  0.00     0.072 A 
ATOM     20  C   UNL     1      19.587   0.417  35.767  1.00  0.00     0.008 A 
ATOM     21  C   UNL     1      19.202  -0.629  37.947  1.00  0.00     0.169 A 
ATOM     22  C   UNL     1      19.523  -0.734  36.594  1.00  0.00     0.162 A 
BRANCH  13  23
ATOM     23  O   UNL     1      18.992   3.379  39.636  1.00  0.00    -0.507 OA
ATOM     24  H   UNL     1      19.527   4.165  39.979  1.00  0.00     0.293 HD
ENDBRANCH  13  23
BRANCH  19  25
ATOM     25  C   UNL     1      18.345   0.636  39.896  1.00  0.00     0.264 C 
ATOM     26  O   UNL     1      17.195   0.178  40.120  1.00  0.00    -0.298 OA
ENDBRANCH  19  25
BRANCH  20  27
ATOM     27  C   UNL     1      20.152   0.350  34.334  1.00  0.00     0.017 C 
ATOM     28  C   UNL     1      19.214  -0.407  33.385  1.00  0.00     0.012 C 
ATOM     29  C   UNL     1      21.610  -0.151  34.244  1.00  0.00     0.012 C 
ENDBRANCH  20  27
BRANCH  21  30
ATOM     30  O   UNL     1      19.143  -1.818  38.685  1.00  0.00    -0.504 OA
ATOM     31  H   UNL     1      19.250  -1.871  39.688  1.00  0.00     0.293 HD
ENDBRANCH  21  30
BRANCH  22  32
ATOM     32  O   UNL     1      19.724  -2.028  36.105  1.00  0.00    -0.504 OA
ATOM     33  H   UNL     1      19.065  -2.780  36.220  1.00  0.00     0.293 HD
ENDBRANCH  22  32
ENDBRANCH  11  12
BRANCH  10  34
ATOM     34  O   UNL     1      15.920   5.047  38.039  1.00  0.00    -0.507 OA
ATOM     35  H   UNL     1      15.950   4.371  37.287  1.00  0.00     0.293 HD
ENDBRANCH  10  34
BRANCH   9  36
ATOM     36  C   UNL     1      18.668  10.437  39.981  1.00  0.00     0.017 C 
ATOM     37  C   UNL     1      19.323  10.935  38.684  1.00  0.00     0.012 C 
ATOM     38  C   UNL     1      19.691  10.004  41.054  1.00  0.00     0.012 C 
ENDBRANCH   9  36
BRANCH   6  39
ATOM     39  C   UNL     1      14.253   6.640  39.304  1.00  0.00     0.264 C 
ATOM     40  O   UNL     1      13.875   6.012  40.329  1.00  0.00    -0.298 OA
ENDBRANCH   6  39
BRANCH   8  41
ATOM     41  O   UNL     1      15.956  11.063  40.482  1.00  0.00    -0.504 OA
ATOM     42  H   UNL     1      15.503  11.251  41.368  1.00  0.00     0.293 HD
ENDBRANCH   8  41
BRANCH   7  43
ATOM     43  O   UNL     1      13.906   9.273  40.313  1.00  0.00    -0.504 OA
ATOM     44  H   UNL     1      13.132   9.470  39.694  1.00  0.00     0.293 HD
ENDBRANCH   7  43
TORSDOF 11
ENDMDL
