MODEL 1
REMARK VINA RESULT:    -3.229      0.000      0.000
REMARK INTER + INTRA:          -4.804
REMARK INTER:                  -4.929
REMARK INTRA:                   0.124
REMARK UNBOUND:                 0.124
REMARK SMILES CC1=CCC[C@@H](C)C(=O)C[C@H](C(C)C)C(=O)C1
REMARK SMILES IDX 8 1 9 2 6 3 7 4 5 5 4 6 3 7 2 8 1 9 10 11 11 12 15 13 16 14
REMARK SMILES IDX 17 15 12 17 13 18 14 19
REMARK H PARENT
REMARK Flexibility Score: 70.00
ROOT
ATOM      1  C   UNL     1      -8.173  28.669  44.465  1.00  0.00     0.136 C 
ATOM      2  O   UNL     1      -8.318  27.738  43.687  1.00  0.00    -0.299 OA
ENDROOT
BRANCH   1   3
ATOM      3  C   UNL     1      -8.734  30.026  44.063  1.00  0.00     0.053 C 
ATOM      4  C   UNL     1      -9.279  30.077  42.626  1.00  0.00     0.016 C 
BRANCH   3   5
ATOM      5  C   UNL     1      -7.752  31.172  44.388  1.00  0.00     0.015 C 
BRANCH   5   6
ATOM      6  C   UNL     1      -8.063  31.946  45.684  1.00  0.00     0.028 C 
BRANCH   6   7
ATOM      7  C   UNL     1      -6.799  32.539  46.253  1.00  0.00    -0.028 C 
ATOM      8  C   UNL     1      -5.962  31.894  47.101  1.00  0.00    -0.070 CG0
ATOM      9  C   UNL     1      -4.802  32.666  47.674  1.00  0.00     0.039 C 
ATOM     10  G   UNL     1      -6.119  30.423  47.454  1.00  0.00     0.000 G0
ENDBRANCH   6   7
ENDBRANCH   5   6
ENDBRANCH   3   5
ENDBRANCH   1   3
BRANCH   1  11
ATOM     11  C   UNL     1      -7.450  28.419  45.775  1.00  0.00     0.087 C 
BRANCH  11  12
ATOM     12  C   UNL     1      -5.894  28.461  45.704  1.00  0.00     0.066 C 
BRANCH  12  13
ATOM     13  C   UNL     1      -5.258  29.498  46.627  1.00  0.00     0.140 C 
ATOM     14  O   UNL     1      -4.044  29.639  46.650  1.00  0.00    -0.299 OA
BRANCH  13  15
ATOM     15  C   UNL     1      -6.125  30.416  47.456  1.00  0.00     0.106 CG0
ATOM     16  G   UNL     1      -5.943  31.883  47.099  1.00  0.00     0.000 G0
ENDBRANCH  13  15
ENDBRANCH  12  13
BRANCH  12  17
ATOM     17  C   UNL     1      -5.216  27.055  45.775  1.00  0.00    -0.006 C 
ATOM     18  C   UNL     1      -6.197  25.981  46.274  1.00  0.00     0.008 C 
ATOM     19  C   UNL     1      -4.548  26.597  44.469  1.00  0.00     0.008 C 
ENDBRANCH  12  17
ENDBRANCH  11  12
ENDBRANCH   1  11
TORSDOF 1
ENDMDL
MODEL 2
REMARK VINA RESULT:    -3.192      1.813      4.622
REMARK INTER + INTRA:          -4.748
REMARK INTER:                  -5.026
REMARK INTRA:                   0.278
REMARK UNBOUND:                 0.124
REMARK SMILES CC1=CCC[C@@H](C)C(=O)C[C@H](C(C)C)C(=O)C1
REMARK SMILES IDX 8 1 9 2 6 3 7 4 5 5 4 6 3 7 2 8 1 9 10 11 11 12 15 13 16 14
REMARK SMILES IDX 17 15 12 17 13 18 14 19
REMARK H PARENT
REMARK Flexibility Score: 70.00
ROOT
ATOM      1  C   UNL     1      -6.231  29.318  46.465  1.00  0.00     0.136 C 
ATOM      2  O   UNL     1      -5.047  29.200  46.188  1.00  0.00    -0.299 OA
ENDROOT
BRANCH   1   3
ATOM      3  C   UNL     1      -7.180  28.216  46.017  1.00  0.00     0.053 C 
ATOM      4  C   UNL     1      -6.561  26.809  46.040  1.00  0.00     0.016 C 
BRANCH   3   5
ATOM      5  C   UNL     1      -7.869  28.562  44.679  1.00  0.00     0.015 C 
BRANCH   5   6
ATOM      6  C   UNL     1      -8.944  29.664  44.768  1.00  0.00     0.028 C 
BRANCH   6   7
ATOM      7  C   UNL     1      -8.664  30.746  43.756  1.00  0.00    -0.028 C 
ATOM      8  C   UNL     1      -8.343  32.024  44.067  1.00  0.00    -0.070 CG0
ATOM      9  C   UNL     1      -8.210  33.015  42.940  1.00  0.00     0.039 C 
ATOM     10  G   UNL     1      -8.068  32.482  45.491  1.00  0.00     0.000 G0
ENDBRANCH   6   7
ENDBRANCH   5   6
ENDBRANCH   3   5
ENDBRANCH   1   3
BRANCH   1  11
ATOM     11  C   UNL     1      -6.681  30.547  47.235  1.00  0.00     0.087 C 
BRANCH  11  12
ATOM     12  C   UNL     1      -5.934  31.870  46.888  1.00  0.00     0.066 C 
BRANCH  12  13
ATOM     13  C   UNL     1      -6.596  32.684  45.780  1.00  0.00     0.140 C 
ATOM     14  O   UNL     1      -5.926  33.427  45.078  1.00  0.00    -0.299 OA
BRANCH  13  15
ATOM     15  C   UNL     1      -8.069  32.518  45.486  1.00  0.00     0.106 CG0
ATOM     16  G   UNL     1      -8.338  32.030  44.070  1.00  0.00     0.000 G0
ENDBRANCH  13  15
ENDBRANCH  12  13
BRANCH  12  17
ATOM     17  C   UNL     1      -5.528  32.717  48.136  1.00  0.00    -0.006 C 
ATOM     18  C   UNL     1      -4.140  33.354  47.959  1.00  0.00     0.008 C 
ATOM     19  C   UNL     1      -6.553  33.786  48.548  1.00  0.00     0.008 C 
ENDBRANCH  12  17
ENDBRANCH  11  12
ENDBRANCH   1  11
TORSDOF 1
ENDMDL
MODEL 3
REMARK VINA RESULT:    -3.100      2.239      5.117
REMARK INTER + INTRA:          -4.608
REMARK INTER:                  -4.496
REMARK INTRA:                  -0.111
REMARK UNBOUND:                 0.124
REMARK SMILES CC1=CCC[C@@H](C)C(=O)C[C@H](C(C)C)C(=O)C1
REMARK SMILES IDX 8 1 9 2 6 3 7 4 5 5 4 6 3 7 2 8 1 9 10 11 11 12 15 13 16 14
REMARK SMILES IDX 17 15 12 17 13 18 14 19
REMARK H PARENT
REMARK Flexibility Score: 70.00
ROOT
ATOM      1  C   UNL     1      -5.969  29.127  46.665  1.00  0.00     0.136 C 
ATOM      2  O   UNL     1      -6.491  28.053  46.413  1.00  0.00    -0.299 OA
ENDROOT
BRANCH   1   3
ATOM      3  C   UNL     1      -4.471  29.263  46.430  1.00  0.00     0.053 C 
ATOM      4  C   UNL     1      -3.881  30.600  46.908  1.00  0.00     0.016 C 
BRANCH   3   5
ATOM      5  C   UNL     1      -4.084  28.905  44.979  1.00  0.00     0.015 C 
BRANCH   5   6
ATOM      6  C   UNL     1      -4.517  29.936  43.918  1.00  0.00     0.028 C 
BRANCH   6   7
ATOM      7  C   UNL     1      -5.686  29.407  43.125  1.00  0.00    -0.028 C 
ATOM      8  C   UNL     1      -6.901  30.001  43.058  1.00  0.00    -0.070 CG0
ATOM      9  C   UNL     1      -8.000  29.284  42.318  1.00  0.00     0.039 C 
ATOM     10  G   UNL     1      -7.181  31.373  43.652  1.00  0.00     0.000 G0
ENDBRANCH   6   7
ENDBRANCH   5   6
ENDBRANCH   3   5
ENDBRANCH   1   3
BRANCH   1  11
ATOM     11  C   UNL     1      -6.837  30.255  47.193  1.00  0.00     0.087 C 
BRANCH  11  12
ATOM     12  C   UNL     1      -6.930  31.516  46.282  1.00  0.00     0.066 C 
BRANCH  12  13
ATOM     13  C   UNL     1      -7.799  31.323  45.042  1.00  0.00     0.140 C 
ATOM     14  O   UNL     1      -9.008  31.181  45.154  1.00  0.00    -0.299 OA
BRANCH  13  15
ATOM     15  C   UNL     1      -7.187  31.388  43.662  1.00  0.00     0.106 CG0
ATOM     16  G   UNL     1      -6.933  30.013  43.063  1.00  0.00     0.000 G0
ENDBRANCH  13  15
ENDBRANCH  12  13
BRANCH  12  17
ATOM     17  C   UNL     1      -7.225  32.840  47.058  1.00  0.00    -0.006 C 
ATOM     18  C   UNL     1      -6.051  33.232  47.971  1.00  0.00     0.008 C 
ATOM     19  C   UNL     1      -7.626  34.029  46.170  1.00  0.00     0.008 C 
ENDBRANCH  12  17
ENDBRANCH  11  12
ENDBRANCH   1  11
TORSDOF 1
ENDMDL
MODEL 4
REMARK VINA RESULT:    -3.022      2.325      3.852
REMARK INTER + INTRA:          -4.488
REMARK INTER:                  -4.448
REMARK INTRA:                  -0.039
REMARK UNBOUND:                 0.124
REMARK SMILES CC1=CCC[C@@H](C)C(=O)C[C@H](C(C)C)C(=O)C1
REMARK SMILES IDX 8 1 9 2 6 3 7 4 5 5 4 6 3 7 2 8 1 9 10 11 11 12 15 13 16 14
REMARK SMILES IDX 17 15 12 17 13 18 14 19
REMARK H PARENT
REMARK Flexibility Score: 70.00
ROOT
ATOM      1  C   UNL     1      -6.834  30.753  46.887  1.00  0.00     0.136 C 
ATOM      2  O   UNL     1      -8.003  30.677  47.233  1.00  0.00    -0.299 OA
ENDROOT
BRANCH   1   3
ATOM      3  C   UNL     1      -6.175  32.124  46.904  1.00  0.00     0.053 C 
ATOM      4  C   UNL     1      -6.057  32.746  48.304  1.00  0.00     0.016 C 
BRANCH   3   5
ATOM      5  C   UNL     1      -6.803  33.075  45.861  1.00  0.00     0.015 C 
BRANCH   5   6
ATOM      6  C   UNL     1      -6.010  33.211  44.546  1.00  0.00     0.028 C 
BRANCH   6   7
ATOM      7  C   UNL     1      -6.675  32.412  43.453  1.00  0.00    -0.028 C 
ATOM      8  C   UNL     1      -6.169  31.277  42.916  1.00  0.00    -0.070 CG0
ATOM      9  C   UNL     1      -6.895  30.661  41.748  1.00  0.00     0.039 C 
ATOM     10  G   UNL     1      -4.936  30.580  43.471  1.00  0.00     0.000 G0
ENDBRANCH   6   7
ENDBRANCH   5   6
ENDBRANCH   3   5
ENDBRANCH   1   3
BRANCH   1  11
ATOM     11  C   UNL     1      -6.114  29.484  46.466  1.00  0.00     0.087 C 
BRANCH  11  12
ATOM     12  C   UNL     1      -6.386  29.008  45.008  1.00  0.00     0.066 C 
BRANCH  12  13
ATOM     13  C   UNL     1      -5.206  29.206  44.061  1.00  0.00     0.140 C 
ATOM     14  O   UNL     1      -4.529  28.250  43.712  1.00  0.00    -0.299 OA
BRANCH  13  15
ATOM     15  C   UNL     1      -4.912  30.570  43.480  1.00  0.00     0.106 CG0
ATOM     16  G   UNL     1      -6.150  31.253  42.920  1.00  0.00     0.000 G0
ENDBRANCH  13  15
ENDBRANCH  12  13
BRANCH  12  17
ATOM     17  C   UNL     1      -7.040  27.593  44.912  1.00  0.00    -0.006 C 
ATOM     18  C   UNL     1      -6.716  26.737  46.148  1.00  0.00     0.008 C 
ATOM     19  C   UNL     1      -8.555  27.601  44.656  1.00  0.00     0.008 C 
ENDBRANCH  12  17
ENDBRANCH  11  12
ENDBRANCH   1  11
TORSDOF 1
ENDMDL
MODEL 5
REMARK VINA RESULT:    -2.998      2.091      2.512
REMARK INTER + INTRA:          -4.451
REMARK INTER:                  -4.155
REMARK INTRA:                  -0.296
REMARK UNBOUND:                 0.124
REMARK SMILES CC1=CCC[C@@H](C)C(=O)C[C@H](C(C)C)C(=O)C1
REMARK SMILES IDX 8 1 9 2 6 3 7 4 5 5 4 6 3 7 2 8 1 9 10 11 11 12 15 13 16 14
REMARK SMILES IDX 17 15 12 17 13 18 14 19
REMARK H PARENT
REMARK Flexibility Score: 70.00
ROOT
ATOM      1  C   UNL     1      -6.618  30.289  43.079  1.00  0.00     0.136 C 
ATOM      2  O   UNL     1      -6.158  29.445  42.326  1.00  0.00    -0.299 OA
ENDROOT
BRANCH   1   3
ATOM      3  C   UNL     1      -6.288  31.749  42.799  1.00  0.00     0.053 C 
ATOM      4  C   UNL     1      -6.816  32.262  41.450  1.00  0.00     0.016 C 
BRANCH   3   5
ATOM      5  C   UNL     1      -4.792  32.052  43.028  1.00  0.00     0.015 C 
BRANCH   5   6
ATOM      6  C   UNL     1      -4.340  32.014  44.501  1.00  0.00     0.028 C 
BRANCH   6   7
ATOM      7  C   UNL     1      -5.102  33.037  45.306  1.00  0.00    -0.028 C 
ATOM      8  C   UNL     1      -5.813  32.759  46.424  1.00  0.00    -0.070 CG0
ATOM      9  C   UNL     1      -6.616  33.872  47.047  1.00  0.00     0.039 C 
ATOM     10  G   UNL     1      -5.793  31.395  47.096  1.00  0.00     0.000 G0
ENDBRANCH   6   7
ENDBRANCH   5   6
ENDBRANCH   3   5
ENDBRANCH   1   3
BRANCH   1  11
ATOM     11  C   UNL     1      -7.486  29.837  44.240  1.00  0.00     0.087 C 
BRANCH  11  12
ATOM     12  C   UNL     1      -6.724  29.483  45.552  1.00  0.00     0.066 C 
BRANCH  12  13
ATOM     13  C   UNL     1      -6.934  30.488  46.682  1.00  0.00     0.140 C 
ATOM     14  O   UNL     1      -8.000  30.528  47.279  1.00  0.00    -0.299 OA
BRANCH  13  15
ATOM     15  C   UNL     1      -5.803  31.384  47.128  1.00  0.00     0.106 CG0
ATOM     16  G   UNL     1      -5.811  32.738  46.434  1.00  0.00     0.000 G0
ENDBRANCH  13  15
ENDBRANCH  12  13
BRANCH  12  17
ATOM     17  C   UNL     1      -6.880  27.994  45.997  1.00  0.00    -0.006 C 
ATOM     18  C   UNL     1      -7.955  27.269  45.170  1.00  0.00     0.008 C 
ATOM     19  C   UNL     1      -5.575  27.183  45.996  1.00  0.00     0.008 C 
ENDBRANCH  12  17
ENDBRANCH  11  12
ENDBRANCH   1  11
TORSDOF 1
ENDMDL
MODEL 6
REMARK VINA RESULT:    -2.961      1.844      3.853
REMARK INTER + INTRA:          -4.395
REMARK INTER:                  -4.364
REMARK INTRA:                  -0.030
REMARK UNBOUND:                 0.124
REMARK SMILES CC1=CCC[C@@H](C)C(=O)C[C@H](C(C)C)C(=O)C1
REMARK SMILES IDX 8 1 9 2 6 3 7 4 5 5 4 6 3 7 2 8 1 9 10 11 11 12 15 13 16 14
REMARK SMILES IDX 17 15 12 17 13 18 14 19
REMARK H PARENT
REMARK Flexibility Score: 70.00
ROOT
ATOM      1  C   UNL     1      -5.641  28.558  46.266  1.00  0.00     0.136 C 
ATOM      2  O   UNL     1      -4.635  27.952  46.604  1.00  0.00    -0.299 OA
ENDROOT
BRANCH   1   3
ATOM      3  C   UNL     1      -5.512  30.047  45.979  1.00  0.00     0.053 C 
ATOM      4  C   UNL     1      -4.109  30.478  45.524  1.00  0.00     0.016 C 
BRANCH   3   5
ATOM      5  C   UNL     1      -6.072  30.904  47.135  1.00  0.00     0.015 C 
BRANCH   5   6
ATOM      6  C   UNL     1      -7.536  31.353  46.960  1.00  0.00     0.028 C 
BRANCH   6   7
ATOM      7  C   UNL     1      -7.814  31.671  45.512  1.00  0.00    -0.028 C 
ATOM      8  C   UNL     1      -8.439  30.838  44.649  1.00  0.00    -0.070 CG0
ATOM      9  C   UNL     1      -8.535  31.256  43.204  1.00  0.00     0.039 C 
ATOM     10  G   UNL     1      -9.086  29.532  45.085  1.00  0.00     0.000 G0
ENDBRANCH   6   7
ENDBRANCH   5   6
ENDBRANCH   3   5
ENDBRANCH   1   3
BRANCH   1  11
ATOM     11  C   UNL     1      -6.948  27.795  46.152  1.00  0.00     0.087 C 
BRANCH  11  12
ATOM     12  C   UNL     1      -7.433  27.502  44.701  1.00  0.00     0.066 C 
BRANCH  12  13
ATOM     13  C   UNL     1      -8.641  28.330  44.272  1.00  0.00     0.140 C 
ATOM     14  O   UNL     1      -9.302  27.996  43.299  1.00  0.00    -0.299 OA
BRANCH  13  15
ATOM     15  C   UNL     1      -9.082  29.521  45.091  1.00  0.00     0.106 CG0
ATOM     16  G   UNL     1      -8.440  30.822  44.635  1.00  0.00     0.000 G0
ENDBRANCH  13  15
ENDBRANCH  12  13
BRANCH  12  17
ATOM     17  C   UNL     1      -6.285  27.467  43.642  1.00  0.00    -0.006 C 
ATOM     18  C   UNL     1      -6.257  26.130  42.884  1.00  0.00     0.008 C 
ATOM     19  C   UNL     1      -6.291  28.640  42.648  1.00  0.00     0.008 C 
ENDBRANCH  12  17
ENDBRANCH  11  12
ENDBRANCH   1  11
TORSDOF 1
ENDMDL
MODEL 7
REMARK VINA RESULT:    -2.933      2.060      4.094
REMARK INTER + INTRA:          -4.352
REMARK INTER:                  -4.226
REMARK INTRA:                  -0.126
REMARK UNBOUND:                 0.124
REMARK SMILES CC1=CCC[C@@H](C)C(=O)C[C@H](C(C)C)C(=O)C1
REMARK SMILES IDX 8 1 9 2 6 3 7 4 5 5 4 6 3 7 2 8 1 9 10 11 11 12 15 13 16 14
REMARK SMILES IDX 17 15 12 17 13 18 14 19
REMARK H PARENT
REMARK Flexibility Score: 70.00
ROOT
ATOM      1  C   UNL     1      -6.702  28.008  45.305  1.00  0.00     0.136 C 
ATOM      2  O   UNL     1      -6.861  27.015  45.999  1.00  0.00    -0.299 OA
ENDROOT
BRANCH   1   3
ATOM      3  C   UNL     1      -5.892  29.159  45.884  1.00  0.00     0.053 C 
ATOM      4  C   UNL     1      -4.427  28.806  46.184  1.00  0.00     0.016 C 
BRANCH   3   5
ATOM      5  C   UNL     1      -6.618  29.830  47.072  1.00  0.00     0.015 C 
BRANCH   5   6
ATOM      6  C   UNL     1      -7.565  30.983  46.686  1.00  0.00     0.028 C 
BRANCH   6   7
ATOM      7  C   UNL     1      -6.840  31.987  45.826  1.00  0.00    -0.028 C 
ATOM      8  C   UNL     1      -7.139  32.248  44.532  1.00  0.00    -0.070 CG0
ATOM      9  C   UNL     1      -6.243  33.194  43.774  1.00  0.00     0.039 C 
ATOM     10  G   UNL     1      -8.360  31.668  43.835  1.00  0.00     0.000 G0
ENDBRANCH   6   7
ENDBRANCH   5   6
ENDBRANCH   3   5
ENDBRANCH   1   3
BRANCH   1  11
ATOM     11  C   UNL     1      -7.315  28.033  43.916  1.00  0.00     0.087 C 
BRANCH  11  12
ATOM     12  C   UNL     1      -8.485  29.042  43.714  1.00  0.00     0.066 C 
BRANCH  12  13
ATOM     13  C   UNL     1      -8.057  30.374  43.105  1.00  0.00     0.140 C 
ATOM     14  O   UNL     1      -7.523  30.404  42.006  1.00  0.00    -0.299 OA
BRANCH  13  15
ATOM     15  C   UNL     1      -8.364  31.672  43.813  1.00  0.00     0.106 CG0
ATOM     16  G   UNL     1      -7.160  32.248  44.542  1.00  0.00     0.000 G0
ENDBRANCH  13  15
ENDBRANCH  12  13
BRANCH  12  17
ATOM     17  C   UNL     1      -9.752  28.420  43.045  1.00  0.00    -0.006 C 
ATOM     18  C   UNL     1      -9.384  27.589  41.804  1.00  0.00     0.008 C 
ATOM     19  C   UNL     1     -10.639  27.595  43.990  1.00  0.00     0.008 C 
ENDBRANCH  12  17
ENDBRANCH  11  12
ENDBRANCH   1  11
TORSDOF 1
ENDMDL
MODEL 8
REMARK VINA RESULT:    -2.911      2.550      4.698
REMARK INTER + INTRA:          -4.318
REMARK INTER:                  -4.290
REMARK INTRA:                  -0.028
REMARK UNBOUND:                 0.124
REMARK SMILES CC1=CCC[C@@H](C)C(=O)C[C@H](C(C)C)C(=O)C1
REMARK SMILES IDX 8 1 9 2 6 3 7 4 5 5 4 6 3 7 2 8 1 9 10 11 11 12 15 13 16 14
REMARK SMILES IDX 17 15 12 17 13 18 14 19
REMARK H PARENT
REMARK Flexibility Score: 70.00
ROOT
ATOM      1  C   UNL     1      -7.595  30.388  46.105  1.00  0.00     0.136 C 
ATOM      2  O   UNL     1      -8.364  30.285  47.049  1.00  0.00    -0.299 OA
ENDROOT
BRANCH   1   3
ATOM      3  C   UNL     1      -7.152  29.111  45.405  1.00  0.00     0.053 C 
ATOM      4  C   UNL     1      -8.311  28.203  44.965  1.00  0.00     0.016 C 
BRANCH   3   5
ATOM      5  C   UNL     1      -6.061  28.368  46.207  1.00  0.00     0.015 C 
BRANCH   5   6
ATOM      6  C   UNL     1      -4.743  28.130  45.442  1.00  0.00     0.028 C 
BRANCH   6   7
ATOM      7  C   UNL     1      -4.889  28.565  44.005  1.00  0.00    -0.028 C 
ATOM      8  C   UNL     1      -4.578  29.798  43.541  1.00  0.00    -0.070 CG0
ATOM      9  C   UNL     1      -4.892  30.113  42.102  1.00  0.00     0.039 C 
ATOM     10  G   UNL     1      -3.886  30.850  44.395  1.00  0.00     0.000 G0
ENDBRANCH   6   7
ENDBRANCH   5   6
ENDBRANCH   3   5
ENDBRANCH   1   3
BRANCH   1  11
ATOM     11  C   UNL     1      -7.133  31.772  45.689  1.00  0.00     0.087 C 
BRANCH  11  12
ATOM     12  C   UNL     1      -5.627  32.083  45.940  1.00  0.00     0.066 C 
BRANCH  12  13
ATOM     13  C   UNL     1      -4.769  32.053  44.679  1.00  0.00     0.140 C 
ATOM     14  O   UNL     1      -4.739  33.020  43.931  1.00  0.00    -0.299 OA
BRANCH  13  15
ATOM     15  C   UNL     1      -3.884  30.865  44.384  1.00  0.00     0.106 CG0
ATOM     16  G   UNL     1      -4.583  29.798  43.556  1.00  0.00     0.000 G0
ENDBRANCH  13  15
ENDBRANCH  12  13
BRANCH  12  17
ATOM     17  C   UNL     1      -5.378  33.334  46.842  1.00  0.00    -0.006 C 
ATOM     18  C   UNL     1      -6.639  33.718  47.635  1.00  0.00     0.008 C 
ATOM     19  C   UNL     1      -4.173  33.214  47.789  1.00  0.00     0.008 C 
ENDBRANCH  12  17
ENDBRANCH  11  12
ENDBRANCH   1  11
TORSDOF 1
ENDMDL
MODEL 9
REMARK VINA RESULT:    -2.748      2.645      4.538
REMARK INTER + INTRA:          -4.070
REMARK INTER:                  -3.981
REMARK INTRA:                  -0.089
REMARK UNBOUND:                 0.124
REMARK SMILES CC1=CCC[C@@H](C)C(=O)C[C@H](C(C)C)C(=O)C1
REMARK SMILES IDX 8 1 9 2 6 3 7 4 5 5 4 6 3 7 2 8 1 9 10 11 11 12 15 13 16 14
REMARK SMILES IDX 17 15 12 17 13 18 14 19
REMARK H PARENT
REMARK Flexibility Score: 70.00
ROOT
ATOM      1  C   UNL     1      -8.252  28.587  44.749  1.00  0.00     0.136 C 
ATOM      2  O   UNL     1      -9.021  28.888  43.850  1.00  0.00    -0.299 OA
ENDROOT
BRANCH   1   3
ATOM      3  C   UNL     1      -7.724  27.159  44.787  1.00  0.00     0.053 C 
ATOM      4  C   UNL     1      -6.862  26.843  46.019  1.00  0.00     0.016 C 
BRANCH   3   5
ATOM      5  C   UNL     1      -7.059  26.759  43.453  1.00  0.00     0.015 C 
BRANCH   5   6
ATOM      6  C   UNL     1      -5.735  27.486  43.143  1.00  0.00     0.028 C 
BRANCH   6   7
ATOM      7  C   UNL     1      -5.944  28.502  42.048  1.00  0.00    -0.028 C 
ATOM      8  C   UNL     1      -5.723  29.831  42.181  1.00  0.00    -0.070 CG0
ATOM      9  C   UNL     1      -6.092  30.729  41.029  1.00  0.00     0.039 C 
ATOM     10  G   UNL     1      -5.078  30.440  43.417  1.00  0.00     0.000 G0
ENDBRANCH   6   7
ENDBRANCH   5   6
ENDBRANCH   3   5
ENDBRANCH   1   3
BRANCH   1  11
ATOM     11  C   UNL     1      -7.869  29.646  45.767  1.00  0.00     0.087 C 
BRANCH  11  12
ATOM     12  C   UNL     1      -6.401  30.162  45.682  1.00  0.00     0.066 C 
BRANCH  12  13
ATOM     13  C   UNL     1      -6.094  30.955  44.414  1.00  0.00     0.140 C 
ATOM     14  O   UNL     1      -6.624  32.040  44.224  1.00  0.00    -0.299 OA
BRANCH  13  15
ATOM     15  C   UNL     1      -5.072  30.448  43.423  1.00  0.00     0.106 CG0
ATOM     16  G   UNL     1      -5.704  29.834  42.184  1.00  0.00     0.000 G0
ENDBRANCH  13  15
ENDBRANCH  12  13
BRANCH  12  17
ATOM     17  C   UNL     1      -5.890  30.844  46.991  1.00  0.00    -0.006 C 
ATOM     18  C   UNL     1      -4.481  31.431  46.809  1.00  0.00     0.008 C 
ATOM     19  C   UNL     1      -6.836  31.908  47.572  1.00  0.00     0.008 C 
ENDBRANCH  12  17
ENDBRANCH  11  12
ENDBRANCH   1  11
TORSDOF 1
ENDMDL
