MODEL 1
REMARK VINA RESULT:    -4.712      0.000      0.000
REMARK INTER + INTRA:          -5.124
REMARK INTER:                  -4.987
REMARK INTRA:                  -0.137
REMARK UNBOUND:                -0.137
REMARK SMILES C=C1CC=C(C(C)C)CC1
REMARK SMILES IDX 5 1 4 2 3 3 2 4 1 5 10 6 9 7 6 8 7 9 8 10
REMARK H PARENT
REMARK Flexibility Score: inf
ROOT
ATOM      1  C   UNL     1       4.761  -2.367  16.887  1.00  0.00    -0.071 C 
ATOM      2  C   UNL     1       5.333  -2.151  15.682  1.00  0.00    -0.023 C 
ATOM      3  C   UNL     1       6.800  -2.414  15.457  1.00  0.00     0.057 C 
ATOM      4  C   UNL     1       7.608  -2.075  16.692  1.00  0.00    -0.073 C 
ATOM      5  C   UNL     1       8.898  -1.725  16.578  1.00  0.00     0.008 C 
ATOM      6  C   UNL     1       6.972  -2.162  18.064  1.00  0.00     0.035 C 
ATOM      7  C   UNL     1       5.624  -2.895  18.013  1.00  0.00     0.035 C 
ENDROOT
BRANCH   1   8
ATOM      8  C   UNL     1       3.291  -2.066  17.131  1.00  0.00     0.008 C 
ATOM      9  C   UNL     1       2.473  -3.357  17.273  1.00  0.00     0.012 C 
ATOM     10  C   UNL     1       2.718  -1.169  16.028  1.00  0.00     0.012 C 
ENDBRANCH   1   8
TORSDOF 1
ENDMDL
MODEL 2
REMARK VINA RESULT:    -4.541      0.778      2.118
REMARK INTER + INTRA:          -4.943
REMARK INTER:                  -4.806
REMARK INTRA:                  -0.138
REMARK UNBOUND:                -0.137
REMARK SMILES C=C1CC=C(C(C)C)CC1
REMARK SMILES IDX 5 1 4 2 3 3 2 4 1 5 10 6 9 7 6 8 7 9 8 10
REMARK H PARENT
REMARK Flexibility Score: inf
ROOT
ATOM      1  C   UNL     1       4.553  -2.643  17.093  1.00  0.00    -0.071 C 
ATOM      2  C   UNL     1       5.396  -2.736  18.145  1.00  0.00    -0.023 C 
ATOM      3  C   UNL     1       6.793  -2.174  18.078  1.00  0.00     0.057 C 
ATOM      4  C   UNL     1       7.378  -2.338  16.691  1.00  0.00    -0.073 C 
ATOM      5  C   UNL     1       8.706  -2.412  16.525  1.00  0.00     0.008 C 
ATOM      6  C   UNL     1       6.465  -2.384  15.482  1.00  0.00     0.035 C 
ATOM      7  C   UNL     1       5.037  -1.946  15.838  1.00  0.00     0.035 C 
ENDROOT
BRANCH   1   8
ATOM      8  C   UNL     1       3.157  -3.242  17.141  1.00  0.00     0.008 C 
ATOM      9  C   UNL     1       2.087  -2.152  17.292  1.00  0.00     0.012 C 
ATOM     10  C   UNL     1       3.040  -4.289  18.255  1.00  0.00     0.012 C 
ENDBRANCH   1   8
TORSDOF 1
ENDMDL
MODEL 3
REMARK VINA RESULT:    -4.455      8.174     10.096
REMARK INTER + INTRA:          -4.852
REMARK INTER:                  -4.670
REMARK INTRA:                  -0.182
REMARK UNBOUND:                -0.137
REMARK SMILES C=C1CC=C(C(C)C)CC1
REMARK SMILES IDX 5 1 4 2 3 3 2 4 1 5 10 6 9 7 6 8 7 9 8 10
REMARK H PARENT
REMARK Flexibility Score: inf
ROOT
ATOM      1  C   UNL     1       9.469   1.331  24.290  1.00  0.00    -0.071 C 
ATOM      2  C   UNL     1       8.321   1.539  24.971  1.00  0.00    -0.023 C 
ATOM      3  C   UNL     1       8.277   1.446  26.475  1.00  0.00     0.057 C 
ATOM      4  C   UNL     1       9.208   0.362  26.978  1.00  0.00    -0.073 C 
ATOM      5  C   UNL     1       8.962  -0.247  28.146  1.00  0.00     0.008 C 
ATOM      6  C   UNL     1      10.440  -0.012  26.179  1.00  0.00     0.035 C 
ATOM      7  C   UNL     1      10.726   1.012  25.072  1.00  0.00     0.035 C 
ENDROOT
BRANCH   1   8
ATOM      8  C   UNL     1       9.511   1.386  22.771  1.00  0.00     0.008 C 
ATOM      9  C   UNL     1       8.198   1.934  22.196  1.00  0.00     0.012 C 
ATOM     10  C   UNL     1       9.844   0.014  22.175  1.00  0.00     0.012 C 
ENDBRANCH   1   8
TORSDOF 1
ENDMDL
MODEL 4
REMARK VINA RESULT:    -4.377      7.335      9.550
REMARK INTER + INTRA:          -4.770
REMARK INTER:                  -4.611
REMARK INTRA:                  -0.159
REMARK UNBOUND:                -0.137
REMARK SMILES C=C1CC=C(C(C)C)CC1
REMARK SMILES IDX 5 1 4 2 3 3 2 4 1 5 10 6 9 7 6 8 7 9 8 10
REMARK H PARENT
REMARK Flexibility Score: inf
ROOT
ATOM      1  C   UNL     1      -0.535  -4.419  11.617  1.00  0.00    -0.071 C 
ATOM      2  C   UNL     1      -1.016  -5.604  12.050  1.00  0.00    -0.023 C 
ATOM      3  C   UNL     1      -1.032  -6.815  11.152  1.00  0.00     0.057 C 
ATOM      4  C   UNL     1      -1.314  -6.422   9.717  1.00  0.00    -0.073 C 
ATOM      5  C   UNL     1      -1.882  -7.300   8.878  1.00  0.00     0.008 C 
ATOM      6  C   UNL     1      -0.922  -5.047   9.215  1.00  0.00     0.035 C 
ATOM      7  C   UNL     1       0.006  -4.330  10.205  1.00  0.00     0.035 C 
ENDROOT
BRANCH   1   8
ATOM      8  C   UNL     1      -0.552  -3.185  12.505  1.00  0.00     0.008 C 
ATOM      9  C   UNL     1       0.097  -3.468  13.866  1.00  0.00     0.012 C 
ATOM     10  C   UNL     1      -1.976  -2.642  12.673  1.00  0.00     0.012 C 
ENDBRANCH   1   8
TORSDOF 1
ENDMDL
MODEL 5
REMARK VINA RESULT:    -4.350      1.207      4.126
REMARK INTER + INTRA:          -4.741
REMARK INTER:                  -4.605
REMARK INTRA:                  -0.136
REMARK UNBOUND:                -0.137
REMARK SMILES C=C1CC=C(C(C)C)CC1
REMARK SMILES IDX 5 1 4 2 3 3 2 4 1 5 10 6 9 7 6 8 7 9 8 10
REMARK H PARENT
REMARK Flexibility Score: inf
ROOT
ATOM      1  C   UNL     1       5.213  -2.327  17.063  1.00  0.00    -0.071 C 
ATOM      2  C   UNL     1       5.357  -2.192  15.727  1.00  0.00    -0.023 C 
ATOM      3  C   UNL     1       4.177  -1.873  14.843  1.00  0.00     0.057 C 
ATOM      4  C   UNL     1       2.920  -2.547  15.352  1.00  0.00    -0.073 C 
ATOM      5  C   UNL     1       1.927  -2.847  14.504  1.00  0.00     0.008 C 
ATOM      6  C   UNL     1       2.766  -2.851  16.829  1.00  0.00     0.035 C 
ATOM      7  C   UNL     1       3.837  -2.136  17.666  1.00  0.00     0.035 C 
ENDROOT
BRANCH   1   8
ATOM      8  C   UNL     1       6.391  -2.686  17.955  1.00  0.00     0.008 C 
ATOM      9  C   UNL     1       6.417  -1.819  19.221  1.00  0.00     0.012 C 
ATOM     10  C   UNL     1       7.715  -2.587  17.190  1.00  0.00     0.012 C 
ENDBRANCH   1   8
TORSDOF 1
ENDMDL
MODEL 6
REMARK VINA RESULT:    -4.331      8.914     10.611
REMARK INTER + INTRA:          -4.721
REMARK INTER:                  -4.581
REMARK INTRA:                  -0.140
REMARK UNBOUND:                -0.137
REMARK SMILES C=C1CC=C(C(C)C)CC1
REMARK SMILES IDX 5 1 4 2 3 3 2 4 1 5 10 6 9 7 6 8 7 9 8 10
REMARK H PARENT
REMARK Flexibility Score: inf
ROOT
ATOM      1  C   UNL     1      10.658   0.399  24.901  1.00  0.00    -0.071 C 
ATOM      2  C   UNL     1      11.580  -0.246  24.153  1.00  0.00    -0.023 C 
ATOM      3  C   UNL     1      12.513  -1.258  24.768  1.00  0.00     0.057 C 
ATOM      4  C   UNL     1      12.904  -0.852  26.173  1.00  0.00    -0.073 C 
ATOM      5  C   UNL     1      14.067  -1.266  26.695  1.00  0.00     0.008 C 
ATOM      6  C   UNL     1      11.965  -0.006  27.009  1.00  0.00     0.035 C 
ATOM      7  C   UNL     1      10.567   0.075  26.377  1.00  0.00     0.035 C 
ENDROOT
BRANCH   1   8
ATOM      8  C   UNL     1       9.740   1.449  24.295  1.00  0.00     0.008 C 
ATOM      9  C   UNL     1       8.417   1.546  25.066  1.00  0.00     0.012 C 
ATOM     10  C   UNL     1       9.493   1.177  22.806  1.00  0.00     0.012 C 
ENDBRANCH   1   8
TORSDOF 1
ENDMDL
MODEL 7
REMARK VINA RESULT:    -4.330      1.050      4.500
REMARK INTER + INTRA:          -4.720
REMARK INTER:                  -4.537
REMARK INTRA:                  -0.183
REMARK UNBOUND:                -0.137
REMARK SMILES C=C1CC=C(C(C)C)CC1
REMARK SMILES IDX 5 1 4 2 3 3 2 4 1 5 10 6 9 7 6 8 7 9 8 10
REMARK H PARENT
REMARK Flexibility Score: inf
ROOT
ATOM      1  C   UNL     1       4.563  -2.502  17.166  1.00  0.00    -0.071 C 
ATOM      2  C   UNL     1       3.411  -2.559  17.871  1.00  0.00    -0.023 C 
ATOM      3  C   UNL     1       2.074  -2.384  17.197  1.00  0.00     0.057 C 
ATOM      4  C   UNL     1       2.162  -1.374  16.072  1.00  0.00    -0.073 C 
ATOM      5  C   UNL     1       1.075  -0.683  15.701  1.00  0.00     0.008 C 
ATOM      6  C   UNL     1       3.471  -1.166  15.338  1.00  0.00     0.035 C 
ATOM      7  C   UNL     1       4.485  -2.270  15.672  1.00  0.00     0.035 C 
ENDROOT
BRANCH   1   8
ATOM      8  C   UNL     1       5.915  -2.639  17.846  1.00  0.00     0.008 C 
ATOM      9  C   UNL     1       5.998  -1.768  19.106  1.00  0.00     0.012 C 
ATOM     10  C   UNL     1       7.058  -2.318  16.876  1.00  0.00     0.012 C 
ENDBRANCH   1   8
TORSDOF 1
ENDMDL
MODEL 8
REMARK VINA RESULT:    -4.282      1.537      4.866
REMARK INTER + INTRA:          -4.669
REMARK INTER:                  -4.525
REMARK INTRA:                  -0.144
REMARK UNBOUND:                -0.137
REMARK SMILES C=C1CC=C(C(C)C)CC1
REMARK SMILES IDX 5 1 4 2 3 3 2 4 1 5 10 6 9 7 6 8 7 9 8 10
REMARK H PARENT
REMARK Flexibility Score: inf
ROOT
ATOM      1  C   UNL     1       3.754  -2.496  17.642  1.00  0.00    -0.071 C 
ATOM      2  C   UNL     1       2.529  -2.623  18.197  1.00  0.00    -0.023 C 
ATOM      3  C   UNL     1       1.278  -2.466  17.370  1.00  0.00     0.057 C 
ATOM      4  C   UNL     1       1.462  -1.407  16.303  1.00  0.00    -0.073 C 
ATOM      5  C   UNL     1       0.402  -0.740  15.827  1.00  0.00     0.008 C 
ATOM      6  C   UNL     1       2.842  -1.123  15.745  1.00  0.00     0.035 C 
ATOM      7  C   UNL     1       3.851  -2.204  16.159  1.00  0.00     0.035 C 
ENDROOT
BRANCH   1   8
ATOM      8  C   UNL     1       5.019  -2.615  18.478  1.00  0.00     0.008 C 
ATOM      9  C   UNL     1       6.277  -2.478  17.610  1.00  0.00     0.012 C 
ATOM     10  C   UNL     1       5.036  -3.925  19.273  1.00  0.00     0.012 C 
ENDBRANCH   1   8
TORSDOF 1
ENDMDL
MODEL 9
REMARK VINA RESULT:    -4.265      2.113      3.635
REMARK INTER + INTRA:          -4.652
REMARK INTER:                  -4.498
REMARK INTRA:                  -0.154
REMARK UNBOUND:                -0.137
REMARK SMILES C=C1CC=C(C(C)C)CC1
REMARK SMILES IDX 5 1 4 2 3 3 2 4 1 5 10 6 9 7 6 8 7 9 8 10
REMARK H PARENT
REMARK Flexibility Score: inf
ROOT
ATOM      1  C   UNL     1       3.426  -2.650  17.020  1.00  0.00    -0.071 C 
ATOM      2  C   UNL     1       2.592  -3.606  17.485  1.00  0.00    -0.023 C 
ATOM      3  C   UNL     1       2.780  -4.207  18.854  1.00  0.00     0.057 C 
ATOM      4  C   UNL     1       4.250  -4.327  19.197  1.00  0.00    -0.073 C 
ATOM      5  C   UNL     1       4.666  -5.264  20.061  1.00  0.00     0.008 C 
ATOM      6  C   UNL     1       5.253  -3.366  18.590  1.00  0.00     0.035 C 
ATOM      7  C   UNL     1       4.555  -2.178  17.913  1.00  0.00     0.035 C 
ENDROOT
BRANCH   1   8
ATOM      8  C   UNL     1       3.265  -2.068  15.625  1.00  0.00     0.008 C 
ATOM      9  C   UNL     1       4.626  -1.859  14.947  1.00  0.00     0.012 C 
ATOM     10  C   UNL     1       2.459  -0.764  15.658  1.00  0.00     0.012 C 
ENDBRANCH   1   8
TORSDOF 1
ENDMDL
