MODEL 1
REMARK VINA RESULT:    -3.649      0.000      0.000
REMARK INTER + INTRA:          -4.608
REMARK INTER:                  -4.502
REMARK INTRA:                  -0.106
REMARK UNBOUND:                -0.106
REMARK SMILES CCCCCC(=O)[O-]
REMARK SMILES IDX 4 1 5 2 6 3 7 4 8 5 3 6 2 7 1 8
REMARK H PARENT
REMARK Flexibility Score: inf
ROOT
ATOM      1  C   UNL     1      -1.612  -2.074   0.658  1.00  0.00     0.006 C 
ENDROOT
BRANCH   1   2
ATOM      2  C   UNL     1      -2.434  -3.023   1.541  1.00  0.00     0.053 C 
BRANCH   2   3
ATOM      3  C   UNL     1      -3.823  -2.509   1.763  1.00  0.00     0.041 C 
ATOM      4  O   UNL     1      -4.005  -1.371   2.270  1.00  0.00    -0.550 OA
ATOM      5  O   UNL     1      -4.917  -3.274   1.380  1.00  0.00    -0.550 OA
ENDBRANCH   2   3
ENDBRANCH   1   2
BRANCH   1   6
ATOM      6  C   UNL     1      -0.140  -2.500   0.560  1.00  0.00     0.000 C 
BRANCH   6   7
ATOM      7  C   UNL     1       0.090  -3.845   1.260  1.00  0.00    -0.003 C 
ATOM      8  C   UNL     1       1.572  -4.078   1.535  1.00  0.00     0.004 C 
ENDBRANCH   6   7
ENDBRANCH   1   6
TORSDOF 4
ENDMDL
MODEL 2
REMARK VINA RESULT:    -3.577      1.244      1.805
REMARK INTER + INTRA:          -4.519
REMARK INTER:                  -4.413
REMARK INTRA:                  -0.106
REMARK UNBOUND:                -0.106
REMARK SMILES CCCCCC(=O)[O-]
REMARK SMILES IDX 4 1 5 2 6 3 7 4 8 5 3 6 2 7 1 8
REMARK H PARENT
REMARK Flexibility Score: inf
ROOT
ATOM      1  C   UNL     1      -1.699  -2.982   1.540  1.00  0.00     0.006 C 
ENDROOT
BRANCH   1   2
ATOM      2  C   UNL     1      -2.743  -1.905   1.211  1.00  0.00     0.053 C 
BRANCH   2   3
ATOM      3  C   UNL     1      -4.049  -2.174   1.892  1.00  0.00     0.041 C 
ATOM      4  O   UNL     1      -4.445  -1.427   2.824  1.00  0.00    -0.550 OA
ATOM      5  O   UNL     1      -4.845  -3.233   1.475  1.00  0.00    -0.550 OA
ENDBRANCH   2   3
ENDBRANCH   1   2
BRANCH   1   6
ATOM      6  C   UNL     1      -0.425  -2.834   0.695  1.00  0.00     0.000 C 
BRANCH   6   7
ATOM      7  C   UNL     1      -0.767  -2.697  -0.793  1.00  0.00    -0.003 C 
ATOM      8  C   UNL     1      -1.102  -4.051  -1.410  1.00  0.00     0.004 C 
ENDBRANCH   6   7
ENDBRANCH   1   6
TORSDOF 4
ENDMDL
MODEL 3
REMARK VINA RESULT:    -3.556      1.177      2.124
REMARK INTER + INTRA:          -4.494
REMARK INTER:                  -4.330
REMARK INTRA:                  -0.164
REMARK UNBOUND:                -0.106
REMARK SMILES CCCCCC(=O)[O-]
REMARK SMILES IDX 4 1 5 2 6 3 7 4 8 5 3 6 2 7 1 8
REMARK H PARENT
REMARK Flexibility Score: inf
ROOT
ATOM      1  C   UNL     1      -2.205  -3.976   1.087  1.00  0.00     0.006 C 
ENDROOT
BRANCH   1   2
ATOM      2  C   UNL     1      -3.282  -3.814   2.168  1.00  0.00     0.053 C 
BRANCH   2   3
ATOM      3  C   UNL     1      -4.240  -2.711   1.836  1.00  0.00     0.041 C 
ATOM      4  O   UNL     1      -5.328  -2.968   1.257  1.00  0.00    -0.550 OA
ATOM      5  O   UNL     1      -3.943  -1.403   2.194  1.00  0.00    -0.550 OA
ENDBRANCH   2   3
ENDBRANCH   1   2
BRANCH   1   6
ATOM      6  C   UNL     1      -0.846  -3.418   1.532  1.00  0.00     0.000 C 
BRANCH   6   7
ATOM      7  C   UNL     1      -0.275  -2.459   0.480  1.00  0.00    -0.003 C 
ATOM      8  C   UNL     1      -1.017  -2.592  -0.847  1.00  0.00     0.004 C 
ENDBRANCH   6   7
ENDBRANCH   1   6
TORSDOF 4
ENDMDL
MODEL 4
REMARK VINA RESULT:    -3.326      2.825      4.153
REMARK INTER + INTRA:          -4.210
REMARK INTER:                  -4.086
REMARK INTRA:                  -0.124
REMARK UNBOUND:                -0.106
REMARK SMILES CCCCCC(=O)[O-]
REMARK SMILES IDX 4 1 5 2 6 3 7 4 8 5 3 6 2 7 1 8
REMARK H PARENT
REMARK Flexibility Score: inf
ROOT
ATOM      1  C   UNL     1      -1.887  -2.260   1.148  1.00  0.00     0.006 C 
ENDROOT
BRANCH   1   2
ATOM      2  C   UNL     1      -0.629  -2.577   0.328  1.00  0.00     0.053 C 
BRANCH   2   3
ATOM      3  C   UNL     1      -0.972  -3.079  -1.041  1.00  0.00     0.041 C 
ATOM      4  O   UNL     1      -1.237  -2.268  -1.966  1.00  0.00    -0.550 OA
ATOM      5  O   UNL     1      -0.968  -4.443  -1.301  1.00  0.00    -0.550 OA
ENDBRANCH   2   3
ENDBRANCH   1   2
BRANCH   1   6
ATOM      6  C   UNL     1      -2.489  -3.515   1.797  1.00  0.00     0.000 C 
BRANCH   6   7
ATOM      7  C   UNL     1      -3.988  -3.330   2.062  1.00  0.00    -0.003 C 
ATOM      8  C   UNL     1      -4.315  -1.877   2.394  1.00  0.00     0.004 C 
ENDBRANCH   6   7
ENDBRANCH   1   6
TORSDOF 4
ENDMDL
MODEL 5
REMARK VINA RESULT:    -3.299      3.474      4.725
REMARK INTER + INTRA:          -4.177
REMARK INTER:                  -4.077
REMARK INTRA:                  -0.100
REMARK UNBOUND:                -0.106
REMARK SMILES CCCCCC(=O)[O-]
REMARK SMILES IDX 4 1 5 2 6 3 7 4 8 5 3 6 2 7 1 8
REMARK H PARENT
REMARK Flexibility Score: inf
ROOT
ATOM      1  C   UNL     1      -0.102  -2.633   0.691  1.00  0.00     0.006 C 
ENDROOT
BRANCH   1   2
ATOM      2  C   UNL     1      -0.007  -3.971   1.436  1.00  0.00     0.053 C 
BRANCH   2   3
ATOM      3  C   UNL     1       1.392  -4.506   1.440  1.00  0.00     0.041 C 
ATOM      4  O   UNL     1       2.360  -3.748   1.712  1.00  0.00    -0.550 OA
ATOM      5  O   UNL     1       1.623  -5.849   1.174  1.00  0.00    -0.550 OA
ENDBRANCH   2   3
ENDBRANCH   1   2
BRANCH   1   6
ATOM      6  C   UNL     1      -1.554  -2.165   0.517  1.00  0.00     0.000 C 
BRANCH   6   7
ATOM      7  C   UNL     1      -2.479  -2.864   1.520  1.00  0.00    -0.003 C 
ATOM      8  C   UNL     1      -3.712  -2.015   1.818  1.00  0.00     0.004 C 
ENDBRANCH   6   7
ENDBRANCH   1   6
TORSDOF 4
ENDMDL
MODEL 6
REMARK VINA RESULT:    -3.188      1.541      2.095
REMARK INTER + INTRA:          -4.039
REMARK INTER:                  -3.956
REMARK INTRA:                  -0.083
REMARK UNBOUND:                -0.106
REMARK SMILES CCCCCC(=O)[O-]
REMARK SMILES IDX 4 1 5 2 6 3 7 4 8 5 3 6 2 7 1 8
REMARK H PARENT
REMARK Flexibility Score: inf
ROOT
ATOM      1  C   UNL     1      -2.536  -3.276   1.504  1.00  0.00     0.006 C 
ENDROOT
BRANCH   1   2
ATOM      2  C   UNL     1      -4.031  -2.956   1.631  1.00  0.00     0.053 C 
BRANCH   2   3
ATOM      3  C   UNL     1      -4.875  -4.184   1.482  1.00  0.00     0.041 C 
ATOM      4  O   UNL     1      -4.467  -5.292   1.918  1.00  0.00    -0.550 OA
ATOM      5  O   UNL     1      -6.128  -4.098   0.888  1.00  0.00    -0.550 OA
ENDBRANCH   2   3
ENDBRANCH   1   2
BRANCH   1   6
ATOM      6  C   UNL     1      -1.761  -2.159   0.789  1.00  0.00     0.000 C 
BRANCH   6   7
ATOM      7  C   UNL     1      -0.329  -2.604   0.468  1.00  0.00    -0.003 C 
ATOM      8  C   UNL     1       0.094  -3.776   1.347  1.00  0.00     0.004 C 
ENDBRANCH   6   7
ENDBRANCH   1   6
TORSDOF 4
ENDMDL
MODEL 7
REMARK VINA RESULT:    -3.169      2.090      2.620
REMARK INTER + INTRA:          -4.017
REMARK INTER:                  -3.864
REMARK INTRA:                  -0.153
REMARK UNBOUND:                -0.106
REMARK SMILES CCCCCC(=O)[O-]
REMARK SMILES IDX 4 1 5 2 6 3 7 4 8 5 3 6 2 7 1 8
REMARK H PARENT
REMARK Flexibility Score: inf
ROOT
ATOM      1  C   UNL     1      -2.537  -2.735   1.610  1.00  0.00     0.006 C 
ENDROOT
BRANCH   1   2
ATOM      2  C   UNL     1      -3.584  -3.852   1.507  1.00  0.00     0.053 C 
BRANCH   2   3
ATOM      3  C   UNL     1      -3.455  -4.839   2.626  1.00  0.00     0.041 C 
ATOM      4  O   UNL     1      -3.419  -4.442   3.820  1.00  0.00    -0.550 OA
ATOM      5  O   UNL     1      -3.405  -6.199   2.351  1.00  0.00    -0.550 OA
ENDBRANCH   2   3
ENDBRANCH   1   2
BRANCH   1   6
ATOM      6  C   UNL     1      -1.105  -3.263   1.438  1.00  0.00     0.000 C 
BRANCH   6   7
ATOM      7  C   UNL     1      -0.356  -2.472   0.359  1.00  0.00    -0.003 C 
ATOM      8  C   UNL     1      -1.017  -2.639  -1.006  1.00  0.00     0.004 C 
ENDBRANCH   6   7
ENDBRANCH   1   6
TORSDOF 4
ENDMDL
MODEL 8
REMARK VINA RESULT:    -3.161      7.047      7.477
REMARK INTER + INTRA:          -4.007
REMARK INTER:                  -3.919
REMARK INTRA:                  -0.088
REMARK UNBOUND:                -0.106
REMARK SMILES CCCCCC(=O)[O-]
REMARK SMILES IDX 4 1 5 2 6 3 7 4 8 5 3 6 2 7 1 8
REMARK H PARENT
REMARK Flexibility Score: inf
ROOT
ATOM      1  C   UNL     1       2.014   1.323   6.497  1.00  0.00     0.006 C 
ENDROOT
BRANCH   1   2
ATOM      2  C   UNL     1       0.572   1.624   6.928  1.00  0.00     0.053 C 
BRANCH   2   3
ATOM      3  C   UNL     1      -0.073   2.637   6.033  1.00  0.00     0.041 C 
ATOM      4  O   UNL     1       0.610   3.566   5.529  1.00  0.00    -0.550 OA
ATOM      5  O   UNL     1      -1.425   2.536   5.731  1.00  0.00    -0.550 OA
ENDBRANCH   2   3
ENDBRANCH   1   2
BRANCH   1   6
ATOM      6  C   UNL     1       2.591   0.095   7.216  1.00  0.00     0.000 C 
BRANCH   6   7
ATOM      7  C   UNL     1       3.848  -0.418   6.503  1.00  0.00    -0.003 C 
ATOM      8  C   UNL     1       3.987   0.203   5.116  1.00  0.00     0.004 C 
ENDBRANCH   6   7
ENDBRANCH   1   6
TORSDOF 4
ENDMDL
MODEL 9
REMARK VINA RESULT:    -3.045      3.074      4.345
REMARK INTER + INTRA:          -3.863
REMARK INTER:                  -3.745
REMARK INTRA:                  -0.118
REMARK UNBOUND:                -0.106
REMARK SMILES CCCCCC(=O)[O-]
REMARK SMILES IDX 4 1 5 2 6 3 7 4 8 5 3 6 2 7 1 8
REMARK H PARENT
REMARK Flexibility Score: inf
ROOT
ATOM      1  C   UNL     1      -1.017  -3.179   1.500  1.00  0.00     0.006 C 
ENDROOT
BRANCH   1   2
ATOM      2  C   UNL     1      -1.511  -4.621   1.675  1.00  0.00     0.053 C 
BRANCH   2   3
ATOM      3  C   UNL     1      -0.658  -5.386   2.639  1.00  0.00     0.041 C 
ATOM      4  O   UNL     1      -1.175  -5.934   3.647  1.00  0.00    -0.550 OA
ATOM      5  O   UNL     1       0.705  -5.519   2.407  1.00  0.00    -0.550 OA
ENDBRANCH   2   3
ENDBRANCH   1   2
BRANCH   1   6
ATOM      6  C   UNL     1      -2.135  -2.232   1.040  1.00  0.00     0.000 C 
BRANCH   6   7
ATOM      7  C   UNL     1      -3.511  -2.765   1.457  1.00  0.00    -0.003 C 
ATOM      8  C   UNL     1      -4.210  -1.801   2.410  1.00  0.00     0.004 C 
ENDBRANCH   6   7
ENDBRANCH   1   6
TORSDOF 4
ENDMDL
