MODEL 1
REMARK VINA RESULT:    -4.100      0.000      0.000
REMARK INTER + INTRA:          -6.016
REMARK INTER:                  -5.538
REMARK INTRA:                  -0.478
REMARK UNBOUND:                -0.478
REMARK SMILES CCCCCCCC(=O)[O-]
REMARK SMILES IDX 5 1 6 2 7 3 8 4 9 5 10 6 4 7 3 8 2 9 1 10
REMARK H PARENT
REMARK Flexibility Score: inf
ROOT
ATOM      1  C   UNL     1     103.714  23.336 199.589  1.00  0.00     0.000 C 
ENDROOT
BRANCH   1   2
ATOM      2  C   UNL     1     105.224  23.251 199.841  1.00  0.00     0.006 C 
BRANCH   2   3
ATOM      3  C   UNL     1     105.911  22.390 198.776  1.00  0.00     0.053 C 
BRANCH   3   4
ATOM      4  C   UNL     1     106.984  21.550 199.396  1.00  0.00     0.041 C 
ATOM      5  O   UNL     1     107.021  20.310 199.179  1.00  0.00    -0.550 OA
ATOM      6  O   UNL     1     107.971  22.143 200.173  1.00  0.00    -0.550 OA
ENDBRANCH   3   4
ENDBRANCH   2   3
ENDBRANCH   1   2
BRANCH   1   7
ATOM      7  C   UNL     1     103.406  23.326 198.084  1.00  0.00     0.000 C 
BRANCH   7   8
ATOM      8  C   UNL     1     103.113  24.730 197.523  1.00  0.00    -0.000 C 
BRANCH   8   9
ATOM      9  C   UNL     1     104.170  25.268 196.542  1.00  0.00    -0.003 C 
ATOM     10  C   UNL     1     105.345  25.948 197.243  1.00  0.00     0.004 C 
ENDBRANCH   8   9
ENDBRANCH   7   8
ENDBRANCH   1   7
TORSDOF 6
ENDMDL
MODEL 2
REMARK VINA RESULT:    -4.087      4.051      5.419
REMARK INTER + INTRA:          -5.998
REMARK INTER:                  -5.564
REMARK INTRA:                  -0.434
REMARK UNBOUND:                -0.478
REMARK SMILES CCCCCCCC(=O)[O-]
REMARK SMILES IDX 5 1 6 2 7 3 8 4 9 5 10 6 4 7 3 8 2 9 1 10
REMARK H PARENT
REMARK Flexibility Score: inf
ROOT
ATOM      1  C   UNL     1     104.855  24.439 194.803  1.00  0.00     0.000 C 
ENDROOT
BRANCH   1   2
ATOM      2  C   UNL     1     104.783  22.943 194.473  1.00  0.00     0.006 C 
BRANCH   2   3
ATOM      3  C   UNL     1     103.704  22.664 193.423  1.00  0.00     0.053 C 
BRANCH   3   4
ATOM      4  C   UNL     1     102.407  22.318 194.084  1.00  0.00     0.041 C 
ATOM      5  O   UNL     1     102.400  21.815 195.239  1.00  0.00    -0.550 OA
ATOM      6  O   UNL     1     101.205  22.594 193.446  1.00  0.00    -0.550 OA
ENDBRANCH   3   4
ENDBRANCH   2   3
ENDBRANCH   1   2
BRANCH   1   7
ATOM      7  C   UNL     1     105.546  24.671 196.155  1.00  0.00     0.000 C 
BRANCH   7   8
ATOM      8  C   UNL     1     104.699  25.518 197.124  1.00  0.00    -0.000 C 
BRANCH   8   9
ATOM      9  C   UNL     1     103.183  25.266 197.047  1.00  0.00    -0.003 C 
ATOM     10  C   UNL     1     102.722  24.113 197.939  1.00  0.00     0.004 C 
ENDBRANCH   8   9
ENDBRANCH   7   8
ENDBRANCH   1   7
TORSDOF 6
ENDMDL
MODEL 3
REMARK VINA RESULT:    -4.079      4.122      5.173
REMARK INTER + INTRA:          -5.987
REMARK INTER:                  -5.694
REMARK INTRA:                  -0.293
REMARK UNBOUND:                -0.478
REMARK SMILES CCCCCCCC(=O)[O-]
REMARK SMILES IDX 5 1 6 2 7 3 8 4 9 5 10 6 4 7 3 8 2 9 1 10
REMARK H PARENT
REMARK Flexibility Score: inf
ROOT
ATOM      1  C   UNL     1     105.332  23.801 195.131  1.00  0.00     0.000 C 
ENDROOT
BRANCH   1   2
ATOM      2  C   UNL     1     105.337  25.306 195.428  1.00  0.00     0.006 C 
BRANCH   2   3
ATOM      3  C   UNL     1     105.217  25.569 196.933  1.00  0.00     0.053 C 
BRANCH   3   4
ATOM      4  C   UNL     1     103.979  24.929 197.477  1.00  0.00     0.041 C 
ATOM      5  O   UNL     1     102.843  25.353 197.134  1.00  0.00    -0.550 OA
ATOM      6  O   UNL     1     104.077  23.835 198.327  1.00  0.00    -0.550 OA
ENDBRANCH   3   4
ENDBRANCH   2   3
ENDBRANCH   1   2
BRANCH   1   7
ATOM      7  C   UNL     1     104.340  23.467 194.007  1.00  0.00     0.000 C 
BRANCH   7   8
ATOM      8  C   UNL     1     104.598  22.089 193.370  1.00  0.00    -0.000 C 
BRANCH   8   9
ATOM      9  C   UNL     1     105.857  21.365 193.881  1.00  0.00    -0.003 C 
ATOM     10  C   UNL     1     106.897  21.129 192.787  1.00  0.00     0.004 C 
ENDBRANCH   8   9
ENDBRANCH   7   8
ENDBRANCH   1   7
TORSDOF 6
ENDMDL
MODEL 4
REMARK VINA RESULT:    -4.061      2.114      3.140
REMARK INTER + INTRA:          -5.964
REMARK INTER:                  -5.782
REMARK INTRA:                  -0.182
REMARK UNBOUND:                -0.478
REMARK SMILES CCCCCCCC(=O)[O-]
REMARK SMILES IDX 5 1 6 2 7 3 8 4 9 5 10 6 4 7 3 8 2 9 1 10
REMARK H PARENT
REMARK Flexibility Score: inf
ROOT
ATOM      1  C   UNL     1     102.968  23.138 200.807  1.00  0.00     0.000 C 
ENDROOT
BRANCH   1   2
ATOM      2  C   UNL     1     103.912  23.225 199.602  1.00  0.00     0.006 C 
BRANCH   2   3
ATOM      3  C   UNL     1     105.376  23.250 200.052  1.00  0.00     0.053 C 
BRANCH   3   4
ATOM      4  C   UNL     1     106.172  22.233 199.297  1.00  0.00     0.041 C 
ATOM      5  O   UNL     1     105.738  21.767 198.210  1.00  0.00    -0.550 OA
ATOM      6  O   UNL     1     107.417  21.834 199.768  1.00  0.00    -0.550 OA
ENDBRANCH   3   4
ENDBRANCH   2   3
ENDBRANCH   1   2
BRANCH   1   7
ATOM      7  C   UNL     1     101.577  23.689 200.458  1.00  0.00     0.000 C 
BRANCH   7   8
ATOM      8  C   UNL     1     101.359  23.847 198.942  1.00  0.00    -0.000 C 
BRANCH   8   9
ATOM      9  C   UNL     1     100.675  22.650 198.258  1.00  0.00    -0.003 C 
ATOM     10  C   UNL     1      99.164  22.827 198.113  1.00  0.00     0.004 C 
ENDBRANCH   8   9
ENDBRANCH   7   8
ENDBRANCH   1   7
TORSDOF 6
ENDMDL
MODEL 5
REMARK VINA RESULT:    -4.060      2.523      3.448
REMARK INTER + INTRA:          -5.963
REMARK INTER:                  -5.600
REMARK INTRA:                  -0.362
REMARK UNBOUND:                -0.478
REMARK SMILES CCCCCCCC(=O)[O-]
REMARK SMILES IDX 5 1 6 2 7 3 8 4 9 5 10 6 4 7 3 8 2 9 1 10
REMARK H PARENT
REMARK Flexibility Score: inf
ROOT
ATOM      1  C   UNL     1     104.954  25.226 197.398  1.00  0.00     0.000 C 
ENDROOT
BRANCH   1   2
ATOM      2  C   UNL     1     103.744  24.331 197.693  1.00  0.00     0.006 C 
BRANCH   2   3
ATOM      3  C   UNL     1     104.178  23.022 198.360  1.00  0.00     0.053 C 
BRANCH   3   4
ATOM      4  C   UNL     1     104.454  23.242 199.814  1.00  0.00     0.041 C 
ATOM      5  O   UNL     1     103.507  23.253 200.644  1.00  0.00    -0.550 OA
ATOM      6  O   UNL     1     105.762  23.389 200.259  1.00  0.00    -0.550 OA
ENDBRANCH   3   4
ENDBRANCH   2   3
ENDBRANCH   1   2
BRANCH   1   7
ATOM      7  C   UNL     1     105.740  24.705 196.186  1.00  0.00     0.000 C 
BRANCH   7   8
ATOM      8  C   UNL     1     104.848  24.451 194.957  1.00  0.00    -0.000 C 
BRANCH   8   9
ATOM      9  C   UNL     1     104.849  22.998 194.447  1.00  0.00    -0.003 C 
ATOM     10  C   UNL     1     103.829  22.754 193.335  1.00  0.00     0.004 C 
ENDBRANCH   8   9
ENDBRANCH   7   8
ENDBRANCH   1   7
TORSDOF 6
ENDMDL
MODEL 6
REMARK VINA RESULT:    -4.050      4.484      5.350
REMARK INTER + INTRA:          -5.949
REMARK INTER:                  -5.632
REMARK INTRA:                  -0.316
REMARK UNBOUND:                -0.478
REMARK SMILES CCCCCCCC(=O)[O-]
REMARK SMILES IDX 5 1 6 2 7 3 8 4 9 5 10 6 4 7 3 8 2 9 1 10
REMARK H PARENT
REMARK Flexibility Score: inf
ROOT
ATOM      1  C   UNL     1     103.511  22.863 193.217  1.00  0.00     0.000 C 
ENDROOT
BRANCH   1   2
ATOM      2  C   UNL     1     104.667  22.067 193.836  1.00  0.00     0.006 C 
BRANCH   2   3
ATOM      3  C   UNL     1     105.522  21.406 192.751  1.00  0.00     0.053 C 
BRANCH   3   4
ATOM      4  C   UNL     1     106.851  21.000 193.307  1.00  0.00     0.041 C 
ATOM      5  O   UNL     1     107.867  20.972 192.564  1.00  0.00    -0.550 OA
ATOM      6  O   UNL     1     106.977  20.699 194.658  1.00  0.00    -0.550 OA
ENDBRANCH   3   4
ENDBRANCH   2   3
ENDBRANCH   1   2
BRANCH   1   7
ATOM      7  C   UNL     1     102.169  22.466 193.849  1.00  0.00     0.000 C 
BRANCH   7   8
ATOM      8  C   UNL     1     102.301  22.058 195.328  1.00  0.00    -0.000 C 
BRANCH   8   9
ATOM      9  C   UNL     1     101.700  23.059 196.331  1.00  0.00    -0.003 C 
ATOM     10  C   UNL     1     102.706  24.111 196.801  1.00  0.00     0.004 C 
ENDBRANCH   8   9
ENDBRANCH   7   8
ENDBRANCH   1   7
TORSDOF 6
ENDMDL
MODEL 7
REMARK VINA RESULT:    -4.043      3.731      4.949
REMARK INTER + INTRA:          -5.939
REMARK INTER:                  -5.455
REMARK INTRA:                  -0.483
REMARK UNBOUND:                -0.478
REMARK SMILES CCCCCCCC(=O)[O-]
REMARK SMILES IDX 5 1 6 2 7 3 8 4 9 5 10 6 4 7 3 8 2 9 1 10
REMARK H PARENT
REMARK Flexibility Score: inf
ROOT
ATOM      1  C   UNL     1     105.399  25.344 196.216  1.00  0.00     0.000 C 
ENDROOT
BRANCH   1   2
ATOM      2  C   UNL     1     104.507  24.922 197.390  1.00  0.00     0.006 C 
BRANCH   2   3
ATOM      3  C   UNL     1     103.032  25.198 197.086  1.00  0.00     0.053 C 
BRANCH   3   4
ATOM      4  C   UNL     1     102.192  24.016 197.453  1.00  0.00     0.041 C 
ATOM      5  O   UNL     1     101.647  23.954 198.587  1.00  0.00    -0.550 OA
ATOM      6  O   UNL     1     101.972  23.004 196.527  1.00  0.00    -0.550 OA
ENDBRANCH   3   4
ENDBRANCH   2   3
ENDBRANCH   1   2
BRANCH   1   7
ATOM      7  C   UNL     1     105.026  24.577 194.939  1.00  0.00     0.000 C 
BRANCH   7   8
ATOM      8  C   UNL     1     105.398  23.084 195.005  1.00  0.00    -0.000 C 
BRANCH   8   9
ATOM      9  C   UNL     1     104.677  22.191 193.979  1.00  0.00    -0.003 C 
ATOM     10  C   UNL     1     103.517  22.899 193.281  1.00  0.00     0.004 C 
ENDBRANCH   8   9
ENDBRANCH   7   8
ENDBRANCH   1   7
TORSDOF 6
ENDMDL
MODEL 8
REMARK VINA RESULT:    -3.984      2.790      4.094
REMARK INTER + INTRA:          -5.859
REMARK INTER:                  -5.367
REMARK INTRA:                  -0.492
REMARK UNBOUND:                -0.478
REMARK SMILES CCCCCCCC(=O)[O-]
REMARK SMILES IDX 5 1 6 2 7 3 8 4 9 5 10 6 4 7 3 8 2 9 1 10
REMARK H PARENT
REMARK Flexibility Score: inf
ROOT
ATOM      1  C   UNL     1     102.011  24.058 196.931  1.00  0.00     0.000 C 
ENDROOT
BRANCH   1   2
ATOM      2  C   UNL     1     103.124  25.095 197.129  1.00  0.00     0.006 C 
BRANCH   2   3
ATOM      3  C   UNL     1     104.387  24.443 197.700  1.00  0.00     0.053 C 
BRANCH   3   4
ATOM      4  C   UNL     1     105.352  24.125 196.602  1.00  0.00     0.041 C 
ATOM      5  O   UNL     1     106.155  23.161 196.723  1.00  0.00    -0.550 OA
ATOM      6  O   UNL     1     105.334  24.862 195.424  1.00  0.00    -0.550 OA
ENDBRANCH   3   4
ENDBRANCH   2   3
ENDBRANCH   1   2
BRANCH   1   7
ATOM      7  C   UNL     1     101.941  23.091 198.122  1.00  0.00     0.000 C 
BRANCH   7   8
ATOM      8  C   UNL     1     100.839  23.462 199.131  1.00  0.00    -0.000 C 
BRANCH   8   9
ATOM      9  C   UNL     1     101.343  23.800 200.546  1.00  0.00    -0.003 C 
ATOM     10  C   UNL     1     102.709  23.187 200.856  1.00  0.00     0.004 C 
ENDBRANCH   8   9
ENDBRANCH   7   8
ENDBRANCH   1   7
TORSDOF 6
ENDMDL
MODEL 9
REMARK VINA RESULT:    -3.973      2.943      4.362
REMARK INTER + INTRA:          -5.844
REMARK INTER:                  -5.378
REMARK INTRA:                  -0.466
REMARK UNBOUND:                -0.478
REMARK SMILES CCCCCCCC(=O)[O-]
REMARK SMILES IDX 5 1 6 2 7 3 8 4 9 5 10 6 4 7 3 8 2 9 1 10
REMARK H PARENT
REMARK Flexibility Score: inf
ROOT
ATOM      1  C   UNL     1     103.543  25.153 196.997  1.00  0.00     0.000 C 
ENDROOT
BRANCH   1   2
ATOM      2  C   UNL     1     105.005  24.781 196.719  1.00  0.00     0.006 C 
BRANCH   2   3
ATOM      3  C   UNL     1     105.270  24.680 195.213  1.00  0.00     0.053 C 
BRANCH   3   4
ATOM      4  C   UNL     1     104.804  23.359 194.688  1.00  0.00     0.041 C 
ATOM      5  O   UNL     1     105.175  22.291 195.243  1.00  0.00    -0.550 OA
ATOM      6  O   UNL     1     103.923  23.308 193.615  1.00  0.00    -0.550 OA
ENDBRANCH   3   4
ENDBRANCH   2   3
ENDBRANCH   1   2
BRANCH   1   7
ATOM      7  C   UNL     1     102.876  24.116 197.912  1.00  0.00     0.000 C 
BRANCH   7   8
ATOM      8  C   UNL     1     103.867  23.066 198.450  1.00  0.00    -0.000 C 
BRANCH   8   9
ATOM      9  C   UNL     1     104.288  23.267 199.917  1.00  0.00    -0.003 C 
ATOM     10  C   UNL     1     105.805  23.295 200.105  1.00  0.00     0.004 C 
ENDBRANCH   8   9
ENDBRANCH   7   8
ENDBRANCH   1   7
TORSDOF 6
ENDMDL
