MODEL 1
REMARK VINA RESULT:    -4.472      0.000      0.000
REMARK INTER + INTRA:          -6.203
REMARK INTER:                  -5.779
REMARK INTRA:                  -0.424
REMARK UNBOUND:                -0.424
REMARK SMILES CCO[C@H]1O[C@H](CO)[C@@H](O)[C@H](O)[C@H]1O
REMARK SMILES IDX 4 1 13 2 11 3 9 4 6 5 5 6 3 7 2 8 1 9 14 10 12 12 7 14 8 15
REMARK SMILES IDX 10 17
REMARK H PARENT 14 11 12 13 8 16 10 18
REMARK Flexibility Score: inf
ROOT
ATOM      1  C   UNL     1      39.743 -14.078  11.097  1.00  0.00     0.281 C 
ATOM      2  C   UNL     1      39.398 -13.441  12.455  1.00  0.00     0.202 C 
ATOM      3  C   UNL     1      39.980 -14.283  13.605  1.00  0.00     0.179 C 
ATOM      4  C   UNL     1      39.565 -15.755  13.440  1.00  0.00     0.177 C 
ATOM      5  C   UNL     1      39.908 -16.240  12.011  1.00  0.00     0.178 C 
ATOM      6  O   UNL     1      39.275 -15.419  11.040  1.00  0.00    -0.341 OA
ENDROOT
BRANCH   1   7
ATOM      7  O   UNL     1      41.140 -13.998  10.859  1.00  0.00    -0.350 OA
BRANCH   7   8
ATOM      8  C   UNL     1      41.387 -13.701   9.501  1.00  0.00     0.160 C 
ATOM      9  C   UNL     1      41.058 -12.238   9.245  1.00  0.00     0.035 C 
ENDBRANCH   7   8
ENDBRANCH   1   7
BRANCH   2  10
ATOM     10  O   UNL     1      39.911 -12.134  12.500  1.00  0.00    -0.385 OA
ATOM     11  H   UNL     1      40.386 -11.980  11.642  1.00  0.00     0.211 HD
ENDBRANCH   2  10
BRANCH   3  12
ATOM     12  O   UNL     1      39.505 -13.805  14.837  1.00  0.00    -0.387 OA
ATOM     13  H   UNL     1      38.516 -13.905  14.825  1.00  0.00     0.211 HD
ENDBRANCH   3  12
BRANCH   5  14
ATOM     14  C   UNL     1      39.436 -17.683  11.782  1.00  0.00     0.191 C 
BRANCH  14  15
ATOM     15  O   UNL     1      40.448 -18.591  12.121  1.00  0.00    -0.394 OA
ATOM     16  H   UNL     1      40.321 -18.799  13.083  1.00  0.00     0.210 HD
ENDBRANCH  14  15
ENDBRANCH   5  14
BRANCH   4  17
ATOM     17  O   UNL     1      40.245 -16.539  14.386  1.00  0.00    -0.387 OA
ATOM     18  H   UNL     1      40.144 -17.486  14.104  1.00  0.00     0.211 HD
ENDBRANCH   4  17
TORSDOF 7
ENDMDL
MODEL 2
REMARK VINA RESULT:    -4.466      1.232      1.730
REMARK INTER + INTRA:          -6.195
REMARK INTER:                  -5.814
REMARK INTRA:                  -0.382
REMARK UNBOUND:                -0.424
REMARK SMILES CCO[C@H]1O[C@H](CO)[C@@H](O)[C@H](O)[C@H]1O
REMARK SMILES IDX 4 1 13 2 11 3 9 4 6 5 5 6 3 7 2 8 1 9 14 10 12 12 7 14 8 15
REMARK SMILES IDX 10 17
REMARK H PARENT 14 11 12 13 8 16 10 18
REMARK Flexibility Score: inf
ROOT
ATOM      1  C   UNL     1      39.022 -14.763  12.525  1.00  0.00     0.281 C 
ATOM      2  C   UNL     1      39.171 -14.827  14.055  1.00  0.00     0.202 C 
ATOM      3  C   UNL     1      40.163 -15.936  14.450  1.00  0.00     0.179 C 
ATOM      4  C   UNL     1      39.771 -17.258  13.768  1.00  0.00     0.177 C 
ATOM      5  C   UNL     1      39.588 -17.030  12.248  1.00  0.00     0.178 C 
ATOM      6  O   UNL     1      38.616 -16.024  12.008  1.00  0.00    -0.341 OA
ENDROOT
BRANCH   1   7
ATOM      7  O   UNL     1      40.233 -14.318  11.932  1.00  0.00    -0.350 OA
BRANCH   7   8
ATOM      8  C   UNL     1      39.964 -13.657  10.713  1.00  0.00     0.160 C 
ATOM      9  C   UNL     1      41.230 -13.634   9.871  1.00  0.00     0.035 C 
ENDBRANCH   7   8
ENDBRANCH   1   7
BRANCH   2  10
ATOM     10  O   UNL     1      39.617 -13.582  14.531  1.00  0.00    -0.385 OA
ATOM     11  H   UNL     1      39.729 -13.672  15.513  1.00  0.00     0.211 HD
ENDBRANCH   2  10
BRANCH   3  12
ATOM     12  O   UNL     1      40.152 -16.115  15.843  1.00  0.00    -0.387 OA
ATOM     13  H   UNL     1      39.394 -16.724  16.051  1.00  0.00     0.211 HD
ENDBRANCH   3  12
BRANCH   5  14
ATOM     14  C   UNL     1      39.119 -18.311  11.543  1.00  0.00     0.191 C 
BRANCH  14  15
ATOM     15  O   UNL     1      40.209 -19.146  11.263  1.00  0.00    -0.394 OA
ATOM     16  H   UNL     1      40.259 -19.794  12.013  1.00  0.00     0.210 HD
ENDBRANCH  14  15
ENDBRANCH   5  14
BRANCH   4  17
ATOM     17  O   UNL     1      40.778 -18.212  13.990  1.00  0.00    -0.387 OA
ATOM     18  H   UNL     1      40.568 -18.993  13.413  1.00  0.00     0.211 HD
ENDBRANCH   4  17
TORSDOF 7
ENDMDL
MODEL 3
REMARK VINA RESULT:    -4.419      1.704      3.987
REMARK INTER + INTRA:          -6.135
REMARK INTER:                  -5.710
REMARK INTRA:                  -0.425
REMARK UNBOUND:                -0.424
REMARK SMILES CCO[C@H]1O[C@H](CO)[C@@H](O)[C@H](O)[C@H]1O
REMARK SMILES IDX 4 1 13 2 11 3 9 4 6 5 5 6 3 7 2 8 1 9 14 10 12 12 7 14 8 15
REMARK SMILES IDX 10 17
REMARK H PARENT 14 11 12 13 8 16 10 18
REMARK Flexibility Score: inf
ROOT
ATOM      1  C   UNL     1      38.525 -16.074  12.326  1.00  0.00     0.281 C 
ATOM      2  C   UNL     1      38.492 -14.686  11.663  1.00  0.00     0.202 C 
ATOM      3  C   UNL     1      39.854 -13.985  11.821  1.00  0.00     0.179 C 
ATOM      4  C   UNL     1      40.285 -14.002  13.297  1.00  0.00     0.177 C 
ATOM      5  C   UNL     1      40.204 -15.445  13.851  1.00  0.00     0.178 C 
ATOM      6  O   UNL     1      38.892 -15.966  13.696  1.00  0.00    -0.341 OA
ENDROOT
BRANCH   1   7
ATOM      7  O   UNL     1      39.399 -16.937  11.615  1.00  0.00    -0.350 OA
BRANCH   7   8
ATOM      8  C   UNL     1      38.995 -18.281  11.777  1.00  0.00     0.160 C 
ATOM      9  C   UNL     1      40.143 -19.074  12.382  1.00  0.00     0.035 C 
ENDBRANCH   7   8
ENDBRANCH   1   7
BRANCH   2  10
ATOM     10  O   UNL     1      38.171 -14.827  10.303  1.00  0.00    -0.385 OA
ATOM     11  H   UNL     1      37.833 -13.948   9.992  1.00  0.00     0.211 HD
ENDBRANCH   2  10
BRANCH   3  12
ATOM     12  O   UNL     1      39.761 -12.653  11.384  1.00  0.00    -0.387 OA
ATOM     13  H   UNL     1      38.808 -12.386  11.468  1.00  0.00     0.211 HD
ENDBRANCH   3  12
BRANCH   5  14
ATOM     14  C   UNL     1      40.553 -15.492  15.345  1.00  0.00     0.191 C 
BRANCH  14  15
ATOM     15  O   UNL     1      40.531 -14.204  15.896  1.00  0.00    -0.394 OA
ATOM     16  H   UNL     1      39.578 -13.998  16.077  1.00  0.00     0.210 HD
ENDBRANCH  14  15
ENDBRANCH   5  14
BRANCH   4  17
ATOM     17  O   UNL     1      41.602 -13.524  13.403  1.00  0.00    -0.387 OA
ATOM     18  H   UNL     1      41.568 -12.705  13.963  1.00  0.00     0.211 HD
ENDBRANCH   4  17
TORSDOF 7
ENDMDL
MODEL 4
REMARK VINA RESULT:    -4.385      2.144      4.697
REMARK INTER + INTRA:          -6.091
REMARK INTER:                  -5.692
REMARK INTRA:                  -0.399
REMARK UNBOUND:                -0.424
REMARK SMILES CCO[C@H]1O[C@H](CO)[C@@H](O)[C@H](O)[C@H]1O
REMARK SMILES IDX 4 1 13 2 11 3 9 4 6 5 5 6 3 7 2 8 1 9 14 10 12 12 7 14 8 15
REMARK SMILES IDX 10 17
REMARK H PARENT 14 11 12 13 8 16 10 18
REMARK Flexibility Score: inf
ROOT
ATOM      1  C   UNL     1      39.115 -17.348  13.574  1.00  0.00     0.281 C 
ATOM      2  C   UNL     1      38.716 -16.239  12.585  1.00  0.00     0.202 C 
ATOM      3  C   UNL     1      39.816 -15.165  12.513  1.00  0.00     0.179 C 
ATOM      4  C   UNL     1      40.177 -14.688  13.931  1.00  0.00     0.177 C 
ATOM      5  C   UNL     1      40.487 -15.907  14.832  1.00  0.00     0.178 C 
ATOM      6  O   UNL     1      39.384 -16.801  14.859  1.00  0.00    -0.341 OA
ENDROOT
BRANCH   1   7
ATOM      7  O   UNL     1      40.225 -18.077  13.072  1.00  0.00    -0.350 OA
BRANCH   7   8
ATOM      8  C   UNL     1      40.164 -19.419  13.508  1.00  0.00     0.160 C 
ATOM      9  C   UNL     1      38.892 -20.057  12.971  1.00  0.00     0.035 C 
ENDBRANCH   7   8
ENDBRANCH   1   7
BRANCH   2  10
ATOM     10  O   UNL     1      38.502 -16.803  11.316  1.00  0.00    -0.385 OA
ATOM     11  H   UNL     1      38.226 -16.064  10.714  1.00  0.00     0.211 HD
ENDBRANCH   2  10
BRANCH   3  12
ATOM     12  O   UNL     1      39.366 -14.068  11.759  1.00  0.00    -0.387 OA
ATOM     13  H   UNL     1      38.611 -14.392  11.201  1.00  0.00     0.211 HD
ENDBRANCH   3  12
BRANCH   5  14
ATOM     14  C   UNL     1      40.775 -15.477  16.277  1.00  0.00     0.191 C 
BRANCH  14  15
ATOM     15  O   UNL     1      42.155 -15.464  16.520  1.00  0.00    -0.394 OA
ATOM     16  H   UNL     1      42.444 -16.414  16.518  1.00  0.00     0.210 HD
ENDBRANCH  14  15
ENDBRANCH   5  14
BRANCH   4  17
ATOM     17  O   UNL     1      41.298 -13.844  13.866  1.00  0.00    -0.387 OA
ATOM     18  H   UNL     1      42.085 -14.388  14.136  1.00  0.00     0.211 HD
ENDBRANCH   4  17
TORSDOF 7
ENDMDL
MODEL 5
REMARK VINA RESULT:    -4.379      1.895      2.917
REMARK INTER + INTRA:          -6.083
REMARK INTER:                  -5.753
REMARK INTRA:                  -0.330
REMARK UNBOUND:                -0.424
REMARK SMILES CCO[C@H]1O[C@H](CO)[C@@H](O)[C@H](O)[C@H]1O
REMARK SMILES IDX 4 1 13 2 11 3 9 4 6 5 5 6 3 7 2 8 1 9 14 10 12 12 7 14 8 15
REMARK SMILES IDX 10 17
REMARK H PARENT 14 11 12 13 8 16 10 18
REMARK Flexibility Score: inf
ROOT
ATOM      1  C   UNL     1      39.809 -14.338  11.062  1.00  0.00     0.281 C 
ATOM      2  C   UNL     1      38.345 -13.868  11.015  1.00  0.00     0.202 C 
ATOM      3  C   UNL     1      38.022 -12.997  12.243  1.00  0.00     0.179 C 
ATOM      4  C   UNL     1      38.441 -13.729  13.530  1.00  0.00     0.177 C 
ATOM      5  C   UNL     1      39.909 -14.204  13.410  1.00  0.00     0.178 C 
ATOM      6  O   UNL     1      40.072 -15.038  12.272  1.00  0.00    -0.341 OA
ENDROOT
BRANCH   1   7
ATOM      7  O   UNL     1      40.685 -13.233  10.894  1.00  0.00    -0.350 OA
BRANCH   7   8
ATOM      8  C   UNL     1      41.461 -13.401   9.726  1.00  0.00     0.160 C 
ATOM      9  C   UNL     1      41.225 -12.218   8.799  1.00  0.00     0.035 C 
ENDBRANCH   7   8
ENDBRANCH   1   7
BRANCH   2  10
ATOM     10  O   UNL     1      38.127 -13.142   9.832  1.00  0.00    -0.385 OA
ATOM     11  H   UNL     1      38.883 -12.505   9.740  1.00  0.00     0.211 HD
ENDBRANCH   2  10
BRANCH   3  12
ATOM     12  O   UNL     1      36.644 -12.729  12.292  1.00  0.00    -0.387 OA
ATOM     13  H   UNL     1      36.468 -12.000  11.640  1.00  0.00     0.211 HD
ENDBRANCH   3  12
BRANCH   5  14
ATOM     14  C   UNL     1      40.340 -15.008  14.644  1.00  0.00     0.191 C 
BRANCH  14  15
ATOM     15  O   UNL     1      40.584 -14.154  15.728  1.00  0.00    -0.394 OA
ATOM     16  H   UNL     1      39.883 -13.452  15.688  1.00  0.00     0.210 HD
ENDBRANCH  14  15
ENDBRANCH   5  14
BRANCH   4  17
ATOM     17  O   UNL     1      38.309 -12.858  14.624  1.00  0.00    -0.387 OA
ATOM     18  H   UNL     1      37.759 -13.329  15.304  1.00  0.00     0.211 HD
ENDBRANCH   4  17
TORSDOF 7
ENDMDL
MODEL 6
REMARK VINA RESULT:    -4.280      1.667      3.842
REMARK INTER + INTRA:          -5.955
REMARK INTER:                  -5.483
REMARK INTRA:                  -0.472
REMARK UNBOUND:                -0.424
REMARK SMILES CCO[C@H]1O[C@H](CO)[C@@H](O)[C@H](O)[C@H]1O
REMARK SMILES IDX 4 1 13 2 11 3 9 4 6 5 5 6 3 7 2 8 1 9 14 10 12 12 7 14 8 15
REMARK SMILES IDX 10 17
REMARK H PARENT 14 11 12 13 8 16 10 18
REMARK Flexibility Score: inf
ROOT
ATOM      1  C   UNL     1      39.137 -15.545  11.586  1.00  0.00     0.281 C 
ATOM      2  C   UNL     1      39.760 -15.549  12.994  1.00  0.00     0.202 C 
ATOM      3  C   UNL     1      40.334 -14.161  13.329  1.00  0.00     0.179 C 
ATOM      4  C   UNL     1      41.262 -13.689  12.197  1.00  0.00     0.177 C 
ATOM      5  C   UNL     1      40.532 -13.803  10.838  1.00  0.00     0.178 C 
ATOM      6  O   UNL     1      40.094 -15.136  10.617  1.00  0.00    -0.341 OA
ENDROOT
BRANCH   1   7
ATOM      7  O   UNL     1      37.982 -14.721  11.563  1.00  0.00    -0.350 OA
BRANCH   7   8
ATOM      8  C   UNL     1      36.989 -15.298  10.741  1.00  0.00     0.160 C 
ATOM      9  C   UNL     1      36.840 -16.768  11.100  1.00  0.00     0.035 C 
ENDBRANCH   7   8
ENDBRANCH   1   7
BRANCH   2  10
ATOM     10  O   UNL     1      38.781 -15.912  13.934  1.00  0.00    -0.385 OA
ATOM     11  H   UNL     1      37.912 -15.928  13.455  1.00  0.00     0.211 HD
ENDBRANCH   2  10
BRANCH   3  12
ATOM     12  O   UNL     1      41.062 -14.220  14.529  1.00  0.00    -0.387 OA
ATOM     13  H   UNL     1      41.706 -14.972  14.439  1.00  0.00     0.211 HD
ENDBRANCH   3  12
BRANCH   5  14
ATOM     14  C   UNL     1      41.454 -13.415   9.673  1.00  0.00     0.191 C 
BRANCH  14  15
ATOM     15  O   UNL     1      42.798 -13.576  10.034  1.00  0.00    -0.394 OA
ATOM     16  H   UNL     1      43.097 -12.695  10.381  1.00  0.00     0.210 HD
ENDBRANCH  14  15
ENDBRANCH   5  14
BRANCH   4  17
ATOM     17  O   UNL     1      41.636 -12.354  12.428  1.00  0.00    -0.387 OA
ATOM     18  H   UNL     1      42.600 -12.361  12.666  1.00  0.00     0.211 HD
ENDBRANCH   4  17
TORSDOF 7
ENDMDL
MODEL 7
REMARK VINA RESULT:    -4.277      1.866      4.693
REMARK INTER + INTRA:          -5.951
REMARK INTER:                  -5.501
REMARK INTRA:                  -0.450
REMARK UNBOUND:                -0.424
REMARK SMILES CCO[C@H]1O[C@H](CO)[C@@H](O)[C@H](O)[C@H]1O
REMARK SMILES IDX 4 1 13 2 11 3 9 4 6 5 5 6 3 7 2 8 1 9 14 10 12 12 7 14 8 15
REMARK SMILES IDX 10 17
REMARK H PARENT 14 11 12 13 8 16 10 18
REMARK Flexibility Score: inf
ROOT
ATOM      1  C   UNL     1      38.853 -15.429  12.192  1.00  0.00     0.281 C 
ATOM      2  C   UNL     1      39.217 -14.804  10.833  1.00  0.00     0.202 C 
ATOM      3  C   UNL     1      39.709 -13.358  11.023  1.00  0.00     0.179 C 
ATOM      4  C   UNL     1      38.696 -12.565  11.866  1.00  0.00     0.177 C 
ATOM      5  C   UNL     1      38.372 -13.341  13.165  1.00  0.00     0.178 C 
ATOM      6  O   UNL     1      37.880 -14.638  12.862  1.00  0.00    -0.341 OA
ENDROOT
BRANCH   1   7
ATOM      7  O   UNL     1      40.021 -15.603  12.980  1.00  0.00    -0.350 OA
BRANCH   7   8
ATOM      8  C   UNL     1      39.895 -16.754  13.789  1.00  0.00     0.160 C 
ATOM      9  C   UNL     1      40.252 -17.982  12.965  1.00  0.00     0.035 C 
ENDBRANCH   7   8
ENDBRANCH   1   7
BRANCH   2  10
ATOM     10  O   UNL     1      40.211 -15.581  10.216  1.00  0.00    -0.385 OA
ATOM     11  H   UNL     1      40.700 -14.983   9.593  1.00  0.00     0.211 HD
ENDBRANCH   2  10
BRANCH   3  12
ATOM     12  O   UNL     1      39.859 -12.734   9.774  1.00  0.00    -0.387 OA
ATOM     13  H   UNL     1      40.786 -12.379   9.737  1.00  0.00     0.211 HD
ENDBRANCH   3  12
BRANCH   5  14
ATOM     14  C   UNL     1      37.303 -12.618  13.997  1.00  0.00     0.191 C 
BRANCH  14  15
ATOM     15  O   UNL     1      37.870 -11.552  14.707  1.00  0.00    -0.394 OA
ATOM     16  H   UNL     1      37.533 -11.630  15.637  1.00  0.00     0.210 HD
ENDBRANCH  14  15
ENDBRANCH   5  14
BRANCH   4  17
ATOM     17  O   UNL     1      39.237 -11.308  12.183  1.00  0.00    -0.387 OA
ATOM     18  H   UNL     1      38.476 -10.722  12.436  1.00  0.00     0.211 HD
ENDBRANCH   4  17
TORSDOF 7
ENDMDL
MODEL 8
REMARK VINA RESULT:    -4.243      2.093      3.927
REMARK INTER + INTRA:          -5.908
REMARK INTER:                  -5.480
REMARK INTRA:                  -0.428
REMARK UNBOUND:                -0.424
REMARK SMILES CCO[C@H]1O[C@H](CO)[C@@H](O)[C@H](O)[C@H]1O
REMARK SMILES IDX 4 1 13 2 11 3 9 4 6 5 5 6 3 7 2 8 1 9 14 10 12 12 7 14 8 15
REMARK SMILES IDX 10 17
REMARK H PARENT 14 11 12 13 8 16 10 18
REMARK Flexibility Score: inf
ROOT
ATOM      1  C   UNL     1      40.168 -15.839  13.946  1.00  0.00     0.281 C 
ATOM      2  C   UNL     1      39.923 -14.894  12.756  1.00  0.00     0.202 C 
ATOM      3  C   UNL     1      38.698 -15.359  11.948  1.00  0.00     0.179 C 
ATOM      4  C   UNL     1      38.838 -16.849  11.591  1.00  0.00     0.177 C 
ATOM      5  C   UNL     1      39.151 -17.666  12.868  1.00  0.00     0.178 C 
ATOM      6  O   UNL     1      40.326 -17.179  13.497  1.00  0.00    -0.341 OA
ENDROOT
BRANCH   1   7
ATOM      7  O   UNL     1      39.115 -15.722  14.890  1.00  0.00    -0.350 OA
BRANCH   7   8
ATOM      8  C   UNL     1      39.622 -15.843  16.203  1.00  0.00     0.160 C 
ATOM      9  C   UNL     1      41.026 -15.261  16.248  1.00  0.00     0.035 C 
ENDBRANCH   7   8
ENDBRANCH   1   7
BRANCH   2  10
ATOM     10  O   UNL     1      39.725 -13.588  13.233  1.00  0.00    -0.385 OA
ATOM     11  H   UNL     1      40.515 -13.055  12.953  1.00  0.00     0.211 HD
ENDBRANCH   2  10
BRANCH   3  12
ATOM     12  O   UNL     1      38.592 -14.610  10.764  1.00  0.00    -0.387 OA
ATOM     13  H   UNL     1      38.963 -15.170  10.033  1.00  0.00     0.211 HD
ENDBRANCH   3  12
BRANCH   5  14
ATOM     14  C   UNL     1      39.376 -19.150  12.541  1.00  0.00     0.191 C 
BRANCH  14  15
ATOM     15  O   UNL     1      39.975 -19.291  11.282  1.00  0.00    -0.394 OA
ATOM     16  H   UNL     1      40.381 -20.196  11.270  1.00  0.00     0.210 HD
ENDBRANCH  14  15
ENDBRANCH   5  14
BRANCH   4  17
ATOM     17  O   UNL     1      37.641 -17.304  11.014  1.00  0.00    -0.387 OA
ATOM     18  H   UNL     1      37.173 -17.842  11.705  1.00  0.00     0.211 HD
ENDBRANCH   4  17
TORSDOF 7
ENDMDL
MODEL 9
REMARK VINA RESULT:    -4.157      2.053      4.306
REMARK INTER + INTRA:          -5.796
REMARK INTER:                  -5.342
REMARK INTRA:                  -0.454
REMARK UNBOUND:                -0.424
REMARK SMILES CCO[C@H]1O[C@H](CO)[C@@H](O)[C@H](O)[C@H]1O
REMARK SMILES IDX 4 1 13 2 11 3 9 4 6 5 5 6 3 7 2 8 1 9 14 10 12 12 7 14 8 15
REMARK SMILES IDX 10 17
REMARK H PARENT 14 11 12 13 8 16 10 18
REMARK Flexibility Score: inf
ROOT
ATOM      1  C   UNL     1      39.550 -14.154  13.918  1.00  0.00     0.281 C 
ATOM      2  C   UNL     1      38.300 -13.270  13.772  1.00  0.00     0.202 C 
ATOM      3  C   UNL     1      37.655 -13.477  12.390  1.00  0.00     0.179 C 
ATOM      4  C   UNL     1      38.715 -13.311  11.287  1.00  0.00     0.177 C 
ATOM      5  C   UNL     1      39.940 -14.204  11.598  1.00  0.00     0.178 C 
ATOM      6  O   UNL     1      40.477 -13.887  12.874  1.00  0.00    -0.341 OA
ENDROOT
BRANCH   1   7
ATOM      7  O   UNL     1      39.180 -15.524  13.954  1.00  0.00    -0.350 OA
BRANCH   7   8
ATOM      8  C   UNL     1      40.024 -16.234  14.837  1.00  0.00     0.160 C 
ATOM      9  C   UNL     1      39.626 -15.911  16.269  1.00  0.00     0.035 C 
ENDBRANCH   7   8
ENDBRANCH   1   7
BRANCH   2  10
ATOM     10  O   UNL     1      37.384 -13.587  14.789  1.00  0.00    -0.385 OA
ATOM     11  H   UNL     1      37.418 -14.572  14.912  1.00  0.00     0.211 HD
ENDBRANCH   2  10
BRANCH   3  12
ATOM     12  O   UNL     1      36.632 -12.535  12.191  1.00  0.00    -0.387 OA
ATOM     13  H   UNL     1      35.774 -13.035  12.199  1.00  0.00     0.211 HD
ENDBRANCH   3  12
BRANCH   5  14
ATOM     14  C   UNL     1      41.055 -14.007  10.560  1.00  0.00     0.191 C 
BRANCH  14  15
ATOM     15  O   UNL     1      40.850 -14.842   9.454  1.00  0.00    -0.394 OA
ATOM     16  H   UNL     1      40.489 -15.694   9.815  1.00  0.00     0.210 HD
ENDBRANCH  14  15
ENDBRANCH   5  14
BRANCH   4  17
ATOM     17  O   UNL     1      38.160 -13.677  10.049  1.00  0.00    -0.387 OA
ATOM     18  H   UNL     1      38.745 -13.293   9.345  1.00  0.00     0.211 HD
ENDBRANCH   4  17
TORSDOF 7
ENDMDL
