MODEL 1
REMARK VINA RESULT:    -3.515      0.000      0.000
REMARK INTER + INTRA:          -4.490
REMARK INTER:                  -4.337
REMARK INTRA:                  -0.153
REMARK UNBOUND:                -0.153
REMARK SMILES CCCCCC(=O)[O-]
REMARK SMILES IDX 4 1 5 2 6 3 7 4 8 5 3 6 2 7 1 8
REMARK H PARENT
REMARK Flexibility Score: inf
ROOT
ATOM      1  C   UNL     1      -2.489   5.214  -0.749  1.00  0.00     0.006 C 
ENDROOT
BRANCH   1   2
ATOM      2  C   UNL     1      -1.494   6.124  -0.024  1.00  0.00     0.053 C 
BRANCH   2   3
ATOM      3  C   UNL     1      -0.484   6.667  -0.984  1.00  0.00     0.041 C 
ATOM      4  O   UNL     1      -0.794   6.859  -2.190  1.00  0.00    -0.550 OA
ATOM      5  O   UNL     1       0.787   7.006  -0.539  1.00  0.00    -0.550 OA
ENDBRANCH   2   3
ENDBRANCH   1   2
BRANCH   1   6
ATOM      6  C   UNL     1      -3.903   5.804  -0.712  1.00  0.00     0.000 C 
BRANCH   6   7
ATOM      7  C   UNL     1      -4.713   5.369  -1.940  1.00  0.00    -0.003 C 
ATOM      8  C   UNL     1      -4.391   6.240  -3.150  1.00  0.00     0.004 C 
ENDBRANCH   6   7
ENDBRANCH   1   6
TORSDOF 4
ENDMDL
MODEL 2
REMARK VINA RESULT:    -3.453     14.926     15.515
REMARK INTER + INTRA:          -4.413
REMARK INTER:                  -4.334
REMARK INTRA:                  -0.079
REMARK UNBOUND:                -0.153
REMARK SMILES CCCCCC(=O)[O-]
REMARK SMILES IDX 4 1 5 2 6 3 7 4 8 5 3 6 2 7 1 8
REMARK H PARENT
REMARK Flexibility Score: inf
ROOT
ATOM      1  C   UNL     1       3.254  -6.440  -8.646  1.00  0.00     0.006 C 
ENDROOT
BRANCH   1   2
ATOM      2  C   UNL     1       2.003  -5.677  -9.090  1.00  0.00     0.053 C 
BRANCH   2   3
ATOM      3  C   UNL     1       1.785  -4.477  -8.224  1.00  0.00     0.041 C 
ATOM      4  O   UNL     1       1.416  -3.386  -8.734  1.00  0.00    -0.550 OA
ATOM      5  O   UNL     1       1.943  -4.576  -6.848  1.00  0.00    -0.550 OA
ENDBRANCH   2   3
ENDBRANCH   1   2
BRANCH   1   6
ATOM      6  C   UNL     1       3.041  -7.954  -8.748  1.00  0.00     0.000 C 
BRANCH   6   7
ATOM      7  C   UNL     1       4.089  -8.715  -7.927  1.00  0.00    -0.003 C 
ATOM      8  C   UNL     1       5.504  -8.336  -8.352  1.00  0.00     0.004 C 
ENDBRANCH   6   7
ENDBRANCH   1   6
TORSDOF 4
ENDMDL
MODEL 3
REMARK VINA RESULT:    -3.417      1.494      1.930
REMARK INTER + INTRA:          -4.369
REMARK INTER:                  -4.216
REMARK INTRA:                  -0.152
REMARK UNBOUND:                -0.153
REMARK SMILES CCCCCC(=O)[O-]
REMARK SMILES IDX 4 1 5 2 6 3 7 4 8 5 3 6 2 7 1 8
REMARK H PARENT
REMARK Flexibility Score: inf
ROOT
ATOM      1  C   UNL     1      -2.271   6.672  -2.740  1.00  0.00     0.006 C 
ENDROOT
BRANCH   1   2
ATOM      2  C   UNL     1      -1.564   5.629  -1.870  1.00  0.00     0.053 C 
BRANCH   2   3
ATOM      3  C   UNL     1      -0.989   6.270  -0.646  1.00  0.00     0.041 C 
ATOM      4  O   UNL     1      -1.670   6.342   0.411  1.00  0.00    -0.550 OA
ATOM      5  O   UNL     1       0.316   6.746  -0.658  1.00  0.00    -0.550 OA
ENDBRANCH   2   3
ENDBRANCH   1   2
BRANCH   1   6
ATOM      6  C   UNL     1      -3.773   6.381  -2.836  1.00  0.00     0.000 C 
BRANCH   6   7
ATOM      7  C   UNL     1      -4.201   5.341  -1.793  1.00  0.00    -0.003 C 
ATOM      8  C   UNL     1      -5.204   5.930  -0.806  1.00  0.00     0.004 C 
ENDBRANCH   6   7
ENDBRANCH   1   6
TORSDOF 4
ENDMDL
MODEL 4
REMARK VINA RESULT:    -3.310      3.480      4.482
REMARK INTER + INTRA:          -4.237
REMARK INTER:                  -4.146
REMARK INTRA:                  -0.091
REMARK UNBOUND:                -0.153
REMARK SMILES CCCCCC(=O)[O-]
REMARK SMILES IDX 4 1 5 2 6 3 7 4 8 5 3 6 2 7 1 8
REMARK H PARENT
REMARK Flexibility Score: inf
ROOT
ATOM      1  C   UNL     1      -3.528   5.480  -1.460  1.00  0.00     0.006 C 
ENDROOT
BRANCH   1   2
ATOM      2  C   UNL     1      -4.345   6.498  -0.659  1.00  0.00     0.053 C 
BRANCH   2   3
ATOM      3  C   UNL     1      -5.779   6.080  -0.590  1.00  0.00     0.041 C 
ATOM      4  O   UNL     1      -6.187   5.366   0.364  1.00  0.00    -0.550 OA
ATOM      5  O   UNL     1      -6.678   6.519  -1.554  1.00  0.00    -0.550 OA
ENDBRANCH   2   3
ENDBRANCH   1   2
BRANCH   1   6
ATOM      6  C   UNL     1      -2.232   5.115  -0.728  1.00  0.00     0.000 C 
BRANCH   6   7
ATOM      7  C   UNL     1      -1.033   5.864  -1.323  1.00  0.00    -0.003 C 
ATOM      8  C   UNL     1      -1.331   6.342  -2.741  1.00  0.00     0.004 C 
ENDBRANCH   6   7
ENDBRANCH   1   6
TORSDOF 4
ENDMDL
MODEL 5
REMARK VINA RESULT:    -3.288     12.791     13.989
REMARK INTER + INTRA:          -4.210
REMARK INTER:                  -4.116
REMARK INTRA:                  -0.095
REMARK UNBOUND:                -0.153
REMARK SMILES CCCCCC(=O)[O-]
REMARK SMILES IDX 4 1 5 2 6 3 7 4 8 5 3 6 2 7 1 8
REMARK H PARENT
REMARK Flexibility Score: inf
ROOT
ATOM      1  C   UNL     1      -8.487  -5.989  -4.121  1.00  0.00     0.006 C 
ENDROOT
BRANCH   1   2
ATOM      2  C   UNL     1      -8.342  -4.705  -4.941  1.00  0.00     0.053 C 
BRANCH   2   3
ATOM      3  C   UNL     1      -8.305  -3.510  -4.042  1.00  0.00     0.041 C 
ATOM      4  O   UNL     1      -7.430  -2.619  -4.207  1.00  0.00    -0.550 OA
ATOM      5  O   UNL     1      -9.265  -3.356  -3.050  1.00  0.00    -0.550 OA
ENDBRANCH   2   3
ENDBRANCH   1   2
BRANCH   1   6
ATOM      6  C   UNL     1      -9.781  -6.728  -4.481  1.00  0.00     0.000 C 
BRANCH   6   7
ATOM      7  C   UNL     1      -9.830  -8.109  -3.816  1.00  0.00    -0.003 C 
ATOM      8  C   UNL     1      -9.049  -9.139  -4.626  1.00  0.00     0.004 C 
ENDBRANCH   6   7
ENDBRANCH   1   6
TORSDOF 4
ENDMDL
MODEL 6
REMARK VINA RESULT:    -3.228      3.613      5.018
REMARK INTER + INTRA:          -4.136
REMARK INTER:                  -3.903
REMARK INTRA:                  -0.232
REMARK UNBOUND:                -0.153
REMARK SMILES CCCCCC(=O)[O-]
REMARK SMILES IDX 4 1 5 2 6 3 7 4 8 5 3 6 2 7 1 8
REMARK H PARENT
REMARK Flexibility Score: inf
ROOT
ATOM      1  C   UNL     1      -4.871   5.637  -2.074  1.00  0.00     0.006 C 
ENDROOT
BRANCH   1   2
ATOM      2  C   UNL     1      -5.829   6.729  -1.591  1.00  0.00     0.053 C 
BRANCH   2   3
ATOM      3  C   UNL     1      -6.598   6.261  -0.397  1.00  0.00     0.041 C 
ATOM      4  O   UNL     1      -6.136   5.346   0.336  1.00  0.00    -0.550 OA
ATOM      5  O   UNL     1      -7.803   6.867  -0.064  1.00  0.00    -0.550 OA
ENDBRANCH   2   3
ENDBRANCH   1   2
BRANCH   1   6
ATOM      6  C   UNL     1      -3.414   6.108  -1.995  1.00  0.00     0.000 C 
BRANCH   6   7
ATOM      7  C   UNL     1      -2.612   5.256  -1.004  1.00  0.00    -0.003 C 
ATOM      8  C   UNL     1      -2.608   5.884   0.386  1.00  0.00     0.004 C 
ENDBRANCH   6   7
ENDBRANCH   1   6
TORSDOF 4
ENDMDL
MODEL 7
REMARK VINA RESULT:    -3.227     17.052     17.417
REMARK INTER + INTRA:          -4.135
REMARK INTER:                  -3.985
REMARK INTRA:                  -0.150
REMARK UNBOUND:                -0.153
REMARK SMILES CCCCCC(=O)[O-]
REMARK SMILES IDX 4 1 5 2 6 3 7 4 8 5 3 6 2 7 1 8
REMARK H PARENT
REMARK Flexibility Score: inf
ROOT
ATOM      1  C   UNL     1       4.369  -8.630  -7.988  1.00  0.00     0.006 C 
ENDROOT
BRANCH   1   2
ATOM      2  C   UNL     1       5.355  -8.900  -9.128  1.00  0.00     0.053 C 
BRANCH   2   3
ATOM      3  C   UNL     1       6.708  -8.358  -8.789  1.00  0.00     0.041 C 
ATOM      4  O   UNL     1       6.841  -7.153  -8.450  1.00  0.00    -0.550 OA
ATOM      5  O   UNL     1       7.815  -9.196  -8.802  1.00  0.00    -0.550 OA
ENDBRANCH   2   3
ENDBRANCH   1   2
BRANCH   1   6
ATOM      6  C   UNL     1       3.090  -7.967  -8.512  1.00  0.00     0.000 C 
BRANCH   6   7
ATOM      7  C   UNL     1       3.366  -6.533  -8.981  1.00  0.00    -0.003 C 
ATOM      8  C   UNL     1       2.510  -5.529  -8.216  1.00  0.00     0.004 C 
ENDBRANCH   6   7
ENDBRANCH   1   6
TORSDOF 4
ENDMDL
MODEL 8
REMARK VINA RESULT:    -3.220      2.050      2.667
REMARK INTER + INTRA:          -4.126
REMARK INTER:                  -3.969
REMARK INTRA:                  -0.157
REMARK UNBOUND:                -0.153
REMARK SMILES CCCCCC(=O)[O-]
REMARK SMILES IDX 4 1 5 2 6 3 7 4 8 5 3 6 2 7 1 8
REMARK H PARENT
REMARK Flexibility Score: inf
ROOT
ATOM      1  C   UNL     1      -4.289   5.275  -1.582  1.00  0.00     0.006 C 
ENDROOT
BRANCH   1   2
ATOM      2  C   UNL     1      -2.824   5.712  -1.654  1.00  0.00     0.053 C 
BRANCH   2   3
ATOM      3  C   UNL     1      -2.258   5.879  -0.280  1.00  0.00     0.041 C 
ATOM      4  O   UNL     1      -1.124   6.402  -0.120  1.00  0.00    -0.550 OA
ATOM      5  O   UNL     1      -3.003   5.500   0.829  1.00  0.00    -0.550 OA
ENDBRANCH   2   3
ENDBRANCH   1   2
BRANCH   1   6
ATOM      6  C   UNL     1      -5.143   6.038  -2.600  1.00  0.00     0.000 C 
BRANCH   6   7
ATOM      7  C   UNL     1      -6.418   6.588  -1.949  1.00  0.00    -0.003 C 
ATOM      8  C   UNL     1      -6.431   6.316  -0.448  1.00  0.00     0.004 C 
ENDBRANCH   6   7
ENDBRANCH   1   6
TORSDOF 4
ENDMDL
MODEL 9
REMARK VINA RESULT:    -3.195     11.428     12.578
REMARK INTER + INTRA:          -4.096
REMARK INTER:                  -3.949
REMARK INTRA:                  -0.147
REMARK UNBOUND:                -0.153
REMARK SMILES CCCCCC(=O)[O-]
REMARK SMILES IDX 4 1 5 2 6 3 7 4 8 5 3 6 2 7 1 8
REMARK H PARENT
REMARK Flexibility Score: inf
ROOT
ATOM      1  C   UNL     1      -8.107  -3.227  -4.066  1.00  0.00     0.006 C 
ENDROOT
BRANCH   1   2
ATOM      2  C   UNL     1      -9.175  -2.805  -5.079  1.00  0.00     0.053 C 
BRANCH   2   3
ATOM      3  C   UNL     1      -8.583  -1.911  -6.122  1.00  0.00     0.041 C 
ATOM      4  O   UNL     1      -7.678  -2.339  -6.885  1.00  0.00    -0.550 OA
ATOM      5  O   UNL     1      -9.065  -0.618  -6.284  1.00  0.00    -0.550 OA
ENDBRANCH   2   3
ENDBRANCH   1   2
BRANCH   1   6
ATOM      6  C   UNL     1      -7.854  -4.738  -4.130  1.00  0.00     0.000 C 
BRANCH   6   7
ATOM      7  C   UNL     1      -9.129  -5.493  -4.524  1.00  0.00    -0.003 C 
ATOM      8  C   UNL     1      -9.007  -6.981  -4.209  1.00  0.00     0.004 C 
ENDBRANCH   6   7
ENDBRANCH   1   6
TORSDOF 4
ENDMDL
