MODEL 1
REMARK VINA RESULT:    -3.963      0.000      0.000
REMARK INTER + INTRA:          -5.020
REMARK INTER:                  -4.774
REMARK INTRA:                  -0.246
REMARK UNBOUND:                -0.246
REMARK SMILES NC(=O)C[C@@H]([NH3+])C(=O)[O-]
REMARK SMILES IDX 4 1 5 2 6 3 7 7 8 8 9 9 2 10 3 11 1 12
REMARK H PARENT 6 4 6 5 6 6 1 13 1 14
REMARK Flexibility Score: inf
ROOT
ATOM      1  C   UNL     1      -3.591   3.567 -22.682  1.00  0.00     0.171 C 
ENDROOT
BRANCH   1   2
ATOM      2  C   UNL     1      -4.018   2.532 -21.621  1.00  0.00     0.237 C 
BRANCH   2   3
ATOM      3  N   UNL     1      -3.530   2.925 -20.293  1.00  0.00    -0.350 N 
ATOM      4  H   UNL     1      -2.538   3.251 -20.363  1.00  0.00     0.345 HD
ATOM      5  H   UNL     1      -4.116   3.697 -19.898  1.00  0.00     0.345 HD
ATOM      6  H   UNL     1      -3.560   2.103 -19.646  1.00  0.00     0.345 HD
ENDBRANCH   2   3
BRANCH   2   7
ATOM      7  C   UNL     1      -5.515   2.363 -21.598  1.00  0.00     0.100 C 
ATOM      8  O   UNL     1      -6.033   1.319 -21.120  1.00  0.00    -0.544 OA
ATOM      9  O   UNL     1      -6.335   3.370 -22.091  1.00  0.00    -0.544 OA
ENDBRANCH   2   7
ENDBRANCH   1   2
BRANCH   1  10
ATOM     10  C   UNL     1      -2.101   3.598 -22.857  1.00  0.00     0.223 C 
ATOM     11  O   UNL     1      -1.431   2.540 -22.714  1.00  0.00    -0.275 OA
ATOM     12  N   UNL     1      -1.433   4.824 -23.150  1.00  0.00    -0.369 N 
ATOM     13  H   UNL     1      -1.973   5.712 -23.257  1.00  0.00     0.159 HD
ATOM     14  H   UNL     1      -0.396   4.847 -23.259  1.00  0.00     0.159 HD
ENDBRANCH   1  10
TORSDOF 4
ENDMDL
MODEL 2
REMARK VINA RESULT:    -3.829      3.303      3.682
REMARK INTER + INTRA:          -4.858
REMARK INTER:                  -4.725
REMARK INTRA:                  -0.133
REMARK UNBOUND:                -0.246
REMARK SMILES NC(=O)C[C@@H]([NH3+])C(=O)[O-]
REMARK SMILES IDX 4 1 5 2 6 3 7 7 8 8 9 9 2 10 3 11 1 12
REMARK H PARENT 6 4 6 5 6 6 1 13 1 14
REMARK Flexibility Score: inf
ROOT
ATOM      1  C   UNL     1      -2.021   4.215 -23.779  1.00  0.00     0.171 C 
ENDROOT
BRANCH   1   2
ATOM      2  C   UNL     1      -1.626   3.116 -22.771  1.00  0.00     0.237 C 
BRANCH   2   3
ATOM      3  N   UNL     1      -2.707   2.893 -21.803  1.00  0.00    -0.350 N 
ATOM      4  H   UNL     1      -3.436   2.272 -22.225  1.00  0.00     0.345 HD
ATOM      5  H   UNL     1      -2.338   2.445 -20.933  1.00  0.00     0.345 HD
ATOM      6  H   UNL     1      -3.158   3.805 -21.557  1.00  0.00     0.345 HD
ENDBRANCH   2   3
BRANCH   2   7
ATOM      7  C   UNL     1      -1.284   1.829 -23.476  1.00  0.00     0.100 C 
ATOM      8  O   UNL     1      -1.193   0.751 -22.830  1.00  0.00    -0.544 OA
ATOM      9  O   UNL     1      -1.083   1.823 -24.850  1.00  0.00    -0.544 OA
ENDBRANCH   2   7
ENDBRANCH   1   2
BRANCH   1  10
ATOM     10  C   UNL     1      -0.947   5.255 -23.913  1.00  0.00     0.223 C 
ATOM     11  O   UNL     1      -0.224   5.280 -24.944  1.00  0.00    -0.275 OA
ATOM     12  N   UNL     1      -0.718   6.195 -22.864  1.00  0.00    -0.369 N 
ATOM     13  H   UNL     1      -1.299   6.177 -21.996  1.00  0.00     0.159 HD
ATOM     14  H   UNL     1       0.038   6.909 -22.952  1.00  0.00     0.159 HD
ENDBRANCH   1  10
TORSDOF 4
ENDMDL
MODEL 3
REMARK VINA RESULT:    -3.811      6.876      7.398
REMARK INTER + INTRA:          -4.837
REMARK INTER:                  -4.554
REMARK INTRA:                  -0.282
REMARK UNBOUND:                -0.246
REMARK SMILES NC(=O)C[C@@H]([NH3+])C(=O)[O-]
REMARK SMILES IDX 4 1 5 2 6 3 7 7 8 8 9 9 2 10 3 11 1 12
REMARK H PARENT 6 4 6 5 6 6 1 13 1 14
REMARK Flexibility Score: inf
ROOT
ATOM      1  C   UNL     1       2.853  -0.543 -23.759  1.00  0.00     0.171 C 
ENDROOT
BRANCH   1   2
ATOM      2  C   UNL     1       2.351  -0.513 -22.301  1.00  0.00     0.237 C 
BRANCH   2   3
ATOM      3  N   UNL     1       1.190   0.377 -22.175  1.00  0.00    -0.350 N 
ATOM      4  H   UNL     1       0.384  -0.149 -21.764  1.00  0.00     0.345 HD
ATOM      5  H   UNL     1       1.415   1.193 -21.560  1.00  0.00     0.345 HD
ATOM      6  H   UNL     1       0.905   0.725 -23.120  1.00  0.00     0.345 HD
ENDBRANCH   2   3
BRANCH   2   7
ATOM      7  C   UNL     1       2.002  -1.897 -21.817  1.00  0.00     0.100 C 
ATOM      8  O   UNL     1       0.932  -2.100 -21.182  1.00  0.00    -0.544 OA
ATOM      9  O   UNL     1       2.853  -2.961 -22.085  1.00  0.00    -0.544 OA
ENDBRANCH   2   7
ENDBRANCH   1   2
BRANCH   1  10
ATOM     10  C   UNL     1       2.795   0.816 -24.392  1.00  0.00     0.223 C 
ATOM     11  O   UNL     1       1.818   1.125 -25.125  1.00  0.00    -0.275 OA
ATOM     12  N   UNL     1       3.857   1.750 -24.197  1.00  0.00    -0.369 N 
ATOM     13  H   UNL     1       4.681   1.502 -23.604  1.00  0.00     0.159 HD
ATOM     14  H   UNL     1       3.822   2.690 -24.648  1.00  0.00     0.159 HD
ENDBRANCH   1  10
TORSDOF 4
ENDMDL
MODEL 4
REMARK VINA RESULT:    -3.795      1.668      4.076
REMARK INTER + INTRA:          -4.817
REMARK INTER:                  -4.669
REMARK INTRA:                  -0.148
REMARK UNBOUND:                -0.246
REMARK SMILES NC(=O)C[C@@H]([NH3+])C(=O)[O-]
REMARK SMILES IDX 4 1 5 2 6 3 7 7 8 8 9 9 2 10 3 11 1 12
REMARK H PARENT 6 4 6 5 6 6 1 13 1 14
REMARK Flexibility Score: inf
ROOT
ATOM      1  C   UNL     1      -3.726   3.299 -22.223  1.00  0.00     0.171 C 
ENDROOT
BRANCH   1   2
ATOM      2  C   UNL     1      -2.234   2.945 -22.388  1.00  0.00     0.237 C 
BRANCH   2   3
ATOM      3  N   UNL     1      -2.060   1.491 -22.496  1.00  0.00    -0.350 N 
ATOM      4  H   UNL     1      -2.698   1.113 -23.235  1.00  0.00     0.345 HD
ATOM      5  H   UNL     1      -1.072   1.254 -22.744  1.00  0.00     0.345 HD
ATOM      6  H   UNL     1      -2.308   1.035 -21.587  1.00  0.00     0.345 HD
ENDBRANCH   2   3
BRANCH   2   7
ATOM      7  C   UNL     1      -1.642   3.631 -23.592  1.00  0.00     0.100 C 
ATOM      8  O   UNL     1      -1.668   3.074 -24.722  1.00  0.00    -0.544 OA
ATOM      9  O   UNL     1      -1.079   4.894 -23.464  1.00  0.00    -0.544 OA
ENDBRANCH   2   7
ENDBRANCH   1   2
BRANCH   1  10
ATOM     10  C   UNL     1      -4.349   2.553 -21.080  1.00  0.00     0.223 C 
ATOM     11  O   UNL     1      -5.274   1.726 -21.300  1.00  0.00    -0.275 OA
ATOM     12  N   UNL     1      -3.923   2.798 -19.740  1.00  0.00    -0.369 N 
ATOM     13  H   UNL     1      -3.168   3.491 -19.540  1.00  0.00     0.159 HD
ATOM     14  H   UNL     1      -4.366   2.287 -18.944  1.00  0.00     0.159 HD
ENDBRANCH   1  10
TORSDOF 4
ENDMDL
MODEL 5
REMARK VINA RESULT:    -3.729      1.662      2.023
REMARK INTER + INTRA:          -4.737
REMARK INTER:                  -4.645
REMARK INTRA:                  -0.092
REMARK UNBOUND:                -0.246
REMARK SMILES NC(=O)C[C@@H]([NH3+])C(=O)[O-]
REMARK SMILES IDX 4 1 5 2 6 3 7 7 8 8 9 9 2 10 3 11 1 12
REMARK H PARENT 6 4 6 5 6 6 1 13 1 14
REMARK Flexibility Score: inf
ROOT
ATOM      1  C   UNL     1      -2.557   3.181 -22.457  1.00  0.00     0.171 C 
ENDROOT
BRANCH   1   2
ATOM      2  C   UNL     1      -3.747   2.582 -21.681  1.00  0.00     0.237 C 
BRANCH   2   3
ATOM      3  N   UNL     1      -3.610   2.849 -20.243  1.00  0.00    -0.350 N 
ATOM      4  H   UNL     1      -4.406   3.446 -19.918  1.00  0.00     0.345 HD
ATOM      5  H   UNL     1      -3.609   1.955 -19.699  1.00  0.00     0.345 HD
ATOM      6  H   UNL     1      -2.718   3.366 -20.062  1.00  0.00     0.345 HD
ENDBRANCH   2   3
BRANCH   2   7
ATOM      7  C   UNL     1      -5.057   3.125 -22.189  1.00  0.00     0.100 C 
ATOM      8  O   UNL     1      -5.107   4.253 -22.749  1.00  0.00    -0.544 OA
ATOM      9  O   UNL     1      -6.218   2.374 -22.057  1.00  0.00    -0.544 OA
ENDBRANCH   2   7
ENDBRANCH   1   2
BRANCH   1  10
ATOM     10  C   UNL     1      -1.703   2.112 -23.073  1.00  0.00     0.223 C 
ATOM     11  O   UNL     1      -1.037   2.363 -24.113  1.00  0.00    -0.275 OA
ATOM     12  N   UNL     1      -1.667   0.802 -22.508  1.00  0.00    -0.369 N 
ATOM     13  H   UNL     1      -2.226   0.574 -21.656  1.00  0.00     0.159 HD
ATOM     14  H   UNL     1      -1.084   0.055 -22.945  1.00  0.00     0.159 HD
ENDBRANCH   1  10
TORSDOF 4
ENDMDL
MODEL 6
REMARK VINA RESULT:    -3.624      6.639      7.786
REMARK INTER + INTRA:          -4.611
REMARK INTER:                  -4.526
REMARK INTRA:                  -0.085
REMARK UNBOUND:                -0.246
REMARK SMILES NC(=O)C[C@@H]([NH3+])C(=O)[O-]
REMARK SMILES IDX 4 1 5 2 6 3 7 7 8 8 9 9 2 10 3 11 1 12
REMARK H PARENT 6 4 6 5 6 6 1 13 1 14
REMARK Flexibility Score: inf
ROOT
ATOM      1  C   UNL     1       2.379  -0.557 -22.047  1.00  0.00     0.171 C 
ENDROOT
BRANCH   1   2
ATOM      2  C   UNL     1       1.600  -0.023 -23.267  1.00  0.00     0.237 C 
BRANCH   2   3
ATOM      3  N   UNL     1       0.499   0.847 -22.833  1.00  0.00    -0.350 N 
ATOM      4  H   UNL     1       0.246   0.628 -21.842  1.00  0.00     0.345 HD
ATOM      5  H   UNL     1       0.775   1.854 -22.902  1.00  0.00     0.345 HD
ATOM      6  H   UNL     1      -0.343   0.677 -23.431  1.00  0.00     0.345 HD
ENDBRANCH   2   3
BRANCH   2   7
ATOM      7  C   UNL     1       2.511   0.720 -24.210  1.00  0.00     0.100 C 
ATOM      8  O   UNL     1       2.032   1.442 -25.125  1.00  0.00    -0.544 OA
ATOM      9  O   UNL     1       3.889   0.625 -24.063  1.00  0.00    -0.544 OA
ENDBRANCH   2   7
ENDBRANCH   1   2
BRANCH   1  10
ATOM     10  C   UNL     1       1.946  -1.947 -21.681  1.00  0.00     0.223 C 
ATOM     11  O   UNL     1       2.633  -2.936 -22.052  1.00  0.00    -0.275 OA
ATOM     12  N   UNL     1       0.743  -2.158 -20.943  1.00  0.00    -0.369 N 
ATOM     13  H   UNL     1       0.155  -1.350 -20.642  1.00  0.00     0.159 HD
ATOM     14  H   UNL     1       0.436  -3.126 -20.701  1.00  0.00     0.159 HD
ENDBRANCH   1  10
TORSDOF 4
ENDMDL
MODEL 7
REMARK VINA RESULT:    -3.497      3.368      4.300
REMARK INTER + INTRA:          -4.458
REMARK INTER:                  -3.986
REMARK INTRA:                  -0.472
REMARK UNBOUND:                -0.246
REMARK SMILES NC(=O)C[C@@H]([NH3+])C(=O)[O-]
REMARK SMILES IDX 4 1 5 2 6 3 7 7 8 8 9 9 2 10 3 11 1 12
REMARK H PARENT 6 4 6 5 6 6 1 13 1 14
REMARK Flexibility Score: inf
ROOT
ATOM      1  C   UNL     1      -1.819   5.184 -24.765  1.00  0.00     0.171 C 
ENDROOT
BRANCH   1   2
ATOM      2  C   UNL     1      -1.346   3.719 -24.860  1.00  0.00     0.237 C 
BRANCH   2   3
ATOM      3  N   UNL     1       0.097   3.661 -25.125  1.00  0.00    -0.350 N 
ATOM      4  H   UNL     1       0.618   3.558 -24.223  1.00  0.00     0.345 HD
ATOM      5  H   UNL     1       0.326   2.851 -25.746  1.00  0.00     0.345 HD
ATOM      6  H   UNL     1       0.409   4.548 -25.584  1.00  0.00     0.345 HD
ENDBRANCH   2   3
BRANCH   2   7
ATOM      7  C   UNL     1      -1.675   2.959 -23.600  1.00  0.00     0.100 C 
ATOM      8  O   UNL     1      -1.295   1.766 -23.456  1.00  0.00    -0.544 OA
ATOM      9  O   UNL     1      -2.387   3.579 -22.582  1.00  0.00    -0.544 OA
ENDBRANCH   2   7
ENDBRANCH   1   2
BRANCH   1  10
ATOM     10  C   UNL     1      -0.734   6.083 -24.247  1.00  0.00     0.223 C 
ATOM     11  O   UNL     1       0.107   6.575 -25.046  1.00  0.00    -0.275 OA
ATOM     12  N   UNL     1      -0.629   6.357 -22.851  1.00  0.00    -0.369 N 
ATOM     13  H   UNL     1      -1.309   5.945 -22.174  1.00  0.00     0.159 HD
ATOM     14  H   UNL     1       0.134   6.972 -22.490  1.00  0.00     0.159 HD
ENDBRANCH   1  10
TORSDOF 4
ENDMDL
MODEL 8
REMARK VINA RESULT:    -3.429      2.202      3.159
REMARK INTER + INTRA:          -4.376
REMARK INTER:                  -4.111
REMARK INTRA:                  -0.265
REMARK UNBOUND:                -0.246
REMARK SMILES NC(=O)C[C@@H]([NH3+])C(=O)[O-]
REMARK SMILES IDX 4 1 5 2 6 3 7 7 8 8 9 9 2 10 3 11 1 12
REMARK H PARENT 6 4 6 5 6 6 1 13 1 14
REMARK Flexibility Score: inf
ROOT
ATOM      1  C   UNL     1      -5.556   2.971 -21.848  1.00  0.00     0.171 C 
ENDROOT
BRANCH   1   2
ATOM      2  C   UNL     1      -5.894   4.421 -22.246  1.00  0.00     0.237 C 
BRANCH   2   3
ATOM      3  N   UNL     1      -5.029   4.867 -23.346  1.00  0.00    -0.350 N 
ATOM      4  H   UNL     1      -4.144   5.270 -22.959  1.00  0.00     0.345 HD
ATOM      5  H   UNL     1      -4.793   4.068 -23.978  1.00  0.00     0.345 HD
ATOM      6  H   UNL     1      -5.513   5.614 -23.898  1.00  0.00     0.345 HD
ENDBRANCH   2   3
BRANCH   2   7
ATOM      7  C   UNL     1      -7.343   4.554 -22.637  1.00  0.00     0.100 C 
ATOM      8  O   UNL     1      -7.888   3.689 -23.374  1.00  0.00    -0.544 OA
ATOM      9  O   UNL     1      -8.092   5.627 -22.170  1.00  0.00    -0.544 OA
ENDBRANCH   2   7
ENDBRANCH   1   2
BRANCH   1  10
ATOM     10  C   UNL     1      -4.143   2.847 -21.355  1.00  0.00     0.223 C 
ATOM     11  O   UNL     1      -3.199   2.730 -22.181  1.00  0.00    -0.275 OA
ATOM     12  N   UNL     1      -3.866   2.829 -19.955  1.00  0.00    -0.369 N 
ATOM     13  H   UNL     1      -4.639   2.910 -19.258  1.00  0.00     0.159 HD
ATOM     14  H   UNL     1      -2.885   2.729 -19.614  1.00  0.00     0.159 HD
ENDBRANCH   1  10
TORSDOF 4
ENDMDL
MODEL 9
REMARK VINA RESULT:    -3.312      2.513      3.517
REMARK INTER + INTRA:          -4.235
REMARK INTER:                  -3.753
REMARK INTRA:                  -0.482
REMARK UNBOUND:                -0.246
REMARK SMILES NC(=O)C[C@@H]([NH3+])C(=O)[O-]
REMARK SMILES IDX 4 1 5 2 6 3 7 7 8 8 9 9 2 10 3 11 1 12
REMARK H PARENT 6 4 6 5 6 6 1 13 1 14
REMARK Flexibility Score: inf
ROOT
ATOM      1  C   UNL     1      -5.703   2.419 -21.741  1.00  0.00     0.171 C 
ENDROOT
BRANCH   1   2
ATOM      2  C   UNL     1      -6.280   3.635 -22.494  1.00  0.00     0.237 C 
BRANCH   2   3
ATOM      3  N   UNL     1      -6.364   4.799 -21.603  1.00  0.00    -0.350 N 
ATOM      4  H   UNL     1      -5.877   4.589 -20.700  1.00  0.00     0.345 HD
ATOM      5  H   UNL     1      -5.919   5.636 -22.045  1.00  0.00     0.345 HD
ATOM      6  H   UNL     1      -7.367   5.012 -21.391  1.00  0.00     0.345 HD
ENDBRANCH   2   3
BRANCH   2   7
ATOM      7  C   UNL     1      -5.451   3.967 -23.707  1.00  0.00     0.100 C 
ATOM      8  O   UNL     1      -4.234   4.268 -23.586  1.00  0.00    -0.544 OA
ATOM      9  O   UNL     1      -6.024   3.925 -24.972  1.00  0.00    -0.544 OA
ENDBRANCH   2   7
ENDBRANCH   1   2
BRANCH   1  10
ATOM     10  C   UNL     1      -4.785   2.841 -20.631  1.00  0.00     0.223 C 
ATOM     11  O   UNL     1      -5.259   3.114 -19.496  1.00  0.00    -0.275 OA
ATOM     12  N   UNL     1      -3.382   2.968 -20.862  1.00  0.00    -0.369 N 
ATOM     13  H   UNL     1      -2.977   2.760 -21.802  1.00  0.00     0.159 HD
ATOM     14  H   UNL     1      -2.747   3.274 -20.093  1.00  0.00     0.159 HD
ENDBRANCH   1  10
TORSDOF 4
ENDMDL
