MODEL 1
REMARK VINA RESULT:    -6.994      0.000      0.000
REMARK INTER + INTRA:         -10.874
REMARK INTER:                 -10.264
REMARK INTRA:                  -0.609
REMARK UNBOUND:                -0.609
REMARK SMILES CCCOC(=O)c1ccccc1C(=O)OCCC
REMARK SMILES IDX 7 1 8 2 9 3 10 4 11 5 12 6 5 7 6 8 4 9 3 10 2 11 1 12 13 13
REMARK SMILES IDX 14 14 15 15 16 16 17 17 18 18
REMARK H PARENT
REMARK Flexibility Score: inf
ROOT
ATOM      1  C   UNL     1     132.207 131.728 130.307  1.00  0.00     0.074 A 
ATOM      2  C   UNL     1     131.900 132.794 129.442  1.00  0.00     0.016 A 
ATOM      3  C   UNL     1     132.853 133.768 129.144  1.00  0.00     0.001 A 
ATOM      4  C   UNL     1     134.127 133.693 129.704  1.00  0.00     0.001 A 
ATOM      5  C   UNL     1     134.460 132.631 130.546  1.00  0.00     0.016 A 
ATOM      6  C   UNL     1     133.521 131.626 130.841  1.00  0.00     0.074 A 
ENDROOT
BRANCH   1   7
ATOM      7  C   UNL     1     131.118 130.793 130.667  1.00  0.00     0.339 C 
ATOM      8  O   UNL     1     130.013 131.237 131.087  1.00  0.00    -0.246 OA
BRANCH   7   9
ATOM      9  O   UNL     1     131.302 129.418 130.485  1.00  0.00    -0.462 OA
BRANCH   9  10
ATOM     10  C   UNL     1     130.744 128.428 131.348  1.00  0.00     0.233 C 
BRANCH  10  11
ATOM     11  C   UNL     1     130.786 128.880 132.812  1.00  0.00     0.038 C 
ATOM     12  C   UNL     1     131.642 127.950 133.668  1.00  0.00     0.007 C 
ENDBRANCH  10  11
ENDBRANCH   9  10
ENDBRANCH   7   9
ENDBRANCH   1   7
BRANCH   6  13
ATOM     13  C   UNL     1     133.976 130.470 131.647  1.00  0.00     0.339 C 
ATOM     14  O   UNL     1     133.881 130.490 132.906  1.00  0.00    -0.246 OA
BRANCH  13  15
ATOM     15  O   UNL     1     134.458 129.328 131.000  1.00  0.00    -0.462 OA
BRANCH  15  16
ATOM     16  C   UNL     1     134.480 128.044 131.614  1.00  0.00     0.233 C 
BRANCH  16  17
ATOM     17  C   UNL     1     134.116 126.967 130.592  1.00  0.00     0.038 C 
ATOM     18  C   UNL     1     133.732 125.652 131.266  1.00  0.00     0.007 C 
ENDBRANCH  16  17
ENDBRANCH  15  16
ENDBRANCH  13  15
ENDBRANCH   6  13
TORSDOF 8
ENDMDL
MODEL 2
REMARK VINA RESULT:    -6.939      0.058      3.322
REMARK INTER + INTRA:         -10.794
REMARK INTER:                 -10.223
REMARK INTRA:                  -0.571
REMARK UNBOUND:                -0.609
REMARK SMILES CCCOC(=O)c1ccccc1C(=O)OCCC
REMARK SMILES IDX 7 1 8 2 9 3 10 4 11 5 12 6 5 7 6 8 4 9 3 10 2 11 1 12 13 13
REMARK SMILES IDX 14 14 15 15 16 16 17 17 18 18
REMARK H PARENT
REMARK Flexibility Score: inf
ROOT
ATOM      1  C   UNL     1     133.511 131.642 130.899  1.00  0.00     0.074 A 
ATOM      2  C   UNL     1     134.438 132.666 130.631  1.00  0.00     0.016 A 
ATOM      3  C   UNL     1     134.104 133.728 129.791  1.00  0.00     0.001 A 
ATOM      4  C   UNL     1     132.841 133.785 129.205  1.00  0.00     0.001 A 
ATOM      5  C   UNL     1     131.898 132.792 129.477  1.00  0.00     0.016 A 
ATOM      6  C   UNL     1     132.207 131.725 130.339  1.00  0.00     0.074 A 
ENDROOT
BRANCH   1   7
ATOM      7  C   UNL     1     133.967 130.490 131.709  1.00  0.00     0.339 C 
ATOM      8  O   UNL     1     133.831 130.502 132.963  1.00  0.00    -0.246 OA
BRANCH   7   9
ATOM      9  O   UNL     1     134.499 129.365 131.067  1.00  0.00    -0.462 OA
BRANCH   9  10
ATOM     10  C   UNL     1     134.498 128.059 131.640  1.00  0.00     0.233 C 
BRANCH  10  11
ATOM     11  C   UNL     1     134.133 126.995 130.599  1.00  0.00     0.038 C 
ATOM     12  C   UNL     1     133.711 125.682 131.254  1.00  0.00     0.007 C 
ENDBRANCH  10  11
ENDBRANCH   9  10
ENDBRANCH   7   9
ENDBRANCH   1   7
BRANCH   6  13
ATOM     13  C   UNL     1     131.124 130.771 130.673  1.00  0.00     0.339 C 
ATOM     14  O   UNL     1     130.007 131.190 131.084  1.00  0.00    -0.246 OA
BRANCH  13  15
ATOM     15  O   UNL     1     131.329 129.401 130.473  1.00  0.00    -0.462 OA
BRANCH  15  16
ATOM     16  C   UNL     1     130.758 128.406 131.315  1.00  0.00     0.233 C 
BRANCH  16  17
ATOM     17  C   UNL     1     130.767 128.880 132.768  1.00  0.00     0.038 C 
ATOM     18  C   UNL     1     131.598 127.960 133.660  1.00  0.00     0.007 C 
ENDBRANCH  16  17
ENDBRANCH  15  16
ENDBRANCH  13  15
ENDBRANCH   6  13
TORSDOF 8
ENDMDL
MODEL 3
REMARK VINA RESULT:    -6.763      4.534      7.998
REMARK INTER + INTRA:         -10.536
REMARK INTER:                 -10.005
REMARK INTRA:                  -0.530
REMARK UNBOUND:                -0.609
REMARK SMILES CCCOC(=O)c1ccccc1C(=O)OCCC
REMARK SMILES IDX 7 1 8 2 9 3 10 4 11 5 12 6 5 7 6 8 4 9 3 10 2 11 1 12 13 13
REMARK SMILES IDX 14 14 15 15 16 16 17 17 18 18
REMARK H PARENT
REMARK Flexibility Score: inf
ROOT
ATOM      1  C   UNL     1     134.128 134.614 130.391  1.00  0.00     0.074 A 
ATOM      2  C   UNL     1     134.522 133.570 129.534  1.00  0.00     0.016 A 
ATOM      3  C   UNL     1     133.616 132.581 129.153  1.00  0.00     0.001 A 
ATOM      4  C   UNL     1     132.304 132.617 129.621  1.00  0.00     0.001 A 
ATOM      5  C   UNL     1     131.886 133.657 130.453  1.00  0.00     0.016 A 
ATOM      6  C   UNL     1     132.778 134.677 130.831  1.00  0.00     0.074 A 
ENDROOT
BRANCH   1   7
ATOM      7  C   UNL     1     135.167 135.566 130.844  1.00  0.00     0.339 C 
ATOM      8  O   UNL     1     136.285 135.143 131.248  1.00  0.00    -0.246 OA
BRANCH   7   9
ATOM      9  O   UNL     1     134.921 136.942 130.766  1.00  0.00    -0.462 OA
BRANCH   9  10
ATOM     10  C   UNL     1     135.548 137.903 131.614  1.00  0.00     0.233 C 
BRANCH  10  11
ATOM     11  C   UNL     1     135.466 137.483 133.086  1.00  0.00     0.038 C 
ATOM     12  C   UNL     1     134.410 138.281 133.846  1.00  0.00     0.007 C 
ENDBRANCH  10  11
ENDBRANCH   9  10
ENDBRANCH   7   9
ENDBRANCH   1   7
BRANCH   6  13
ATOM     13  C   UNL     1     132.239 135.809 131.621  1.00  0.00     0.339 C 
ATOM     14  O   UNL     1     132.207 135.751 132.881  1.00  0.00    -0.246 OA
BRANCH  13  15
ATOM     15  O   UNL     1     131.821 136.969 130.962  1.00  0.00    -0.462 OA
BRANCH  15  16
ATOM     16  C   UNL     1     131.706 138.228 131.615  1.00  0.00     0.233 C 
BRANCH  16  17
ATOM     17  C   UNL     1     131.983 139.359 130.626  1.00  0.00     0.038 C 
ATOM     18  C   UNL     1     132.588 140.581 131.315  1.00  0.00     0.007 C 
ENDBRANCH  16  17
ENDBRANCH  15  16
ENDBRANCH  13  15
ENDBRANCH   6  13
TORSDOF 8
ENDMDL
MODEL 4
REMARK VINA RESULT:    -6.710      4.626      7.611
REMARK INTER + INTRA:         -10.458
REMARK INTER:                  -9.895
REMARK INTRA:                  -0.562
REMARK UNBOUND:                -0.609
REMARK SMILES CCCOC(=O)c1ccccc1C(=O)OCCC
REMARK SMILES IDX 7 1 8 2 9 3 10 4 11 5 12 6 5 7 6 8 4 9 3 10 2 11 1 12 13 13
REMARK SMILES IDX 14 14 15 15 16 16 17 17 18 18
REMARK H PARENT
REMARK Flexibility Score: inf
ROOT
ATOM      1  C   UNL     1     132.928 134.755 130.801  1.00  0.00     0.074 A 
ATOM      2  C   UNL     1     132.085 133.727 130.340  1.00  0.00     0.016 A 
ATOM      3  C   UNL     1     132.586 132.702 129.536  1.00  0.00     0.001 A 
ATOM      4  C   UNL     1     133.932 132.688 129.180  1.00  0.00     0.001 A 
ATOM      5  C   UNL     1     134.791 133.685 129.646  1.00  0.00     0.016 A 
ATOM      6  C   UNL     1     134.312 134.714 130.476  1.00  0.00     0.074 A 
ENDROOT
BRANCH   1   7
ATOM      7  C   UNL     1     132.311 135.868 131.556  1.00  0.00     0.339 C 
ATOM      8  O   UNL     1     132.264 135.832 132.816  1.00  0.00    -0.246 OA
BRANCH   7   9
ATOM      9  O   UNL     1     131.831 136.986 130.864  1.00  0.00    -0.462 OA
BRANCH   9  10
ATOM     10  C   UNL     1     131.644 138.265 131.469  1.00  0.00     0.233 C 
BRANCH  10  11
ATOM     11  C   UNL     1     131.982 139.397 130.492  1.00  0.00     0.038 C 
ATOM     12  C   UNL     1     132.439 140.658 131.222  1.00  0.00     0.007 C 
ENDBRANCH  10  11
ENDBRANCH   9  10
ENDBRANCH   7   9
ENDBRANCH   1   7
BRANCH   6  13
ATOM     13  C   UNL     1     135.297 135.673 131.028  1.00  0.00     0.339 C 
ATOM     14  O   UNL     1     136.391 135.262 131.504  1.00  0.00    -0.246 OA
BRANCH  13  15
ATOM     15  O   UNL     1     135.032 137.045 130.963  1.00  0.00    -0.462 OA
BRANCH  15  16
ATOM     16  C   UNL     1     135.749 138.006 131.730  1.00  0.00     0.233 C 
BRANCH  16  17
ATOM     17  C   UNL     1     134.825 138.646 132.765  1.00  0.00     0.038 C 
ATOM     18  C   UNL     1     134.685 137.778 134.014  1.00  0.00     0.007 C 
ENDBRANCH  16  17
ENDBRANCH  15  16
ENDBRANCH  13  15
ENDBRANCH   6  13
TORSDOF 8
ENDMDL
MODEL 5
REMARK VINA RESULT:    -6.648      1.874      4.317
REMARK INTER + INTRA:         -10.367
REMARK INTER:                  -9.653
REMARK INTRA:                  -0.714
REMARK UNBOUND:                -0.609
REMARK SMILES CCCOC(=O)c1ccccc1C(=O)OCCC
REMARK SMILES IDX 7 1 8 2 9 3 10 4 11 5 12 6 5 7 6 8 4 9 3 10 2 11 1 12 13 13
REMARK SMILES IDX 14 14 15 15 16 16 17 17 18 18
REMARK H PARENT
REMARK Flexibility Score: inf
ROOT
ATOM      1  C   UNL     1     132.859 131.829 130.453  1.00  0.00     0.074 A 
ATOM      2  C   UNL     1     131.632 132.449 130.150  1.00  0.00     0.016 A 
ATOM      3  C   UNL     1     130.426 131.874 130.549  1.00  0.00     0.001 A 
ATOM      4  C   UNL     1     130.423 130.673 131.255  1.00  0.00     0.001 A 
ATOM      5  C   UNL     1     131.629 130.054 131.586  1.00  0.00     0.016 A 
ATOM      6  C   UNL     1     132.858 130.628 131.214  1.00  0.00     0.074 A 
ENDROOT
BRANCH   1   7
ATOM      7  C   UNL     1     134.093 132.434 129.905  1.00  0.00     0.339 C 
ATOM      8  O   UNL     1     134.356 132.338 128.675  1.00  0.00    -0.246 OA
BRANCH   7   9
ATOM      9  O   UNL     1     134.938 133.162 130.752  1.00  0.00    -0.462 OA
BRANCH   9  10
ATOM     10  C   UNL     1     135.270 134.533 130.542  1.00  0.00     0.233 C 
BRANCH  10  11
ATOM     11  C   UNL     1     134.091 135.450 130.885  1.00  0.00     0.038 C 
ATOM     12  C   UNL     1     134.159 136.772 130.123  1.00  0.00     0.007 C 
ENDBRANCH  10  11
ENDBRANCH   9  10
ENDBRANCH   7   9
ENDBRANCH   1   7
BRANCH   6  13
ATOM     13  C   UNL     1     134.099 129.980 131.697  1.00  0.00     0.339 C 
ATOM     14  O   UNL     1     134.718 130.446 132.693  1.00  0.00    -0.246 OA
BRANCH  13  15
ATOM     15  O   UNL     1     134.550 128.810 131.077  1.00  0.00    -0.462 OA
BRANCH  15  16
ATOM     16  C   UNL     1     134.472 127.530 131.695  1.00  0.00     0.233 C 
BRANCH  16  17
ATOM     17  C   UNL     1     134.112 126.468 130.656  1.00  0.00     0.038 C 
ATOM     18  C   UNL     1     133.476 125.238 131.300  1.00  0.00     0.007 C 
ENDBRANCH  16  17
ENDBRANCH  15  16
ENDBRANCH  13  15
ENDBRANCH   6  13
TORSDOF 8
ENDMDL
MODEL 6
REMARK VINA RESULT:    -6.621      1.786      4.769
REMARK INTER + INTRA:         -10.327
REMARK INTER:                  -9.287
REMARK INTRA:                  -1.040
REMARK UNBOUND:                -0.609
REMARK SMILES CCCOC(=O)c1ccccc1C(=O)OCCC
REMARK SMILES IDX 7 1 8 2 9 3 10 4 11 5 12 6 5 7 6 8 4 9 3 10 2 11 1 12 13 13
REMARK SMILES IDX 14 14 15 15 16 16 17 17 18 18
REMARK H PARENT
REMARK Flexibility Score: inf
ROOT
ATOM      1  C   UNL     1     132.789 129.910 131.838  1.00  0.00     0.074 A 
ATOM      2  C   UNL     1     131.651 129.236 132.319  1.00  0.00     0.016 A 
ATOM      3  C   UNL     1     130.370 129.680 131.993  1.00  0.00     0.001 A 
ATOM      4  C   UNL     1     130.203 130.801 131.184  1.00  0.00     0.001 A 
ATOM      5  C   UNL     1     131.318 131.470 130.676  1.00  0.00     0.016 A 
ATOM      6  C   UNL     1     132.619 131.026 130.973  1.00  0.00     0.074 A 
ENDROOT
BRANCH   1   7
ATOM      7  C   UNL     1     134.115 129.453 132.311  1.00  0.00     0.339 C 
ATOM      8  O   UNL     1     134.639 129.976 133.333  1.00  0.00    -0.246 OA
BRANCH   7   9
ATOM      9  O   UNL     1     134.756 128.399 131.650  1.00  0.00    -0.462 OA
BRANCH   9  10
ATOM     10  C   UNL     1     134.162 127.663 130.582  1.00  0.00     0.233 C 
BRANCH  10  11
ATOM     11  C   UNL     1     134.055 126.172 130.927  1.00  0.00     0.038 C 
ATOM     12  C   UNL     1     132.756 125.852 131.662  1.00  0.00     0.007 C 
ENDBRANCH  10  11
ENDBRANCH   9  10
ENDBRANCH   7   9
ENDBRANCH   1   7
BRANCH   6  13
ATOM     13  C   UNL     1     133.752 131.711 130.309  1.00  0.00     0.339 C 
ATOM     14  O   UNL     1     134.002 131.499 129.090  1.00  0.00    -0.246 OA
BRANCH  13  15
ATOM     15  O   UNL     1     134.510 132.641 131.028  1.00  0.00    -0.462 OA
BRANCH  15  16
ATOM     16  C   UNL     1     134.743 133.967 130.566  1.00  0.00     0.233 C 
BRANCH  16  17
ATOM     17  C   UNL     1     133.419 134.721 130.447  1.00  0.00     0.038 C 
ATOM     18  C   UNL     1     132.726 134.869 131.800  1.00  0.00     0.007 C 
ENDBRANCH  16  17
ENDBRANCH  15  16
ENDBRANCH  13  15
ENDBRANCH   6  13
TORSDOF 8
ENDMDL
MODEL 7
REMARK VINA RESULT:    -6.609      1.406      4.915
REMARK INTER + INTRA:         -10.310
REMARK INTER:                  -9.529
REMARK INTRA:                  -0.781
REMARK UNBOUND:                -0.609
REMARK SMILES CCCOC(=O)c1ccccc1C(=O)OCCC
REMARK SMILES IDX 7 1 8 2 9 3 10 4 11 5 12 6 5 7 6 8 4 9 3 10 2 11 1 12 13 13
REMARK SMILES IDX 14 14 15 15 16 16 17 17 18 18
REMARK H PARENT
REMARK Flexibility Score: inf
ROOT
ATOM      1  C   UNL     1     132.627 127.866 132.254  1.00  0.00     0.074 A 
ATOM      2  C   UNL     1     132.375 126.516 131.950  1.00  0.00     0.016 A 
ATOM      3  C   UNL     1     133.221 125.807 131.097  1.00  0.00     0.001 A 
ATOM      4  C   UNL     1     134.330 126.434 130.534  1.00  0.00     0.001 A 
ATOM      5  C   UNL     1     134.612 127.766 130.841  1.00  0.00     0.016 A 
ATOM      6  C   UNL     1     133.785 128.492 131.717  1.00  0.00     0.074 A 
ENDROOT
BRANCH   1   7
ATOM      7  C   UNL     1     131.630 128.588 133.076  1.00  0.00     0.339 C 
ATOM      8  O   UNL     1     131.794 128.698 134.322  1.00  0.00    -0.246 OA
BRANCH   7   9
ATOM      9  O   UNL     1     130.535 129.197 132.452  1.00  0.00    -0.462 OA
BRANCH   9  10
ATOM     10  C   UNL     1     130.595 129.783 131.153  1.00  0.00     0.233 C 
BRANCH  10  11
ATOM     11  C   UNL     1     130.336 131.293 131.212  1.00  0.00     0.038 C 
ATOM     12  C   UNL     1     130.985 132.026 130.041  1.00  0.00     0.007 C 
ENDBRANCH  10  11
ENDBRANCH   9  10
ENDBRANCH   7   9
ENDBRANCH   1   7
BRANCH   6  13
ATOM     13  C   UNL     1     134.206 129.863 132.088  1.00  0.00     0.339 C 
ATOM     14  O   UNL     1     134.839 130.069 133.161  1.00  0.00    -0.246 OA
BRANCH  13  15
ATOM     15  O   UNL     1     133.948 130.923 131.212  1.00  0.00    -0.462 OA
BRANCH  15  16
ATOM     16  C   UNL     1     134.309 132.269 131.504  1.00  0.00     0.233 C 
BRANCH  16  17
ATOM     17  C   UNL     1     134.643 133.013 130.211  1.00  0.00     0.038 C 
ATOM     18  C   UNL     1     135.248 134.387 130.488  1.00  0.00     0.007 C 
ENDBRANCH  16  17
ENDBRANCH  15  16
ENDBRANCH  13  15
ENDBRANCH   6  13
TORSDOF 8
ENDMDL
MODEL 8
REMARK VINA RESULT:    -6.471      4.505      7.109
REMARK INTER + INTRA:         -10.107
REMARK INTER:                  -9.234
REMARK INTRA:                  -0.873
REMARK UNBOUND:                -0.609
REMARK SMILES CCCOC(=O)c1ccccc1C(=O)OCCC
REMARK SMILES IDX 7 1 8 2 9 3 10 4 11 5 12 6 5 7 6 8 4 9 3 10 2 11 1 12 13 13
REMARK SMILES IDX 14 14 15 15 16 16 17 17 18 18
REMARK H PARENT
REMARK Flexibility Score: inf
ROOT
ATOM      1  C   UNL     1     133.579 136.708 132.195  1.00  0.00     0.074 A 
ATOM      2  C   UNL     1     134.700 137.448 132.617  1.00  0.00     0.016 A 
ATOM      3  C   UNL     1     135.989 137.060 132.250  1.00  0.00     0.001 A 
ATOM      4  C   UNL     1     136.180 135.929 131.459  1.00  0.00     0.001 A 
ATOM      5  C   UNL     1     135.081 135.195 131.011  1.00  0.00     0.016 A 
ATOM      6  C   UNL     1     133.772 135.581 131.349  1.00  0.00     0.074 A 
ENDROOT
BRANCH   1   7
ATOM      7  C   UNL     1     132.252 137.110 132.711  1.00  0.00     0.339 C 
ATOM      8  O   UNL     1     131.732 136.490 133.679  1.00  0.00    -0.246 OA
BRANCH   7   9
ATOM      9  O   UNL     1     131.604 138.219 132.153  1.00  0.00    -0.462 OA
BRANCH   9  10
ATOM     10  C   UNL     1     131.860 138.699 130.835  1.00  0.00     0.233 C 
BRANCH  10  11
ATOM     11  C   UNL     1     132.051 140.220 130.825  1.00  0.00     0.038 C 
ATOM     12  C   UNL     1     133.323 140.637 131.560  1.00  0.00     0.007 C 
ENDBRANCH  10  11
ENDBRANCH   9  10
ENDBRANCH   7   9
ENDBRANCH   1   7
BRANCH   6  13
ATOM     13  C   UNL     1     132.649 134.826 130.746  1.00  0.00     0.339 C 
ATOM     14  O   UNL     1     131.833 134.200 131.478  1.00  0.00    -0.246 OA
BRANCH  13  15
ATOM     15  O   UNL     1     132.464 134.860 129.360  1.00  0.00    -0.462 OA
BRANCH  15  16
ATOM     16  C   UNL     1     132.241 133.688 128.584  1.00  0.00     0.233 C 
BRANCH  16  17
ATOM     17  C   UNL     1     133.494 132.814 128.581  1.00  0.00     0.038 C 
ATOM     18  C   UNL     1     133.279 131.511 129.348  1.00  0.00     0.007 C 
ENDBRANCH  16  17
ENDBRANCH  15  16
ENDBRANCH  13  15
ENDBRANCH   6  13
TORSDOF 8
ENDMDL
MODEL 9
REMARK VINA RESULT:    -6.458      4.532      7.532
REMARK INTER + INTRA:         -10.087
REMARK INTER:                  -9.222
REMARK INTRA:                  -0.865
REMARK UNBOUND:                -0.609
REMARK SMILES CCCOC(=O)c1ccccc1C(=O)OCCC
REMARK SMILES IDX 7 1 8 2 9 3 10 4 11 5 12 6 5 7 6 8 4 9 3 10 2 11 1 12 13 13
REMARK SMILES IDX 14 14 15 15 16 16 17 17 18 18
REMARK H PARENT
REMARK Flexibility Score: inf
ROOT
ATOM      1  C   UNL     1     133.836 135.638 131.343  1.00  0.00     0.074 A 
ATOM      2  C   UNL     1     135.159 135.274 131.032  1.00  0.00     0.016 A 
ATOM      3  C   UNL     1     136.235 136.031 131.496  1.00  0.00     0.001 A 
ATOM      4  C   UNL     1     136.007 137.163 132.276  1.00  0.00     0.001 A 
ATOM      5  C   UNL     1     134.704 137.528 132.617  1.00  0.00     0.016 A 
ATOM      6  C   UNL     1     133.606 136.765 132.179  1.00  0.00     0.074 A 
ENDROOT
BRANCH   1   7
ATOM      7  C   UNL     1     132.741 134.856 130.728  1.00  0.00     0.339 C 
ATOM      8  O   UNL     1     131.923 134.227 131.455  1.00  0.00    -0.246 OA
BRANCH   7   9
ATOM      9  O   UNL     1     132.585 134.866 129.337  1.00  0.00    -0.462 OA
BRANCH   9  10
ATOM     10  C   UNL     1     132.362 133.689 128.562  1.00  0.00     0.233 C 
BRANCH  10  11
ATOM     11  C   UNL     1     133.598 132.782 128.561  1.00  0.00     0.038 C 
ATOM     12  C   UNL     1     133.367 131.509 129.372  1.00  0.00     0.007 C 
ENDBRANCH  10  11
ENDBRANCH   9  10
ENDBRANCH   7   9
ENDBRANCH   1   7
BRANCH   6  13
ATOM     13  C   UNL     1     132.261 137.142 132.671  1.00  0.00     0.339 C 
ATOM     14  O   UNL     1     131.777 136.588 133.697  1.00  0.00    -0.246 OA
BRANCH  13  15
ATOM     15  O   UNL     1     131.553 138.161 132.025  1.00  0.00    -0.462 OA
BRANCH  15  16
ATOM     16  C   UNL     1     131.944 138.691 130.763  1.00  0.00     0.233 C 
BRANCH  16  17
ATOM     17  C   UNL     1     132.041 140.214 130.842  1.00  0.00     0.038 C 
ATOM     18  C   UNL     1     133.327 140.666 131.532  1.00  0.00     0.007 C 
ENDBRANCH  16  17
ENDBRANCH  15  16
ENDBRANCH  13  15
ENDBRANCH   6  13
TORSDOF 8
ENDMDL
