MODEL 1
REMARK VINA RESULT:    -7.339      0.000      0.000
REMARK INTER + INTRA:          -9.284
REMARK INTER:                  -8.411
REMARK INTRA:                  -0.872
REMARK UNBOUND:                -0.872
REMARK SMILES C=C(C)[C@@H]1CC[C@@]2(C(=O)[O-])CC[C@@]3(C)[C@H](CC[C@H]4[C@]5(C)CC[C@H](O)C(C)(C)[C@@H]5CC[C@@]43C)[C@@H]12
REMARK SMILES IDX 7 1 6 2 33 3 11 4 5 5 15 6 4 7 12 8 16 9 13 10 17 11 31 12
REMARK SMILES IDX 14 13 18 14 30 15 32 16 19 17 29 18 21 19 20 20 28 21 22 22
REMARK SMILES IDX 25 23 23 24 26 25 27 26 8 27 9 28 10 29 2 30 3 31 1 32 24 33
REMARK H PARENT 24 34
REMARK Flexibility Score: inf
ROOT
ATOM      1  C   UNL     1       0.404  27.972  26.076  1.00  0.00     0.014 C 
ATOM      2  C   UNL     1       1.020  27.474  24.751  1.00  0.00     0.014 C 
ATOM      3  C   UNL     1       0.510  26.733  27.038  1.00  0.00     0.012 C 
ATOM      4  C   UNL     1      -1.056  28.437  25.836  1.00  0.00     0.014 C 
ATOM      5  C   UNL     1       2.119  26.526  25.167  1.00  0.00     0.009 C 
ATOM      6  C   UNL     1      -0.887  26.066  27.305  1.00  0.00     0.000 C 
ATOM      7  C   UNL     1       1.527  25.768  26.349  1.00  0.00     0.018 C 
ATOM      8  C   UNL     1      -1.842  28.482  27.150  1.00  0.00     0.008 C 
ATOM      9  C   UNL     1      -0.813  24.762  28.137  1.00  0.00     0.005 C 
ATOM     10  C   UNL     1      -2.046  27.057  27.794  1.00  0.00    -0.024 C 
ATOM     11  C   UNL     1      -0.818  25.003  29.639  1.00  0.00     0.005 C 
ATOM     12  C   UNL     1      -2.180  27.153  29.425  1.00  0.00    -0.024 C 
ATOM     13  C   UNL     1      -3.364  26.499  27.143  1.00  0.00     0.012 C 
ATOM     14  C   UNL     1      -2.130  25.709  30.056  1.00  0.00     0.002 C 
ATOM     15  C   UNL     1      -3.537  27.791  29.837  1.00  0.00     0.008 C 
ATOM     16  C   UNL     1      -1.059  28.064  30.029  1.00  0.00     0.012 C 
ATOM     17  C   UNL     1      -2.519  25.519  31.598  1.00  0.00    -0.026 C 
ATOM     18  C   UNL     1      -3.812  27.774  31.348  1.00  0.00     0.005 C 
ATOM     19  C   UNL     1      -2.787  23.993  31.846  1.00  0.00     0.010 C 
ATOM     20  C   UNL     1      -1.344  25.920  32.558  1.00  0.00     0.012 C 
ATOM     21  C   UNL     1      -3.812  26.356  31.999  1.00  0.00     0.003 C 
ATOM     22  C   UNL     1      -3.654  23.746  33.076  1.00  0.00     0.033 C 
ATOM     23  C   UNL     1      -5.206  25.573  32.007  1.00  0.00    -0.006 C 
ATOM     24  C   UNL     1      -5.094  24.236  32.857  1.00  0.00     0.120 C 
ATOM     25  C   UNL     1      -5.738  25.275  30.579  1.00  0.00     0.014 C 
ATOM     26  C   UNL     1      -6.299  26.444  32.696  1.00  0.00     0.014 C 
ENDROOT
BRANCH   1  27
ATOM     27  C   UNL     1       1.214  29.153  26.610  1.00  0.00     0.048 C 
ATOM     28  O   UNL     1       1.499  30.125  25.858  1.00  0.00    -0.550 OA
ATOM     29  O   UNL     1       1.550  29.240  27.957  1.00  0.00    -0.550 OA
ENDBRANCH   1  27
BRANCH   7  30
ATOM     30  C   UNL     1       2.612  25.231  27.281  1.00  0.00    -0.077 C 
ATOM     31  C   UNL     1       3.598  26.178  27.912  1.00  0.00     0.039 C 
ATOM     32  C   UNL     1       2.722  23.919  27.548  1.00  0.00     0.008 C 
ENDBRANCH   7  30
BRANCH  24  33
ATOM     33  O   UNL     1      -5.857  23.197  32.285  1.00  0.00    -0.393 OA
ATOM     34  H   UNL     1      -5.238  22.449  32.066  1.00  0.00     0.210 HD
ENDBRANCH  24  33
TORSDOF 3
ENDMDL
MODEL 2
REMARK VINA RESULT:    -7.303      1.078      1.323
REMARK INTER + INTRA:          -9.242
REMARK INTER:                  -8.502
REMARK INTRA:                  -0.741
REMARK UNBOUND:                -0.872
REMARK SMILES C=C(C)[C@@H]1CC[C@@]2(C(=O)[O-])CC[C@@]3(C)[C@H](CC[C@H]4[C@]5(C)CC[C@H](O)C(C)(C)[C@@H]5CC[C@@]43C)[C@@H]12
REMARK SMILES IDX 7 1 6 2 33 3 11 4 5 5 15 6 4 7 12 8 16 9 13 10 17 11 31 12
REMARK SMILES IDX 14 13 18 14 30 15 32 16 19 17 29 18 21 19 20 20 28 21 22 22
REMARK SMILES IDX 25 23 23 24 26 25 27 26 8 27 9 28 10 29 2 30 3 31 1 32 24 33
REMARK H PARENT 24 34
REMARK Flexibility Score: inf
ROOT
ATOM      1  C   UNL     1       0.179  27.417  26.941  1.00  0.00     0.014 C 
ATOM      2  C   UNL     1       0.618  27.074  25.501  1.00  0.00     0.014 C 
ATOM      3  C   UNL     1       0.017  26.017  27.637  1.00  0.00     0.012 C 
ATOM      4  C   UNL     1      -1.136  28.240  26.909  1.00  0.00     0.014 C 
ATOM      5  C   UNL     1       1.471  25.837  25.642  1.00  0.00     0.009 C 
ATOM      6  C   UNL     1      -1.490  25.644  27.881  1.00  0.00     0.000 C 
ATOM      7  C   UNL     1       0.753  25.008  26.699  1.00  0.00     0.018 C 
ATOM      8  C   UNL     1      -1.847  28.193  28.265  1.00  0.00     0.008 C 
ATOM      9  C   UNL     1      -1.702  24.215  28.439  1.00  0.00     0.005 C 
ATOM     10  C   UNL     1      -2.364  26.751  28.639  1.00  0.00    -0.024 C 
ATOM     11  C   UNL     1      -1.603  24.140  29.955  1.00  0.00     0.005 C 
ATOM     12  C   UNL     1      -2.420  26.540  30.264  1.00  0.00    -0.024 C 
ATOM     13  C   UNL     1      -3.796  26.651  27.999  1.00  0.00     0.012 C 
ATOM     14  C   UNL     1      -2.695  25.024  30.601  1.00  0.00     0.002 C 
ATOM     15  C   UNL     1      -3.572  27.371  30.895  1.00  0.00     0.008 C 
ATOM     16  C   UNL     1      -1.097  27.030  30.941  1.00  0.00     0.012 C 
ATOM     17  C   UNL     1      -3.071  24.617  32.104  1.00  0.00    -0.026 C 
ATOM     18  C   UNL     1      -3.797  27.109  32.392  1.00  0.00     0.005 C 
ATOM     19  C   UNL     1      -3.686  23.174  32.076  1.00  0.00     0.010 C 
ATOM     20  C   UNL     1      -1.804  24.537  33.028  1.00  0.00     0.012 C 
ATOM     21  C   UNL     1      -4.114  25.626  32.758  1.00  0.00     0.003 C 
ATOM     22  C   UNL     1      -4.548  22.884  33.300  1.00  0.00     0.033 C 
ATOM     23  C   UNL     1      -5.653  25.194  32.725  1.00  0.00    -0.006 C 
ATOM     24  C   UNL     1      -5.836  23.721  33.292  1.00  0.00     0.120 C 
ATOM     25  C   UNL     1      -6.285  25.322  31.312  1.00  0.00     0.014 C 
ATOM     26  C   UNL     1      -6.485  26.130  33.651  1.00  0.00     0.014 C 
ENDROOT
BRANCH   1  27
ATOM     27  C   UNL     1       1.263  28.250  27.626  1.00  0.00     0.048 C 
ATOM     28  O   UNL     1       1.833  27.823  28.667  1.00  0.00    -0.550 OA
ATOM     29  O   UNL     1       1.726  29.431  27.056  1.00  0.00    -0.550 OA
ENDBRANCH   1  27
BRANCH   7  30
ATOM     30  C   UNL     1       1.708  24.061  27.424  1.00  0.00    -0.077 C 
ATOM     31  C   UNL     1       3.107  24.509  27.753  1.00  0.00     0.039 C 
ATOM     32  C   UNL     1       1.335  22.817  27.770  1.00  0.00     0.008 C 
ENDBRANCH   7  30
BRANCH  24  33
ATOM     33  O   UNL     1      -6.841  23.022  32.594  1.00  0.00    -0.393 OA
ATOM     34  H   UNL     1      -7.571  22.814  33.237  1.00  0.00     0.210 HD
ENDBRANCH  24  33
TORSDOF 3
ENDMDL
MODEL 3
REMARK VINA RESULT:    -7.285      1.394      1.755
REMARK INTER + INTRA:          -9.223
REMARK INTER:                  -8.554
REMARK INTRA:                  -0.669
REMARK UNBOUND:                -0.872
REMARK SMILES C=C(C)[C@@H]1CC[C@@]2(C(=O)[O-])CC[C@@]3(C)[C@H](CC[C@H]4[C@]5(C)CC[C@H](O)C(C)(C)[C@@H]5CC[C@@]43C)[C@@H]12
REMARK SMILES IDX 7 1 6 2 33 3 11 4 5 5 15 6 4 7 12 8 16 9 13 10 17 11 31 12
REMARK SMILES IDX 14 13 18 14 30 15 32 16 19 17 29 18 21 19 20 20 28 21 22 22
REMARK SMILES IDX 25 23 23 24 26 25 27 26 8 27 9 28 10 29 2 30 3 31 1 32 24 33
REMARK H PARENT 24 34
REMARK Flexibility Score: inf
ROOT
ATOM      1  C   UNL     1       1.334  27.886  27.773  1.00  0.00     0.014 C 
ATOM      2  C   UNL     1       1.769  27.812  26.294  1.00  0.00     0.014 C 
ATOM      3  C   UNL     1       0.876  26.421  28.114  1.00  0.00     0.012 C 
ATOM      4  C   UNL     1       0.201  28.934  27.936  1.00  0.00     0.014 C 
ATOM      5  C   UNL     1       2.366  26.434  26.136  1.00  0.00     0.009 C 
ATOM      6  C   UNL     1      -0.684  26.303  28.257  1.00  0.00     0.000 C 
ATOM      7  C   UNL     1       1.453  25.536  26.963  1.00  0.00     0.018 C 
ATOM      8  C   UNL     1      -0.572  28.710  29.240  1.00  0.00     0.008 C 
ATOM      9  C   UNL     1      -1.189  24.853  28.457  1.00  0.00     0.005 C 
ATOM     10  C   UNL     1      -1.369  27.350  29.256  1.00  0.00    -0.024 C 
ATOM     11  C   UNL     1      -1.181  24.406  29.911  1.00  0.00     0.005 C 
ATOM     12  C   UNL     1      -1.544  26.779  30.784  1.00  0.00    -0.024 C 
ATOM     13  C   UNL     1      -2.762  27.684  28.608  1.00  0.00     0.012 C 
ATOM     14  C   UNL     1      -2.116  25.310  30.748  1.00  0.00     0.002 C 
ATOM     15  C   UNL     1      -2.548  27.647  31.592  1.00  0.00     0.008 C 
ATOM     16  C   UNL     1      -0.186  26.829  31.561  1.00  0.00     0.012 C 
ATOM     17  C   UNL     1      -2.635  24.644  32.108  1.00  0.00    -0.026 C 
ATOM     18  C   UNL     1      -2.891  27.091  32.982  1.00  0.00     0.005 C 
ATOM     19  C   UNL     1      -3.509  23.395  31.734  1.00  0.00     0.010 C 
ATOM     20  C   UNL     1      -1.453  24.103  32.989  1.00  0.00     0.012 C 
ATOM     21  C   UNL     1      -3.500  25.654  32.982  1.00  0.00     0.003 C 
ATOM     22  C   UNL     1      -4.469  23.001  32.851  1.00  0.00     0.033 C 
ATOM     23  C   UNL     1      -5.089  25.551  32.844  1.00  0.00    -0.006 C 
ATOM     24  C   UNL     1      -5.574  24.051  33.041  1.00  0.00     0.120 C 
ATOM     25  C   UNL     1      -5.615  26.128  31.500  1.00  0.00     0.014 C 
ATOM     26  C   UNL     1      -5.774  26.388  33.965  1.00  0.00     0.014 C 
ENDROOT
BRANCH   1  27
ATOM     27  C   UNL     1       2.520  28.307  28.640  1.00  0.00     0.048 C 
ATOM     28  O   UNL     1       2.905  29.508  28.657  1.00  0.00    -0.550 OA
ATOM     29  O   UNL     1       3.123  27.408  29.514  1.00  0.00    -0.550 OA
ENDBRANCH   1  27
BRANCH   7  30
ATOM     30  C   UNL     1       2.175  24.278  27.442  1.00  0.00    -0.077 C 
ATOM     31  C   UNL     1       1.419  22.984  27.586  1.00  0.00     0.039 C 
ATOM     32  C   UNL     1       3.482  24.295  27.754  1.00  0.00     0.008 C 
ENDBRANCH   7  30
BRANCH  24  33
ATOM     33  O   UNL     1      -6.658  23.745  32.193  1.00  0.00    -0.393 OA
ATOM     34  H   UNL     1      -7.059  24.603  31.888  1.00  0.00     0.210 HD
ENDBRANCH  24  33
TORSDOF 3
ENDMDL
MODEL 4
REMARK VINA RESULT:    -6.924      1.828      7.524
REMARK INTER + INTRA:          -8.809
REMARK INTER:                  -8.715
REMARK INTRA:                  -0.093
REMARK UNBOUND:                -0.872
REMARK SMILES C=C(C)[C@@H]1CC[C@@]2(C(=O)[O-])CC[C@@]3(C)[C@H](CC[C@H]4[C@]5(C)CC[C@H](O)C(C)(C)[C@@H]5CC[C@@]43C)[C@@H]12
REMARK SMILES IDX 7 1 6 2 33 3 11 4 5 5 15 6 4 7 12 8 16 9 13 10 17 11 31 12
REMARK SMILES IDX 14 13 18 14 30 15 32 16 19 17 29 18 21 19 20 20 28 21 22 22
REMARK SMILES IDX 25 23 23 24 26 25 27 26 8 27 9 28 10 29 2 30 3 31 1 32 24 33
REMARK H PARENT 24 34
REMARK Flexibility Score: inf
ROOT
ATOM      1  C   UNL     1      -5.434  26.866  31.783  1.00  0.00     0.014 C 
ATOM      2  C   UNL     1      -5.820  26.998  33.272  1.00  0.00     0.014 C 
ATOM      3  C   UNL     1      -4.444  25.645  31.750  1.00  0.00     0.012 C 
ATOM      4  C   UNL     1      -4.791  28.187  31.286  1.00  0.00     0.014 C 
ATOM      5  C   UNL     1      -5.841  25.582  33.793  1.00  0.00     0.009 C 
ATOM      6  C   UNL     1      -2.958  26.090  31.503  1.00  0.00     0.000 C 
ATOM      7  C   UNL     1      -4.645  24.920  33.119  1.00  0.00     0.018 C 
ATOM      8  C   UNL     1      -3.980  27.958  30.007  1.00  0.00     0.008 C 
ATOM      9  C   UNL     1      -1.931  24.935  31.599  1.00  0.00     0.005 C 
ATOM     10  C   UNL     1      -2.720  27.038  30.234  1.00  0.00    -0.024 C 
ATOM     11  C   UNL     1      -1.753  24.176  30.292  1.00  0.00     0.005 C 
ATOM     12  C   UNL     1      -2.325  26.219  28.870  1.00  0.00    -0.024 C 
ATOM     13  C   UNL     1      -1.570  28.020  30.665  1.00  0.00     0.012 C 
ATOM     14  C   UNL     1      -1.231  25.130  29.193  1.00  0.00     0.002 C 
ATOM     15  C   UNL     1      -1.726  27.174  27.799  1.00  0.00     0.008 C 
ATOM     16  C   UNL     1      -3.590  25.562  28.222  1.00  0.00     0.012 C 
ATOM     17  C   UNL     1      -0.483  24.396  27.982  1.00  0.00    -0.026 C 
ATOM     18  C   UNL     1      -1.183  26.464  26.550  1.00  0.00     0.005 C 
ATOM     19  C   UNL     1       0.802  23.701  28.556  1.00  0.00     0.010 C 
ATOM     20  C   UNL     1      -1.357  23.252  27.355  1.00  0.00     0.012 C 
ATOM     21  C   UNL     1      -0.067  25.409  26.828  1.00  0.00     0.003 C 
ATOM     22  C   UNL     1       1.850  23.435  27.481  1.00  0.00     0.033 C 
ATOM     23  C   UNL     1       1.438  25.949  26.848  1.00  0.00    -0.006 C 
ATOM     24  C   UNL     1       2.465  24.742  26.959  1.00  0.00     0.120 C 
ATOM     25  C   UNL     1       1.689  26.991  27.972  1.00  0.00     0.014 C 
ATOM     26  C   UNL     1       1.757  26.679  25.509  1.00  0.00     0.014 C 
ENDROOT
BRANCH   1  27
ATOM     27  C   UNL     1      -6.683  26.583  30.949  1.00  0.00     0.048 C 
ATOM     28  O   UNL     1      -7.049  25.396  30.728  1.00  0.00    -0.550 OA
ATOM     29  O   UNL     1      -7.506  27.619  30.518  1.00  0.00    -0.550 OA
ENDBRANCH   1  27
BRANCH   7  30
ATOM     30  C   UNL     1      -4.822  23.407  33.006  1.00  0.00    -0.077 C 
ATOM     31  C   UNL     1      -5.910  22.715  33.785  1.00  0.00     0.039 C 
ATOM     32  C   UNL     1      -4.017  22.662  32.231  1.00  0.00     0.008 C 
ENDBRANCH   7  30
BRANCH  24  33
ATOM     33  O   UNL     1       3.576  25.084  27.758  1.00  0.00    -0.393 OA
ATOM     34  H   UNL     1       3.550  24.517  28.575  1.00  0.00     0.210 HD
ENDBRANCH  24  33
TORSDOF 3
ENDMDL
MODEL 5
REMARK VINA RESULT:    -6.873      1.661      2.779
REMARK INTER + INTRA:          -8.750
REMARK INTER:                  -7.953
REMARK INTRA:                  -0.797
REMARK UNBOUND:                -0.872
REMARK SMILES C=C(C)[C@@H]1CC[C@@]2(C(=O)[O-])CC[C@@]3(C)[C@H](CC[C@H]4[C@]5(C)CC[C@H](O)C(C)(C)[C@@H]5CC[C@@]43C)[C@@H]12
REMARK SMILES IDX 7 1 6 2 33 3 11 4 5 5 15 6 4 7 12 8 16 9 13 10 17 11 31 12
REMARK SMILES IDX 14 13 18 14 30 15 32 16 19 17 29 18 21 19 20 20 28 21 22 22
REMARK SMILES IDX 25 23 23 24 26 25 27 26 8 27 9 28 10 29 2 30 3 31 1 32 24 33
REMARK H PARENT 24 34
REMARK Flexibility Score: inf
ROOT
ATOM      1  C   UNL     1       0.991  25.816  26.702  1.00  0.00     0.014 C 
ATOM      2  C   UNL     1       2.386  25.159  26.632  1.00  0.00     0.014 C 
ATOM      3  C   UNL     1       0.891  26.350  28.177  1.00  0.00     0.012 C 
ATOM      4  C   UNL     1      -0.102  24.771  26.355  1.00  0.00     0.014 C 
ATOM      5  C   UNL     1       3.256  26.002  27.532  1.00  0.00     0.009 C 
ATOM      6  C   UNL     1      -0.098  25.500  29.053  1.00  0.00     0.000 C 
ATOM      7  C   UNL     1       2.357  26.330  28.718  1.00  0.00     0.018 C 
ATOM      8  C   UNL     1      -1.475  25.222  26.862  1.00  0.00     0.008 C 
ATOM      9  C   UNL     1      -0.124  25.906  30.547  1.00  0.00     0.005 C 
ATOM     10  C   UNL     1      -1.560  25.285  28.434  1.00  0.00    -0.024 C 
ATOM     11  C   UNL     1      -1.088  27.044  30.846  1.00  0.00     0.005 C 
ATOM     12  C   UNL     1      -2.650  26.406  28.929  1.00  0.00    -0.024 C 
ATOM     13  C   UNL     1      -1.985  23.838  28.880  1.00  0.00     0.012 C 
ATOM     14  C   UNL     1      -2.532  26.622  30.487  1.00  0.00     0.002 C 
ATOM     15  C   UNL     1      -4.103  25.937  28.636  1.00  0.00     0.008 C 
ATOM     16  C   UNL     1      -2.456  27.756  28.162  1.00  0.00     0.012 C 
ATOM     17  C   UNL     1      -3.671  27.454  31.245  1.00  0.00    -0.026 C 
ATOM     18  C   UNL     1      -5.193  26.855  29.210  1.00  0.00     0.005 C 
ATOM     19  C   UNL     1      -3.539  27.168  32.782  1.00  0.00     0.010 C 
ATOM     20  C   UNL     1      -3.485  29.004  31.070  1.00  0.00     0.012 C 
ATOM     21  C   UNL     1      -5.132  27.058  30.756  1.00  0.00     0.003 C 
ATOM     22  C   UNL     1      -4.831  27.448  33.541  1.00  0.00     0.033 C 
ATOM     23  C   UNL     1      -5.931  25.999  31.649  1.00  0.00    -0.006 C 
ATOM     24  C   UNL     1      -5.929  26.437  33.176  1.00  0.00     0.120 C 
ATOM     25  C   UNL     1      -5.393  24.551  31.490  1.00  0.00     0.014 C 
ATOM     26  C   UNL     1      -7.423  25.951  31.205  1.00  0.00     0.014 C 
ENDROOT
BRANCH   1  27
ATOM     27  C   UNL     1       0.910  26.964  25.696  1.00  0.00     0.048 C 
ATOM     28  O   UNL     1       0.162  27.955  25.916  1.00  0.00    -0.550 OA
ATOM     29  O   UNL     1       1.743  26.999  24.581  1.00  0.00    -0.550 OA
ENDBRANCH   1  27
BRANCH   7  30
ATOM     30  C   UNL     1       2.785  27.620  29.416  1.00  0.00    -0.077 C 
ATOM     31  C   UNL     1       1.911  28.844  29.338  1.00  0.00     0.039 C 
ATOM     32  C   UNL     1       3.940  27.699  30.097  1.00  0.00     0.008 C 
ENDBRANCH   7  30
BRANCH  24  33
ATOM     33  O   UNL     1      -5.835  25.320  34.031  1.00  0.00    -0.393 OA
ATOM     34  H   UNL     1      -5.501  24.552  33.494  1.00  0.00     0.210 HD
ENDBRANCH  24  33
TORSDOF 3
ENDMDL
MODEL 6
REMARK VINA RESULT:    -6.733      1.840      7.825
REMARK INTER + INTRA:          -8.590
REMARK INTER:                  -7.655
REMARK INTRA:                  -0.934
REMARK UNBOUND:                -0.872
REMARK SMILES C=C(C)[C@@H]1CC[C@@]2(C(=O)[O-])CC[C@@]3(C)[C@H](CC[C@H]4[C@]5(C)CC[C@H](O)C(C)(C)[C@@H]5CC[C@@]43C)[C@@H]12
REMARK SMILES IDX 7 1 6 2 33 3 11 4 5 5 15 6 4 7 12 8 16 9 13 10 17 11 31 12
REMARK SMILES IDX 14 13 18 14 30 15 32 16 19 17 29 18 21 19 20 20 28 21 22 22
REMARK SMILES IDX 25 23 23 24 26 25 27 26 8 27 9 28 10 29 2 30 3 31 1 32 24 33
REMARK H PARENT 24 34
REMARK Flexibility Score: inf
ROOT
ATOM      1  C   UNL     1      -4.591  25.047  31.733  1.00  0.00     0.014 C 
ATOM      2  C   UNL     1      -6.034  24.500  31.691  1.00  0.00     0.014 C 
ATOM      3  C   UNL     1      -4.575  26.175  30.637  1.00  0.00     0.012 C 
ATOM      4  C   UNL     1      -3.585  23.902  31.444  1.00  0.00     0.014 C 
ATOM      5  C   UNL     1      -6.892  25.699  31.369  1.00  0.00     0.009 C 
ATOM      6  C   UNL     1      -3.766  25.753  29.359  1.00  0.00     0.000 C 
ATOM      7  C   UNL     1      -6.080  26.473  30.338  1.00  0.00     0.018 C 
ATOM      8  C   UNL     1      -2.226  24.461  31.010  1.00  0.00     0.008 C 
ATOM      9  C   UNL     1      -3.839  26.778  28.201  1.00  0.00     0.005 C 
ATOM     10  C   UNL     1      -2.283  25.211  29.625  1.00  0.00    -0.024 C 
ATOM     11  C   UNL     1      -2.795  27.879  28.303  1.00  0.00     0.005 C 
ATOM     12  C   UNL     1      -1.134  26.377  29.530  1.00  0.00    -0.024 C 
ATOM     13  C   UNL     1      -2.054  24.093  28.544  1.00  0.00     0.012 C 
ATOM     14  C   UNL     1      -1.375  27.269  28.252  1.00  0.00     0.002 C 
ATOM     15  C   UNL     1       0.284  25.753  29.398  1.00  0.00     0.008 C 
ATOM     16  C   UNL     1      -1.114  27.254  30.826  1.00  0.00     0.012 C 
ATOM     17  C   UNL     1      -0.233  28.291  27.790  1.00  0.00    -0.026 C 
ATOM     18  C   UNL     1       1.404  26.773  29.144  1.00  0.00     0.005 C 
ATOM     19  C   UNL     1      -0.538  28.724  26.313  1.00  0.00     0.010 C 
ATOM     20  C   UNL     1      -0.239  29.609  28.644  1.00  0.00     0.012 C 
ATOM     21  C   UNL     1       1.219  27.645  27.863  1.00  0.00     0.003 C 
ATOM     22  C   UNL     1       0.699  29.246  25.591  1.00  0.00     0.033 C 
ATOM     23  C   UNL     1       1.816  27.053  26.503  1.00  0.00    -0.006 C 
ATOM     24  C   UNL     1       1.715  28.123  25.333  1.00  0.00     0.120 C 
ATOM     25  C   UNL     1       1.148  25.715  26.085  1.00  0.00     0.014 C 
ATOM     26  C   UNL     1       3.331  26.736  26.683  1.00  0.00     0.014 C 
ENDROOT
BRANCH   1  27
ATOM     27  C   UNL     1      -4.297  25.623  33.118  1.00  0.00     0.048 C 
ATOM     28  O   UNL     1      -4.234  24.865  34.124  1.00  0.00    -0.550 OA
ATOM     29  O   UNL     1      -3.976  26.967  33.282  1.00  0.00    -0.550 OA
ENDBRANCH   1  27
BRANCH   7  30
ATOM     30  C   UNL     1      -6.435  27.959  30.333  1.00  0.00    -0.077 C 
ATOM     31  C   UNL     1      -5.409  28.980  30.745  1.00  0.00     0.039 C 
ATOM     32  C   UNL     1      -7.659  28.386  29.979  1.00  0.00     0.008 C 
ENDBRANCH   7  30
BRANCH  24  33
ATOM     33  O   UNL     1       1.426  27.508  24.097  1.00  0.00    -0.393 OA
ATOM     34  H   UNL     1       0.700  28.029  23.660  1.00  0.00     0.210 HD
ENDBRANCH  24  33
TORSDOF 3
ENDMDL
MODEL 7
REMARK VINA RESULT:    -6.268      1.567      2.103
REMARK INTER + INTRA:          -8.057
REMARK INTER:                  -7.417
REMARK INTRA:                  -0.640
REMARK UNBOUND:                -0.872
REMARK SMILES C=C(C)[C@@H]1CC[C@@]2(C(=O)[O-])CC[C@@]3(C)[C@H](CC[C@H]4[C@]5(C)CC[C@H](O)C(C)(C)[C@@H]5CC[C@@]43C)[C@@H]12
REMARK SMILES IDX 7 1 6 2 33 3 11 4 5 5 15 6 4 7 12 8 16 9 13 10 17 11 31 12
REMARK SMILES IDX 14 13 18 14 30 15 32 16 19 17 29 18 21 19 20 20 28 21 22 22
REMARK SMILES IDX 25 23 23 24 26 25 27 26 8 27 9 28 10 29 2 30 3 31 1 32 24 33
REMARK H PARENT 24 34
REMARK Flexibility Score: inf
ROOT
ATOM      1  C   UNL     1       1.269  27.762  27.383  1.00  0.00     0.014 C 
ATOM      2  C   UNL     1       1.874  27.451  25.998  1.00  0.00     0.014 C 
ATOM      3  C   UNL     1       0.431  26.479  27.735  1.00  0.00     0.012 C 
ATOM      4  C   UNL     1       0.409  29.051  27.305  1.00  0.00     0.014 C 
ATOM      5  C   UNL     1       2.139  25.965  26.017  1.00  0.00     0.009 C 
ATOM      6  C   UNL     1      -1.116  26.734  27.639  1.00  0.00     0.000 C 
ATOM      7  C   UNL     1       0.932  25.381  26.742  1.00  0.00     0.018 C 
ATOM      8  C   UNL     1      -0.567  29.133  28.483  1.00  0.00     0.008 C 
ATOM      9  C   UNL     1      -1.977  25.463  27.843  1.00  0.00     0.005 C 
ATOM     10  C   UNL     1      -1.662  27.999  28.455  1.00  0.00    -0.024 C 
ATOM     11  C   UNL     1      -2.277  25.166  29.304  1.00  0.00     0.005 C 
ATOM     12  C   UNL     1      -2.177  27.630  29.967  1.00  0.00    -0.024 C 
ATOM     13  C   UNL     1      -2.830  28.580  27.578  1.00  0.00     0.012 C 
ATOM     14  C   UNL     1      -3.075  26.334  29.929  1.00  0.00     0.002 C 
ATOM     15  C   UNL     1      -3.046  28.777  30.556  1.00  0.00     0.008 C 
ATOM     16  C   UNL     1      -0.968  27.442  30.943  1.00  0.00     0.012 C 
ATOM     17  C   UNL     1      -3.921  25.935  31.229  1.00  0.00    -0.026 C 
ATOM     18  C   UNL     1      -3.701  28.447  31.906  1.00  0.00     0.005 C 
ATOM     19  C   UNL     1      -5.009  24.890  30.797  1.00  0.00     0.010 C 
ATOM     20  C   UNL     1      -3.036  25.225  32.314  1.00  0.00     0.012 C 
ATOM     21  C   UNL     1      -4.630  27.194  31.895  1.00  0.00     0.003 C 
ATOM     22  C   UNL     1      -6.180  24.832  31.771  1.00  0.00     0.033 C 
ATOM     23  C   UNL     1      -6.163  27.444  31.516  1.00  0.00    -0.006 C 
ATOM     24  C   UNL     1      -7.016  26.120  31.724  1.00  0.00     0.120 C 
ATOM     25  C   UNL     1      -6.345  27.996  30.076  1.00  0.00     0.014 C 
ATOM     26  C   UNL     1      -6.775  28.517  32.465  1.00  0.00     0.014 C 
ENDROOT
BRANCH   1  27
ATOM     27  C   UNL     1       2.390  27.981  28.399  1.00  0.00     0.048 C 
ATOM     28  O   UNL     1       2.938  29.111  28.512  1.00  0.00    -0.550 OA
ATOM     29  O   UNL     1       2.748  26.981  29.297  1.00  0.00    -0.550 OA
ENDBRANCH   1  27
BRANCH   7  30
ATOM     30  C   UNL     1       1.258  24.042  27.402  1.00  0.00    -0.077 C 
ATOM     31  C   UNL     1       0.223  22.950  27.442  1.00  0.00     0.039 C 
ATOM     32  C   UNL     1       2.455  23.812  27.967  1.00  0.00     0.008 C 
ENDBRANCH   7  30
BRANCH  24  33
ATOM     33  O   UNL     1      -8.014  25.990  30.736  1.00  0.00    -0.393 OA
ATOM     34  H   UNL     1      -8.885  26.238  31.149  1.00  0.00     0.210 HD
ENDBRANCH  24  33
TORSDOF 3
ENDMDL
MODEL 8
REMARK VINA RESULT:    -6.114      1.685      2.542
REMARK INTER + INTRA:          -7.880
REMARK INTER:                  -6.991
REMARK INTRA:                  -0.889
REMARK UNBOUND:                -0.872
REMARK SMILES C=C(C)[C@@H]1CC[C@@]2(C(=O)[O-])CC[C@@]3(C)[C@H](CC[C@H]4[C@]5(C)CC[C@H](O)C(C)(C)[C@@H]5CC[C@@]43C)[C@@H]12
REMARK SMILES IDX 7 1 6 2 33 3 11 4 5 5 15 6 4 7 12 8 16 9 13 10 17 11 31 12
REMARK SMILES IDX 14 13 18 14 30 15 32 16 19 17 29 18 21 19 20 20 28 21 22 22
REMARK SMILES IDX 25 23 23 24 26 25 27 26 8 27 9 28 10 29 2 30 3 31 1 32 24 33
REMARK H PARENT 24 34
REMARK Flexibility Score: inf
ROOT
ATOM      1  C   UNL     1       0.385  27.627  27.457  1.00  0.00     0.014 C 
ATOM      2  C   UNL     1       0.735  27.556  25.956  1.00  0.00     0.014 C 
ATOM      3  C   UNL     1      -0.621  26.438  27.674  1.00  0.00     0.012 C 
ATOM      4  C   UNL     1      -0.227  29.013  27.791  1.00  0.00     0.014 C 
ATOM      5  C   UNL     1       0.723  26.084  25.625  1.00  0.00     0.009 C 
ATOM      6  C   UNL     1      -2.094  26.937  27.895  1.00  0.00     0.000 C 
ATOM      7  C   UNL     1      -0.465  25.536  26.407  1.00  0.00     0.018 C 
ATOM      8  C   UNL     1      -1.008  28.967  29.108  1.00  0.00     0.008 C 
ATOM      9  C   UNL     1      -3.139  25.797  27.976  1.00  0.00     0.005 C 
ATOM     10  C   UNL     1      -2.286  28.047  29.033  1.00  0.00    -0.024 C 
ATOM     11  C   UNL     1      -3.294  25.219  29.374  1.00  0.00     0.005 C 
ATOM     12  C   UNL     1      -2.658  27.420  30.502  1.00  0.00    -0.024 C 
ATOM     13  C   UNL     1      -3.433  28.983  28.504  1.00  0.00     0.012 C 
ATOM     14  C   UNL     1      -3.775  26.317  30.350  1.00  0.00     0.002 C 
ATOM     15  C   UNL     1      -3.216  28.517  31.451  1.00  0.00     0.008 C 
ATOM     16  C   UNL     1      -1.386  26.833  31.201  1.00  0.00     0.012 C 
ATOM     17  C   UNL     1      -4.502  25.761  31.664  1.00  0.00    -0.026 C 
ATOM     18  C   UNL     1      -3.738  27.986  32.795  1.00  0.00     0.005 C 
ATOM     19  C   UNL     1      -5.811  25.019  31.217  1.00  0.00     0.010 C 
ATOM     20  C   UNL     1      -3.628  24.695  32.416  1.00  0.00     0.012 C 
ATOM     21  C   UNL     1      -4.874  26.924  32.684  1.00  0.00     0.003 C 
ATOM     22  C   UNL     1      -6.834  24.914  32.342  1.00  0.00     0.033 C 
ATOM     23  C   UNL     1      -6.372  27.482  32.629  1.00  0.00    -0.006 C 
ATOM     24  C   UNL     1      -7.419  26.288  32.701  1.00  0.00     0.120 C 
ATOM     25  C   UNL     1      -6.637  28.372  31.384  1.00  0.00     0.014 C 
ATOM     26  C   UNL     1      -6.647  28.386  33.867  1.00  0.00     0.014 C 
ENDROOT
BRANCH   1  27
ATOM     27  C   UNL     1       1.651  27.434  28.292  1.00  0.00     0.048 C 
ATOM     28  O   UNL     1       2.640  28.201  28.138  1.00  0.00    -0.550 OA
ATOM     29  O   UNL     1       1.697  26.493  29.316  1.00  0.00    -0.550 OA
ENDBRANCH   1  27
BRANCH   7  30
ATOM     30  C   UNL     1      -0.306  24.048  26.714  1.00  0.00    -0.077 C 
ATOM     31  C   UNL     1       0.887  23.563  27.494  1.00  0.00     0.039 C 
ATOM     32  C   UNL     1      -1.206  23.145  26.291  1.00  0.00     0.008 C 
ENDBRANCH   7  30
BRANCH  24  33
ATOM     33  O   UNL     1      -8.545  26.542  31.891  1.00  0.00    -0.393 OA
ATOM     34  H   UNL     1      -9.196  25.803  32.034  1.00  0.00     0.210 HD
ENDBRANCH  24  33
TORSDOF 3
ENDMDL
MODEL 9
REMARK VINA RESULT:    -6.097      1.987      3.884
REMARK INTER + INTRA:          -7.860
REMARK INTER:                  -6.940
REMARK INTRA:                  -0.921
REMARK UNBOUND:                -0.872
REMARK SMILES C=C(C)[C@@H]1CC[C@@]2(C(=O)[O-])CC[C@@]3(C)[C@H](CC[C@H]4[C@]5(C)CC[C@H](O)C(C)(C)[C@@H]5CC[C@@]43C)[C@@H]12
REMARK SMILES IDX 7 1 6 2 33 3 11 4 5 5 15 6 4 7 12 8 16 9 13 10 17 11 31 12
REMARK SMILES IDX 14 13 18 14 30 15 32 16 19 17 29 18 21 19 20 20 28 21 22 22
REMARK SMILES IDX 25 23 23 24 26 25 27 26 8 27 9 28 10 29 2 30 3 31 1 32 24 33
REMARK H PARENT 24 34
REMARK Flexibility Score: inf
ROOT
ATOM      1  C   UNL     1       1.306  26.674  27.396  1.00  0.00     0.014 C 
ATOM      2  C   UNL     1       2.229  27.798  26.880  1.00  0.00     0.014 C 
ATOM      3  C   UNL     1      -0.120  27.335  27.438  1.00  0.00     0.012 C 
ATOM      4  C   UNL     1       1.795  26.188  28.786  1.00  0.00     0.014 C 
ATOM      5  C   UNL     1       1.378  28.582  25.910  1.00  0.00     0.009 C 
ATOM      6  C   UNL     1      -0.601  27.620  28.906  1.00  0.00     0.000 C 
ATOM      7  C   UNL     1       0.007  28.631  26.574  1.00  0.00     0.018 C 
ATOM      8  C   UNL     1       0.682  25.444  29.532  1.00  0.00     0.008 C 
ATOM      9  C   UNL     1      -1.940  28.394  28.990  1.00  0.00     0.005 C 
ATOM     10  C   UNL     1      -0.532  26.375  29.911  1.00  0.00    -0.024 C 
ATOM     11  C   UNL     1      -3.163  27.493  28.933  1.00  0.00     0.005 C 
ATOM     12  C   UNL     1      -1.932  25.525  29.998  1.00  0.00    -0.024 C 
ATOM     13  C   UNL     1      -0.152  26.995  31.306  1.00  0.00     0.012 C 
ATOM     14  C   UNL     1      -3.155  26.512  30.129  1.00  0.00     0.002 C 
ATOM     15  C   UNL     1      -1.947  24.601  31.248  1.00  0.00     0.008 C 
ATOM     16  C   UNL     1      -2.100  24.591  28.753  1.00  0.00     0.012 C 
ATOM     17  C   UNL     1      -4.593  25.922  30.508  1.00  0.00    -0.026 C 
ATOM     18  C   UNL     1      -3.285  23.887  31.492  1.00  0.00     0.005 C 
ATOM     19  C   UNL     1      -5.500  27.115  30.973  1.00  0.00     0.010 C 
ATOM     20  C   UNL     1      -5.314  25.279  29.270  1.00  0.00     0.012 C 
ATOM     21  C   UNL     1      -4.511  24.835  31.669  1.00  0.00     0.003 C 
ATOM     22  C   UNL     1      -6.668  26.657  31.840  1.00  0.00     0.033 C 
ATOM     23  C   UNL     1      -4.816  25.341  33.155  1.00  0.00    -0.006 C 
ATOM     24  C   UNL     1      -6.188  26.141  33.205  1.00  0.00     0.120 C 
ATOM     25  C   UNL     1      -3.661  26.190  33.750  1.00  0.00     0.014 C 
ATOM     26  C   UNL     1      -4.983  24.119  34.106  1.00  0.00     0.014 C 
ENDROOT
BRANCH   1  27
ATOM     27  C   UNL     1       1.336  25.494  26.425  1.00  0.00     0.048 C 
ATOM     28  O   UNL     1       2.400  24.840  26.247  1.00  0.00    -0.550 OA
ATOM     29  O   UNL     1       0.173  25.043  25.810  1.00  0.00    -0.550 OA
ENDBRANCH   1  27
BRANCH   7  30
ATOM     30  C   UNL     1      -1.113  28.814  25.552  1.00  0.00    -0.077 C 
ATOM     31  C   UNL     1      -1.264  30.125  24.826  1.00  0.00     0.039 C 
ATOM     32  C   UNL     1      -1.989  27.830  25.286  1.00  0.00     0.008 C 
ENDBRANCH   7  30
BRANCH  24  33
ATOM     33  O   UNL     1      -6.121  27.219  34.112  1.00  0.00    -0.393 OA
ATOM     34  H   UNL     1      -5.564  26.933  34.885  1.00  0.00     0.210 HD
ENDBRANCH  24  33
TORSDOF 3
ENDMDL
