MODEL 1
REMARK VINA RESULT:    -3.847      0.000      0.000
REMARK INTER + INTRA:          -6.522
REMARK INTER:                  -6.096
REMARK INTRA:                  -0.425
REMARK UNBOUND:                -0.425
REMARK SMILES CCCCCCCCCCCC=O
REMARK SMILES IDX 7 1 6 2 5 3 4 4 3 5 2 6 1 7 8 8 9 9 10 10 11 11 12 12 13 13
REMARK H PARENT
REMARK Flexibility Score: inf
ROOT
ATOM      1  C   UNL     1     165.085 167.535 169.051  1.00  0.00     0.000 C 
ENDROOT
BRANCH   1   2
ATOM      2  C   UNL     1     164.765 166.560 167.902  1.00  0.00     0.000 C 
BRANCH   2   3
ATOM      3  C   UNL     1     163.945 165.319 168.298  1.00  0.00    -0.000 C 
BRANCH   3   4
ATOM      4  C   UNL     1     162.917 164.912 167.228  1.00  0.00    -0.000 C 
BRANCH   4   5
ATOM      5  C   UNL     1     161.538 164.570 167.822  1.00  0.00    -0.000 C 
BRANCH   5   6
ATOM      6  C   UNL     1     160.388 164.496 166.802  1.00  0.00    -0.003 C 
ATOM      7  C   UNL     1     159.050 164.966 167.370  1.00  0.00     0.004 C 
ENDBRANCH   5   6
ENDBRANCH   4   5
ENDBRANCH   3   4
ENDBRANCH   2   3
ENDBRANCH   1   2
BRANCH   1   8
ATOM      8  C   UNL     1     164.592 168.966 168.778  1.00  0.00     0.000 C 
BRANCH   8   9
ATOM      9  C   UNL     1     164.640 169.329 167.285  1.00  0.00     0.000 C 
BRANCH   9  10
ATOM     10  C   UNL     1     164.428 170.833 167.032  1.00  0.00     0.008 C 
BRANCH  10  11
ATOM     11  C   UNL     1     163.672 171.510 168.184  1.00  0.00     0.072 C 
BRANCH  11  12
ATOM     12  C   UNL     1     164.227 172.868 168.500  1.00  0.00     0.224 C 
ATOM     13  O   UNL     1     165.414 173.009 168.748  1.00  0.00    -0.303 OA
ENDBRANCH  11  12
ENDBRANCH  10  11
ENDBRANCH   9  10
ENDBRANCH   8   9
ENDBRANCH   1   8
TORSDOF 10
ENDMDL
MODEL 2
REMARK VINA RESULT:    -3.837      3.208      5.521
REMARK INTER + INTRA:          -6.506
REMARK INTER:                  -6.098
REMARK INTRA:                  -0.408
REMARK UNBOUND:                -0.425
REMARK SMILES CCCCCCCCCCCC=O
REMARK SMILES IDX 7 1 6 2 5 3 4 4 3 5 2 6 1 7 8 8 9 9 10 10 11 11 12 12 13 13
REMARK H PARENT
REMARK Flexibility Score: inf
ROOT
ATOM      1  C   UNL     1     165.104 167.113 168.189  1.00  0.00     0.000 C 
ENDROOT
BRANCH   1   2
ATOM      2  C   UNL     1     166.267 166.803 169.150  1.00  0.00     0.000 C 
BRANCH   2   3
ATOM      3  C   UNL     1     167.281 165.760 168.646  1.00  0.00    -0.000 C 
BRANCH   3   4
ATOM      4  C   UNL     1     168.178 166.293 167.515  1.00  0.00    -0.000 C 
BRANCH   4   5
ATOM      5  C   UNL     1     169.584 166.690 168.003  1.00  0.00    -0.000 C 
BRANCH   5   6
ATOM      6  C   UNL     1     170.625 166.901 166.890  1.00  0.00    -0.003 C 
ATOM      7  C   UNL     1     171.973 166.249 167.198  1.00  0.00     0.004 C 
ENDBRANCH   5   6
ENDBRANCH   4   5
ENDBRANCH   3   4
ENDBRANCH   2   3
ENDBRANCH   1   2
BRANCH   1   8
ATOM      8  C   UNL     1     164.752 168.610 168.136  1.00  0.00     0.000 C 
BRANCH   8   9
ATOM      9  C   UNL     1     164.700 169.151 166.699  1.00  0.00     0.000 C 
BRANCH   9  10
ATOM     10  C   UNL     1     164.488 170.675 166.646  1.00  0.00     0.008 C 
BRANCH  10  11
ATOM     11  C   UNL     1     164.197 171.265 168.032  1.00  0.00     0.072 C 
BRANCH  11  12
ATOM     12  C   UNL     1     164.616 172.703 168.132  1.00  0.00     0.224 C 
ATOM     13  O   UNL     1     165.427 173.054 168.973  1.00  0.00    -0.303 OA
ENDBRANCH  11  12
ENDBRANCH  10  11
ENDBRANCH   9  10
ENDBRANCH   8   9
ENDBRANCH   1   8
TORSDOF 10
ENDMDL
MODEL 3
REMARK VINA RESULT:    -3.810      4.834      6.705
REMARK INTER + INTRA:          -6.462
REMARK INTER:                  -5.934
REMARK INTRA:                  -0.528
REMARK UNBOUND:                -0.425
REMARK SMILES CCCCCCCCCCCC=O
REMARK SMILES IDX 7 1 6 2 5 3 4 4 3 5 2 6 1 7 8 8 9 9 10 10 11 11 12 12 13 13
REMARK H PARENT
REMARK Flexibility Score: inf
ROOT
ATOM      1  C   UNL     1     167.540 166.158 169.195  1.00  0.00     0.000 C 
ENDROOT
BRANCH   1   2
ATOM      2  C   UNL     1     166.615 166.144 167.963  1.00  0.00     0.000 C 
BRANCH   2   3
ATOM      3  C   UNL     1     165.181 166.647 168.207  1.00  0.00    -0.000 C 
BRANCH   3   4
ATOM      4  C   UNL     1     164.910 168.021 167.570  1.00  0.00    -0.000 C 
BRANCH   4   5
ATOM      5  C   UNL     1     164.644 169.124 168.612  1.00  0.00    -0.000 C 
BRANCH   5   6
ATOM      6  C   UNL     1     164.228 170.486 168.029  1.00  0.00    -0.003 C 
ATOM      7  C   UNL     1     164.477 170.596 166.525  1.00  0.00     0.004 C 
ENDBRANCH   5   6
ENDBRANCH   4   5
ENDBRANCH   3   4
ENDBRANCH   2   3
ENDBRANCH   1   2
BRANCH   1   8
ATOM      8  C   UNL     1     168.956 166.664 168.877  1.00  0.00     0.000 C 
BRANCH   8   9
ATOM      9  C   UNL     1     169.297 166.555 167.381  1.00  0.00     0.000 C 
BRANCH   9  10
ATOM     10  C   UNL     1     170.796 166.754 167.098  1.00  0.00     0.008 C 
BRANCH  10  11
ATOM     11  C   UNL     1     171.508 167.485 168.244  1.00  0.00     0.072 C 
BRANCH  11  12
ATOM     12  C   UNL     1     172.845 166.877 168.557  1.00  0.00     0.224 C 
ATOM     13  O   UNL     1     173.077 165.714 168.271  1.00  0.00    -0.303 OA
ENDBRANCH  11  12
ENDBRANCH  10  11
ENDBRANCH   9  10
ENDBRANCH   8   9
ENDBRANCH   1   8
TORSDOF 10
ENDMDL
MODEL 4
REMARK VINA RESULT:    -3.749      5.763      8.806
REMARK INTER + INTRA:          -6.366
REMARK INTER:                  -5.530
REMARK INTRA:                  -0.836
REMARK UNBOUND:                -0.425
REMARK SMILES CCCCCCCCCCCC=O
REMARK SMILES IDX 7 1 6 2 5 3 4 4 3 5 2 6 1 7 8 8 9 9 10 10 11 11 12 12 13 13
REMARK H PARENT
REMARK Flexibility Score: inf
ROOT
ATOM      1  C   UNL     1     166.142 163.495 169.326  1.00  0.00     0.000 C 
ENDROOT
BRANCH   1   2
ATOM      2  C   UNL     1     164.883 164.382 169.283  1.00  0.00     0.000 C 
BRANCH   2   3
ATOM      3  C   UNL     1     164.482 164.893 167.888  1.00  0.00    -0.000 C 
BRANCH   3   4
ATOM      4  C   UNL     1     164.674 166.411 167.726  1.00  0.00    -0.000 C 
BRANCH   4   5
ATOM      5  C   UNL     1     165.650 166.774 166.590  1.00  0.00    -0.000 C 
BRANCH   5   6
ATOM      6  C   UNL     1     166.933 165.926 166.536  1.00  0.00    -0.003 C 
ATOM      7  C   UNL     1     167.913 166.248 167.664  1.00  0.00     0.004 C 
ENDBRANCH   5   6
ENDBRANCH   4   5
ENDBRANCH   3   4
ENDBRANCH   2   3
ENDBRANCH   1   2
BRANCH   1   8
ATOM      8  C   UNL     1     166.378 162.725 168.015  1.00  0.00     0.000 C 
BRANCH   8   9
ATOM      9  C   UNL     1     166.856 161.285 168.258  1.00  0.00     0.000 C 
BRANCH   9  10
ATOM     10  C   UNL     1     166.756 160.406 166.999  1.00  0.00     0.008 C 
BRANCH  10  11
ATOM     11  C   UNL     1     166.204 159.008 167.314  1.00  0.00     0.072 C 
BRANCH  11  12
ATOM     12  C   UNL     1     166.263 158.696 168.781  1.00  0.00     0.224 C 
ATOM     13  O   UNL     1     167.010 157.826 169.198  1.00  0.00    -0.303 OA
ENDBRANCH  11  12
ENDBRANCH  10  11
ENDBRANCH   9  10
ENDBRANCH   8   9
ENDBRANCH   1   8
TORSDOF 10
ENDMDL
MODEL 5
REMARK VINA RESULT:    -3.733      5.476      7.467
REMARK INTER + INTRA:          -6.341
REMARK INTER:                  -5.973
REMARK INTRA:                  -0.368
REMARK UNBOUND:                -0.425
REMARK SMILES CCCCCCCCCCCC=O
REMARK SMILES IDX 7 1 6 2 5 3 4 4 3 5 2 6 1 7 8 8 9 9 10 10 11 11 12 12 13 13
REMARK H PARENT
REMARK Flexibility Score: inf
ROOT
ATOM      1  C   UNL     1     165.458 165.287 167.929  1.00  0.00     0.000 C 
ENDROOT
BRANCH   1   2
ATOM      2  C   UNL     1     164.055 164.834 168.375  1.00  0.00     0.000 C 
BRANCH   2   3
ATOM      3  C   UNL     1     162.960 164.914 167.296  1.00  0.00    -0.000 C 
BRANCH   3   4
ATOM      4  C   UNL     1     161.565 164.537 167.827  1.00  0.00    -0.000 C 
BRANCH   4   5
ATOM      5  C   UNL     1     160.488 164.527 166.725  1.00  0.00    -0.000 C 
BRANCH   5   6
ATOM      6  C   UNL     1     159.071 164.900 167.195  1.00  0.00    -0.003 C 
ATOM      7  C   UNL     1     158.922 164.896 168.716  1.00  0.00     0.004 C 
ENDBRANCH   5   6
ENDBRANCH   4   5
ENDBRANCH   3   4
ENDBRANCH   2   3
ENDBRANCH   1   2
BRANCH   1   8
ATOM      8  C   UNL     1     166.525 164.193 168.102  1.00  0.00     0.000 C 
BRANCH   8   9
ATOM      9  C   UNL     1     166.187 162.914 167.318  1.00  0.00     0.000 C 
BRANCH   9  10
ATOM     10  C   UNL     1     166.667 161.637 168.031  1.00  0.00     0.008 C 
BRANCH  10  11
ATOM     11  C   UNL     1     166.684 160.424 167.091  1.00  0.00     0.072 C 
BRANCH  11  12
ATOM     12  C   UNL     1     166.636 159.126 167.845  1.00  0.00     0.224 C 
ATOM     13  O   UNL     1     165.664 158.394 167.755  1.00  0.00    -0.303 OA
ENDBRANCH  11  12
ENDBRANCH  10  11
ENDBRANCH   9  10
ENDBRANCH   8   9
ENDBRANCH   1   8
TORSDOF 10
ENDMDL
MODEL 6
REMARK VINA RESULT:    -3.725      4.304      6.560
REMARK INTER + INTRA:          -6.328
REMARK INTER:                  -5.643
REMARK INTRA:                  -0.685
REMARK UNBOUND:                -0.425
REMARK SMILES CCCCCCCCCCCC=O
REMARK SMILES IDX 7 1 6 2 5 3 4 4 3 5 2 6 1 7 8 8 9 9 10 10 11 11 12 12 13 13
REMARK H PARENT
REMARK Flexibility Score: inf
ROOT
ATOM      1  C   UNL     1     163.955 165.592 168.592  1.00  0.00     0.000 C 
ENDROOT
BRANCH   1   2
ATOM      2  C   UNL     1     164.530 166.075 167.247  1.00  0.00     0.000 C 
BRANCH   2   3
ATOM      3  C   UNL     1     166.008 165.727 166.996  1.00  0.00    -0.000 C 
BRANCH   3   4
ATOM      4  C   UNL     1     166.488 164.519 167.819  1.00  0.00    -0.000 C 
BRANCH   4   5
ATOM      5  C   UNL     1     166.228 163.173 167.116  1.00  0.00    -0.000 C 
BRANCH   5   6
ATOM      6  C   UNL     1     166.536 161.925 167.961  1.00  0.00    -0.003 C 
ATOM      7  C   UNL     1     166.804 160.679 167.116  1.00  0.00     0.004 C 
ENDBRANCH   5   6
ENDBRANCH   4   5
ENDBRANCH   3   4
ENDBRANCH   2   3
ENDBRANCH   1   2
BRANCH   1   8
ATOM      8  C   UNL     1     162.697 164.723 168.430  1.00  0.00     0.000 C 
BRANCH   8   9
ATOM      9  C   UNL     1     162.201 164.674 166.976  1.00  0.00     0.000 C 
BRANCH   9  10
ATOM     10  C   UNL     1     160.692 164.385 166.873  1.00  0.00     0.008 C 
BRANCH  10  11
ATOM     11  C   UNL     1     160.066 164.095 168.244  1.00  0.00     0.072 C 
BRANCH  11  12
ATOM     12  C   UNL     1     158.592 164.379 168.262  1.00  0.00     0.224 C 
ATOM     13  O   UNL     1     158.185 165.530 168.259  1.00  0.00    -0.303 OA
ENDBRANCH  11  12
ENDBRANCH  10  11
ENDBRANCH   9  10
ENDBRANCH   8   9
ENDBRANCH   1   8
TORSDOF 10
ENDMDL
MODEL 7
REMARK VINA RESULT:    -3.700      6.386      9.594
REMARK INTER + INTRA:          -6.289
REMARK INTER:                  -5.828
REMARK INTRA:                  -0.460
REMARK UNBOUND:                -0.425
REMARK SMILES CCCCCCCCCCCC=O
REMARK SMILES IDX 7 1 6 2 5 3 4 4 3 5 2 6 1 7 8 8 9 9 10 10 11 11 12 12 13 13
REMARK H PARENT
REMARK Flexibility Score: inf
ROOT
ATOM      1  C   UNL     1     166.344 164.409 167.660  1.00  0.00     0.000 C 
ENDROOT
BRANCH   1   2
ATOM      2  C   UNL     1     166.620 165.096 169.011  1.00  0.00     0.000 C 
BRANCH   2   3
ATOM      3  C   UNL     1     167.471 166.377 168.940  1.00  0.00    -0.000 C 
BRANCH   3   4
ATOM      4  C   UNL     1     168.471 166.368 167.771  1.00  0.00    -0.000 C 
BRANCH   4   5
ATOM      5  C   UNL     1     169.890 166.797 168.193  1.00  0.00    -0.000 C 
BRANCH   5   6
ATOM      6  C   UNL     1     170.854 167.094 167.032  1.00  0.00    -0.003 C 
ATOM      7  C   UNL     1     172.024 166.112 166.957  1.00  0.00     0.004 C 
ENDBRANCH   5   6
ENDBRANCH   4   5
ENDBRANCH   3   4
ENDBRANCH   2   3
ENDBRANCH   1   2
BRANCH   1   8
ATOM      8  C   UNL     1     166.283 162.876 167.768  1.00  0.00     0.000 C 
BRANCH   8   9
ATOM      9  C   UNL     1     166.474 162.380 169.210  1.00  0.00     0.000 C 
BRANCH   9  10
ATOM     10  C   UNL     1     167.278 161.070 169.286  1.00  0.00     0.008 C 
BRANCH  10  11
ATOM     11  C   UNL     1     166.882 160.085 168.177  1.00  0.00     0.072 C 
BRANCH  11  12
ATOM     12  C   UNL     1     166.194 158.868 168.723  1.00  0.00     0.224 C 
ATOM     13  O   UNL     1     165.602 158.105 167.976  1.00  0.00    -0.303 OA
ENDBRANCH  11  12
ENDBRANCH  10  11
ENDBRANCH   9  10
ENDBRANCH   8   9
ENDBRANCH   1   8
TORSDOF 10
ENDMDL
MODEL 8
REMARK VINA RESULT:    -3.680      2.265      3.543
REMARK INTER + INTRA:          -6.257
REMARK INTER:                  -5.272
REMARK INTRA:                  -0.985
REMARK UNBOUND:                -0.425
REMARK SMILES CCCCCCCCCCCC=O
REMARK SMILES IDX 7 1 6 2 5 3 4 4 3 5 2 6 1 7 8 8 9 9 10 10 11 11 12 12 13 13
REMARK H PARENT
REMARK Flexibility Score: inf
ROOT
ATOM      1  C   UNL     1     165.163 167.407 169.877  1.00  0.00     0.000 C 
ENDROOT
BRANCH   1   2
ATOM      2  C   UNL     1     164.128 166.267 169.951  1.00  0.00     0.000 C 
BRANCH   2   3
ATOM      3  C   UNL     1     164.194 165.240 168.806  1.00  0.00    -0.000 C 
BRANCH   3   4
ATOM      4  C   UNL     1     165.539 164.496 168.744  1.00  0.00    -0.000 C 
BRANCH   4   5
ATOM      5  C   UNL     1     166.141 164.464 167.326  1.00  0.00    -0.000 C 
BRANCH   5   6
ATOM      6  C   UNL     1     166.854 165.757 166.891  1.00  0.00    -0.003 C 
ATOM      7  C   UNL     1     167.943 166.199 167.868  1.00  0.00     0.004 C 
ENDBRANCH   5   6
ENDBRANCH   4   5
ENDBRANCH   3   4
ENDBRANCH   2   3
ENDBRANCH   1   2
BRANCH   1   8
ATOM      8  C   UNL     1     164.595 168.693 169.254  1.00  0.00     0.000 C 
BRANCH   8   9
ATOM      9  C   UNL     1     164.814 168.756 167.734  1.00  0.00     0.000 C 
BRANCH   9  10
ATOM     10  C   UNL     1     164.425 170.119 167.134  1.00  0.00     0.008 C 
BRANCH  10  11
ATOM     11  C   UNL     1     164.089 171.152 168.219  1.00  0.00     0.072 C 
BRANCH  11  12
ATOM     12  C   UNL     1     164.643 172.509 167.896  1.00  0.00     0.224 C 
ATOM     13  O   UNL     1     165.544 172.986 168.568  1.00  0.00    -0.303 OA
ENDBRANCH  11  12
ENDBRANCH  10  11
ENDBRANCH   9  10
ENDBRANCH   8   9
ENDBRANCH   1   8
TORSDOF 10
ENDMDL
MODEL 9
REMARK VINA RESULT:    -3.660      5.529      7.056
REMARK INTER + INTRA:          -6.225
REMARK INTER:                  -5.755
REMARK INTRA:                  -0.469
REMARK UNBOUND:                -0.425
REMARK SMILES CCCCCCCCCCCC=O
REMARK SMILES IDX 7 1 6 2 5 3 4 4 3 5 2 6 1 7 8 8 9 9 10 10 11 11 12 12 13 13
REMARK H PARENT
REMARK Flexibility Score: inf
ROOT
ATOM      1  C   UNL     1     167.161 166.073 167.351  1.00  0.00     0.000 C 
ENDROOT
BRANCH   1   2
ATOM      2  C   UNL     1     165.931 165.161 167.520  1.00  0.00     0.000 C 
BRANCH   2   3
ATOM      3  C   UNL     1     166.089 163.729 166.979  1.00  0.00    -0.000 C 
BRANCH   3   4
ATOM      4  C   UNL     1     166.472 162.714 168.069  1.00  0.00    -0.000 C 
BRANCH   4   5
ATOM      5  C   UNL     1     166.674 161.290 167.517  1.00  0.00    -0.000 C 
BRANCH   5   6
ATOM      6  C   UNL     1     166.755 160.182 168.583  1.00  0.00    -0.003 C 
ATOM      7  C   UNL     1     168.173 159.958 169.109  1.00  0.00     0.004 C 
ENDBRANCH   5   6
ENDBRANCH   4   5
ENDBRANCH   3   4
ENDBRANCH   2   3
ENDBRANCH   1   2
BRANCH   1   8
ATOM      8  C   UNL     1     167.789 166.488 168.692  1.00  0.00     0.000 C 
BRANCH   8   9
ATOM      9  C   UNL     1     169.324 166.541 168.631  1.00  0.00     0.000 C 
BRANCH   9  10
ATOM     10  C   UNL     1     169.853 166.779 167.205  1.00  0.00     0.008 C 
BRANCH  10  11
ATOM     11  C   UNL     1     171.322 166.359 167.057  1.00  0.00     0.072 C 
BRANCH  11  12
ATOM     12  C   UNL     1     172.010 166.234 168.386  1.00  0.00     0.224 C 
ATOM     13  O   UNL     1     173.157 165.823 168.452  1.00  0.00    -0.303 OA
ENDBRANCH  11  12
ENDBRANCH  10  11
ENDBRANCH   9  10
ENDBRANCH   8   9
ENDBRANCH   1   8
TORSDOF 10
ENDMDL
