MODEL 1
REMARK VINA RESULT:    -3.877      0.000      0.000
REMARK INTER + INTRA:          -8.989
REMARK INTER:                  -6.824
REMARK INTRA:                  -2.165
REMARK UNBOUND:                -2.165
REMARK SMILES CCCCCCC=CCCCCCCCC(=O)[O-]
REMARK SMILES IDX 10 1 11 2 12 3 13 4 14 5 15 6 16 7 17 8 18 9 9 10 8 11 7 12
REMARK SMILES IDX 6 13 5 14 4 15 3 16 2 17 1 18
REMARK H PARENT
REMARK Flexibility Score: inf
ROOT
ATOM      1  C   UNL     1       7.358  -1.954   4.263  1.00  0.00     0.004 C 
ENDROOT
BRANCH   1   2
ATOM      2  C   UNL     1       7.881  -2.868   3.138  1.00  0.00     0.000 C 
BRANCH   2   3
ATOM      3  C   UNL     1       7.317  -4.303   3.191  1.00  0.00     0.000 C 
BRANCH   3   4
ATOM      4  C   UNL     1       6.306  -4.490   4.333  1.00  0.00     0.000 C 
BRANCH   4   5
ATOM      5  C   UNL     1       5.000  -5.104   3.818  1.00  0.00     0.006 C 
BRANCH   5   6
ATOM      6  C   UNL     1       4.881  -4.948   2.300  1.00  0.00     0.053 C 
BRANCH   6   7
ATOM      7  C   UNL     1       3.780  -5.811   1.768  1.00  0.00     0.041 C 
ATOM      8  O   UNL     1       3.049  -5.398   0.830  1.00  0.00    -0.550 OA
ATOM      9  O   UNL     1       3.529  -7.050   2.342  1.00  0.00    -0.550 OA
ENDBRANCH   6   7
ENDBRANCH   5   6
ENDBRANCH   4   5
ENDBRANCH   3   4
ENDBRANCH   2   3
ENDBRANCH   1   2
BRANCH   1  10
ATOM     10  C   UNL     1       6.564  -0.733   3.776  1.00  0.00     0.027 C 
BRANCH  10  11
ATOM     11  C   UNL     1       5.540  -1.112   2.731  1.00  0.00    -0.031 C 
ATOM     12  C   UNL     1       4.268  -1.475   2.983  1.00  0.00    -0.031 C 
BRANCH  12  13
ATOM     13  C   UNL     1       3.650  -1.611   4.354  1.00  0.00     0.027 C 
BRANCH  13  14
ATOM     14  C   UNL     1       2.925  -0.340   4.835  1.00  0.00     0.004 C 
BRANCH  14  15
ATOM     15  C   UNL     1       3.540   0.309   6.089  1.00  0.00     0.000 C 
BRANCH  15  16
ATOM     16  C   UNL     1       3.477  -0.603   7.322  1.00  0.00    -0.000 C 
BRANCH  16  17
ATOM     17  C   UNL     1       4.744  -0.462   8.173  1.00  0.00    -0.003 C 
ATOM     18  C   UNL     1       5.917  -1.206   7.543  1.00  0.00     0.004 C 
ENDBRANCH  16  17
ENDBRANCH  15  16
ENDBRANCH  14  15
ENDBRANCH  13  14
ENDBRANCH  12  13
ENDBRANCH  10  11
ENDBRANCH   1  10
TORSDOF 13
ENDMDL
MODEL 2
REMARK VINA RESULT:    -3.877      1.901      3.896
REMARK INTER + INTRA:          -8.987
REMARK INTER:                  -7.172
REMARK INTRA:                  -1.815
REMARK UNBOUND:                -2.165
REMARK SMILES CCCCCCC=CCCCCCCCC(=O)[O-]
REMARK SMILES IDX 10 1 11 2 12 3 13 4 14 5 15 6 16 7 17 8 18 9 9 10 8 11 7 12
REMARK SMILES IDX 6 13 5 14 4 15 3 16 2 17 1 18
REMARK H PARENT
REMARK Flexibility Score: inf
ROOT
ATOM      1  C   UNL     1       3.278  -0.011   5.024  1.00  0.00     0.004 C 
ENDROOT
BRANCH   1   2
ATOM      2  C   UNL     1       3.535  -1.151   4.021  1.00  0.00     0.000 C 
BRANCH   2   3
ATOM      3  C   UNL     1       5.032  -1.436   3.775  1.00  0.00     0.000 C 
BRANCH   3   4
ATOM      4  C   UNL     1       5.332  -2.941   3.689  1.00  0.00     0.000 C 
BRANCH   4   5
ATOM      5  C   UNL     1       4.245  -3.675   2.895  1.00  0.00     0.006 C 
BRANCH   5   6
ATOM      6  C   UNL     1       4.594  -5.156   2.727  1.00  0.00     0.053 C 
BRANCH   6   7
ATOM      7  C   UNL     1       4.127  -5.658   1.397  1.00  0.00     0.041 C 
ATOM      8  O   UNL     1       4.861  -6.420   0.714  1.00  0.00    -0.550 OA
ATOM      9  O   UNL     1       2.904  -5.243   0.888  1.00  0.00    -0.550 OA
ENDBRANCH   6   7
ENDBRANCH   5   6
ENDBRANCH   4   5
ENDBRANCH   3   4
ENDBRANCH   2   3
ENDBRANCH   1   2
BRANCH   1  10
ATOM     10  C   UNL     1       4.276   0.048   6.192  1.00  0.00     0.027 C 
BRANCH  10  11
ATOM     11  C   UNL     1       3.719   0.823   7.364  1.00  0.00    -0.031 C 
ATOM     12  C   UNL     1       3.686   0.390   8.638  1.00  0.00    -0.031 C 
BRANCH  12  13
ATOM     13  C   UNL     1       4.157  -0.962   9.118  1.00  0.00     0.027 C 
BRANCH  13  14
ATOM     14  C   UNL     1       3.120  -2.084   8.924  1.00  0.00     0.004 C 
BRANCH  14  15
ATOM     15  C   UNL     1       3.532  -3.167   7.911  1.00  0.00     0.000 C 
BRANCH  15  16
ATOM     16  C   UNL     1       2.531  -3.310   6.755  1.00  0.00    -0.000 C 
BRANCH  16  17
ATOM     17  C   UNL     1       1.357  -2.339   6.924  1.00  0.00    -0.003 C 
ATOM     18  C   UNL     1       0.048  -3.091   7.144  1.00  0.00     0.004 C 
ENDBRANCH  16  17
ENDBRANCH  15  16
ENDBRANCH  14  15
ENDBRANCH  13  14
ENDBRANCH  12  13
ENDBRANCH  10  11
ENDBRANCH   1  10
TORSDOF 13
ENDMDL
MODEL 3
REMARK VINA RESULT:    -3.865      2.940      5.826
REMARK INTER + INTRA:          -8.967
REMARK INTER:                  -6.899
REMARK INTRA:                  -2.069
REMARK UNBOUND:                -2.165
REMARK SMILES CCCCCCC=CCCCCCCCC(=O)[O-]
REMARK SMILES IDX 10 1 11 2 12 3 13 4 14 5 15 6 16 7 17 8 18 9 9 10 8 11 7 12
REMARK SMILES IDX 6 13 5 14 4 15 3 16 2 17 1 18
REMARK H PARENT
REMARK Flexibility Score: inf
ROOT
ATOM      1  C   UNL     1       6.575  -0.908   4.578  1.00  0.00     0.004 C 
ENDROOT
BRANCH   1   2
ATOM      2  C   UNL     1       6.431  -1.421   6.024  1.00  0.00     0.000 C 
BRANCH   2   3
ATOM      3  C   UNL     1       5.071  -1.082   6.670  1.00  0.00     0.000 C 
BRANCH   3   4
ATOM      4  C   UNL     1       4.217  -0.165   5.781  1.00  0.00     0.000 C 
BRANCH   4   5
ATOM      5  C   UNL     1       2.816  -0.751   5.570  1.00  0.00     0.006 C 
BRANCH   5   6
ATOM      6  C   UNL     1       2.677  -2.106   6.269  1.00  0.00     0.053 C 
BRANCH   6   7
ATOM      7  C   UNL     1       1.508  -2.097   7.203  1.00  0.00     0.041 C 
ATOM      8  O   UNL     1       1.523  -1.367   8.229  1.00  0.00    -0.550 OA
ATOM      9  O   UNL     1       0.423  -2.932   6.969  1.00  0.00    -0.550 OA
ENDBRANCH   6   7
ENDBRANCH   5   6
ENDBRANCH   4   5
ENDBRANCH   3   4
ENDBRANCH   2   3
ENDBRANCH   1   2
BRANCH   1  10
ATOM     10  C   UNL     1       6.537  -2.006   3.504  1.00  0.00     0.027 C 
BRANCH  10  11
ATOM     11  C   UNL     1       5.203  -2.050   2.797  1.00  0.00    -0.031 C 
ATOM     12  C   UNL     1       4.267  -3.005   2.957  1.00  0.00    -0.031 C 
BRANCH  12  13
ATOM     13  C   UNL     1       4.400  -4.224   3.839  1.00  0.00     0.027 C 
BRANCH  13  14
ATOM     14  C   UNL     1       4.032  -5.542   3.131  1.00  0.00     0.004 C 
BRANCH  14  15
ATOM     15  C   UNL     1       3.833  -5.416   1.610  1.00  0.00     0.000 C 
BRANCH  15  16
ATOM     16  C   UNL     1       4.732  -6.372   0.813  1.00  0.00    -0.000 C 
BRANCH  16  17
ATOM     17  C   UNL     1       5.938  -6.816   1.649  1.00  0.00    -0.003 C 
ATOM     18  C   UNL     1       7.119  -5.870   1.458  1.00  0.00     0.004 C 
ENDBRANCH  16  17
ENDBRANCH  15  16
ENDBRANCH  14  15
ENDBRANCH  13  14
ENDBRANCH  12  13
ENDBRANCH  10  11
ENDBRANCH   1  10
TORSDOF 13
ENDMDL
MODEL 4
REMARK VINA RESULT:    -3.813      3.264      6.219
REMARK INTER + INTRA:          -8.875
REMARK INTER:                  -7.121
REMARK INTRA:                  -1.754
REMARK UNBOUND:                -2.165
REMARK SMILES CCCCCCC=CCCCCCCCC(=O)[O-]
REMARK SMILES IDX 10 1 11 2 12 3 13 4 14 5 15 6 16 7 17 8 18 9 9 10 8 11 7 12
REMARK SMILES IDX 6 13 5 14 4 15 3 16 2 17 1 18
REMARK H PARENT
REMARK Flexibility Score: inf
ROOT
ATOM      1  C   UNL     1       4.883  -0.545   5.245  1.00  0.00     0.004 C 
ENDROOT
BRANCH   1   2
ATOM      2  C   UNL     1       3.402  -0.123   5.193  1.00  0.00     0.000 C 
BRANCH   2   3
ATOM      3  C   UNL     1       2.427  -1.219   5.671  1.00  0.00     0.000 C 
BRANCH   3   4
ATOM      4  C   UNL     1       3.150  -2.370   6.388  1.00  0.00     0.000 C 
BRANCH   4   5
ATOM      5  C   UNL     1       2.172  -3.192   7.235  1.00  0.00     0.006 C 
BRANCH   5   6
ATOM      6  C   UNL     1       1.272  -2.281   8.074  1.00  0.00     0.053 C 
BRANCH   6   7
ATOM      7  C   UNL     1      -0.158  -2.707   7.960  1.00  0.00     0.041 C 
ATOM      8  O   UNL     1      -0.894  -2.735   8.981  1.00  0.00    -0.550 OA
ATOM      9  O   UNL     1      -0.664  -3.122   6.735  1.00  0.00    -0.550 OA
ENDBRANCH   6   7
ENDBRANCH   5   6
ENDBRANCH   4   5
ENDBRANCH   3   4
ENDBRANCH   2   3
ENDBRANCH   1   2
BRANCH   1  10
ATOM     10  C   UNL     1       5.524  -0.794   3.871  1.00  0.00     0.027 C 
BRANCH  10  11
ATOM     11  C   UNL     1       4.597  -1.553   2.951  1.00  0.00    -0.031 C 
ATOM     12  C   UNL     1       4.490  -2.893   2.885  1.00  0.00    -0.031 C 
BRANCH  12  13
ATOM     13  C   UNL     1       5.307  -3.879   3.687  1.00  0.00     0.027 C 
BRANCH  13  14
ATOM     14  C   UNL     1       4.498  -5.089   4.190  1.00  0.00     0.004 C 
BRANCH  14  15
ATOM     15  C   UNL     1       3.817  -5.908   3.078  1.00  0.00     0.000 C 
BRANCH  15  16
ATOM     16  C   UNL     1       4.820  -6.691   2.219  1.00  0.00    -0.000 C 
BRANCH  16  17
ATOM     17  C   UNL     1       4.697  -6.301   0.741  1.00  0.00    -0.003 C 
ATOM     18  C   UNL     1       3.394  -5.553   0.476  1.00  0.00     0.004 C 
ENDBRANCH  16  17
ENDBRANCH  15  16
ENDBRANCH  14  15
ENDBRANCH  13  14
ENDBRANCH  12  13
ENDBRANCH  10  11
ENDBRANCH   1  10
TORSDOF 13
ENDMDL
MODEL 5
REMARK VINA RESULT:    -3.808      1.637      3.104
REMARK INTER + INTRA:          -8.867
REMARK INTER:                  -6.422
REMARK INTRA:                  -2.446
REMARK UNBOUND:                -2.165
REMARK SMILES CCCCCCC=CCCCCCCCC(=O)[O-]
REMARK SMILES IDX 10 1 11 2 12 3 13 4 14 5 15 6 16 7 17 8 18 9 9 10 8 11 7 12
REMARK SMILES IDX 6 13 5 14 4 15 3 16 2 17 1 18
REMARK H PARENT
REMARK Flexibility Score: inf
ROOT
ATOM      1  C   UNL     1       4.338  -0.730   4.527  1.00  0.00     0.004 C 
ENDROOT
BRANCH   1   2
ATOM      2  C   UNL     1       4.452  -1.303   3.101  1.00  0.00     0.000 C 
BRANCH   2   3
ATOM      3  C   UNL     1       4.255  -2.832   3.030  1.00  0.00     0.000 C 
BRANCH   3   4
ATOM      4  C   UNL     1       5.588  -3.594   3.081  1.00  0.00     0.000 C 
BRANCH   4   5
ATOM      5  C   UNL     1       5.367  -5.103   2.931  1.00  0.00     0.006 C 
BRANCH   5   6
ATOM      6  C   UNL     1       3.931  -5.407   2.496  1.00  0.00     0.053 C 
BRANCH   6   7
ATOM      7  C   UNL     1       3.905  -5.900   1.083  1.00  0.00     0.041 C 
ATOM      8  O   UNL     1       3.017  -5.496   0.287  1.00  0.00    -0.550 OA
ATOM      9  O   UNL     1       4.830  -6.845   0.659  1.00  0.00    -0.550 OA
ENDBRANCH   6   7
ENDBRANCH   5   6
ENDBRANCH   4   5
ENDBRANCH   3   4
ENDBRANCH   2   3
ENDBRANCH   1   2
BRANCH   1  10
ATOM     10  C   UNL     1       2.903  -0.658   5.073  1.00  0.00     0.027 C 
BRANCH  10  11
ATOM     11  C   UNL     1       2.869  -0.801   6.577  1.00  0.00    -0.031 C 
ATOM     12  C   UNL     1       2.735  -1.961   7.246  1.00  0.00    -0.031 C 
BRANCH  12  13
ATOM     13  C   UNL     1       2.551  -3.321   6.616  1.00  0.00     0.027 C 
BRANCH  13  14
ATOM     14  C   UNL     1       3.872  -4.069   6.361  1.00  0.00     0.004 C 
BRANCH  14  15
ATOM     15  C   UNL     1       4.993  -3.748   7.366  1.00  0.00     0.000 C 
BRANCH  15  16
ATOM     16  C   UNL     1       6.262  -3.211   6.689  1.00  0.00    -0.000 C 
BRANCH  16  17
ATOM     17  C   UNL     1       6.526  -1.757   7.095  1.00  0.00    -0.003 C 
ATOM     18  C   UNL     1       6.206  -1.529   8.569  1.00  0.00     0.004 C 
ENDBRANCH  16  17
ENDBRANCH  15  16
ENDBRANCH  14  15
ENDBRANCH  13  14
ENDBRANCH  12  13
ENDBRANCH  10  11
ENDBRANCH   1  10
TORSDOF 13
ENDMDL
MODEL 6
REMARK VINA RESULT:    -3.769      2.682      4.240
REMARK INTER + INTRA:          -8.798
REMARK INTER:                  -7.119
REMARK INTRA:                  -1.679
REMARK UNBOUND:                -2.165
REMARK SMILES CCCCCCC=CCCCCCCCC(=O)[O-]
REMARK SMILES IDX 10 1 11 2 12 3 13 4 14 5 15 6 16 7 17 8 18 9 9 10 8 11 7 12
REMARK SMILES IDX 6 13 5 14 4 15 3 16 2 17 1 18
REMARK H PARENT
REMARK Flexibility Score: inf
ROOT
ATOM      1  C   UNL     1       3.031  -0.657   4.703  1.00  0.00     0.004 C 
ENDROOT
BRANCH   1   2
ATOM      2  C   UNL     1       4.480  -1.035   4.343  1.00  0.00     0.000 C 
BRANCH   2   3
ATOM      3  C   UNL     1       4.637  -1.608   2.918  1.00  0.00     0.000 C 
BRANCH   3   4
ATOM      4  C   UNL     1       4.183  -3.073   2.826  1.00  0.00     0.000 C 
BRANCH   4   5
ATOM      5  C   UNL     1       5.330  -4.028   3.176  1.00  0.00     0.006 C 
BRANCH   5   6
ATOM      6  C   UNL     1       5.328  -5.250   2.254  1.00  0.00     0.053 C 
BRANCH   6   7
ATOM      7  C   UNL     1       3.941  -5.793   2.107  1.00  0.00     0.041 C 
ATOM      8  O   UNL     1       3.393  -6.399   3.064  1.00  0.00    -0.550 OA
ATOM      9  O   UNL     1       3.273  -5.673   0.895  1.00  0.00    -0.550 OA
ENDBRANCH   6   7
ENDBRANCH   5   6
ENDBRANCH   4   5
ENDBRANCH   3   4
ENDBRANCH   2   3
ENDBRANCH   1   2
BRANCH   1  10
ATOM     10  C   UNL     1       2.561  -1.164   6.075  1.00  0.00     0.027 C 
BRANCH  10  11
ATOM     11  C   UNL     1       3.107  -2.540   6.380  1.00  0.00    -0.031 C 
ATOM     12  C   UNL     1       3.266  -3.060   7.611  1.00  0.00    -0.031 C 
BRANCH  12  13
ATOM     13  C   UNL     1       2.970  -2.347   8.909  1.00  0.00     0.027 C 
BRANCH  13  14
ATOM     14  C   UNL     1       1.621  -2.742   9.539  1.00  0.00     0.004 C 
BRANCH  14  15
ATOM     15  C   UNL     1       0.408  -1.970   8.987  1.00  0.00     0.000 C 
BRANCH  15  16
ATOM     16  C   UNL     1      -0.698  -2.897   8.465  1.00  0.00    -0.000 C 
BRANCH  16  17
ATOM     17  C   UNL     1      -0.449  -3.276   7.001  1.00  0.00    -0.003 C 
ATOM     18  C   UNL     1      -0.038  -4.740   6.873  1.00  0.00     0.004 C 
ENDBRANCH  16  17
ENDBRANCH  15  16
ENDBRANCH  14  15
ENDBRANCH  13  14
ENDBRANCH  12  13
ENDBRANCH  10  11
ENDBRANCH   1  10
TORSDOF 13
ENDMDL
MODEL 7
REMARK VINA RESULT:    -3.767      3.293      6.004
REMARK INTER + INTRA:          -8.794
REMARK INTER:                  -6.296
REMARK INTRA:                  -2.498
REMARK UNBOUND:                -2.165
REMARK SMILES CCCCCCC=CCCCCCCCC(=O)[O-]
REMARK SMILES IDX 10 1 11 2 12 3 13 4 14 5 15 6 16 7 17 8 18 9 9 10 8 11 7 12
REMARK SMILES IDX 6 13 5 14 4 15 3 16 2 17 1 18
REMARK H PARENT
REMARK Flexibility Score: inf
ROOT
ATOM      1  C   UNL     1       5.712  -1.074   2.630  1.00  0.00     0.004 C 
ENDROOT
BRANCH   1   2
ATOM      2  C   UNL     1       4.360  -1.703   3.019  1.00  0.00     0.000 C 
BRANCH   2   3
ATOM      3  C   UNL     1       3.749  -1.113   4.307  1.00  0.00     0.000 C 
BRANCH   3   4
ATOM      4  C   UNL     1       3.440  -2.194   5.354  1.00  0.00     0.000 C 
BRANCH   4   5
ATOM      5  C   UNL     1       4.111  -1.873   6.694  1.00  0.00     0.006 C 
BRANCH   5   6
ATOM      6  C   UNL     1       4.551  -0.407   6.750  1.00  0.00     0.053 C 
BRANCH   6   7
ATOM      7  C   UNL     1       3.603   0.394   7.585  1.00  0.00     0.041 C 
ATOM      8  O   UNL     1       3.747   1.640   7.689  1.00  0.00    -0.550 OA
ATOM      9  O   UNL     1       2.590  -0.242   8.291  1.00  0.00    -0.550 OA
ENDBRANCH   6   7
ENDBRANCH   5   6
ENDBRANCH   4   5
ENDBRANCH   3   4
ENDBRANCH   2   3
ENDBRANCH   1   2
BRANCH   1  10
ATOM     10  C   UNL     1       6.653  -0.802   3.814  1.00  0.00     0.027 C 
BRANCH  10  11
ATOM     11  C   UNL     1       7.923  -1.615   3.717  1.00  0.00    -0.031 C 
ATOM     12  C   UNL     1       8.190  -2.729   4.423  1.00  0.00    -0.031 C 
BRANCH  12  13
ATOM     13  C   UNL     1       7.289  -3.342   5.469  1.00  0.00     0.027 C 
BRANCH  13  14
ATOM     14  C   UNL     1       6.298  -4.377   4.904  1.00  0.00     0.004 C 
BRANCH  14  15
ATOM     15  C   UNL     1       6.831  -5.181   3.703  1.00  0.00     0.000 C 
BRANCH  15  16
ATOM     16  C   UNL     1       5.978  -4.996   2.440  1.00  0.00    -0.000 C 
BRANCH  16  17
ATOM     17  C   UNL     1       4.492  -5.213   2.746  1.00  0.00    -0.003 C 
ATOM     18  C   UNL     1       3.675  -5.320   1.462  1.00  0.00     0.004 C 
ENDBRANCH  16  17
ENDBRANCH  15  16
ENDBRANCH  14  15
ENDBRANCH  13  14
ENDBRANCH  12  13
ENDBRANCH  10  11
ENDBRANCH   1  10
TORSDOF 13
ENDMDL
MODEL 8
REMARK VINA RESULT:    -3.762      1.141      2.485
REMARK INTER + INTRA:          -8.786
REMARK INTER:                  -5.996
REMARK INTRA:                  -2.789
REMARK UNBOUND:                -2.165
REMARK SMILES CCCCCCC=CCCCCCCCC(=O)[O-]
REMARK SMILES IDX 10 1 11 2 12 3 13 4 14 5 15 6 16 7 17 8 18 9 9 10 8 11 7 12
REMARK SMILES IDX 6 13 5 14 4 15 3 16 2 17 1 18
REMARK H PARENT
REMARK Flexibility Score: inf
ROOT
ATOM      1  C   UNL     1       6.447  -2.682   6.578  1.00  0.00     0.004 C 
ENDROOT
BRANCH   1   2
ATOM      2  C   UNL     1       6.287  -4.134   6.089  1.00  0.00     0.000 C 
BRANCH   2   3
ATOM      3  C   UNL     1       4.830  -4.641   6.114  1.00  0.00     0.000 C 
BRANCH   3   4
ATOM      4  C   UNL     1       4.214  -4.712   4.708  1.00  0.00     0.000 C 
BRANCH   4   5
ATOM      5  C   UNL     1       5.128  -5.476   3.743  1.00  0.00     0.006 C 
BRANCH   5   6
ATOM      6  C   UNL     1       4.892  -5.033   2.297  1.00  0.00     0.053 C 
BRANCH   6   7
ATOM      7  C   UNL     1       3.803  -5.845   1.670  1.00  0.00     0.041 C 
ATOM      8  O   UNL     1       3.613  -7.036   2.032  1.00  0.00    -0.550 OA
ATOM      9  O   UNL     1       3.030  -5.304   0.652  1.00  0.00    -0.550 OA
ENDBRANCH   6   7
ENDBRANCH   5   6
ENDBRANCH   4   5
ENDBRANCH   3   4
ENDBRANCH   2   3
ENDBRANCH   1   2
BRANCH   1  10
ATOM     10  C   UNL     1       7.324  -1.797   5.679  1.00  0.00     0.027 C 
BRANCH  10  11
ATOM     11  C   UNL     1       7.493  -2.394   4.301  1.00  0.00    -0.031 C 
ATOM     12  C   UNL     1       6.810  -2.023   3.202  1.00  0.00    -0.031 C 
BRANCH  12  13
ATOM     13  C   UNL     1       5.723  -0.975   3.157  1.00  0.00     0.027 C 
BRANCH  13  14
ATOM     14  C   UNL     1       4.301  -1.562   3.078  1.00  0.00     0.004 C 
BRANCH  14  15
ATOM     15  C   UNL     1       3.310  -0.975   4.101  1.00  0.00     0.000 C 
BRANCH  15  16
ATOM     16  C   UNL     1       4.012  -0.254   5.260  1.00  0.00    -0.000 C 
BRANCH  16  17
ATOM     17  C   UNL     1       3.355  -0.604   6.600  1.00  0.00    -0.003 C 
ATOM     18  C   UNL     1       2.388  -1.775   6.450  1.00  0.00     0.004 C 
ENDBRANCH  16  17
ENDBRANCH  15  16
ENDBRANCH  14  15
ENDBRANCH  13  14
ENDBRANCH  12  13
ENDBRANCH  10  11
ENDBRANCH   1  10
TORSDOF 13
ENDMDL
MODEL 9
REMARK VINA RESULT:    -3.730      1.034      3.825
REMARK INTER + INTRA:          -8.729
REMARK INTER:                  -6.290
REMARK INTRA:                  -2.439
REMARK UNBOUND:                -2.165
REMARK SMILES CCCCCCC=CCCCCCCCC(=O)[O-]
REMARK SMILES IDX 10 1 11 2 12 3 13 4 14 5 15 6 16 7 17 8 18 9 9 10 8 11 7 12
REMARK SMILES IDX 6 13 5 14 4 15 3 16 2 17 1 18
REMARK H PARENT
REMARK Flexibility Score: inf
ROOT
ATOM      1  C   UNL     1       3.557  -1.367   4.631  1.00  0.00     0.004 C 
ENDROOT
BRANCH   1   2
ATOM      2  C   UNL     1       4.117  -1.442   3.198  1.00  0.00     0.000 C 
BRANCH   2   3
ATOM      3  C   UNL     1       4.460  -2.874   2.739  1.00  0.00     0.000 C 
BRANCH   3   4
ATOM      4  C   UNL     1       4.079  -3.929   3.789  1.00  0.00     0.000 C 
BRANCH   4   5
ATOM      5  C   UNL     1       4.622  -5.311   3.405  1.00  0.00     0.006 C 
BRANCH   5   6
ATOM      6  C   UNL     1       5.046  -5.344   1.935  1.00  0.00     0.053 C 
BRANCH   6   7
ATOM      7  C   UNL     1       3.991  -5.998   1.099  1.00  0.00     0.041 C 
ATOM      8  O   UNL     1       4.129  -7.191   0.724  1.00  0.00    -0.550 OA
ATOM      9  O   UNL     1       2.878  -5.273   0.692  1.00  0.00    -0.550 OA
ENDBRANCH   6   7
ENDBRANCH   5   6
ENDBRANCH   4   5
ENDBRANCH   3   4
ENDBRANCH   2   3
ENDBRANCH   1   2
BRANCH   1  10
ATOM     10  C   UNL     1       3.937  -0.092   5.400  1.00  0.00     0.027 C 
BRANCH  10  11
ATOM     11  C   UNL     1       3.911  -0.311   6.895  1.00  0.00    -0.031 C 
ATOM     12  C   UNL     1       4.942  -0.760   7.634  1.00  0.00    -0.031 C 
BRANCH  12  13
ATOM     13  C   UNL     1       6.294  -1.167   7.098  1.00  0.00     0.027 C 
BRANCH  13  14
ATOM     14  C   UNL     1       6.362  -2.637   6.642  1.00  0.00     0.004 C 
BRANCH  14  15
ATOM     15  C   UNL     1       7.170  -2.868   5.352  1.00  0.00     0.000 C 
BRANCH  15  16
ATOM     16  C   UNL     1       7.524  -1.560   4.631  1.00  0.00    -0.000 C 
BRANCH  16  17
ATOM     17  C   UNL     1       7.949  -1.831   3.183  1.00  0.00    -0.003 C 
ATOM     18  C   UNL     1       8.125  -3.325   2.931  1.00  0.00     0.004 C 
ENDBRANCH  16  17
ENDBRANCH  15  16
ENDBRANCH  14  15
ENDBRANCH  13  14
ENDBRANCH  12  13
ENDBRANCH  10  11
ENDBRANCH   1  10
TORSDOF 13
ENDMDL
