MODEL 1
REMARK VINA RESULT:    -3.554      0.000      0.000
REMARK INTER + INTRA:          -4.539
REMARK INTER:                  -4.386
REMARK INTRA:                  -0.153
REMARK UNBOUND:                -0.153
REMARK SMILES CCCCCC(=O)[O-]
REMARK SMILES IDX 4 1 5 2 6 3 7 4 8 5 3 6 2 7 1 8
REMARK H PARENT
REMARK Flexibility Score: inf
ROOT
ATOM      1  C   UNL     1      -8.263  -4.479  -3.748  1.00  0.00     0.006 C 
ENDROOT
BRANCH   1   2
ATOM      2  C   UNL     1      -8.957  -3.337  -3.002  1.00  0.00     0.053 C 
BRANCH   2   3
ATOM      3  C   UNL     1      -8.147  -2.916  -1.817  1.00  0.00     0.041 C 
ATOM      4  O   UNL     1      -8.709  -2.683  -0.716  1.00  0.00    -0.550 OA
ATOM      5  O   UNL     1      -6.763  -2.829  -1.916  1.00  0.00    -0.550 OA
ENDBRANCH   2   3
ENDBRANCH   1   2
BRANCH   1   6
ATOM      6  C   UNL     1      -8.555  -5.829  -3.082  1.00  0.00     0.000 C 
BRANCH   6   7
ATOM      7  C   UNL     1      -9.549  -6.650  -3.913  1.00  0.00    -0.003 C 
ATOM      8  C   UNL     1      -9.472  -6.278  -5.391  1.00  0.00     0.004 C 
ENDBRANCH   6   7
ENDBRANCH   1   6
TORSDOF 4
ENDMDL
MODEL 2
REMARK VINA RESULT:    -3.219      3.128      4.383
REMARK INTER + INTRA:          -4.125
REMARK INTER:                  -3.908
REMARK INTRA:                  -0.217
REMARK UNBOUND:                -0.153
REMARK SMILES CCCCCC(=O)[O-]
REMARK SMILES IDX 4 1 5 2 6 3 7 4 8 5 3 6 2 7 1 8
REMARK H PARENT
REMARK Flexibility Score: inf
ROOT
ATOM      1  C   UNL     1      -8.977  -3.747  -4.840  1.00  0.00     0.006 C 
ENDROOT
BRANCH   1   2
ATOM      2  C   UNL     1      -9.970  -4.692  -5.521  1.00  0.00     0.053 C 
BRANCH   2   3
ATOM      3  C   UNL     1      -9.422  -6.083  -5.567  1.00  0.00     0.041 C 
ATOM      4  O   UNL     1      -9.117  -6.607  -6.670  1.00  0.00    -0.550 OA
ATOM      5  O   UNL     1      -9.201  -6.783  -4.387  1.00  0.00    -0.550 OA
ENDBRANCH   2   3
ENDBRANCH   1   2
BRANCH   1   6
ATOM      6  C   UNL     1      -9.514  -3.264  -3.488  1.00  0.00     0.000 C 
BRANCH   6   7
ATOM      7  C   UNL     1      -8.436  -3.355  -2.402  1.00  0.00    -0.003 C 
ATOM      8  C   UNL     1      -7.235  -4.164  -2.884  1.00  0.00     0.004 C 
ENDBRANCH   6   7
ENDBRANCH   1   6
TORSDOF 4
ENDMDL
MODEL 3
REMARK VINA RESULT:    -2.907     16.114     17.486
REMARK INTER + INTRA:          -3.740
REMARK INTER:                  -3.639
REMARK INTRA:                  -0.101
REMARK UNBOUND:                -0.153
REMARK SMILES CCCCCC(=O)[O-]
REMARK SMILES IDX 4 1 5 2 6 3 7 4 8 5 3 6 2 7 1 8
REMARK H PARENT
REMARK Flexibility Score: inf
ROOT
ATOM      1  C   UNL     1      -1.516   5.395   8.612  1.00  0.00     0.006 C 
ENDROOT
BRANCH   1   2
ATOM      2  C   UNL     1      -2.235   4.309   9.416  1.00  0.00     0.053 C 
BRANCH   2   3
ATOM      3  C   UNL     1      -1.393   3.075   9.498  1.00  0.00     0.041 C 
ATOM      4  O   UNL     1      -0.235   3.130   9.988  1.00  0.00    -0.550 OA
ATOM      5  O   UNL     1      -1.907   1.854   9.079  1.00  0.00    -0.550 OA
ENDBRANCH   2   3
ENDBRANCH   1   2
BRANCH   1   6
ATOM      6  C   UNL     1      -1.184   6.605   9.493  1.00  0.00     0.000 C 
BRANCH   6   7
ATOM      7  C   UNL     1       0.196   7.176   9.148  1.00  0.00    -0.003 C 
ATOM      8  C   UNL     1       0.146   8.008   7.870  1.00  0.00     0.004 C 
ENDBRANCH   6   7
ENDBRANCH   1   6
TORSDOF 4
ENDMDL
MODEL 4
REMARK VINA RESULT:    -2.835     19.338     20.426
REMARK INTER + INTRA:          -3.652
REMARK INTER:                  -3.528
REMARK INTRA:                  -0.123
REMARK UNBOUND:                -0.153
REMARK SMILES CCCCCC(=O)[O-]
REMARK SMILES IDX 4 1 5 2 6 3 7 4 8 5 3 6 2 7 1 8
REMARK H PARENT
REMARK Flexibility Score: inf
ROOT
ATOM      1  C   UNL     1       2.361   8.680   7.152  1.00  0.00     0.006 C 
ENDROOT
BRANCH   1   2
ATOM      2  C   UNL     1       3.546   7.815   7.590  1.00  0.00     0.053 C 
BRANCH   2   3
ATOM      3  C   UNL     1       4.563   8.645   8.307  1.00  0.00     0.041 C 
ATOM      4  O   UNL     1       4.698   9.864   8.027  1.00  0.00    -0.550 OA
ATOM      5  O   UNL     1       5.329   8.083   9.321  1.00  0.00    -0.550 OA
ENDBRANCH   2   3
ENDBRANCH   1   2
BRANCH   1   6
ATOM      6  C   UNL     1       1.286   8.734   8.243  1.00  0.00     0.000 C 
BRANCH   6   7
ATOM      7  C   UNL     1       0.009   8.012   7.795  1.00  0.00    -0.003 C 
ATOM      8  C   UNL     1      -0.351   6.882   8.754  1.00  0.00     0.004 C 
ENDBRANCH   6   7
ENDBRANCH   1   6
TORSDOF 4
ENDMDL
MODEL 5
REMARK VINA RESULT:    -2.828     13.427     15.149
REMARK INTER + INTRA:          -3.642
REMARK INTER:                  -3.559
REMARK INTRA:                  -0.083
REMARK UNBOUND:                -0.153
REMARK SMILES CCCCCC(=O)[O-]
REMARK SMILES IDX 4 1 5 2 6 3 7 4 8 5 3 6 2 7 1 8
REMARK H PARENT
REMARK Flexibility Score: inf
ROOT
ATOM      1  C   UNL     1      -3.568   2.407   9.351  1.00  0.00     0.006 C 
ENDROOT
BRANCH   1   2
ATOM      2  C   UNL     1      -4.192   1.151   9.964  1.00  0.00     0.053 C 
BRANCH   2   3
ATOM      3  C   UNL     1      -5.292   0.633   9.093  1.00  0.00     0.041 C 
ATOM      4  O   UNL     1      -5.045  -0.217   8.199  1.00  0.00    -0.550 OA
ATOM      5  O   UNL     1      -6.600   1.053   9.301  1.00  0.00    -0.550 OA
ENDBRANCH   2   3
ENDBRANCH   1   2
BRANCH   1   6
ATOM      6  C   UNL     1      -2.054   2.240   9.173  1.00  0.00     0.000 C 
BRANCH   6   7
ATOM      7  C   UNL     1      -1.296   3.442   9.747  1.00  0.00    -0.003 C 
ATOM      8  C   UNL     1      -1.704   4.737   9.050  1.00  0.00     0.004 C 
ENDBRANCH   6   7
ENDBRANCH   1   6
TORSDOF 4
ENDMDL
MODEL 6
REMARK VINA RESULT:    -2.827     17.244     18.768
REMARK INTER + INTRA:          -3.641
REMARK INTER:                  -3.550
REMARK INTRA:                  -0.091
REMARK UNBOUND:                -0.153
REMARK SMILES CCCCCC(=O)[O-]
REMARK SMILES IDX 4 1 5 2 6 3 7 4 8 5 3 6 2 7 1 8
REMARK H PARENT
REMARK Flexibility Score: inf
ROOT
ATOM      1  C   UNL     1       0.018   8.228   8.046  1.00  0.00     0.006 C 
ENDROOT
BRANCH   1   2
ATOM      2  C   UNL     1       1.395   8.895   7.989  1.00  0.00     0.053 C 
BRANCH   2   3
ATOM      3  C   UNL     1       2.215   8.310   6.882  1.00  0.00     0.041 C 
ATOM      4  O   UNL     1       3.341   7.805   7.128  1.00  0.00    -0.550 OA
ATOM      5  O   UNL     1       1.713   8.279   5.587  1.00  0.00    -0.550 OA
ENDBRANCH   2   3
ENDBRANCH   1   2
BRANCH   1   6
ATOM      6  C   UNL     1       0.062   6.945   8.883  1.00  0.00     0.000 C 
BRANCH   6   7
ATOM      7  C   UNL     1      -1.342   6.542   9.348  1.00  0.00    -0.003 C 
ATOM      8  C   UNL     1      -1.668   5.107   8.942  1.00  0.00     0.004 C 
ENDBRANCH   6   7
ENDBRANCH   1   6
TORSDOF 4
ENDMDL
MODEL 7
REMARK VINA RESULT:    -2.820     14.683     16.223
REMARK INTER + INTRA:          -3.633
REMARK INTER:                  -3.495
REMARK INTRA:                  -0.138
REMARK UNBOUND:                -0.153
REMARK SMILES CCCCCC(=O)[O-]
REMARK SMILES IDX 4 1 5 2 6 3 7 4 8 5 3 6 2 7 1 8
REMARK H PARENT
REMARK Flexibility Score: inf
ROOT
ATOM      1  C   UNL     1      -3.812   4.402   9.151  1.00  0.00     0.006 C 
ENDROOT
BRANCH   1   2
ATOM      2  C   UNL     1      -3.699   3.142  10.012  1.00  0.00     0.053 C 
BRANCH   2   3
ATOM      3  C   UNL     1      -3.187   1.996   9.198  1.00  0.00     0.041 C 
ATOM      4  O   UNL     1      -3.992   1.215   8.628  1.00  0.00    -0.550 OA
ATOM      5  O   UNL     1      -1.819   1.818   9.030  1.00  0.00    -0.550 OA
ENDBRANCH   2   3
ENDBRANCH   1   2
BRANCH   1   6
ATOM      6  C   UNL     1      -2.818   5.475   9.610  1.00  0.00     0.000 C 
BRANCH   6   7
ATOM      7  C   UNL     1      -1.493   5.361   8.849  1.00  0.00    -0.003 C 
ATOM      8  C   UNL     1      -0.744   6.690   8.843  1.00  0.00     0.004 C 
ENDBRANCH   6   7
ENDBRANCH   1   6
TORSDOF 4
ENDMDL
MODEL 8
REMARK VINA RESULT:    -2.766      2.701      4.212
REMARK INTER + INTRA:          -3.566
REMARK INTER:                  -3.426
REMARK INTRA:                  -0.140
REMARK UNBOUND:                -0.153
REMARK SMILES CCCCCC(=O)[O-]
REMARK SMILES IDX 4 1 5 2 6 3 7 4 8 5 3 6 2 7 1 8
REMARK H PARENT
REMARK Flexibility Score: inf
ROOT
ATOM      1  C   UNL     1      -8.249  -3.377  -2.416  1.00  0.00     0.006 C 
ENDROOT
BRANCH   1   2
ATOM      2  C   UNL     1      -8.073  -3.974  -3.814  1.00  0.00     0.053 C 
BRANCH   2   3
ATOM      3  C   UNL     1      -8.829  -5.260  -3.933  1.00  0.00     0.041 C 
ATOM      4  O   UNL     1      -8.562  -6.225  -3.170  1.00  0.00    -0.550 OA
ATOM      5  O   UNL     1      -9.862  -5.377  -4.855  1.00  0.00    -0.550 OA
ENDBRANCH   2   3
ENDBRANCH   1   2
BRANCH   1   6
ATOM      6  C   UNL     1      -9.723  -3.072  -2.128  1.00  0.00     0.000 C 
BRANCH   6   7
ATOM      7  C   UNL     1      -9.871  -1.780  -1.316  1.00  0.00    -0.003 C 
ATOM      8  C   UNL     1     -10.118  -0.581  -2.227  1.00  0.00     0.004 C 
ENDBRANCH   6   7
ENDBRANCH   1   6
TORSDOF 4
ENDMDL
MODEL 9
REMARK VINA RESULT:    -2.746     18.176     19.501
REMARK INTER + INTRA:          -3.541
REMARK INTER:                  -3.321
REMARK INTRA:                  -0.220
REMARK UNBOUND:                -0.153
REMARK SMILES CCCCCC(=O)[O-]
REMARK SMILES IDX 4 1 5 2 6 3 7 4 8 5 3 6 2 7 1 8
REMARK H PARENT
REMARK Flexibility Score: inf
ROOT
ATOM      1  C   UNL     1       1.237   8.742   8.222  1.00  0.00     0.006 C 
ENDROOT
BRANCH   1   2
ATOM      2  C   UNL     1      -0.020   7.948   7.858  1.00  0.00     0.053 C 
BRANCH   2   3
ATOM      3  C   UNL     1      -0.197   6.791   8.788  1.00  0.00     0.041 C 
ATOM      4  O   UNL     1      -1.270   6.133   8.784  1.00  0.00    -0.550 OA
ATOM      5  O   UNL     1       0.842   6.407   9.627  1.00  0.00    -0.550 OA
ENDBRANCH   2   3
ENDBRANCH   1   2
BRANCH   1   6
ATOM      6  C   UNL     1       2.291   8.643   7.113  1.00  0.00     0.000 C 
BRANCH   6   7
ATOM      7  C   UNL     1       3.512   7.844   7.582  1.00  0.00    -0.003 C 
ATOM      8  C   UNL     1       3.882   8.195   9.020  1.00  0.00     0.004 C 
ENDBRANCH   6   7
ENDBRANCH   1   6
TORSDOF 4
ENDMDL
