MODEL 1
REMARK VINA RESULT:    -3.794      0.000      0.000
REMARK INTER + INTRA:          -9.668
REMARK INTER:                  -8.674
REMARK INTRA:                  -0.994
REMARK UNBOUND:                -0.994
REMARK SMILES CCCCCCCCCCCCCCCCCCCCCCCC(=O)[O-]
REMARK SMILES IDX 13 1 14 2 15 3 16 4 17 5 18 6 19 7 20 8 21 9 22 10 23 11
REMARK SMILES IDX 24 12 25 13 26 14 12 15 11 16 10 17 9 18 8 19 7 20 6 21 5 22
REMARK SMILES IDX 4 23 3 24 2 25 1 26
REMARK H PARENT
REMARK Flexibility Score: inf
ROOT
ATOM      1  C   UNL     1      33.529 159.597 121.229  1.00  0.00     0.000 C 
ENDROOT
BRANCH   1   2
ATOM      2  C   UNL     1      32.051 159.642 121.658  1.00  0.00     0.000 C 
BRANCH   2   3
ATOM      3  C   UNL     1      31.455 161.048 121.882  1.00  0.00     0.000 C 
BRANCH   3   4
ATOM      4  C   UNL     1      30.515 161.559 120.768  1.00  0.00     0.000 C 
BRANCH   4   5
ATOM      5  C   UNL     1      30.055 160.476 119.773  1.00  0.00     0.000 C 
BRANCH   5   6
ATOM      6  C   UNL     1      29.571 161.035 118.420  1.00  0.00     0.000 C 
BRANCH   6   7
ATOM      7  C   UNL     1      28.673 160.037 117.667  1.00  0.00     0.000 C 
BRANCH   7   8
ATOM      8  C   UNL     1      27.206 160.086 118.133  1.00  0.00     0.000 C 
BRANCH   8   9
ATOM      9  C   UNL     1      26.817 158.998 119.152  1.00  0.00     0.000 C 
BRANCH   9  10
ATOM     10  C   UNL     1      25.902 157.917 118.550  1.00  0.00     0.006 C 
BRANCH  10  11
ATOM     11  C   UNL     1      25.264 157.032 119.629  1.00  0.00     0.053 C 
BRANCH  11  12
ATOM     12  C   UNL     1      26.191 155.946 120.082  1.00  0.00     0.041 C 
ATOM     13  O   UNL     1      26.361 154.920 119.369  1.00  0.00    -0.550 OA
ATOM     14  O   UNL     1      26.839 156.049 121.307  1.00  0.00    -0.550 OA
ENDBRANCH  11  12
ENDBRANCH  10  11
ENDBRANCH   9  10
ENDBRANCH   8   9
ENDBRANCH   7   8
ENDBRANCH   6   7
ENDBRANCH   5   6
ENDBRANCH   4   5
ENDBRANCH   3   4
ENDBRANCH   2   3
ENDBRANCH   1   2
BRANCH   1  15
ATOM     15  C   UNL     1      34.170 160.985 121.025  1.00  0.00     0.000 C 
BRANCH  15  16
ATOM     16  C   UNL     1      35.383 161.207 121.944  1.00  0.00     0.000 C 
BRANCH  16  17
ATOM     17  C   UNL     1      36.680 160.617 121.365  1.00  0.00     0.000 C 
BRANCH  17  18
ATOM     18  C   UNL     1      37.729 161.703 121.066  1.00  0.00    -0.000 C 
BRANCH  18  19
ATOM     19  C   UNL     1      38.983 161.160 120.355  1.00  0.00    -0.000 C 
BRANCH  19  20
ATOM     20  C   UNL     1      39.314 161.823 119.003  1.00  0.00    -0.000 C 
BRANCH  20  21
ATOM     21  C   UNL     1      40.807 161.754 118.643  1.00  0.00    -0.000 C 
BRANCH  21  22
ATOM     22  C   UNL     1      41.018 161.035 117.303  1.00  0.00    -0.000 C 
BRANCH  22  23
ATOM     23  C   UNL     1      42.389 160.343 117.218  1.00  0.00    -0.000 C 
BRANCH  23  24
ATOM     24  C   UNL     1      42.580 159.576 115.896  1.00  0.00    -0.000 C 
BRANCH  24  25
ATOM     25  C   UNL     1      44.059 159.448 115.498  1.00  0.00    -0.003 C 
ATOM     26  C   UNL     1      44.652 158.088 115.867  1.00  0.00     0.004 C 
ENDBRANCH  24  25
ENDBRANCH  23  24
ENDBRANCH  22  23
ENDBRANCH  21  22
ENDBRANCH  20  21
ENDBRANCH  19  20
ENDBRANCH  18  19
ENDBRANCH  17  18
ENDBRANCH  16  17
ENDBRANCH  15  16
ENDBRANCH   1  15
TORSDOF 22
ENDMDL
MODEL 2
REMARK VINA RESULT:    -3.736      5.279      6.452
REMARK INTER + INTRA:          -9.534
REMARK INTER:                  -5.985
REMARK INTRA:                  -3.549
REMARK UNBOUND:                -0.994
REMARK SMILES CCCCCCCCCCCCCCCCCCCCCCCC(=O)[O-]
REMARK SMILES IDX 13 1 14 2 15 3 16 4 17 5 18 6 19 7 20 8 21 9 22 10 23 11
REMARK SMILES IDX 24 12 25 13 26 14 12 15 11 16 10 17 9 18 8 19 7 20 6 21 5 22
REMARK SMILES IDX 4 23 3 24 2 25 1 26
REMARK H PARENT
REMARK Flexibility Score: inf
ROOT
ATOM      1  C   UNL     1      27.599 159.192 121.087  1.00  0.00     0.000 C 
ENDROOT
BRANCH   1   2
ATOM      2  C   UNL     1      27.389 160.634 121.588  1.00  0.00     0.000 C 
BRANCH   2   3
ATOM      3  C   UNL     1      27.750 161.754 120.590  1.00  0.00     0.000 C 
BRANCH   3   4
ATOM      4  C   UNL     1      26.783 161.922 119.398  1.00  0.00     0.000 C 
BRANCH   4   5
ATOM      5  C   UNL     1      27.448 161.795 118.014  1.00  0.00     0.000 C 
BRANCH   5   6
ATOM      6  C   UNL     1      28.221 160.477 117.810  1.00  0.00     0.000 C 
BRANCH   6   7
ATOM      7  C   UNL     1      27.692 159.673 116.608  1.00  0.00     0.000 C 
BRANCH   7   8
ATOM      8  C   UNL     1      26.153 159.623 116.555  1.00  0.00     0.000 C 
BRANCH   8   9
ATOM      9  C   UNL     1      25.541 158.257 116.917  1.00  0.00     0.000 C 
BRANCH   9  10
ATOM     10  C   UNL     1      25.928 157.785 118.329  1.00  0.00     0.006 C 
BRANCH  10  11
ATOM     11  C   UNL     1      25.316 156.420 118.672  1.00  0.00     0.053 C 
BRANCH  11  12
ATOM     12  C   UNL     1      26.138 155.676 119.680  1.00  0.00     0.041 C 
ATOM     13  O   UNL     1      26.768 154.638 119.340  1.00  0.00    -0.550 OA
ATOM     14  O   UNL     1      26.179 156.106 121.000  1.00  0.00    -0.550 OA
ENDBRANCH  11  12
ENDBRANCH  10  11
ENDBRANCH   9  10
ENDBRANCH   8   9
ENDBRANCH   7   8
ENDBRANCH   6   7
ENDBRANCH   5   6
ENDBRANCH   4   5
ENDBRANCH   3   4
ENDBRANCH   2   3
ENDBRANCH   1   2
BRANCH   1  15
ATOM     15  C   UNL     1      29.076 158.815 120.850  1.00  0.00     0.000 C 
BRANCH  15  16
ATOM     16  C   UNL     1      29.924 158.958 122.125  1.00  0.00     0.000 C 
BRANCH  16  17
ATOM     17  C   UNL     1      31.300 158.282 122.000  1.00  0.00     0.000 C 
BRANCH  17  18
ATOM     18  C   UNL     1      31.823 158.294 120.552  1.00  0.00    -0.000 C 
BRANCH  18  19
ATOM     19  C   UNL     1      33.249 158.862 120.424  1.00  0.00    -0.000 C 
BRANCH  19  20
ATOM     20  C   UNL     1      33.605 159.984 121.419  1.00  0.00    -0.000 C 
BRANCH  20  21
ATOM     21  C   UNL     1      33.295 161.391 120.883  1.00  0.00    -0.000 C 
BRANCH  21  22
ATOM     22  C   UNL     1      31.832 161.773 121.149  1.00  0.00    -0.000 C 
BRANCH  22  23
ATOM     23  C   UNL     1      31.068 162.109 119.858  1.00  0.00    -0.000 C 
BRANCH  23  24
ATOM     24  C   UNL     1      31.941 161.951 118.599  1.00  0.00    -0.000 C 
BRANCH  24  25
ATOM     25  C   UNL     1      31.553 160.719 117.765  1.00  0.00    -0.003 C 
ATOM     26  C   UNL     1      32.769 159.947 117.253  1.00  0.00     0.004 C 
ENDBRANCH  24  25
ENDBRANCH  23  24
ENDBRANCH  22  23
ENDBRANCH  21  22
ENDBRANCH  20  21
ENDBRANCH  19  20
ENDBRANCH  18  19
ENDBRANCH  17  18
ENDBRANCH  16  17
ENDBRANCH  15  16
ENDBRANCH   1  15
TORSDOF 22
ENDMDL
MODEL 3
REMARK VINA RESULT:    -3.488      5.686     10.981
REMARK INTER + INTRA:          -8.967
REMARK INTER:                  -5.917
REMARK INTRA:                  -3.050
REMARK UNBOUND:                -0.994
REMARK SMILES CCCCCCCCCCCCCCCCCCCCCCCC(=O)[O-]
REMARK SMILES IDX 13 1 14 2 15 3 16 4 17 5 18 6 19 7 20 8 21 9 22 10 23 11
REMARK SMILES IDX 24 12 25 13 26 14 12 15 11 16 10 17 9 18 8 19 7 20 6 21 5 22
REMARK SMILES IDX 4 23 3 24 2 25 1 26
REMARK H PARENT
REMARK Flexibility Score: inf
ROOT
ATOM      1  C   UNL     1      26.218 158.148 116.429  1.00  0.00     0.000 C 
ENDROOT
BRANCH   1   2
ATOM      2  C   UNL     1      26.583 159.480 115.747  1.00  0.00     0.000 C 
BRANCH   2   3
ATOM      3  C   UNL     1      26.365 160.753 116.592  1.00  0.00     0.000 C 
BRANCH   3   4
ATOM      4  C   UNL     1      27.647 161.425 117.129  1.00  0.00     0.000 C 
BRANCH   4   5
ATOM      5  C   UNL     1      28.538 160.508 117.989  1.00  0.00     0.000 C 
BRANCH   5   6
ATOM      6  C   UNL     1      29.892 161.135 118.375  1.00  0.00     0.000 C 
BRANCH   6   7
ATOM      7  C   UNL     1      31.061 160.149 118.196  1.00  0.00     0.000 C 
BRANCH   7   8
ATOM      8  C   UNL     1      32.364 160.641 118.854  1.00  0.00     0.000 C 
BRANCH   8   9
ATOM      9  C   UNL     1      32.269 162.032 119.510  1.00  0.00     0.000 C 
BRANCH   9  10
ATOM     10  C   UNL     1      32.341 161.974 121.046  1.00  0.00     0.006 C 
BRANCH  10  11
ATOM     11  C   UNL     1      33.786 161.894 121.555  1.00  0.00     0.053 C 
BRANCH  11  12
ATOM     12  C   UNL     1      34.207 160.481 121.822  1.00  0.00     0.041 C 
ATOM     13  O   UNL     1      35.423 160.157 121.744  1.00  0.00    -0.550 OA
ATOM     14  O   UNL     1      33.254 159.514 122.120  1.00  0.00    -0.550 OA
ENDBRANCH  11  12
ENDBRANCH  10  11
ENDBRANCH   9  10
ENDBRANCH   8   9
ENDBRANCH   7   8
ENDBRANCH   6   7
ENDBRANCH   5   6
ENDBRANCH   4   5
ENDBRANCH   3   4
ENDBRANCH   2   3
ENDBRANCH   1   2
BRANCH   1  15
ATOM     15  C   UNL     1      25.443 158.308 117.754  1.00  0.00     0.000 C 
BRANCH  15  16
ATOM     16  C   UNL     1      26.265 157.843 118.968  1.00  0.00     0.000 C 
BRANCH  16  17
ATOM     17  C   UNL     1      25.540 156.769 119.796  1.00  0.00     0.000 C 
BRANCH  17  18
ATOM     18  C   UNL     1      26.459 156.138 120.858  1.00  0.00    -0.000 C 
BRANCH  18  19
ATOM     19  C   UNL     1      27.201 157.178 121.718  1.00  0.00    -0.000 C 
BRANCH  19  20
ATOM     20  C   UNL     1      28.700 157.348 121.401  1.00  0.00    -0.000 C 
BRANCH  20  21
ATOM     21  C   UNL     1      29.199 158.791 121.583  1.00  0.00    -0.000 C 
BRANCH  21  22
ATOM     22  C   UNL     1      28.084 159.697 122.124  1.00  0.00    -0.000 C 
BRANCH  22  23
ATOM     23  C   UNL     1      28.204 161.143 121.617  1.00  0.00    -0.000 C 
BRANCH  23  24
ATOM     24  C   UNL     1      27.042 162.034 122.095  1.00  0.00    -0.000 C 
BRANCH  24  25
ATOM     25  C   UNL     1      25.668 161.478 121.687  1.00  0.00    -0.003 C 
ATOM     26  C   UNL     1      25.552 161.245 120.181  1.00  0.00     0.004 C 
ENDBRANCH  24  25
ENDBRANCH  23  24
ENDBRANCH  22  23
ENDBRANCH  21  22
ENDBRANCH  20  21
ENDBRANCH  19  20
ENDBRANCH  18  19
ENDBRANCH  17  18
ENDBRANCH  16  17
ENDBRANCH  15  16
ENDBRANCH   1  15
TORSDOF 22
ENDMDL
MODEL 4
REMARK VINA RESULT:    -3.242      4.589     12.017
REMARK INTER + INTRA:          -8.406
REMARK INTER:                  -6.528
REMARK INTRA:                  -1.878
REMARK UNBOUND:                -0.994
REMARK SMILES CCCCCCCCCCCCCCCCCCCCCCCC(=O)[O-]
REMARK SMILES IDX 13 1 14 2 15 3 16 4 17 5 18 6 19 7 20 8 21 9 22 10 23 11
REMARK SMILES IDX 24 12 25 13 26 14 12 15 11 16 10 17 9 18 8 19 7 20 6 21 5 22
REMARK SMILES IDX 4 23 3 24 2 25 1 26
REMARK H PARENT
REMARK Flexibility Score: inf
ROOT
ATOM      1  C   UNL     1      29.606 159.318 121.355  1.00  0.00     0.000 C 
ENDROOT
BRANCH   1   2
ATOM      2  C   UNL     1      30.895 158.500 121.152  1.00  0.00     0.000 C 
BRANCH   2   3
ATOM      3  C   UNL     1      32.205 159.184 121.596  1.00  0.00     0.000 C 
BRANCH   3   4
ATOM      4  C   UNL     1      32.249 160.718 121.420  1.00  0.00     0.000 C 
BRANCH   4   5
ATOM      5  C   UNL     1      33.577 161.372 121.849  1.00  0.00     0.000 C 
BRANCH   5   6
ATOM      6  C   UNL     1      34.776 160.997 120.956  1.00  0.00     0.000 C 
BRANCH   6   7
ATOM      7  C   UNL     1      35.960 160.449 121.774  1.00  0.00     0.000 C 
BRANCH   7   8
ATOM      8  C   UNL     1      37.102 161.470 121.930  1.00  0.00     0.000 C 
BRANCH   8   9
ATOM      9  C   UNL     1      37.589 162.099 120.611  1.00  0.00     0.000 C 
BRANCH   9  10
ATOM     10  C   UNL     1      39.008 161.649 120.224  1.00  0.00     0.006 C 
BRANCH  10  11
ATOM     11  C   UNL     1      39.403 162.125 118.819  1.00  0.00     0.053 C 
BRANCH  11  12
ATOM     12  C   UNL     1      40.606 161.398 118.300  1.00  0.00     0.041 C 
ATOM     13  O   UNL     1      40.464 160.386 117.561  1.00  0.00    -0.550 OA
ATOM     14  O   UNL     1      41.882 161.813 118.662  1.00  0.00    -0.550 OA
ENDBRANCH  11  12
ENDBRANCH  10  11
ENDBRANCH   9  10
ENDBRANCH   8   9
ENDBRANCH   7   8
ENDBRANCH   6   7
ENDBRANCH   5   6
ENDBRANCH   4   5
ENDBRANCH   3   4
ENDBRANCH   2   3
ENDBRANCH   1   2
BRANCH   1  15
ATOM     15  C   UNL     1      28.459 158.533 122.023  1.00  0.00     0.000 C 
BRANCH  15  16
ATOM     16  C   UNL     1      27.272 158.313 121.070  1.00  0.00     0.000 C 
BRANCH  16  17
ATOM     17  C   UNL     1      27.131 156.846 120.629  1.00  0.00     0.000 C 
BRANCH  17  18
ATOM     18  C   UNL     1      25.769 156.567 119.968  1.00  0.00    -0.000 C 
BRANCH  18  19
ATOM     19  C   UNL     1      25.285 157.714 119.061  1.00  0.00    -0.000 C 
BRANCH  19  20
ATOM     20  C   UNL     1      25.632 157.564 117.567  1.00  0.00    -0.000 C 
BRANCH  20  21
ATOM     21  C   UNL     1      25.852 158.909 116.857  1.00  0.00    -0.000 C 
BRANCH  21  22
ATOM     22  C   UNL     1      25.503 160.085 117.781  1.00  0.00    -0.000 C 
BRANCH  22  23
ATOM     23  C   UNL     1      26.609 161.153 117.815  1.00  0.00    -0.000 C 
BRANCH  23  24
ATOM     24  C   UNL     1      27.860 160.732 117.022  1.00  0.00    -0.000 C 
BRANCH  24  25
ATOM     25  C   UNL     1      28.914 160.046 117.907  1.00  0.00    -0.003 C 
ATOM     26  C   UNL     1      30.002 161.009 118.380  1.00  0.00     0.004 C 
ENDBRANCH  24  25
ENDBRANCH  23  24
ENDBRANCH  22  23
ENDBRANCH  21  22
ENDBRANCH  20  21
ENDBRANCH  19  20
ENDBRANCH  18  19
ENDBRANCH  17  18
ENDBRANCH  16  17
ENDBRANCH  15  16
ENDBRANCH   1  15
TORSDOF 22
ENDMDL
MODEL 5
REMARK VINA RESULT:    -3.185      5.934     11.181
REMARK INTER + INTRA:          -8.276
REMARK INTER:                  -6.049
REMARK INTRA:                  -2.227
REMARK UNBOUND:                -0.994
REMARK SMILES CCCCCCCCCCCCCCCCCCCCCCCC(=O)[O-]
REMARK SMILES IDX 13 1 14 2 15 3 16 4 17 5 18 6 19 7 20 8 21 9 22 10 23 11
REMARK SMILES IDX 24 12 25 13 26 14 12 15 11 16 10 17 9 18 8 19 7 20 6 21 5 22
REMARK SMILES IDX 4 23 3 24 2 25 1 26
REMARK H PARENT
REMARK Flexibility Score: inf
ROOT
ATOM      1  C   UNL     1      28.183 160.046 116.287  1.00  0.00     0.000 C 
ENDROOT
BRANCH   1   2
ATOM      2  C   UNL     1      28.729 160.548 117.637  1.00  0.00     0.000 C 
BRANCH   2   3
ATOM      3  C   UNL     1      28.534 159.599 118.838  1.00  0.00     0.000 C 
BRANCH   3   4
ATOM      4  C   UNL     1      29.104 160.100 120.184  1.00  0.00     0.000 C 
BRANCH   4   5
ATOM      5  C   UNL     1      29.054 161.629 120.369  1.00  0.00     0.000 C 
BRANCH   5   6
ATOM      6  C   UNL     1      29.611 162.113 121.723  1.00  0.00     0.000 C 
BRANCH   6   7
ATOM      7  C   UNL     1      30.894 161.363 122.125  1.00  0.00     0.000 C 
BRANCH   7   8
ATOM      8  C   UNL     1      30.737 159.833 122.062  1.00  0.00     0.000 C 
BRANCH   8   9
ATOM      9  C   UNL     1      32.059 159.053 121.946  1.00  0.00     0.000 C 
BRANCH   9  10
ATOM     10  C   UNL     1      32.562 158.942 120.496  1.00  0.00     0.006 C 
BRANCH  10  11
ATOM     11  C   UNL     1      32.993 160.300 119.927  1.00  0.00     0.053 C 
BRANCH  11  12
ATOM     12  C   UNL     1      32.451 160.526 118.549  1.00  0.00     0.041 C 
ATOM     13  O   UNL     1      32.555 159.626 117.672  1.00  0.00    -0.550 OA
ATOM     14  O   UNL     1      31.866 161.743 118.221  1.00  0.00    -0.550 OA
ENDBRANCH  11  12
ENDBRANCH  10  11
ENDBRANCH   9  10
ENDBRANCH   8   9
ENDBRANCH   7   8
ENDBRANCH   6   7
ENDBRANCH   5   6
ENDBRANCH   4   5
ENDBRANCH   3   4
ENDBRANCH   2   3
ENDBRANCH   1   2
BRANCH   1  15
ATOM     15  C   UNL     1      26.643 160.033 116.195  1.00  0.00     0.000 C 
BRANCH  15  16
ATOM     16  C   UNL     1      26.022 161.364 116.649  1.00  0.00     0.000 C 
BRANCH  16  17
ATOM     17  C   UNL     1      24.955 161.178 117.741  1.00  0.00     0.000 C 
BRANCH  17  18
ATOM     18  C   UNL     1      25.181 162.118 118.939  1.00  0.00    -0.000 C 
BRANCH  18  19
ATOM     19  C   UNL     1      25.301 161.375 120.283  1.00  0.00    -0.000 C 
BRANCH  19  20
ATOM     20  C   UNL     1      25.360 159.838 120.184  1.00  0.00    -0.000 C 
BRANCH  20  21
ATOM     21  C   UNL     1      25.396 159.143 121.554  1.00  0.00    -0.000 C 
BRANCH  21  22
ATOM     22  C   UNL     1      26.619 158.222 121.674  1.00  0.00    -0.000 C 
BRANCH  22  23
ATOM     23  C   UNL     1      26.244 156.733 121.587  1.00  0.00    -0.000 C 
BRANCH  23  24
ATOM     24  C   UNL     1      25.308 156.430 120.403  1.00  0.00    -0.000 C 
BRANCH  24  25
ATOM     25  C   UNL     1      26.072 156.230 119.084  1.00  0.00    -0.003 C 
ATOM     26  C   UNL     1      25.424 156.965 117.911  1.00  0.00     0.004 C 
ENDBRANCH  24  25
ENDBRANCH  23  24
ENDBRANCH  22  23
ENDBRANCH  21  22
ENDBRANCH  20  21
ENDBRANCH  19  20
ENDBRANCH  18  19
ENDBRANCH  17  18
ENDBRANCH  16  17
ENDBRANCH  15  16
ENDBRANCH   1  15
TORSDOF 22
ENDMDL
MODEL 6
REMARK VINA RESULT:    -2.996      2.274      3.285
REMARK INTER + INTRA:          -7.844
REMARK INTER:                  -6.598
REMARK INTRA:                  -1.246
REMARK UNBOUND:                -0.994
REMARK SMILES CCCCCCCCCCCCCCCCCCCCCCCC(=O)[O-]
REMARK SMILES IDX 13 1 14 2 15 3 16 4 17 5 18 6 19 7 20 8 21 9 22 10 23 11
REMARK SMILES IDX 24 12 25 13 26 14 12 15 11 16 10 17 9 18 8 19 7 20 6 21 5 22
REMARK SMILES IDX 4 23 3 24 2 25 1 26
REMARK H PARENT
REMARK Flexibility Score: inf
ROOT
ATOM      1  C   UNL     1      33.419 159.046 120.521  1.00  0.00     0.000 C 
ENDROOT
BRANCH   1   2
ATOM      2  C   UNL     1      32.325 158.006 120.830  1.00  0.00     0.000 C 
BRANCH   2   3
ATOM      3  C   UNL     1      31.147 158.503 121.693  1.00  0.00     0.000 C 
BRANCH   3   4
ATOM      4  C   UNL     1      29.759 158.460 121.016  1.00  0.00     0.000 C 
BRANCH   4   5
ATOM      5  C   UNL     1      28.669 157.746 121.838  1.00  0.00     0.000 C 
BRANCH   5   6
ATOM      6  C   UNL     1      27.633 156.991 120.982  1.00  0.00     0.000 C 
BRANCH   6   7
ATOM      7  C   UNL     1      26.227 157.025 121.607  1.00  0.00     0.000 C 
BRANCH   7   8
ATOM      8  C   UNL     1      25.200 157.762 120.727  1.00  0.00     0.000 C 
BRANCH   8   9
ATOM      9  C   UNL     1      25.591 157.881 119.242  1.00  0.00     0.000 C 
BRANCH   9  10
ATOM     10  C   UNL     1      25.808 159.338 118.797  1.00  0.00     0.006 C 
BRANCH  10  11
ATOM     11  C   UNL     1      25.635 159.512 117.283  1.00  0.00     0.053 C 
BRANCH  11  12
ATOM     12  C   UNL     1      26.936 159.809 116.602  1.00  0.00     0.041 C 
ATOM     13  O   UNL     1      27.049 159.654 115.356  1.00  0.00    -0.550 OA
ATOM     14  O   UNL     1      28.034 160.222 117.347  1.00  0.00    -0.550 OA
ENDBRANCH  11  12
ENDBRANCH  10  11
ENDBRANCH   9  10
ENDBRANCH   8   9
ENDBRANCH   7   8
ENDBRANCH   6   7
ENDBRANCH   5   6
ENDBRANCH   4   5
ENDBRANCH   3   4
ENDBRANCH   2   3
ENDBRANCH   1   2
BRANCH   1  15
ATOM     15  C   UNL     1      32.893 160.487 120.359  1.00  0.00     0.000 C 
BRANCH  15  16
ATOM     16  C   UNL     1      33.405 161.421 121.468  1.00  0.00     0.000 C 
BRANCH  16  17
ATOM     17  C   UNL     1      34.698 160.907 122.125  1.00  0.00     0.000 C 
BRANCH  17  18
ATOM     18  C   UNL     1      35.869 161.890 121.948  1.00  0.00    -0.000 C 
BRANCH  18  19
ATOM     19  C   UNL     1      37.175 161.207 121.498  1.00  0.00    -0.000 C 
BRANCH  19  20
ATOM     20  C   UNL     1      37.785 161.746 120.190  1.00  0.00    -0.000 C 
BRANCH  20  21
ATOM     21  C   UNL     1      39.269 161.384 120.017  1.00  0.00    -0.000 C 
BRANCH  21  22
ATOM     22  C   UNL     1      39.830 161.963 118.710  1.00  0.00    -0.000 C 
BRANCH  22  23
ATOM     23  C   UNL     1      40.971 161.110 118.132  1.00  0.00    -0.000 C 
BRANCH  23  24
ATOM     24  C   UNL     1      41.208 161.382 116.635  1.00  0.00    -0.000 C 
BRANCH  24  25
ATOM     25  C   UNL     1      42.490 160.713 116.111  1.00  0.00    -0.003 C 
ATOM     26  C   UNL     1      43.512 160.452 117.218  1.00  0.00     0.004 C 
ENDBRANCH  24  25
ENDBRANCH  23  24
ENDBRANCH  22  23
ENDBRANCH  21  22
ENDBRANCH  20  21
ENDBRANCH  19  20
ENDBRANCH  18  19
ENDBRANCH  17  18
ENDBRANCH  16  17
ENDBRANCH  15  16
ENDBRANCH   1  15
TORSDOF 22
ENDMDL
MODEL 7
REMARK VINA RESULT:    -2.928      2.992      5.487
REMARK INTER + INTRA:          -7.687
REMARK INTER:                  -6.203
REMARK INTRA:                  -1.484
REMARK UNBOUND:                -0.994
REMARK SMILES CCCCCCCCCCCCCCCCCCCCCCCC(=O)[O-]
REMARK SMILES IDX 13 1 14 2 15 3 16 4 17 5 18 6 19 7 20 8 21 9 22 10 23 11
REMARK SMILES IDX 24 12 25 13 26 14 12 15 11 16 10 17 9 18 8 19 7 20 6 21 5 22
REMARK SMILES IDX 4 23 3 24 2 25 1 26
REMARK H PARENT
REMARK Flexibility Score: inf
ROOT
ATOM      1  C   UNL     1      28.253 160.121 119.726  1.00  0.00     0.000 C 
ENDROOT
BRANCH   1   2
ATOM      2  C   UNL     1      27.626 161.356 120.401  1.00  0.00     0.000 C 
BRANCH   2   3
ATOM      3  C   UNL     1      26.256 161.802 119.850  1.00  0.00     0.000 C 
BRANCH   3   4
ATOM      4  C   UNL     1      25.541 160.785 118.933  1.00  0.00     0.000 C 
BRANCH   4   5
ATOM      5  C   UNL     1      25.497 161.186 117.446  1.00  0.00     0.000 C 
BRANCH   5   6
ATOM      6  C   UNL     1      26.574 160.500 116.582  1.00  0.00     0.000 C 
BRANCH   6   7
ATOM      7  C   UNL     1      26.369 158.977 116.500  1.00  0.00     0.000 C 
BRANCH   7   8
ATOM      8  C   UNL     1      25.388 158.448 117.563  1.00  0.00     0.000 C 
BRANCH   8   9
ATOM      9  C   UNL     1      25.782 157.097 118.189  1.00  0.00     0.000 C 
BRANCH   9  10
ATOM     10  C   UNL     1      25.473 157.025 119.694  1.00  0.00     0.006 C 
BRANCH  10  11
ATOM     11  C   UNL     1      26.572 156.291 120.475  1.00  0.00     0.053 C 
BRANCH  11  12
ATOM     12  C   UNL     1      27.134 157.137 121.576  1.00  0.00     0.041 C 
ATOM     13  O   UNL     1      26.472 158.109 122.030  1.00  0.00    -0.550 OA
ATOM     14  O   UNL     1      28.405 156.876 122.076  1.00  0.00    -0.550 OA
ENDBRANCH  11  12
ENDBRANCH  10  11
ENDBRANCH   9  10
ENDBRANCH   8   9
ENDBRANCH   7   8
ENDBRANCH   6   7
ENDBRANCH   5   6
ENDBRANCH   4   5
ENDBRANCH   3   4
ENDBRANCH   2   3
ENDBRANCH   1   2
BRANCH   1  15
ATOM     15  C   UNL     1      29.320 160.456 118.664  1.00  0.00     0.000 C 
BRANCH  15  16
ATOM     16  C   UNL     1      29.789 161.918 118.751  1.00  0.00     0.000 C 
BRANCH  16  17
ATOM     17  C   UNL     1      31.198 162.053 119.353  1.00  0.00     0.000 C 
BRANCH  17  18
ATOM     18  C   UNL     1      31.549 160.874 120.279  1.00  0.00    -0.000 C 
BRANCH  18  19
ATOM     19  C   UNL     1      32.952 160.294 120.022  1.00  0.00    -0.000 C 
BRANCH  19  20
ATOM     20  C   UNL     1      33.546 159.466 121.179  1.00  0.00    -0.000 C 
BRANCH  20  21
ATOM     21  C   UNL     1      34.437 160.291 122.121  1.00  0.00    -0.000 C 
BRANCH  21  22
ATOM     22  C   UNL     1      34.942 161.564 121.429  1.00  0.00    -0.000 C 
BRANCH  22  23
ATOM     23  C   UNL     1      36.352 161.966 121.892  1.00  0.00    -0.000 C 
BRANCH  23  24
ATOM     24  C   UNL     1      37.438 161.001 121.379  1.00  0.00    -0.000 C 
BRANCH  24  25
ATOM     25  C   UNL     1      38.302 161.624 120.270  1.00  0.00    -0.003 C 
ATOM     26  C   UNL     1      39.757 161.817 120.696  1.00  0.00     0.004 C 
ENDBRANCH  24  25
ENDBRANCH  23  24
ENDBRANCH  22  23
ENDBRANCH  21  22
ENDBRANCH  20  21
ENDBRANCH  19  20
ENDBRANCH  18  19
ENDBRANCH  17  18
ENDBRANCH  16  17
ENDBRANCH  15  16
ENDBRANCH   1  15
TORSDOF 22
ENDMDL
MODEL 8
REMARK VINA RESULT:    -2.914      5.481     10.189
REMARK INTER + INTRA:          -7.656
REMARK INTER:                  -4.799
REMARK INTRA:                  -2.856
REMARK UNBOUND:                -0.994
REMARK SMILES CCCCCCCCCCCCCCCCCCCCCCCC(=O)[O-]
REMARK SMILES IDX 13 1 14 2 15 3 16 4 17 5 18 6 19 7 20 8 21 9 22 10 23 11
REMARK SMILES IDX 24 12 25 13 26 14 12 15 11 16 10 17 9 18 8 19 7 20 6 21 5 22
REMARK SMILES IDX 4 23 3 24 2 25 1 26
REMARK H PARENT
REMARK Flexibility Score: inf
ROOT
ATOM      1  C   UNL     1      30.472 159.531 121.670  1.00  0.00     0.000 C 
ENDROOT
BRANCH   1   2
ATOM      2  C   UNL     1      31.399 160.713 122.014  1.00  0.00     0.000 C 
BRANCH   2   3
ATOM      3  C   UNL     1      32.053 161.429 120.814  1.00  0.00     0.000 C 
BRANCH   3   4
ATOM      4  C   UNL     1      33.247 160.693 120.167  1.00  0.00     0.000 C 
BRANCH   4   5
ATOM      5  C   UNL     1      32.858 159.685 119.069  1.00  0.00     0.000 C 
BRANCH   5   6
ATOM      6  C   UNL     1      32.694 160.316 117.671  1.00  0.00     0.000 C 
BRANCH   6   7
ATOM      7  C   UNL     1      31.230 160.298 117.194  1.00  0.00     0.000 C 
BRANCH   7   8
ATOM      8  C   UNL     1      30.236 159.997 118.331  1.00  0.00     0.000 C 
BRANCH   8   9
ATOM      9  C   UNL     1      29.077 161.004 118.456  1.00  0.00     0.000 C 
BRANCH   9  10
ATOM     10  C   UNL     1      27.833 160.586 117.652  1.00  0.00     0.006 C 
BRANCH  10  11
ATOM     11  C   UNL     1      27.287 159.223 118.097  1.00  0.00     0.053 C 
BRANCH  11  12
ATOM     12  C   UNL     1      26.013 158.874 117.391  1.00  0.00     0.041 C 
ATOM     13  O   UNL     1      25.799 157.688 117.021  1.00  0.00    -0.550 OA
ATOM     14  O   UNL     1      25.079 159.863 117.108  1.00  0.00    -0.550 OA
ENDBRANCH  11  12
ENDBRANCH  10  11
ENDBRANCH   9  10
ENDBRANCH   8   9
ENDBRANCH   7   8
ENDBRANCH   6   7
ENDBRANCH   5   6
ENDBRANCH   4   5
ENDBRANCH   3   4
ENDBRANCH   2   3
ENDBRANCH   1   2
BRANCH   1  15
ATOM     15  C   UNL     1      31.133 158.146 121.822  1.00  0.00     0.000 C 
BRANCH  15  16
ATOM     16  C   UNL     1      30.430 157.070 120.977  1.00  0.00     0.000 C 
BRANCH  16  17
ATOM     17  C   UNL     1      29.014 156.750 121.484  1.00  0.00     0.000 C 
BRANCH  17  18
ATOM     18  C   UNL     1      27.967 156.808 120.357  1.00  0.00    -0.000 C 
BRANCH  18  19
ATOM     19  C   UNL     1      26.594 156.244 120.770  1.00  0.00    -0.000 C 
BRANCH  19  20
ATOM     20  C   UNL     1      25.975 156.872 122.034  1.00  0.00    -0.000 C 
BRANCH  20  21
ATOM     21  C   UNL     1      24.905 157.930 121.724  1.00  0.00    -0.000 C 
BRANCH  21  22
ATOM     22  C   UNL     1      25.382 159.333 122.124  1.00  0.00    -0.000 C 
BRANCH  22  23
ATOM     23  C   UNL     1      26.540 159.833 121.244  1.00  0.00    -0.000 C 
BRANCH  23  24
ATOM     24  C   UNL     1      26.702 161.364 121.298  1.00  0.00    -0.000 C 
BRANCH  24  25
ATOM     25  C   UNL     1      25.409 162.106 120.925  1.00  0.00    -0.003 C 
ATOM     26  C   UNL     1      24.891 161.725 119.538  1.00  0.00     0.004 C 
ENDBRANCH  24  25
ENDBRANCH  23  24
ENDBRANCH  22  23
ENDBRANCH  21  22
ENDBRANCH  20  21
ENDBRANCH  19  20
ENDBRANCH  18  19
ENDBRANCH  17  18
ENDBRANCH  16  17
ENDBRANCH  15  16
ENDBRANCH   1  15
TORSDOF 22
ENDMDL
MODEL 9
REMARK VINA RESULT:    -2.850      5.883      9.357
REMARK INTER + INTRA:          -7.509
REMARK INTER:                  -5.665
REMARK INTRA:                  -1.844
REMARK UNBOUND:                -0.994
REMARK SMILES CCCCCCCCCCCCCCCCCCCCCCCC(=O)[O-]
REMARK SMILES IDX 13 1 14 2 15 3 16 4 17 5 18 6 19 7 20 8 21 9 22 10 23 11
REMARK SMILES IDX 24 12 25 13 26 14 12 15 11 16 10 17 9 18 8 19 7 20 6 21 5 22
REMARK SMILES IDX 4 23 3 24 2 25 1 26
REMARK H PARENT
REMARK Flexibility Score: inf
ROOT
ATOM      1  C   UNL     1      32.919 160.890 117.369  1.00  0.00     0.000 C 
ENDROOT
BRANCH   1   2
ATOM      2  C   UNL     1      32.325 162.027 118.223  1.00  0.00     0.000 C 
BRANCH   2   3
ATOM      3  C   UNL     1      32.172 161.730 119.730  1.00  0.00     0.000 C 
BRANCH   3   4
ATOM      4  C   UNL     1      30.800 162.084 120.344  1.00  0.00     0.000 C 
BRANCH   4   5
ATOM      5  C   UNL     1      29.635 162.105 119.336  1.00  0.00     0.000 C 
BRANCH   5   6
ATOM      6  C   UNL     1      28.602 160.981 119.551  1.00  0.00     0.000 C 
BRANCH   6   7
ATOM      7  C   UNL     1      27.210 161.532 119.910  1.00  0.00     0.000 C 
BRANCH   7   8
ATOM      8  C   UNL     1      26.097 160.476 119.777  1.00  0.00     0.000 C 
BRANCH   8   9
ATOM      9  C   UNL     1      24.903 160.905 118.903  1.00  0.00     0.000 C 
BRANCH   9  10
ATOM     10  C   UNL     1      25.005 160.387 117.458  1.00  0.00     0.006 C 
BRANCH  10  11
ATOM     11  C   UNL     1      26.430 159.945 117.100  1.00  0.00     0.053 C 
BRANCH  11  12
ATOM     12  C   UNL     1      27.014 160.779 116.001  1.00  0.00     0.041 C 
ATOM     13  O   UNL     1      26.757 162.011 115.936  1.00  0.00    -0.550 OA
ATOM     14  O   UNL     1      27.812 160.189 115.028  1.00  0.00    -0.550 OA
ENDBRANCH  11  12
ENDBRANCH  10  11
ENDBRANCH   9  10
ENDBRANCH   8   9
ENDBRANCH   7   8
ENDBRANCH   6   7
ENDBRANCH   5   6
ENDBRANCH   4   5
ENDBRANCH   3   4
ENDBRANCH   2   3
ENDBRANCH   1   2
BRANCH   1  15
ATOM     15  C   UNL     1      32.183 159.542 117.513  1.00  0.00     0.000 C 
BRANCH  15  16
ATOM     16  C   UNL     1      32.698 158.723 118.708  1.00  0.00     0.000 C 
BRANCH  16  17
ATOM     17  C   UNL     1      31.875 158.959 119.986  1.00  0.00     0.000 C 
BRANCH  17  18
ATOM     18  C   UNL     1      32.187 157.919 121.077  1.00  0.00    -0.000 C 
BRANCH  18  19
ATOM     19  C   UNL     1      31.005 157.665 122.033  1.00  0.00    -0.000 C 
BRANCH  19  20
ATOM     20  C   UNL     1      29.851 158.683 121.939  1.00  0.00    -0.000 C 
BRANCH  20  21
ATOM     21  C   UNL     1      28.566 158.089 121.340  1.00  0.00    -0.000 C 
BRANCH  21  22
ATOM     22  C   UNL     1      28.354 156.643 121.812  1.00  0.00    -0.000 C 
BRANCH  22  23
ATOM     23  C   UNL     1      26.866 156.273 121.920  1.00  0.00    -0.000 C 
BRANCH  23  24
ATOM     24  C   UNL     1      25.938 157.467 121.627  1.00  0.00    -0.000 C 
BRANCH  24  25
ATOM     25  C   UNL     1      25.025 157.218 120.416  1.00  0.00    -0.003 C 
ATOM     26  C   UNL     1      25.808 156.886 119.146  1.00  0.00     0.004 C 
ENDBRANCH  24  25
ENDBRANCH  23  24
ENDBRANCH  22  23
ENDBRANCH  21  22
ENDBRANCH  20  21
ENDBRANCH  19  20
ENDBRANCH  18  19
ENDBRANCH  17  18
ENDBRANCH  16  17
ENDBRANCH  15  16
ENDBRANCH   1  15
TORSDOF 22
ENDMDL
