MODEL 1
REMARK VINA RESULT:    -4.360      0.000      0.000
REMARK INTER + INTRA:         -10.182
REMARK INTER:                  -8.182
REMARK INTRA:                  -2.000
REMARK UNBOUND:                -2.000
REMARK SMILES O=C([O-])CCCCCCCCCCCCCCC(=O)[O-]
REMARK SMILES IDX 10 1 9 2 8 3 7 4 6 5 5 6 4 7 2 8 1 9 3 10 11 11 12 12 13 13
REMARK SMILES IDX 14 14 15 15 16 16 17 17 18 18 19 19 20 20
REMARK H PARENT
REMARK Flexibility Score: inf
ROOT
ATOM      1  C   UNL     1     -49.239  12.993 -29.521  1.00  0.00     0.000 C 
ENDROOT
BRANCH   1   2
ATOM      2  C   UNL     1     -49.032  11.473 -29.602  1.00  0.00     0.000 C 
BRANCH   2   3
ATOM      3  C   UNL     1     -50.353  10.697 -29.750  1.00  0.00     0.000 C 
BRANCH   3   4
ATOM      4  C   UNL     1     -50.519   9.935 -31.082  1.00  0.00     0.000 C 
BRANCH   4   5
ATOM      5  C   UNL     1     -49.335  10.058 -32.058  1.00  0.00     0.000 C 
BRANCH   5   6
ATOM      6  C   UNL     1     -48.586   8.730 -32.258  1.00  0.00     0.006 C 
BRANCH   6   7
ATOM      7  C   UNL     1     -47.232   8.715 -31.536  1.00  0.00     0.053 C 
BRANCH   7   8
ATOM      8  C   UNL     1     -47.318   8.035 -30.204  1.00  0.00     0.041 C 
ATOM      9  O   UNL     1     -48.334   7.355 -29.902  1.00  0.00    -0.550 OA
ATOM     10  O   UNL     1     -46.264   8.133 -29.304  1.00  0.00    -0.550 OA
ENDBRANCH   7   8
ENDBRANCH   6   7
ENDBRANCH   5   6
ENDBRANCH   4   5
ENDBRANCH   3   4
ENDBRANCH   2   3
ENDBRANCH   1   2
BRANCH   1  11
ATOM     11  C   UNL     1     -49.311  13.614 -30.924  1.00  0.00     0.000 C 
BRANCH  11  12
ATOM     12  C   UNL     1     -50.569  14.473 -31.126  1.00  0.00     0.000 C 
BRANCH  12  13
ATOM     13  C   UNL     1     -51.806  13.634 -31.492  1.00  0.00     0.000 C 
BRANCH  13  14
ATOM     14  C   UNL     1     -52.823  13.546 -30.343  1.00  0.00     0.000 C 
BRANCH  14  15
ATOM     15  C   UNL     1     -52.649  14.678 -29.314  1.00  0.00     0.000 C 
BRANCH  15  16
ATOM     16  C   UNL     1     -53.688  15.798 -29.486  1.00  0.00     0.006 C 
BRANCH  16  17
ATOM     17  C   UNL     1     -53.192  16.934 -30.388  1.00  0.00     0.053 C 
BRANCH  17  18
ATOM     18  C   UNL     1     -52.088  17.691 -29.718  1.00  0.00     0.041 C 
ATOM     19  O   UNL     1     -51.059  18.018 -30.365  1.00  0.00    -0.550 OA
ATOM     20  O   UNL     1     -52.177  17.995 -28.365  1.00  0.00    -0.550 OA
ENDBRANCH  17  18
ENDBRANCH  16  17
ENDBRANCH  15  16
ENDBRANCH  14  15
ENDBRANCH  13  14
ENDBRANCH  12  13
ENDBRANCH  11  12
ENDBRANCH   1  11
TORSDOF 15
ENDMDL
MODEL 2
REMARK VINA RESULT:    -4.283      1.265      8.172
REMARK INTER + INTRA:         -10.038
REMARK INTER:                  -8.418
REMARK INTRA:                  -1.620
REMARK UNBOUND:                -2.000
REMARK SMILES O=C([O-])CCCCCCCCCCCCCCC(=O)[O-]
REMARK SMILES IDX 10 1 9 2 8 3 7 4 6 5 5 6 4 7 2 8 1 9 3 10 11 11 12 12 13 13
REMARK SMILES IDX 14 14 15 15 16 16 17 17 18 18 19 19 20 20
REMARK H PARENT
REMARK Flexibility Score: inf
ROOT
ATOM      1  C   UNL     1     -49.594  13.347 -30.959  1.00  0.00     0.000 C 
ENDROOT
BRANCH   1   2
ATOM      2  C   UNL     1     -50.347  14.682 -31.072  1.00  0.00     0.000 C 
BRANCH   2   3
ATOM      3  C   UNL     1     -51.809  14.508 -31.520  1.00  0.00     0.000 C 
BRANCH   3   4
ATOM      4  C   UNL     1     -52.859  14.654 -30.400  1.00  0.00     0.000 C 
BRANCH   4   5
ATOM      5  C   UNL     1     -52.312  15.154 -29.051  1.00  0.00     0.000 C 
BRANCH   5   6
ATOM      6  C   UNL     1     -53.077  16.375 -28.513  1.00  0.00     0.006 C 
BRANCH   6   7
ATOM      7  C   UNL     1     -52.267  17.672 -28.651  1.00  0.00     0.053 C 
BRANCH   7   8
ATOM      8  C   UNL     1     -52.081  18.063 -30.085  1.00  0.00     0.041 C 
ATOM      9  O   UNL     1     -50.924  18.160 -30.573  1.00  0.00    -0.550 OA
ATOM     10  O   UNL     1     -53.188  18.299 -30.890  1.00  0.00    -0.550 OA
ENDBRANCH   7   8
ENDBRANCH   6   7
ENDBRANCH   5   6
ENDBRANCH   4   5
ENDBRANCH   3   4
ENDBRANCH   2   3
ENDBRANCH   1   2
BRANCH   1  11
ATOM     11  C   UNL     1     -49.338  12.982 -29.490  1.00  0.00     0.000 C 
BRANCH  11  12
ATOM     12  C   UNL     1     -49.831  11.570 -29.138  1.00  0.00     0.000 C 
BRANCH  12  13
ATOM     13  C   UNL     1     -51.245  11.287 -29.674  1.00  0.00     0.000 C 
BRANCH  13  14
ATOM     14  C   UNL     1     -51.311  10.010 -30.527  1.00  0.00     0.000 C 
BRANCH  14  15
ATOM     15  C   UNL     1     -49.926   9.374 -30.742  1.00  0.00     0.000 C 
BRANCH  15  16
ATOM     16  C   UNL     1     -49.284   9.794 -32.074  1.00  0.00     0.006 C 
BRANCH  16  17
ATOM     17  C   UNL     1     -48.594   8.629 -32.795  1.00  0.00     0.053 C 
BRANCH  17  18
ATOM     18  C   UNL     1     -47.425   8.139 -31.997  1.00  0.00     0.041 C 
ATOM     19  O   UNL     1     -46.696   8.955 -31.374  1.00  0.00    -0.550 OA
ATOM     20  O   UNL     1     -47.114   6.785 -31.981  1.00  0.00    -0.550 OA
ENDBRANCH  17  18
ENDBRANCH  16  17
ENDBRANCH  15  16
ENDBRANCH  14  15
ENDBRANCH  13  14
ENDBRANCH  12  13
ENDBRANCH  11  12
ENDBRANCH   1  11
TORSDOF 15
ENDMDL
MODEL 3
REMARK VINA RESULT:    -4.279      1.854      2.751
REMARK INTER + INTRA:         -10.031
REMARK INTER:                  -7.873
REMARK INTRA:                  -2.158
REMARK UNBOUND:                -2.000
REMARK SMILES O=C([O-])CCCCCCCCCCCCCCC(=O)[O-]
REMARK SMILES IDX 10 1 9 2 8 3 7 4 6 5 5 6 4 7 2 8 1 9 3 10 11 11 12 12 13 13
REMARK SMILES IDX 14 14 15 15 16 16 17 17 18 18 19 19 20 20
REMARK H PARENT
REMARK Flexibility Score: inf
ROOT
ATOM      1  C   UNL     1     -50.489  13.116 -30.623  1.00  0.00     0.000 C 
ENDROOT
BRANCH   1   2
ATOM      2  C   UNL     1     -49.794  12.975 -29.261  1.00  0.00     0.000 C 
BRANCH   2   3
ATOM      3  C   UNL     1     -48.482  12.175 -29.339  1.00  0.00     0.000 C 
BRANCH   3   4
ATOM      4  C   UNL     1     -48.525  10.779 -28.682  1.00  0.00     0.000 C 
BRANCH   4   5
ATOM      5  C   UNL     1     -48.972   9.634 -29.609  1.00  0.00     0.000 C 
BRANCH   5   6
ATOM      6  C   UNL     1     -48.479   9.810 -31.055  1.00  0.00     0.006 C 
BRANCH   6   7
ATOM      7  C   UNL     1     -49.611   9.636 -32.077  1.00  0.00     0.053 C 
BRANCH   7   8
ATOM      8  C   UNL     1     -49.434   8.398 -32.901  1.00  0.00     0.041 C 
ATOM      9  O   UNL     1     -48.287   8.049 -33.285  1.00  0.00    -0.550 OA
ATOM     10  O   UNL     1     -50.535   7.615 -33.225  1.00  0.00    -0.550 OA
ENDBRANCH   7   8
ENDBRANCH   6   7
ENDBRANCH   5   6
ENDBRANCH   4   5
ENDBRANCH   3   4
ENDBRANCH   2   3
ENDBRANCH   1   2
BRANCH   1  11
ATOM     11  C   UNL     1     -51.899  12.508 -30.587  1.00  0.00     0.000 C 
BRANCH  11  12
ATOM     12  C   UNL     1     -52.205  11.803 -29.256  1.00  0.00     0.000 C 
BRANCH  12  13
ATOM     13  C   UNL     1     -53.327  12.498 -28.464  1.00  0.00     0.000 C 
BRANCH  13  14
ATOM     14  C   UNL     1     -53.691  13.876 -29.038  1.00  0.00     0.000 C 
BRANCH  14  15
ATOM     15  C   UNL     1     -53.314  15.028 -28.087  1.00  0.00     0.000 C 
BRANCH  15  16
ATOM     16  C   UNL     1     -52.525  16.142 -28.793  1.00  0.00     0.006 C 
BRANCH  16  17
ATOM     17  C   UNL     1     -52.712  16.129 -30.315  1.00  0.00     0.053 C 
BRANCH  17  18
ATOM     18  C   UNL     1     -51.550  16.788 -30.990  1.00  0.00     0.041 C 
ATOM     19  O   UNL     1     -50.984  16.229 -31.966  1.00  0.00    -0.550 OA
ATOM     20  O   UNL     1     -51.063  17.998 -30.511  1.00  0.00    -0.550 OA
ENDBRANCH  17  18
ENDBRANCH  16  17
ENDBRANCH  15  16
ENDBRANCH  14  15
ENDBRANCH  13  14
ENDBRANCH  12  13
ENDBRANCH  11  12
ENDBRANCH   1  11
TORSDOF 15
ENDMDL
MODEL 4
REMARK VINA RESULT:    -4.278      1.672      2.176
REMARK INTER + INTRA:         -10.030
REMARK INTER:                  -7.932
REMARK INTRA:                  -2.097
REMARK UNBOUND:                -2.000
REMARK SMILES O=C([O-])CCCCCCCCCCCCCCC(=O)[O-]
REMARK SMILES IDX 10 1 9 2 8 3 7 4 6 5 5 6 4 7 2 8 1 9 3 10 11 11 12 12 13 13
REMARK SMILES IDX 14 14 15 15 16 16 17 17 18 18 19 19 20 20
REMARK H PARENT
REMARK Flexibility Score: inf
ROOT
ATOM      1  C   UNL     1     -49.593  13.220 -30.768  1.00  0.00     0.000 C 
ENDROOT
BRANCH   1   2
ATOM      2  C   UNL     1     -49.313  12.859 -29.301  1.00  0.00     0.000 C 
BRANCH   2   3
ATOM      3  C   UNL     1     -49.873  11.481 -28.907  1.00  0.00     0.000 C 
BRANCH   3   4
ATOM      4  C   UNL     1     -49.502  10.326 -29.860  1.00  0.00     0.000 C 
BRANCH   4   5
ATOM      5  C   UNL     1     -50.696   9.617 -30.525  1.00  0.00     0.000 C 
BRANCH   5   6
ATOM      6  C   UNL     1     -50.733   9.813 -32.050  1.00  0.00     0.006 C 
BRANCH   6   7
ATOM      7  C   UNL     1     -49.342   9.678 -32.684  1.00  0.00     0.053 C 
BRANCH   7   8
ATOM      8  C   UNL     1     -49.034   8.260 -33.056  1.00  0.00     0.041 C 
ATOM      9  O   UNL     1     -49.967   7.444 -33.279  1.00  0.00    -0.550 OA
ATOM     10  O   UNL     1     -47.714   7.844 -33.180  1.00  0.00    -0.550 OA
ENDBRANCH   7   8
ENDBRANCH   6   7
ENDBRANCH   5   6
ENDBRANCH   4   5
ENDBRANCH   3   4
ENDBRANCH   2   3
ENDBRANCH   1   2
BRANCH   1  11
ATOM     11  C   UNL     1     -50.896  14.023 -30.898  1.00  0.00     0.000 C 
BRANCH  11  12
ATOM     12  C   UNL     1     -52.026  13.213 -31.550  1.00  0.00     0.000 C 
BRANCH  12  13
ATOM     13  C   UNL     1     -53.035  12.672 -30.522  1.00  0.00     0.000 C 
BRANCH  13  14
ATOM     14  C   UNL     1     -53.864  13.785 -29.863  1.00  0.00     0.000 C 
BRANCH  14  15
ATOM     15  C   UNL     1     -53.431  14.062 -28.411  1.00  0.00     0.000 C 
BRANCH  15  16
ATOM     16  C   UNL     1     -53.260  15.561 -28.121  1.00  0.00     0.006 C 
BRANCH  16  17
ATOM     17  C   UNL     1     -53.552  16.439 -29.345  1.00  0.00     0.053 C 
BRANCH  17  18
ATOM     18  C   UNL     1     -52.373  17.306 -29.660  1.00  0.00     0.041 C 
ATOM     19  O   UNL     1     -51.814  17.972 -28.749  1.00  0.00    -0.550 OA
ATOM     20  O   UNL     1     -51.920  17.413 -30.969  1.00  0.00    -0.550 OA
ENDBRANCH  17  18
ENDBRANCH  16  17
ENDBRANCH  15  16
ENDBRANCH  14  15
ENDBRANCH  13  14
ENDBRANCH  12  13
ENDBRANCH  11  12
ENDBRANCH   1  11
TORSDOF 15
ENDMDL
MODEL 5
REMARK VINA RESULT:    -4.269      2.040      7.977
REMARK INTER + INTRA:         -10.012
REMARK INTER:                  -8.184
REMARK INTRA:                  -1.828
REMARK UNBOUND:                -2.000
REMARK SMILES O=C([O-])CCCCCCCCCCCCCCC(=O)[O-]
REMARK SMILES IDX 10 1 9 2 8 3 7 4 6 5 5 6 4 7 2 8 1 9 3 10 11 11 12 12 13 13
REMARK SMILES IDX 14 14 15 15 16 16 17 17 18 18 19 19 20 20
REMARK H PARENT
REMARK Flexibility Score: inf
ROOT
ATOM      1  C   UNL     1     -50.405  10.235 -31.914  1.00  0.00     0.000 C 
ENDROOT
BRANCH   1   2
ATOM      2  C   UNL     1     -50.500  10.224 -30.381  1.00  0.00     0.000 C 
BRANCH   2   3
ATOM      3  C   UNL     1     -49.284  10.878 -29.701  1.00  0.00     0.000 C 
BRANCH   3   4
ATOM      4  C   UNL     1     -49.493  12.339 -29.252  1.00  0.00     0.000 C 
BRANCH   4   5
ATOM      5  C   UNL     1     -49.221  13.402 -30.332  1.00  0.00     0.000 C 
BRANCH   5   6
ATOM      6  C   UNL     1     -50.509  13.935 -30.982  1.00  0.00     0.006 C 
BRANCH   6   7
ATOM      7  C   UNL     1     -50.314  15.331 -31.590  1.00  0.00     0.053 C 
BRANCH   7   8
ATOM      8  C   UNL     1     -51.316  16.313 -31.064  1.00  0.00     0.041 C 
ATOM      9  O   UNL     1     -52.523  15.980 -30.931  1.00  0.00    -0.550 OA
ATOM     10  O   UNL     1     -50.911  17.590 -30.698  1.00  0.00    -0.550 OA
ENDBRANCH   7   8
ENDBRANCH   6   7
ENDBRANCH   5   6
ENDBRANCH   4   5
ENDBRANCH   3   4
ENDBRANCH   2   3
ENDBRANCH   1   2
BRANCH   1  11
ATOM     11  C   UNL     1     -51.564   9.448 -32.543  1.00  0.00     0.000 C 
BRANCH  11  12
ATOM     12  C   UNL     1     -51.160   8.022 -32.946  1.00  0.00     0.000 C 
BRANCH  12  13
ATOM     13  C   UNL     1     -51.700   6.958 -31.974  1.00  0.00     0.000 C 
BRANCH  13  14
ATOM     14  C   UNL     1     -50.587   6.086 -31.373  1.00  0.00     0.000 C 
BRANCH  14  15
ATOM     15  C   UNL     1     -50.072   6.631 -30.028  1.00  0.00     0.000 C 
BRANCH  15  16
ATOM     16  C   UNL     1     -48.567   6.942 -30.055  1.00  0.00     0.006 C 
BRANCH  16  17
ATOM     17  C   UNL     1     -47.923   6.642 -31.414  1.00  0.00     0.053 C 
BRANCH  17  18
ATOM     18  C   UNL     1     -47.456   7.908 -32.063  1.00  0.00     0.041 C 
ATOM     19  O   UNL     1     -47.654   8.101 -33.291  1.00  0.00    -0.550 OA
ATOM     20  O   UNL     1     -46.762   8.854 -31.319  1.00  0.00    -0.550 OA
ENDBRANCH  17  18
ENDBRANCH  16  17
ENDBRANCH  15  16
ENDBRANCH  14  15
ENDBRANCH  13  14
ENDBRANCH  12  13
ENDBRANCH  11  12
ENDBRANCH   1  11
TORSDOF 15
ENDMDL
MODEL 6
REMARK VINA RESULT:    -4.242      1.615      2.945
REMARK INTER + INTRA:          -9.962
REMARK INTER:                  -8.076
REMARK INTRA:                  -1.886
REMARK UNBOUND:                -2.000
REMARK SMILES O=C([O-])CCCCCCCCCCCCCCC(=O)[O-]
REMARK SMILES IDX 10 1 9 2 8 3 7 4 6 5 5 6 4 7 2 8 1 9 3 10 11 11 12 12 13 13
REMARK SMILES IDX 14 14 15 15 16 16 17 17 18 18 19 19 20 20
REMARK H PARENT
REMARK Flexibility Score: inf
ROOT
ATOM      1  C   UNL     1     -51.208  10.352 -31.897  1.00  0.00     0.000 C 
ENDROOT
BRANCH   1   2
ATOM      2  C   UNL     1     -51.835   9.157 -32.631  1.00  0.00     0.000 C 
BRANCH   2   3
ATOM      3  C   UNL     1     -51.950   7.904 -31.745  1.00  0.00     0.000 C 
BRANCH   3   4
ATOM      4  C   UNL     1     -51.103   6.699 -32.202  1.00  0.00     0.000 C 
BRANCH   4   5
ATOM      5  C   UNL     1     -50.109   6.992 -33.341  1.00  0.00     0.000 C 
BRANCH   5   6
ATOM      6  C   UNL     1     -48.645   6.994 -32.869  1.00  0.00     0.006 C 
BRANCH   6   7
ATOM      7  C   UNL     1     -48.175   8.394 -32.450  1.00  0.00     0.053 C 
BRANCH   7   8
ATOM      8  C   UNL     1     -47.799   8.445 -31.001  1.00  0.00     0.041 C 
ATOM      9  O   UNL     1     -48.531   7.899 -30.135  1.00  0.00    -0.550 OA
ATOM     10  O   UNL     1     -46.626   9.078 -30.609  1.00  0.00    -0.550 OA
ENDBRANCH   7   8
ENDBRANCH   6   7
ENDBRANCH   5   6
ENDBRANCH   4   5
ENDBRANCH   3   4
ENDBRANCH   2   3
ENDBRANCH   1   2
BRANCH   1  11
ATOM     11  C   UNL     1     -51.293  10.169 -30.374  1.00  0.00     0.000 C 
BRANCH  11  12
ATOM     12  C   UNL     1     -50.220  10.972 -29.622  1.00  0.00     0.000 C 
BRANCH  12  13
ATOM     13  C   UNL     1     -49.434  11.918 -30.547  1.00  0.00     0.000 C 
BRANCH  13  14
ATOM     14  C   UNL     1     -49.623  13.398 -30.178  1.00  0.00     0.000 C 
BRANCH  14  15
ATOM     15  C   UNL     1     -51.100  13.831 -30.215  1.00  0.00     0.000 C 
BRANCH  15  16
ATOM     16  C   UNL     1     -51.460  14.593 -31.500  1.00  0.00     0.006 C 
BRANCH  16  17
ATOM     17  C   UNL     1     -50.703  15.921 -31.635  1.00  0.00     0.053 C 
BRANCH  17  18
ATOM     18  C   UNL     1     -51.494  17.037 -31.026  1.00  0.00     0.041 C 
ATOM     19  O   UNL     1     -52.749  16.962 -30.959  1.00  0.00    -0.550 OA
ATOM     20  O   UNL     1     -50.846  18.181 -30.575  1.00  0.00    -0.550 OA
ENDBRANCH  17  18
ENDBRANCH  16  17
ENDBRANCH  15  16
ENDBRANCH  14  15
ENDBRANCH  13  14
ENDBRANCH  12  13
ENDBRANCH  11  12
ENDBRANCH   1  11
TORSDOF 15
ENDMDL
MODEL 7
REMARK VINA RESULT:    -4.240      3.667      5.879
REMARK INTER + INTRA:          -9.958
REMARK INTER:                  -7.492
REMARK INTRA:                  -2.466
REMARK UNBOUND:                -2.000
REMARK SMILES O=C([O-])CCCCCCCCCCCCCCC(=O)[O-]
REMARK SMILES IDX 10 1 9 2 8 3 7 4 6 5 5 6 4 7 2 8 1 9 3 10 11 11 12 12 13 13
REMARK SMILES IDX 14 14 15 15 16 16 17 17 18 18 19 19 20 20
REMARK H PARENT
REMARK Flexibility Score: inf
ROOT
ATOM      1  C   UNL     1     -52.061  14.649 -29.493  1.00  0.00     0.000 C 
ENDROOT
BRANCH   1   2
ATOM      2  C   UNL     1     -53.125  13.550 -29.356  1.00  0.00     0.000 C 
BRANCH   2   3
ATOM      3  C   UNL     1     -52.622  12.324 -28.574  1.00  0.00     0.000 C 
BRANCH   3   4
ATOM      4  C   UNL     1     -52.304  11.084 -29.434  1.00  0.00     0.000 C 
BRANCH   4   5
ATOM      5  C   UNL     1     -52.553  11.253 -30.944  1.00  0.00     0.000 C 
BRANCH   5   6
ATOM      6  C   UNL     1     -51.641  10.362 -31.803  1.00  0.00     0.006 C 
BRANCH   6   7
ATOM      7  C   UNL     1     -51.695   8.891 -31.369  1.00  0.00     0.053 C 
BRANCH   7   8
ATOM      8  C   UNL     1     -51.034   7.990 -32.367  1.00  0.00     0.041 C 
ATOM      9  O   UNL     1     -50.017   8.379 -32.999  1.00  0.00    -0.550 OA
ATOM     10  O   UNL     1     -51.530   6.710 -32.583  1.00  0.00    -0.550 OA
ENDBRANCH   7   8
ENDBRANCH   6   7
ENDBRANCH   5   6
ENDBRANCH   4   5
ENDBRANCH   3   4
ENDBRANCH   2   3
ENDBRANCH   1   2
BRANCH   1  11
ATOM     11  C   UNL     1     -51.741  14.924 -30.970  1.00  0.00     0.000 C 
BRANCH  11  12
ATOM     12  C   UNL     1     -50.442  14.244 -31.429  1.00  0.00     0.000 C 
BRANCH  12  13
ATOM     13  C   UNL     1     -49.516  13.885 -30.254  1.00  0.00     0.000 C 
BRANCH  13  14
ATOM     14  C   UNL     1     -49.052  12.420 -30.291  1.00  0.00     0.000 C 
BRANCH  14  15
ATOM     15  C   UNL     1     -48.733  11.868 -28.890  1.00  0.00     0.000 C 
BRANCH  15  16
ATOM     16  C   UNL     1     -48.115  10.461 -28.937  1.00  0.00     0.006 C 
BRANCH  16  17
ATOM     17  C   UNL     1     -48.289   9.781 -30.301  1.00  0.00     0.053 C 
BRANCH  17  18
ATOM     18  C   UNL     1     -47.084   8.958 -30.633  1.00  0.00     0.041 C 
ATOM     19  O   UNL     1     -46.901   8.547 -31.809  1.00  0.00    -0.550 OA
ATOM     20  O   UNL     1     -46.186   8.607 -29.632  1.00  0.00    -0.550 OA
ENDBRANCH  17  18
ENDBRANCH  16  17
ENDBRANCH  15  16
ENDBRANCH  14  15
ENDBRANCH  13  14
ENDBRANCH  12  13
ENDBRANCH  11  12
ENDBRANCH   1  11
TORSDOF 15
ENDMDL
MODEL 8
REMARK VINA RESULT:    -4.221      2.147      7.277
REMARK INTER + INTRA:          -9.923
REMARK INTER:                  -7.552
REMARK INTRA:                  -2.370
REMARK UNBOUND:                -2.000
REMARK SMILES O=C([O-])CCCCCCCCCCCCCCC(=O)[O-]
REMARK SMILES IDX 10 1 9 2 8 3 7 4 6 5 5 6 4 7 2 8 1 9 3 10 11 11 12 12 13 13
REMARK SMILES IDX 14 14 15 15 16 16 17 17 18 18 19 19 20 20
REMARK H PARENT
REMARK Flexibility Score: inf
ROOT
ATOM      1  C   UNL     1     -52.774   9.255 -30.383  1.00  0.00     0.000 C 
ENDROOT
BRANCH   1   2
ATOM      2  C   UNL     1     -52.635  10.779 -30.246  1.00  0.00     0.000 C 
BRANCH   2   3
ATOM      3  C   UNL     1     -51.749  11.195 -29.059  1.00  0.00     0.000 C 
BRANCH   3   4
ATOM      4  C   UNL     1     -50.233  11.012 -29.278  1.00  0.00     0.000 C 
BRANCH   4   5
ATOM      5  C   UNL     1     -49.645  11.792 -30.469  1.00  0.00     0.000 C 
BRANCH   5   6
ATOM      6  C   UNL     1     -49.104  13.175 -30.068  1.00  0.00     0.006 C 
BRANCH   6   7
ATOM      7  C   UNL     1     -49.696  14.299 -30.930  1.00  0.00     0.053 C 
BRANCH   7   8
ATOM      8  C   UNL     1     -51.191  14.335 -30.850  1.00  0.00     0.041 C 
ATOM      9  O   UNL     1     -51.762  14.810 -29.832  1.00  0.00    -0.550 OA
ATOM     10  O   UNL     1     -51.956  13.864 -31.909  1.00  0.00    -0.550 OA
ENDBRANCH   7   8
ENDBRANCH   6   7
ENDBRANCH   5   6
ENDBRANCH   4   5
ENDBRANCH   3   4
ENDBRANCH   2   3
ENDBRANCH   1   2
BRANCH   1  11
ATOM     11  C   UNL     1     -52.689   8.825 -31.855  1.00  0.00     0.000 C 
BRANCH  11  12
ATOM     12  C   UNL     1     -51.578   9.560 -32.622  1.00  0.00     0.000 C 
BRANCH  12  13
ATOM     13  C   UNL     1     -50.265   8.760 -32.671  1.00  0.00     0.000 C 
BRANCH  13  14
ATOM     14  C   UNL     1     -50.494   7.242 -32.606  1.00  0.00     0.000 C 
BRANCH  14  15
ATOM     15  C   UNL     1     -49.718   6.578 -31.454  1.00  0.00     0.000 C 
BRANCH  15  16
ATOM     16  C   UNL     1     -49.372   7.566 -30.329  1.00  0.00     0.006 C 
BRANCH  16  17
ATOM     17  C   UNL     1     -47.891   7.518 -29.932  1.00  0.00     0.053 C 
BRANCH  17  18
ATOM     18  C   UNL     1     -47.140   8.641 -30.577  1.00  0.00     0.041 C 
ATOM     19  O   UNL     1     -46.828   9.662 -29.910  1.00  0.00    -0.550 OA
ATOM     20  O   UNL     1     -46.825   8.579 -31.929  1.00  0.00    -0.550 OA
ENDBRANCH  17  18
ENDBRANCH  16  17
ENDBRANCH  15  16
ENDBRANCH  14  15
ENDBRANCH  13  14
ENDBRANCH  12  13
ENDBRANCH  11  12
ENDBRANCH   1  11
TORSDOF 15
ENDMDL
MODEL 9
REMARK VINA RESULT:    -4.196      1.037      7.979
REMARK INTER + INTRA:          -9.875
REMARK INTER:                  -8.177
REMARK INTRA:                  -1.698
REMARK UNBOUND:                -2.000
REMARK SMILES O=C([O-])CCCCCCCCCCCCCCC(=O)[O-]
REMARK SMILES IDX 10 1 9 2 8 3 7 4 6 5 5 6 4 7 2 8 1 9 3 10 11 11 12 12 13 13
REMARK SMILES IDX 14 14 15 15 16 16 17 17 18 18 19 19 20 20
REMARK H PARENT
REMARK Flexibility Score: inf
ROOT
ATOM      1  C   UNL     1     -49.126  11.797 -29.795  1.00  0.00     0.000 C 
ENDROOT
BRANCH   1   2
ATOM      2  C   UNL     1     -49.866  13.134 -29.644  1.00  0.00     0.000 C 
BRANCH   2   3
ATOM      3  C   UNL     1     -49.602  14.100 -30.813  1.00  0.00     0.000 C 
BRANCH   3   4
ATOM      4  C   UNL     1     -50.815  14.946 -31.250  1.00  0.00     0.000 C 
BRANCH   4   5
ATOM      5  C   UNL     1     -52.190  14.350 -30.897  1.00  0.00     0.000 C 
BRANCH   5   6
ATOM      6  C   UNL     1     -53.103  15.347 -30.163  1.00  0.00     0.006 C 
BRANCH   6   7
ATOM      7  C   UNL     1     -52.561  15.712 -28.774  1.00  0.00     0.053 C 
BRANCH   7   8
ATOM      8  C   UNL     1     -52.512  17.195 -28.567  1.00  0.00     0.041 C 
ATOM      9  O   UNL     1     -51.790  17.916 -29.305  1.00  0.00    -0.550 OA
ATOM     10  O   UNL     1     -53.282  17.784 -27.572  1.00  0.00    -0.550 OA
ENDBRANCH   7   8
ENDBRANCH   6   7
ENDBRANCH   5   6
ENDBRANCH   4   5
ENDBRANCH   3   4
ENDBRANCH   2   3
ENDBRANCH   1   2
BRANCH   1  11
ATOM     11  C   UNL     1     -50.080  10.613 -29.583  1.00  0.00     0.000 C 
BRANCH  11  12
ATOM     12  C   UNL     1     -51.395  10.767 -30.362  1.00  0.00     0.000 C 
BRANCH  12  13
ATOM     13  C   UNL     1     -51.183  10.758 -31.886  1.00  0.00     0.000 C 
BRANCH  13  14
ATOM     14  C   UNL     1     -51.002   9.340 -32.451  1.00  0.00     0.000 C 
BRANCH  14  15
ATOM     15  C   UNL     1     -49.557   9.068 -32.908  1.00  0.00     0.000 C 
BRANCH  15  16
ATOM     16  C   UNL     1     -48.823   8.080 -31.986  1.00  0.00     0.006 C 
BRANCH  16  17
ATOM     17  C   UNL     1     -47.316   8.356 -31.901  1.00  0.00     0.053 C 
BRANCH  17  18
ATOM     18  C   UNL     1     -46.879   8.436 -30.472  1.00  0.00     0.041 C 
ATOM     19  O   UNL     1     -46.484   9.529 -29.989  1.00  0.00    -0.550 OA
ATOM     20  O   UNL     1     -46.866   7.290 -29.685  1.00  0.00    -0.550 OA
ENDBRANCH  17  18
ENDBRANCH  16  17
ENDBRANCH  15  16
ENDBRANCH  14  15
ENDBRANCH  13  14
ENDBRANCH  12  13
ENDBRANCH  11  12
ENDBRANCH   1  11
TORSDOF 15
ENDMDL
