MODEL 1
REMARK VINA RESULT:    -5.686      0.000      0.000
REMARK INTER + INTRA:          -6.568
REMARK INTER:                  -6.517
REMARK INTRA:                  -0.051
REMARK UNBOUND:                -0.051
REMARK SMILES O=C([O-])c1cc(O)c(O)c(O)c1
REMARK SMILES IDX 4 1 5 2 12 3 6 4 10 5 8 6 2 7 1 8 3 9 7 10 11 12 9 14
REMARK H PARENT 7 11 11 13 9 15
REMARK Flexibility Score: inf
ROOT
ATOM      1  C   UNL     1      27.861  24.014  48.558  1.00  0.00     0.005 A 
ATOM      2  C   UNL     1      26.861  23.857  47.586  1.00  0.00     0.060 A 
ATOM      3  C   UNL     1      29.111  24.520  48.171  1.00  0.00     0.060 A 
ATOM      4  C   UNL     1      27.100  24.197  46.252  1.00  0.00     0.162 A 
ATOM      5  C   UNL     1      29.368  24.867  46.838  1.00  0.00     0.162 A 
ATOM      6  C   UNL     1      28.353  24.705  45.864  1.00  0.00     0.200 A 
ENDROOT
BRANCH   1   7
ATOM      7  C   UNL     1      27.606  23.653  49.970  1.00  0.00     0.072 C 
ATOM      8  O   UNL     1      28.273  24.181  50.898  1.00  0.00    -0.545 OA
ATOM      9  O   UNL     1      26.622  22.723  50.292  1.00  0.00    -0.545 OA
ENDBRANCH   1   7
BRANCH   4  10
ATOM     10  O   UNL     1      26.075  24.022  45.322  1.00  0.00    -0.504 OA
ATOM     11  H   UNL     1      25.167  23.658  45.580  1.00  0.00     0.293 HD
ENDBRANCH   4  10
BRANCH   5  12
ATOM     12  O   UNL     1      30.637  25.365  46.531  1.00  0.00    -0.504 OA
ATOM     13  H   UNL     1      31.450  25.242  47.116  1.00  0.00     0.293 HD
ENDBRANCH   5  12
BRANCH   6  14
ATOM     14  O   UNL     1      28.552  25.033  44.521  1.00  0.00    -0.502 OA
ATOM     15  H   UNL     1      29.202  24.560  43.911  1.00  0.00     0.293 HD
ENDBRANCH   6  14
TORSDOF 4
ENDMDL
MODEL 2
REMARK VINA RESULT:    -5.633      0.071      2.446
REMARK INTER + INTRA:          -6.507
REMARK INTER:                  -6.456
REMARK INTRA:                  -0.051
REMARK UNBOUND:                -0.051
REMARK SMILES O=C([O-])c1cc(O)c(O)c(O)c1
REMARK SMILES IDX 4 1 5 2 12 3 6 4 10 5 8 6 2 7 1 8 3 9 7 10 11 12 9 14
REMARK H PARENT 7 11 11 13 9 15
REMARK Flexibility Score: inf
ROOT
ATOM      1  C   UNL     1      27.851  23.975  48.556  1.00  0.00     0.005 A 
ATOM      2  C   UNL     1      29.108  24.487  48.195  1.00  0.00     0.060 A 
ATOM      3  C   UNL     1      26.866  23.832  47.567  1.00  0.00     0.060 A 
ATOM      4  C   UNL     1      29.378  24.850  46.873  1.00  0.00     0.162 A 
ATOM      5  C   UNL     1      27.121  24.190  46.237  1.00  0.00     0.162 A 
ATOM      6  C   UNL     1      28.390  24.706  45.882  1.00  0.00     0.200 A 
ENDROOT
BRANCH   1   7
ATOM      7  C   UNL     1      27.567  23.592  49.957  1.00  0.00     0.072 C 
ATOM      8  O   UNL     1      28.227  24.092  50.906  1.00  0.00    -0.545 OA
ATOM      9  O   UNL     1      26.565  22.671  50.245  1.00  0.00    -0.545 OA
ENDBRANCH   1   7
BRANCH   4  10
ATOM     10  O   UNL     1      30.642  25.354  46.562  1.00  0.00    -0.504 OA
ATOM     11  H   UNL     1      31.452  24.756  46.458  1.00  0.00     0.293 HD
ENDBRANCH   4  10
BRANCH   5  12
ATOM     12  O   UNL     1      26.089  24.017  45.312  1.00  0.00    -0.504 OA
ATOM     13  H   UNL     1      25.619  23.140  45.143  1.00  0.00     0.293 HD
ENDBRANCH   5  12
BRANCH   6  14
ATOM     14  O   UNL     1      28.702  25.080  44.572  1.00  0.00    -0.502 OA
ATOM     15  H   UNL     1      29.493  25.652  44.318  1.00  0.00     0.293 HD
ENDBRANCH   6  14
TORSDOF 4
ENDMDL
MODEL 3
REMARK VINA RESULT:    -5.545      1.530      4.276
REMARK INTER + INTRA:          -6.406
REMARK INTER:                  -6.357
REMARK INTRA:                  -0.050
REMARK UNBOUND:                -0.051
REMARK SMILES O=C([O-])c1cc(O)c(O)c(O)c1
REMARK SMILES IDX 4 1 5 2 12 3 6 4 10 5 8 6 2 7 1 8 3 9 7 10 11 12 9 14
REMARK H PARENT 7 11 11 13 9 15
REMARK Flexibility Score: inf
ROOT
ATOM      1  C   UNL     1      28.807  23.953  47.658  1.00  0.00     0.005 A 
ATOM      2  C   UNL     1      27.462  23.861  48.046  1.00  0.00     0.060 A 
ATOM      3  C   UNL     1      29.773  23.232  48.377  1.00  0.00     0.060 A 
ATOM      4  C   UNL     1      27.084  23.066  49.132  1.00  0.00     0.162 A 
ATOM      5  C   UNL     1      29.412  22.430  49.467  1.00  0.00     0.162 A 
ATOM      6  C   UNL     1      28.052  22.344  49.852  1.00  0.00     0.200 A 
ENDROOT
BRANCH   1   7
ATOM      7  C   UNL     1      29.205  24.795  46.508  1.00  0.00     0.072 C 
ATOM      8  O   UNL     1      30.300  25.417  46.516  1.00  0.00    -0.545 OA
ATOM      9  O   UNL     1      28.373  24.912  45.399  1.00  0.00    -0.545 OA
ENDBRANCH   1   7
BRANCH   4  10
ATOM     10  O   UNL     1      25.734  23.007  49.481  1.00  0.00    -0.504 OA
ATOM     11  H   UNL     1      25.089  23.760  49.277  1.00  0.00     0.293 HD
ENDBRANCH   4  10
BRANCH   5  12
ATOM     12  O   UNL     1      30.431  21.744  50.131  1.00  0.00    -0.504 OA
ATOM     13  H   UNL     1      30.613  20.757  50.024  1.00  0.00     0.293 HD
ENDBRANCH   5  12
BRANCH   6  14
ATOM     14  O   UNL     1      27.632  21.561  50.931  1.00  0.00    -0.502 OA
ATOM     15  H   UNL     1      28.066  20.692  51.205  1.00  0.00     0.293 HD
ENDBRANCH   6  14
TORSDOF 4
ENDMDL
MODEL 4
REMARK VINA RESULT:    -5.540      1.544      4.838
REMARK INTER + INTRA:          -6.401
REMARK INTER:                  -6.352
REMARK INTRA:                  -0.050
REMARK UNBOUND:                -0.051
REMARK SMILES O=C([O-])c1cc(O)c(O)c(O)c1
REMARK SMILES IDX 4 1 5 2 12 3 6 4 10 5 8 6 2 7 1 8 3 9 7 10 11 12 9 14
REMARK H PARENT 7 11 11 13 9 15
REMARK Flexibility Score: inf
ROOT
ATOM      1  C   UNL     1      28.811  23.945  47.658  1.00  0.00     0.005 A 
ATOM      2  C   UNL     1      29.781  23.224  48.373  1.00  0.00     0.060 A 
ATOM      3  C   UNL     1      27.468  23.853  48.053  1.00  0.00     0.060 A 
ATOM      4  C   UNL     1      29.420  22.426  49.462  1.00  0.00     0.162 A 
ATOM      5  C   UNL     1      27.089  23.059  49.143  1.00  0.00     0.162 A 
ATOM      6  C   UNL     1      28.073  22.335  49.858  1.00  0.00     0.200 A 
ENDROOT
BRANCH   1   7
ATOM      7  C   UNL     1      29.196  24.789  46.505  1.00  0.00     0.072 C 
ATOM      8  O   UNL     1      30.284  25.422  46.508  1.00  0.00    -0.545 OA
ATOM      9  O   UNL     1      28.359  24.894  45.399  1.00  0.00    -0.545 OA
ENDBRANCH   1   7
BRANCH   4  10
ATOM     10  O   UNL     1      30.419  21.729  50.142  1.00  0.00    -0.504 OA
ATOM     11  H   UNL     1      30.209  21.011  50.823  1.00  0.00     0.293 HD
ENDBRANCH   4  10
BRANCH   5  12
ATOM     12  O   UNL     1      25.733  23.020  49.474  1.00  0.00    -0.504 OA
ATOM     13  H   UNL     1      25.352  23.354  50.348  1.00  0.00     0.293 HD
ENDBRANCH   5  12
BRANCH   6  14
ATOM     14  O   UNL     1      27.755  21.527  50.952  1.00  0.00    -0.502 OA
ATOM     15  H   UNL     1      26.996  20.862  50.965  1.00  0.00     0.293 HD
ENDBRANCH   6  14
TORSDOF 4
ENDMDL
MODEL 5
REMARK VINA RESULT:    -5.382      1.217      4.973
REMARK INTER + INTRA:          -6.220
REMARK INTER:                  -6.168
REMARK INTRA:                  -0.052
REMARK UNBOUND:                -0.051
REMARK SMILES O=C([O-])c1cc(O)c(O)c(O)c1
REMARK SMILES IDX 4 1 5 2 12 3 6 4 10 5 8 6 2 7 1 8 3 9 7 10 11 12 9 14
REMARK H PARENT 7 11 11 13 9 15
REMARK Flexibility Score: inf
ROOT
ATOM      1  C   UNL     1      28.281  24.211  48.143  1.00  0.00     0.005 A 
ATOM      2  C   UNL     1      29.006  24.504  49.309  1.00  0.00     0.060 A 
ATOM      3  C   UNL     1      27.073  23.506  48.254  1.00  0.00     0.060 A 
ATOM      4  C   UNL     1      28.538  24.103  50.563  1.00  0.00     0.162 A 
ATOM      5  C   UNL     1      26.588  23.097  49.503  1.00  0.00     0.162 A 
ATOM      6  C   UNL     1      27.326  23.396  50.673  1.00  0.00     0.200 A 
ENDROOT
BRANCH   1   7
ATOM      7  C   UNL     1      28.779  24.637  46.817  1.00  0.00     0.072 C 
ATOM      8  O   UNL     1      29.985  24.967  46.660  1.00  0.00    -0.545 OA
ATOM      9  O   UNL     1      27.922  24.678  45.722  1.00  0.00    -0.545 OA
ENDBRANCH   1   7
BRANCH   4  10
ATOM     10  O   UNL     1      29.294  24.417  51.692  1.00  0.00    -0.504 OA
ATOM     11  H   UNL     1      29.154  23.956  52.582  1.00  0.00     0.293 HD
ENDBRANCH   4  10
BRANCH   5  12
ATOM     12  O   UNL     1      25.378  22.400  49.531  1.00  0.00    -0.504 OA
ATOM     13  H   UNL     1      24.557  22.709  50.030  1.00  0.00     0.293 HD
ENDBRANCH   5  12
BRANCH   6  14
ATOM     14  O   UNL     1      26.893  23.014  51.945  1.00  0.00    -0.502 OA
ATOM     15  H   UNL     1      27.019  23.568  52.779  1.00  0.00     0.293 HD
ENDBRANCH   6  14
TORSDOF 4
ENDMDL
MODEL 6
REMARK VINA RESULT:    -5.297      2.417      5.121
REMARK INTER + INTRA:          -6.122
REMARK INTER:                  -6.075
REMARK INTRA:                  -0.047
REMARK UNBOUND:                -0.051
REMARK SMILES O=C([O-])c1cc(O)c(O)c(O)c1
REMARK SMILES IDX 4 1 5 2 12 3 6 4 10 5 8 6 2 7 1 8 3 9 7 10 11 12 9 14
REMARK H PARENT 7 11 11 13 9 15
REMARK Flexibility Score: inf
ROOT
ATOM      1  C   UNL     1      29.934  23.096  49.000  1.00  0.00     0.005 A 
ATOM      2  C   UNL     1      30.140  22.811  50.359  1.00  0.00     0.060 A 
ATOM      3  C   UNL     1      28.700  23.628  48.597  1.00  0.00     0.060 A 
ATOM      4  C   UNL     1      29.135  23.051  51.300  1.00  0.00     0.162 A 
ATOM      5  C   UNL     1      27.682  23.875  49.527  1.00  0.00     0.162 A 
ATOM      6  C   UNL     1      27.898  23.585  50.895  1.00  0.00     0.200 A 
ENDROOT
BRANCH   1   7
ATOM      7  C   UNL     1      31.000  22.841  48.006  1.00  0.00     0.072 C 
ATOM      8  O   UNL     1      31.358  23.743  47.203  1.00  0.00    -0.545 OA
ATOM      9  O   UNL     1      31.622  21.599  47.944  1.00  0.00    -0.545 OA
ENDBRANCH   1   7
BRANCH   4  10
ATOM     10  O   UNL     1      29.386  22.752  52.640  1.00  0.00    -0.504 OA
ATOM     11  H   UNL     1      28.646  22.521  53.290  1.00  0.00     0.293 HD
ENDBRANCH   4  10
BRANCH   5  12
ATOM     12  O   UNL     1      26.482  24.405  49.047  1.00  0.00    -0.504 OA
ATOM     13  H   UNL     1      26.145  24.283  48.103  1.00  0.00     0.293 HD
ENDBRANCH   5  12
BRANCH   6  14
ATOM     14  O   UNL     1      26.920  23.810  51.867  1.00  0.00    -0.502 OA
ATOM     15  H   UNL     1      27.085  23.757  52.862  1.00  0.00     0.293 HD
ENDBRANCH   6  14
TORSDOF 4
ENDMDL
MODEL 7
REMARK VINA RESULT:    -5.264      2.654      4.291
REMARK INTER + INTRA:          -6.085
REMARK INTER:                  -6.039
REMARK INTRA:                  -0.045
REMARK UNBOUND:                -0.051
REMARK SMILES O=C([O-])c1cc(O)c(O)c(O)c1
REMARK SMILES IDX 4 1 5 2 12 3 6 4 10 5 8 6 2 7 1 8 3 9 7 10 11 12 9 14
REMARK H PARENT 7 11 11 13 9 15
REMARK Flexibility Score: inf
ROOT
ATOM      1  C   UNL     1      28.607  22.610  51.267  1.00  0.00     0.005 A 
ATOM      2  C   UNL     1      29.149  23.768  50.690  1.00  0.00     0.060 A 
ATOM      3  C   UNL     1      27.349  22.161  50.837  1.00  0.00     0.060 A 
ATOM      4  C   UNL     1      28.452  24.468  49.701  1.00  0.00     0.162 A 
ATOM      5  C   UNL     1      26.637  22.849  49.846  1.00  0.00     0.162 A 
ATOM      6  C   UNL     1      27.192  24.017  49.269  1.00  0.00     0.200 A 
ENDROOT
BRANCH   1   7
ATOM      7  C   UNL     1      29.346  21.871  52.314  1.00  0.00     0.072 C 
ATOM      8  O   UNL     1      30.409  21.255  52.036  1.00  0.00    -0.545 OA
ATOM      9  O   UNL     1      28.878  21.847  53.624  1.00  0.00    -0.545 OA
ENDBRANCH   1   7
BRANCH   4  10
ATOM     10  O   UNL     1      29.032  25.614  49.156  1.00  0.00    -0.504 OA
ATOM     11  H   UNL     1      28.483  26.415  48.870  1.00  0.00     0.293 HD
ENDBRANCH   4  10
BRANCH   5  12
ATOM     12  O   UNL     1      25.392  22.340  49.471  1.00  0.00    -0.504 OA
ATOM     13  H   UNL     1      25.214  21.862  48.600  1.00  0.00     0.293 HD
ENDBRANCH   5  12
BRANCH   6  14
ATOM     14  O   UNL     1      26.528  24.745  48.278  1.00  0.00    -0.502 OA
ATOM     15  H   UNL     1      26.814  25.658  47.957  1.00  0.00     0.293 HD
ENDBRANCH   6  14
TORSDOF 4
ENDMDL
MODEL 8
REMARK VINA RESULT:    -5.263      2.649      3.692
REMARK INTER + INTRA:          -6.084
REMARK INTER:                  -6.037
REMARK INTRA:                  -0.047
REMARK UNBOUND:                -0.051
REMARK SMILES O=C([O-])c1cc(O)c(O)c(O)c1
REMARK SMILES IDX 4 1 5 2 12 3 6 4 10 5 8 6 2 7 1 8 3 9 7 10 11 12 9 14
REMARK H PARENT 7 11 11 13 9 15
REMARK Flexibility Score: inf
ROOT
ATOM      1  C   UNL     1      28.550  22.644  51.347  1.00  0.00     0.005 A 
ATOM      2  C   UNL     1      27.287  22.204  50.921  1.00  0.00     0.060 A 
ATOM      3  C   UNL     1      29.124  23.766  50.728  1.00  0.00     0.060 A 
ATOM      4  C   UNL     1      26.607  22.868  49.896  1.00  0.00     0.162 A 
ATOM      5  C   UNL     1      28.455  24.443  49.701  1.00  0.00     0.162 A 
ATOM      6  C   UNL     1      27.182  23.992  49.276  1.00  0.00     0.200 A 
ENDROOT
BRANCH   1   7
ATOM      7  C   UNL     1      29.268  21.940  52.432  1.00  0.00     0.072 C 
ATOM      8  O   UNL     1      28.704  21.714  53.535  1.00  0.00    -0.545 OA
ATOM      9  O   UNL     1      30.580  21.515  52.248  1.00  0.00    -0.545 OA
ENDBRANCH   1   7
BRANCH   4  10
ATOM     10  O   UNL     1      25.354  22.394  49.507  1.00  0.00    -0.504 OA
ATOM     11  H   UNL     1      24.745  22.917  48.891  1.00  0.00     0.293 HD
ENDBRANCH   4  10
BRANCH   5  12
ATOM     12  O   UNL     1      29.092  25.550  49.134  1.00  0.00    -0.504 OA
ATOM     13  H   UNL     1      29.989  25.514  48.673  1.00  0.00     0.293 HD
ENDBRANCH   5  12
BRANCH   6  14
ATOM     14  O   UNL     1      26.469  24.627  48.256  1.00  0.00    -0.502 OA
ATOM     15  H   UNL     1      26.792  24.710  47.304  1.00  0.00     0.293 HD
ENDBRANCH   6  14
TORSDOF 4
ENDMDL
MODEL 9
REMARK VINA RESULT:    -5.261      2.416      4.738
REMARK INTER + INTRA:          -6.082
REMARK INTER:                  -6.034
REMARK INTRA:                  -0.048
REMARK UNBOUND:                -0.051
REMARK SMILES O=C([O-])c1cc(O)c(O)c(O)c1
REMARK SMILES IDX 4 1 5 2 12 3 6 4 10 5 8 6 2 7 1 8 3 9 7 10 11 12 9 14
REMARK H PARENT 7 11 11 13 9 15
REMARK Flexibility Score: inf
ROOT
ATOM      1  C   UNL     1      29.953  23.050  48.984  1.00  0.00     0.005 A 
ATOM      2  C   UNL     1      28.743  23.633  48.578  1.00  0.00     0.060 A 
ATOM      3  C   UNL     1      30.122  22.705  50.334  1.00  0.00     0.060 A 
ATOM      4  C   UNL     1      27.719  23.870  49.498  1.00  0.00     0.162 A 
ATOM      5  C   UNL     1      29.105  22.935  51.270  1.00  0.00     0.162 A 
ATOM      6  C   UNL     1      27.888  23.525  50.851  1.00  0.00     0.200 A 
ENDROOT
BRANCH   1   7
ATOM      7  C   UNL     1      31.036  22.800  48.008  1.00  0.00     0.072 C 
ATOM      8  O   UNL     1      31.396  23.700  47.204  1.00  0.00    -0.545 OA
ATOM      9  O   UNL     1      31.674  21.564  47.964  1.00  0.00    -0.545 OA
ENDBRANCH   1   7
BRANCH   4  10
ATOM     10  O   UNL     1      26.534  24.453  49.047  1.00  0.00    -0.504 OA
ATOM     11  H   UNL     1      26.014  25.121  49.602  1.00  0.00     0.293 HD
ENDBRANCH   4  10
BRANCH   5  12
ATOM     12  O   UNL     1      29.349  22.565  52.595  1.00  0.00    -0.504 OA
ATOM     13  H   UNL     1      29.465  21.611  52.905  1.00  0.00     0.293 HD
ENDBRANCH   5  12
BRANCH   6  14
ATOM     14  O   UNL     1      26.840  23.778  51.739  1.00  0.00    -0.502 OA
ATOM     15  H   UNL     1      26.965  24.053  52.703  1.00  0.00     0.293 HD
ENDBRANCH   6  14
TORSDOF 4
ENDMDL
