MODEL 1
REMARK VINA RESULT:    -5.151      0.000      0.000
REMARK INTER + INTRA:          -6.658
REMARK INTER:                  -6.356
REMARK INTRA:                  -0.303
REMARK UNBOUND:                -0.303
REMARK SMILES CCOC(=O)c1ccc(O)c(O)c1
REMARK SMILES IDX 4 1 5 2 3 3 2 4 1 5 6 6 13 7 7 8 11 9 8 10 9 11 12 12 10 14
REMARK H PARENT 12 13 10 15
REMARK Flexibility Score: inf
ROOT
ATOM      1  C   UNL     1      -1.385   9.668   1.109  1.00  0.00     0.338 C 
ATOM      2  O   UNL     1      -1.507  10.125   2.279  1.00  0.00    -0.246 OA
ENDROOT
BRANCH   1   3
ATOM      3  O   UNL     1      -0.112   9.499   0.553  1.00  0.00    -0.462 OA
BRANCH   3   4
ATOM      4  C   UNL     1       0.872   8.646   1.128  1.00  0.00     0.230 C 
ATOM      5  C   UNL     1       0.568   7.202   0.766  1.00  0.00     0.049 C 
ENDBRANCH   3   4
ENDBRANCH   1   3
BRANCH   1   6
ATOM      6  C   UNL     1      -2.585   9.309   0.322  1.00  0.00     0.064 A 
ATOM      7  C   UNL     1      -2.453   8.762  -0.966  1.00  0.00     0.065 A 
ATOM      8  C   UNL     1      -3.873   9.510   0.847  1.00  0.00     0.020 A 
ATOM      9  C   UNL     1      -3.580   8.417  -1.722  1.00  0.00     0.158 A 
ATOM     10  C   UNL     1      -5.001   9.169   0.099  1.00  0.00     0.051 A 
ATOM     11  C   UNL     1      -4.872   8.623  -1.184  1.00  0.00     0.157 A 
BRANCH   9  12
ATOM     12  O   UNL     1      -3.372   7.877  -2.993  1.00  0.00    -0.504 OA
ATOM     13  H   UNL     1      -3.697   8.304  -3.848  1.00  0.00     0.293 HD
ENDBRANCH   9  12
BRANCH  11  14
ATOM     14  O   UNL     1      -6.041   8.305  -1.878  1.00  0.00    -0.504 OA
ATOM     15  H   UNL     1      -6.888   8.854  -1.838  1.00  0.00     0.293 HD
ENDBRANCH  11  14
ENDBRANCH   1   6
TORSDOF 5
ENDMDL
MODEL 2
REMARK VINA RESULT:    -4.964      1.722      5.155
REMARK INTER + INTRA:          -6.427
REMARK INTER:                  -6.233
REMARK INTRA:                  -0.194
REMARK UNBOUND:                -0.303
REMARK SMILES CCOC(=O)c1ccc(O)c(O)c1
REMARK SMILES IDX 4 1 5 2 3 3 2 4 1 5 6 6 13 7 7 8 11 9 8 10 9 11 12 12 10 14
REMARK H PARENT 12 13 10 15
REMARK Flexibility Score: inf
ROOT
ATOM      1  C   UNL     1      -3.768   8.011  -0.424  1.00  0.00     0.338 C 
ATOM      2  O   UNL     1      -4.468   7.138   0.161  1.00  0.00    -0.246 OA
ENDROOT
BRANCH   1   3
ATOM      3  O   UNL     1      -4.261   8.651  -1.566  1.00  0.00    -0.462 OA
BRANCH   3   4
ATOM      4  C   UNL     1      -5.646   8.691  -1.890  1.00  0.00     0.230 C 
ATOM      5  C   UNL     1      -6.214  10.054  -1.530  1.00  0.00     0.049 C 
ENDBRANCH   3   4
ENDBRANCH   1   3
BRANCH   1   6
ATOM      6  C   UNL     1      -2.428   8.359   0.096  1.00  0.00     0.064 A 
ATOM      7  C   UNL     1      -1.473   7.354   0.327  1.00  0.00     0.065 A 
ATOM      8  C   UNL     1      -2.089   9.695   0.367  1.00  0.00     0.020 A 
ATOM      9  C   UNL     1      -0.200   7.669   0.819  1.00  0.00     0.158 A 
ATOM     10  C   UNL     1      -0.822  10.016   0.857  1.00  0.00     0.051 A 
ATOM     11  C   UNL     1       0.131   9.018   1.088  1.00  0.00     0.157 A 
BRANCH   9  12
ATOM     12  O   UNL     1       0.698   6.619   1.023  1.00  0.00    -0.504 OA
ATOM     13  H   UNL     1       1.094   6.062   0.281  1.00  0.00     0.293 HD
ENDBRANCH   9  12
BRANCH  11  14
ATOM     14  O   UNL     1       1.378   9.407   1.579  1.00  0.00    -0.504 OA
ATOM     15  H   UNL     1       1.562   9.615   2.550  1.00  0.00     0.293 HD
ENDBRANCH  11  14
ENDBRANCH   1   6
TORSDOF 5
ENDMDL
MODEL 3
REMARK VINA RESULT:    -4.889      1.792      2.402
REMARK INTER + INTRA:          -6.335
REMARK INTER:                  -6.180
REMARK INTRA:                  -0.155
REMARK UNBOUND:                -0.303
REMARK SMILES CCOC(=O)c1ccc(O)c(O)c1
REMARK SMILES IDX 4 1 5 2 3 3 2 4 1 5 6 6 13 7 7 8 11 9 8 10 9 11 12 12 10 14
REMARK H PARENT 12 13 10 15
REMARK Flexibility Score: inf
ROOT
ATOM      1  C   UNL     1       0.538   8.535   0.997  1.00  0.00     0.338 C 
ATOM      2  O   UNL     1       1.307   9.483   1.316  1.00  0.00    -0.246 OA
ENDROOT
BRANCH   1   3
ATOM      3  O   UNL     1       1.060   7.255   0.777  1.00  0.00    -0.462 OA
BRANCH   3   4
ATOM      4  C   UNL     1       2.323   7.033   0.160  1.00  0.00     0.230 C 
ATOM      5  C   UNL     1       2.981   5.808   0.773  1.00  0.00     0.049 C 
ENDBRANCH   3   4
ENDBRANCH   1   3
BRANCH   1   6
ATOM      6  C   UNL     1      -0.915   8.772   0.855  1.00  0.00     0.064 A 
ATOM      7  C   UNL     1      -1.717   7.863   0.144  1.00  0.00     0.065 A 
ATOM      8  C   UNL     1      -1.516   9.907   1.425  1.00  0.00     0.020 A 
ATOM      9  C   UNL     1      -3.094   8.074   0.002  1.00  0.00     0.158 A 
ATOM     10  C   UNL     1      -2.887  10.125   1.287  1.00  0.00     0.051 A 
ATOM     11  C   UNL     1      -3.688   9.221   0.580  1.00  0.00     0.157 A 
BRANCH   9  12
ATOM     12  O   UNL     1      -3.828   7.128  -0.717  1.00  0.00    -0.504 OA
ATOM     13  H   UNL     1      -4.111   7.244  -1.679  1.00  0.00     0.293 HD
ENDBRANCH   9  12
BRANCH  11  14
ATOM     14  O   UNL     1      -5.053   9.498   0.479  1.00  0.00    -0.504 OA
ATOM     15  H   UNL     1      -5.523  10.218   1.010  1.00  0.00     0.293 HD
ENDBRANCH  11  14
ENDBRANCH   1   6
TORSDOF 5
ENDMDL
MODEL 4
REMARK VINA RESULT:    -4.858      1.846      5.118
REMARK INTER + INTRA:          -6.297
REMARK INTER:                  -6.124
REMARK INTRA:                  -0.174
REMARK UNBOUND:                -0.303
REMARK SMILES CCOC(=O)c1ccc(O)c(O)c1
REMARK SMILES IDX 4 1 5 2 3 3 2 4 1 5 6 6 13 7 7 8 11 9 8 10 9 11 12 12 10 14
REMARK H PARENT 12 13 10 15
REMARK Flexibility Score: inf
ROOT
ATOM      1  C   UNL     1      -4.466   9.262   0.215  1.00  0.00     0.338 C 
ATOM      2  O   UNL     1      -5.258   9.294   1.196  1.00  0.00    -0.246 OA
ENDROOT
BRANCH   1   3
ATOM      3  O   UNL     1      -4.869   9.769  -1.026  1.00  0.00    -0.462 OA
BRANCH   3   4
ATOM      4  C   UNL     1      -5.840   9.124  -1.843  1.00  0.00     0.230 C 
ATOM      5  C   UNL     1      -7.104   9.966  -1.893  1.00  0.00     0.049 C 
ENDBRANCH   3   4
ENDBRANCH   1   3
BRANCH   1   6
ATOM      6  C   UNL     1      -3.110   8.692   0.371  1.00  0.00     0.064 A 
ATOM      7  C   UNL     1      -2.087   9.446   0.971  1.00  0.00     0.065 A 
ATOM      8  C   UNL     1      -2.823   7.391  -0.077  1.00  0.00     0.020 A 
ATOM      9  C   UNL     1      -0.799   8.918   1.127  1.00  0.00     0.158 A 
ATOM     10  C   UNL     1      -1.542   6.859   0.075  1.00  0.00     0.051 A 
ATOM     11  C   UNL     1      -0.522   7.608   0.672  1.00  0.00     0.157 A 
BRANCH   9  12
ATOM     12  O   UNL     1       0.166   9.725   1.733  1.00  0.00    -0.504 OA
ATOM     13  H   UNL     1       1.042   9.381   2.097  1.00  0.00     0.293 HD
ENDBRANCH   9  12
BRANCH  11  14
ATOM     14  O   UNL     1       0.737   7.016   0.792  1.00  0.00    -0.504 OA
ATOM     15  H   UNL     1       1.145   6.730   1.671  1.00  0.00     0.293 HD
ENDBRANCH  11  14
ENDBRANCH   1   6
TORSDOF 5
ENDMDL
MODEL 5
REMARK VINA RESULT:    -4.734      2.050      2.926
REMARK INTER + INTRA:          -6.143
REMARK INTER:                  -6.010
REMARK INTRA:                  -0.134
REMARK UNBOUND:                -0.303
REMARK SMILES CCOC(=O)c1ccc(O)c(O)c1
REMARK SMILES IDX 4 1 5 2 3 3 2 4 1 5 6 6 13 7 7 8 11 9 8 10 9 11 12 12 10 14
REMARK H PARENT 12 13 10 15
REMARK Flexibility Score: inf
ROOT
ATOM      1  C   UNL     1       0.502   7.683   0.829  1.00  0.00     0.338 C 
ATOM      2  O   UNL     1       1.089   8.691   1.310  1.00  0.00    -0.246 OA
ENDROOT
BRANCH   1   3
ATOM      3  O   UNL     1       1.214   6.498   0.610  1.00  0.00    -0.462 OA
BRANCH   3   4
ATOM      4  C   UNL     1       2.621   6.400   0.795  1.00  0.00     0.230 C 
ATOM      5  C   UNL     1       3.334   6.923  -0.441  1.00  0.00     0.049 C 
ENDBRANCH   3   4
ENDBRANCH   1   3
BRANCH   1   6
ATOM      6  C   UNL     1      -0.938   7.749   0.496  1.00  0.00     0.064 A 
ATOM      7  C   UNL     1      -1.693   8.886   0.832  1.00  0.00     0.065 A 
ATOM      8  C   UNL     1      -1.573   6.680  -0.158  1.00  0.00     0.020 A 
ATOM      9  C   UNL     1      -3.056   8.963   0.523  1.00  0.00     0.158 A 
ATOM     10  C   UNL     1      -2.932   6.750  -0.469  1.00  0.00     0.051 A 
ATOM     11  C   UNL     1      -3.685   7.881  -0.136  1.00  0.00     0.157 A 
BRANCH   9  12
ATOM     12  O   UNL     1      -3.742  10.124   0.886  1.00  0.00    -0.504 OA
ATOM     13  H   UNL     1      -4.164  10.761   0.226  1.00  0.00     0.293 HD
ENDBRANCH   9  12
BRANCH  11  14
ATOM     14  O   UNL     1      -5.039   7.886  -0.476  1.00  0.00    -0.504 OA
ATOM     15  H   UNL     1      -5.525   7.093  -0.870  1.00  0.00     0.293 HD
ENDBRANCH  11  14
ENDBRANCH   1   6
TORSDOF 5
ENDMDL
MODEL 6
REMARK VINA RESULT:    -4.657      1.738      2.720
REMARK INTER + INTRA:          -6.048
REMARK INTER:                  -5.853
REMARK INTRA:                  -0.195
REMARK UNBOUND:                -0.303
REMARK SMILES CCOC(=O)c1ccc(O)c(O)c1
REMARK SMILES IDX 4 1 5 2 3 3 2 4 1 5 6 6 13 7 7 8 11 9 8 10 9 11 12 12 10 14
REMARK H PARENT 12 13 10 15
REMARK Flexibility Score: inf
ROOT
ATOM      1  C   UNL     1      -1.882   7.602   0.197  1.00  0.00     0.338 C 
ATOM      2  O   UNL     1      -1.534   6.494  -0.299  1.00  0.00    -0.246 OA
ENDROOT
BRANCH   1   3
ATOM      3  O   UNL     1      -1.077   8.220   1.160  1.00  0.00    -0.462 OA
BRANCH   3   4
ATOM      4  C   UNL     1      -0.380   9.436   0.916  1.00  0.00     0.230 C 
ATOM      5  C   UNL     1       1.109   9.223   1.136  1.00  0.00     0.049 C 
ENDBRANCH   3   4
ENDBRANCH   1   3
BRANCH   1   6
ATOM      6  C   UNL     1      -3.139   8.249  -0.239  1.00  0.00     0.064 A 
ATOM      7  C   UNL     1      -4.109   8.624   0.706  1.00  0.00     0.065 A 
ATOM      8  C   UNL     1      -3.383   8.498  -1.600  1.00  0.00     0.020 A 
ATOM      9  C   UNL     1      -5.303   9.237   0.309  1.00  0.00     0.158 A 
ATOM     10  C   UNL     1      -4.571   9.109  -2.003  1.00  0.00     0.051 A 
ATOM     11  C   UNL     1      -5.539   9.483  -1.064  1.00  0.00     0.157 A 
BRANCH   9  12
ATOM     12  O   UNL     1      -6.221   9.583   1.303  1.00  0.00    -0.504 OA
ATOM     13  H   UNL     1      -6.313  10.511   1.689  1.00  0.00     0.293 HD
ENDBRANCH   9  12
BRANCH  11  14
ATOM     14  O   UNL     1      -6.705  10.090  -1.535  1.00  0.00    -0.504 OA
ATOM     15  H   UNL     1      -6.717  10.936  -2.087  1.00  0.00     0.293 HD
ENDBRANCH  11  14
ENDBRANCH   1   6
TORSDOF 5
ENDMDL
MODEL 7
REMARK VINA RESULT:    -4.561     11.489     13.321
REMARK INTER + INTRA:          -5.930
REMARK INTER:                  -5.664
REMARK INTRA:                  -0.266
REMARK UNBOUND:                -0.303
REMARK SMILES CCOC(=O)c1ccc(O)c(O)c1
REMARK SMILES IDX 4 1 5 2 3 3 2 4 1 5 6 6 13 7 7 8 11 9 8 10 9 11 12 12 10 14
REMARK H PARENT 12 13 10 15
REMARK Flexibility Score: inf
ROOT
ATOM      1  C   UNL     1      -5.691   0.011  -9.011  1.00  0.00     0.338 C 
ATOM      2  O   UNL     1      -6.355   0.154 -10.075  1.00  0.00    -0.246 OA
ENDROOT
BRANCH   1   3
ATOM      3  O   UNL     1      -6.355  -0.141  -7.788  1.00  0.00    -0.462 OA
BRANCH   3   4
ATOM      4  C   UNL     1      -7.325   0.788  -7.318  1.00  0.00     0.230 C 
ATOM      5  C   UNL     1      -6.739   2.190  -7.337  1.00  0.00     0.049 C 
ENDBRANCH   3   4
ENDBRANCH   1   3
BRANCH   1   6
ATOM      6  C   UNL     1      -4.213   0.001  -9.052  1.00  0.00     0.064 A 
ATOM      7  C   UNL     1      -3.505  -1.201  -8.884  1.00  0.00     0.065 A 
ATOM      8  C   UNL     1      -3.494   1.191  -9.259  1.00  0.00     0.020 A 
ATOM      9  C   UNL     1      -2.106  -1.225  -8.921  1.00  0.00     0.158 A 
ATOM     10  C   UNL     1      -2.099   1.175  -9.297  1.00  0.00     0.051 A 
ATOM     11  C   UNL     1      -1.392  -0.021  -9.130  1.00  0.00     0.157 A 
BRANCH   9  12
ATOM     12  O   UNL     1      -1.470  -2.456  -8.747  1.00  0.00    -0.504 OA
ATOM     13  H   UNL     1      -1.924  -3.279  -8.380  1.00  0.00     0.293 HD
ENDBRANCH   9  12
BRANCH  11  14
ATOM     14  O   UNL     1       0.002   0.033  -9.178  1.00  0.00    -0.504 OA
ATOM     15  H   UNL     1       0.528   0.876  -9.359  1.00  0.00     0.293 HD
ENDBRANCH  11  14
ENDBRANCH   1   6
TORSDOF 5
ENDMDL
MODEL 8
REMARK VINA RESULT:    -4.555      8.651     10.596
REMARK INTER + INTRA:          -5.923
REMARK INTER:                  -6.079
REMARK INTRA:                   0.156
REMARK UNBOUND:                -0.303
REMARK SMILES CCOC(=O)c1ccc(O)c(O)c1
REMARK SMILES IDX 4 1 5 2 3 3 2 4 1 5 6 6 13 7 7 8 11 9 8 10 9 11 12 12 10 14
REMARK H PARENT 12 13 10 15
REMARK Flexibility Score: inf
ROOT
ATOM      1  C   UNL     1       1.200  -1.513  -1.031  1.00  0.00     0.338 C 
ATOM      2  O   UNL     1       2.013  -2.461  -0.851  1.00  0.00    -0.246 OA
ENDROOT
BRANCH   1   3
ATOM      3  O   UNL     1       0.761  -1.205  -2.324  1.00  0.00    -0.462 OA
BRANCH   3   4
ATOM      4  C   UNL     1       1.155  -0.023  -3.010  1.00  0.00     0.230 C 
ATOM      5  C   UNL     1       2.644   0.207  -2.814  1.00  0.00     0.049 C 
ENDBRANCH   3   4
ENDBRANCH   1   3
BRANCH   1   6
ATOM      6  C   UNL     1       0.708  -0.726   0.120  1.00  0.00     0.064 A 
ATOM      7  C   UNL     1       0.578  -1.323   1.386  1.00  0.00     0.065 A 
ATOM      8  C   UNL     1       0.362   0.628  -0.031  1.00  0.00     0.020 A 
ATOM      9  C   UNL     1       0.114  -0.590   2.485  1.00  0.00     0.158 A 
ATOM     10  C   UNL     1      -0.101   1.364   1.060  1.00  0.00     0.051 A 
ATOM     11  C   UNL     1      -0.231   0.772   2.321  1.00  0.00     0.157 A 
BRANCH   9  12
ATOM     12  O   UNL     1       0.011  -1.250   3.712  1.00  0.00    -0.504 OA
ATOM     13  H   UNL     1       0.667  -1.946   4.035  1.00  0.00     0.293 HD
ENDBRANCH   9  12
BRANCH  11  14
ATOM     14  O   UNL     1      -0.700   1.565   3.369  1.00  0.00    -0.504 OA
ATOM     15  H   UNL     1      -1.274   2.386   3.242  1.00  0.00     0.293 HD
ENDBRANCH  11  14
ENDBRANCH   1   6
TORSDOF 5
ENDMDL
MODEL 9
REMARK VINA RESULT:    -4.439     11.378     13.157
REMARK INTER + INTRA:          -5.779
REMARK INTER:                  -5.581
REMARK INTRA:                  -0.198
REMARK UNBOUND:                -0.303
REMARK SMILES CCOC(=O)c1ccc(O)c(O)c1
REMARK SMILES IDX 4 1 5 2 3 3 2 4 1 5 6 6 13 7 7 8 11 9 8 10 9 11 12 12 10 14
REMARK H PARENT 12 13 10 15
REMARK Flexibility Score: inf
ROOT
ATOM      1  C   UNL     1      -5.478   0.796  -8.983  1.00  0.00     0.338 C 
ATOM      2  O   UNL     1      -5.770   1.831  -9.643  1.00  0.00    -0.246 OA
ENDROOT
BRANCH   1   3
ATOM      3  O   UNL     1      -6.459   0.157  -8.216  1.00  0.00    -0.462 OA
BRANCH   3   4
ATOM      4  C   UNL     1      -7.637   0.817  -7.767  1.00  0.00     0.230 C 
ATOM      5  C   UNL     1      -7.358   1.515  -6.446  1.00  0.00     0.049 C 
ENDBRANCH   3   4
ENDBRANCH   1   3
BRANCH   1   6
ATOM      6  C   UNL     1      -4.102   0.255  -9.017  1.00  0.00     0.064 A 
ATOM      7  C   UNL     1      -3.003   1.119  -9.161  1.00  0.00     0.065 A 
ATOM      8  C   UNL     1      -3.871  -1.126  -8.908  1.00  0.00     0.020 A 
ATOM      9  C   UNL     1      -1.695   0.621  -9.195  1.00  0.00     0.158 A 
ATOM     10  C   UNL     1      -2.570  -1.630  -8.942  1.00  0.00     0.051 A 
ATOM     11  C   UNL     1      -1.474  -0.772  -9.084  1.00  0.00     0.157 A 
BRANCH   9  12
ATOM     12  O   UNL     1      -0.652   1.539  -9.340  1.00  0.00    -0.504 OA
ATOM     13  H   UNL     1      -0.587   2.206 -10.094  1.00  0.00     0.293 HD
ENDBRANCH   9  12
BRANCH  11  14
ATOM     14  O   UNL     1      -0.199  -1.340  -9.111  1.00  0.00    -0.504 OA
ATOM     15  H   UNL     1       0.001  -2.289  -8.828  1.00  0.00     0.293 HD
ENDBRANCH  11  14
ENDBRANCH   1   6
TORSDOF 5
ENDMDL
