MODEL 1
REMARK VINA RESULT:    -5.929      0.000      0.000
REMARK INTER + INTRA:          -5.929
REMARK INTER:                  -5.929
REMARK INTRA:                   0.000
REMARK UNBOUND:                 0.000
REMARK SMILES CC1(C)[C@@H]2CC[C@@]1(C)C(=O)C2
REMARK SMILES IDX 1 1 2 2 4 3 5 4 6 5 7 6 9 7 10 8 11 9 8 10 3 11
REMARK H PARENT
REMARK Flexibility Score: inf
ROOT
ATOM      1  C   UNL     1     -10.459 -16.575  29.007  1.00  0.00     0.012 C 
ATOM      2  C   UNL     1     -11.307 -17.005  30.243  1.00  0.00    -0.020 C 
ATOM      3  C   UNL     1     -11.246 -18.524  30.538  1.00  0.00     0.003 C 
ATOM      4  C   UNL     1     -12.016 -18.641  31.883  1.00  0.00     0.005 C 
ATOM      5  C   UNL     1     -11.620 -17.340  32.625  1.00  0.00     0.015 C 
ATOM      6  C   UNL     1     -10.685 -16.641  31.609  1.00  0.00     0.032 C 
ATOM      7  C   UNL     1      -9.439 -17.491  31.583  1.00  0.00     0.139 C 
ATOM      8  O   UNL     1      -8.378 -17.226  32.127  1.00  0.00    -0.299 OA
ATOM      9  C   UNL     1      -9.748 -18.770  30.869  1.00  0.00     0.080 C 
ATOM     10  C   UNL     1     -10.446 -15.150  31.875  1.00  0.00     0.020 C 
ATOM     11  C   UNL     1     -12.749 -16.468  29.998  1.00  0.00     0.012 C 
ENDROOT
TORSDOF 0
ENDMDL
MODEL 2
REMARK VINA RESULT:    -5.843      1.937      3.282
REMARK INTER + INTRA:          -5.843
REMARK INTER:                  -5.843
REMARK INTRA:                   0.000
REMARK UNBOUND:                 0.000
REMARK SMILES CC1(C)[C@@H]2CC[C@@]1(C)C(=O)C2
REMARK SMILES IDX 1 1 2 2 4 3 5 4 6 5 7 6 9 7 10 8 11 9 8 10 3 11
REMARK H PARENT
REMARK Flexibility Score: inf
ROOT
ATOM      1  C   UNL     1     -10.152 -18.575  29.890  1.00  0.00     0.012 C 
ATOM      2  C   UNL     1     -10.262 -17.588  31.092  1.00  0.00    -0.020 C 
ATOM      3  C   UNL     1     -10.594 -16.135  30.672  1.00  0.00     0.003 C 
ATOM      4  C   UNL     1     -10.811 -15.426  32.037  1.00  0.00     0.005 C 
ATOM      5  C   UNL     1     -11.486 -16.524  32.897  1.00  0.00     0.015 C 
ATOM      6  C   UNL     1     -11.559 -17.722  31.919  1.00  0.00     0.032 C 
ATOM      7  C   UNL     1     -12.588 -17.319  30.893  1.00  0.00     0.139 C 
ATOM      8  O   UNL     1     -13.739 -17.721  30.834  1.00  0.00    -0.299 OA
ATOM      9  C   UNL     1     -11.998 -16.259  30.016  1.00  0.00     0.080 C 
ATOM     10  C   UNL     1     -11.807 -19.081  32.585  1.00  0.00     0.020 C 
ATOM     11  C   UNL     1      -8.936 -17.722  31.897  1.00  0.00     0.012 C 
ENDROOT
TORSDOF 0
ENDMDL
MODEL 3
REMARK VINA RESULT:    -5.830      1.788      3.151
REMARK INTER + INTRA:          -5.830
REMARK INTER:                  -5.830
REMARK INTRA:                   0.000
REMARK UNBOUND:                 0.000
REMARK SMILES CC1(C)[C@@H]2CC[C@@]1(C)C(=O)C2
REMARK SMILES IDX 1 1 2 2 4 3 5 4 6 5 7 6 9 7 10 8 11 9 8 10 3 11
REMARK H PARENT
REMARK Flexibility Score: inf
ROOT
ATOM      1  C   UNL     1     -10.495 -15.108  31.846  1.00  0.00     0.012 C 
ATOM      2  C   UNL     1     -10.208 -16.620  31.594  1.00  0.00    -0.020 C 
ATOM      3  C   UNL     1     -11.128 -17.567  32.403  1.00  0.00     0.003 C 
ATOM      4  C   UNL     1     -10.752 -18.967  31.843  1.00  0.00     0.005 C 
ATOM      5  C   UNL     1     -10.479 -18.682  30.345  1.00  0.00     0.015 C 
ATOM      6  C   UNL     1     -10.723 -17.157  30.241  1.00  0.00     0.032 C 
ATOM      7  C   UNL     1     -12.211 -16.991  30.423  1.00  0.00     0.139 C 
ATOM      8  O   UNL     1     -13.023 -16.772  29.537  1.00  0.00    -0.299 OA
ATOM      9  C   UNL     1     -12.548 -17.246  31.859  1.00  0.00     0.080 C 
ATOM     10  C   UNL     1     -10.148 -16.499  28.981  1.00  0.00     0.020 C 
ATOM     11  C   UNL     1      -8.689 -16.833  31.866  1.00  0.00     0.012 C 
ENDROOT
TORSDOF 0
ENDMDL
MODEL 4
REMARK VINA RESULT:    -5.724      1.847      3.170
REMARK INTER + INTRA:          -5.724
REMARK INTER:                  -5.724
REMARK INTRA:                   0.000
REMARK UNBOUND:                 0.000
REMARK SMILES CC1(C)[C@@H]2CC[C@@]1(C)C(=O)C2
REMARK SMILES IDX 1 1 2 2 4 3 5 4 6 5 7 6 9 7 10 8 11 9 8 10 3 11
REMARK H PARENT
REMARK Flexibility Score: inf
ROOT
ATOM      1  C   UNL     1     -11.707 -19.174  32.569  1.00  0.00     0.012 C 
ATOM      2  C   UNL     1     -11.246 -17.800  31.990  1.00  0.00    -0.020 C 
ATOM      3  C   UNL     1      -9.794 -17.810  31.453  1.00  0.00     0.003 C 
ATOM      4  C   UNL     1      -9.664 -16.407  30.798  1.00  0.00     0.005 C 
ATOM      5  C   UNL     1     -11.074 -16.167  30.205  1.00  0.00     0.015 C 
ATOM      6  C   UNL     1     -11.834 -17.455  30.605  1.00  0.00     0.032 C 
ATOM      7  C   UNL     1     -11.217 -18.543  29.762  1.00  0.00     0.139 C 
ATOM      8  O   UNL     1     -11.712 -19.045  28.765  1.00  0.00    -0.299 OA
ATOM      9  C   UNL     1      -9.846 -18.835  30.286  1.00  0.00     0.080 C 
ATOM     10  C   UNL     1     -13.361 -17.354  30.516  1.00  0.00     0.020 C 
ATOM     11  C   UNL     1     -11.497 -16.744  33.108  1.00  0.00     0.012 C 
ENDROOT
TORSDOF 0
ENDMDL
MODEL 5
REMARK VINA RESULT:    -5.720      1.673      3.147
REMARK INTER + INTRA:          -5.720
REMARK INTER:                  -5.720
REMARK INTRA:                   0.000
REMARK UNBOUND:                 0.000
REMARK SMILES CC1(C)[C@@H]2CC[C@@]1(C)C(=O)C2
REMARK SMILES IDX 1 1 2 2 4 3 5 4 6 5 7 6 9 7 10 8 11 9 8 10 3 11
REMARK H PARENT
REMARK Flexibility Score: inf
ROOT
ATOM      1  C   UNL     1      -9.530 -17.377  32.204  1.00  0.00     0.012 C 
ATOM      2  C   UNL     1     -10.956 -17.825  31.759  1.00  0.00    -0.020 C 
ATOM      3  C   UNL     1     -12.000 -16.682  31.781  1.00  0.00     0.003 C 
ATOM      4  C   UNL     1     -13.251 -17.350  31.145  1.00  0.00     0.005 C 
ATOM      5  C   UNL     1     -12.639 -18.286  30.073  1.00  0.00     0.015 C 
ATOM      6  C   UNL     1     -11.119 -18.044  30.239  1.00  0.00     0.032 C 
ATOM      7  C   UNL     1     -10.895 -16.641  29.731  1.00  0.00     0.139 C 
ATOM      8  O   UNL     1     -10.415 -16.337  28.650  1.00  0.00    -0.299 OA
ATOM      9  C   UNL     1     -11.458 -15.676  30.728  1.00  0.00     0.080 C 
ATOM     10  C   UNL     1     -10.224 -19.113  29.602  1.00  0.00     0.020 C 
ATOM     11  C   UNL     1     -11.336 -19.042  32.656  1.00  0.00     0.012 C 
ENDROOT
TORSDOF 0
ENDMDL
MODEL 6
REMARK VINA RESULT:    -5.673      1.358      2.825
REMARK INTER + INTRA:          -5.673
REMARK INTER:                  -5.673
REMARK INTRA:                   0.000
REMARK UNBOUND:                 0.000
REMARK SMILES CC1(C)[C@@H]2CC[C@@]1(C)C(=O)C2
REMARK SMILES IDX 1 1 2 2 4 3 5 4 6 5 7 6 9 7 10 8 11 9 8 10 3 11
REMARK H PARENT
REMARK Flexibility Score: inf
ROOT
ATOM      1  C   UNL     1     -13.246 -17.453  30.281  1.00  0.00     0.012 C 
ATOM      2  C   UNL     1     -11.814 -16.837  30.338  1.00  0.00    -0.020 C 
ATOM      3  C   UNL     1     -11.534 -16.037  31.633  1.00  0.00     0.003 C 
ATOM      4  C   UNL     1     -10.024 -15.696  31.503  1.00  0.00     0.005 C 
ATOM      5  C   UNL     1      -9.439 -16.956  30.818  1.00  0.00     0.015 C 
ATOM      6  C   UNL     1     -10.687 -17.851  30.633  1.00  0.00     0.032 C 
ATOM      7  C   UNL     1     -11.061 -18.283  32.030  1.00  0.00     0.139 C 
ATOM      8  O   UNL     1     -10.847 -19.379  32.523  1.00  0.00    -0.299 OA
ATOM      9  C   UNL     1     -11.645 -17.109  32.753  1.00  0.00     0.080 C 
ATOM     10  C   UNL     1     -10.515 -18.995  29.627  1.00  0.00     0.020 C 
ATOM     11  C   UNL     1     -11.640 -16.004  29.033  1.00  0.00     0.012 C 
ENDROOT
TORSDOF 0
ENDMDL
MODEL 7
REMARK VINA RESULT:    -5.622      1.225      1.976
REMARK INTER + INTRA:          -5.622
REMARK INTER:                  -5.622
REMARK INTRA:                   0.000
REMARK UNBOUND:                 0.000
REMARK SMILES CC1(C)[C@@H]2CC[C@@]1(C)C(=O)C2
REMARK SMILES IDX 1 1 2 2 4 3 5 4 6 5 7 6 9 7 10 8 11 9 8 10 3 11
REMARK H PARENT
REMARK Flexibility Score: inf
ROOT
ATOM      1  C   UNL     1     -12.637 -16.001  29.790  1.00  0.00     0.012 C 
ATOM      2  C   UNL     1     -11.940 -17.336  30.194  1.00  0.00    -0.020 C 
ATOM      3  C   UNL     1     -10.790 -17.747  29.243  1.00  0.00     0.003 C 
ATOM      4  C   UNL     1     -10.179 -18.982  29.961  1.00  0.00     0.005 C 
ATOM      5  C   UNL     1     -10.314 -18.616  31.460  1.00  0.00     0.015 C 
ATOM      6  C   UNL     1     -10.993 -17.226  31.409  1.00  0.00     0.032 C 
ATOM      7  C   UNL     1      -9.937 -16.301  30.857  1.00  0.00     0.139 C 
ATOM      8  O   UNL     1      -9.274 -15.504  31.501  1.00  0.00    -0.299 OA
ATOM      9  C   UNL     1      -9.759 -16.596  29.400  1.00  0.00     0.080 C 
ATOM     10  C   UNL     1     -11.626 -16.771  32.730  1.00  0.00     0.020 C 
ATOM     11  C   UNL     1     -13.068 -18.404  30.317  1.00  0.00     0.012 C 
ENDROOT
TORSDOF 0
ENDMDL
MODEL 8
REMARK VINA RESULT:    -5.570      1.095      2.639
REMARK INTER + INTRA:          -5.570
REMARK INTER:                  -5.570
REMARK INTRA:                   0.000
REMARK UNBOUND:                 0.000
REMARK SMILES CC1(C)[C@@H]2CC[C@@]1(C)C(=O)C2
REMARK SMILES IDX 1 1 2 2 4 3 5 4 6 5 7 6 9 7 10 8 11 9 8 10 3 11
REMARK H PARENT
REMARK Flexibility Score: inf
ROOT
ATOM      1  C   UNL     1     -11.705 -16.363  32.974  1.00  0.00     0.012 C 
ATOM      2  C   UNL     1     -11.567 -17.014  31.563  1.00  0.00    -0.020 C 
ATOM      3  C   UNL     1     -10.822 -16.122  30.540  1.00  0.00     0.003 C 
ATOM      4  C   UNL     1     -10.679 -17.061  29.310  1.00  0.00     0.005 C 
ATOM      5  C   UNL     1     -10.453 -18.450  29.956  1.00  0.00     0.015 C 
ATOM      6  C   UNL     1     -10.507 -18.132  31.470  1.00  0.00     0.032 C 
ATOM      7  C   UNL     1      -9.248 -17.347  31.743  1.00  0.00     0.139 C 
ATOM      8  O   UNL     1      -8.238 -17.773  32.281  1.00  0.00    -0.299 OA
ATOM      9  C   UNL     1      -9.400 -15.981  31.150  1.00  0.00     0.080 C 
ATOM     10  C   UNL     1     -10.718 -19.351  32.376  1.00  0.00     0.020 C 
ATOM     11  C   UNL     1     -13.005 -17.414  31.119  1.00  0.00     0.012 C 
ENDROOT
TORSDOF 0
ENDMDL
MODEL 9
REMARK VINA RESULT:    -5.565      1.224      2.627
REMARK INTER + INTRA:          -5.565
REMARK INTER:                  -5.565
REMARK INTRA:                   0.000
REMARK UNBOUND:                 0.000
REMARK SMILES CC1(C)[C@@H]2CC[C@@]1(C)C(=O)C2
REMARK SMILES IDX 1 1 2 2 4 3 5 4 6 5 7 6 9 7 10 8 11 9 8 10 3 11
REMARK H PARENT
REMARK Flexibility Score: inf
ROOT
ATOM      1  C   UNL     1     -10.068 -18.903  30.871  1.00  0.00     0.012 C 
ATOM      2  C   UNL     1     -11.277 -18.212  30.169  1.00  0.00    -0.020 C 
ATOM      3  C   UNL     1     -12.500 -18.010  31.097  1.00  0.00     0.003 C 
ATOM      4  C   UNL     1     -13.462 -17.168  30.214  1.00  0.00     0.005 C 
ATOM      5  C   UNL     1     -12.497 -16.253  29.420  1.00  0.00     0.015 C 
ATOM      6  C   UNL     1     -11.108 -16.694  29.940  1.00  0.00     0.032 C 
ATOM      7  C   UNL     1     -11.056 -16.202  31.365  1.00  0.00     0.139 C 
ATOM      8  O   UNL     1     -10.446 -15.222  31.765  1.00  0.00    -0.299 OA
ATOM      9  C   UNL     1     -11.965 -17.051  32.198  1.00  0.00     0.080 C 
ATOM     10  C   UNL     1      -9.926 -16.262  29.064  1.00  0.00     0.020 C 
ATOM     11  C   UNL     1     -11.587 -19.052  28.894  1.00  0.00     0.012 C 
ENDROOT
TORSDOF 0
ENDMDL
