MODEL 1
REMARK VINA RESULT:    -5.207      0.000      0.000
REMARK INTER + INTRA:          -5.927
REMARK INTER:                  -5.816
REMARK INTRA:                  -0.110
REMARK UNBOUND:                -0.110
REMARK SMILES COc1cc2ccc(=O)oc2cc1OC
REMARK SMILES IDX 3 1 13 2 12 3 11 4 5 5 4 6 6 7 7 8 8 9 9 10 10 11 2 12 1 13
REMARK SMILES IDX 14 14 15 15
REMARK H PARENT
REMARK Flexibility Score: inf
ROOT
ATOM      1  C   UNL     1     108.721  41.819 137.202  1.00  0.00     0.161 A 
ATOM      2  C   UNL     1     109.293  41.800 138.486  1.00  0.00     0.164 A 
ATOM      3  C   UNL     1     109.540  43.012 139.160  1.00  0.00     0.098 A 
ATOM      4  C   UNL     1     109.219  44.233 138.561  1.00  0.00     0.142 A 
ATOM      5  C   UNL     1     108.645  44.252 137.274  1.00  0.00     0.022 A 
ATOM      6  C   UNL     1     108.398  43.051 136.599  1.00  0.00     0.062 A 
ATOM      7  C   UNL     1     108.334  45.491 136.701  1.00  0.00     0.019 A 
ATOM      8  C   UNL     1     108.600  46.661 137.413  1.00  0.00     0.094 A 
ATOM      9  C   UNL     1     109.171  46.563 138.686  1.00  0.00     0.336 A 
ATOM     10  O   UNL     1     109.418  47.607 139.346  1.00  0.00    -0.246 OA
ATOM     11  O   UNL     1     109.455  45.373 139.207  1.00  0.00    -0.423 OA
ENDROOT
BRANCH   1  12
ATOM     12  O   UNL     1     108.489  40.593 136.560  1.00  0.00    -0.493 OA
ATOM     13  C   UNL     1     108.742  40.342 135.181  1.00  0.00     0.278 C 
ENDBRANCH   1  12
BRANCH   2  14
ATOM     14  O   UNL     1     109.603  40.556 139.058  1.00  0.00    -0.493 OA
ATOM     15  C   UNL     1     109.566  40.276 140.453  1.00  0.00     0.278 C 
ENDBRANCH   2  14
TORSDOF 2
ENDMDL
MODEL 2
REMARK VINA RESULT:    -5.041      1.608      2.925
REMARK INTER + INTRA:          -5.740
REMARK INTER:                  -5.586
REMARK INTRA:                  -0.155
REMARK UNBOUND:                -0.110
REMARK SMILES COc1cc2ccc(=O)oc2cc1OC
REMARK SMILES IDX 3 1 13 2 12 3 11 4 5 5 4 6 6 7 7 8 8 9 9 10 10 11 2 12 1 13
REMARK SMILES IDX 14 14 15 15
REMARK H PARENT
REMARK Flexibility Score: inf
ROOT
ATOM      1  C   UNL     1     108.790  40.704 138.068  1.00  0.00     0.161 A 
ATOM      2  C   UNL     1     108.065  41.072 136.921  1.00  0.00     0.164 A 
ATOM      3  C   UNL     1     107.971  42.431 136.560  1.00  0.00     0.098 A 
ATOM      4  C   UNL     1     108.594  43.414 137.334  1.00  0.00     0.142 A 
ATOM      5  C   UNL     1     109.321  43.044 138.483  1.00  0.00     0.022 A 
ATOM      6  C   UNL     1     109.418  41.696 138.847  1.00  0.00     0.062 A 
ATOM      7  C   UNL     1     109.934  44.051 139.237  1.00  0.00     0.019 A 
ATOM      8  C   UNL     1     109.809  45.380 138.833  1.00  0.00     0.094 A 
ATOM      9  C   UNL     1     109.072  45.671 137.681  1.00  0.00     0.336 A 
ATOM     10  O   UNL     1     108.947  46.865 137.299  1.00  0.00    -0.246 OA
ATOM     11  O   UNL     1     108.500  44.694 136.983  1.00  0.00    -0.423 OA
ENDROOT
BRANCH   1  12
ATOM     12  O   UNL     1     108.863  39.341 138.398  1.00  0.00    -0.493 OA
ATOM     13  C   UNL     1     107.998  38.686 139.320  1.00  0.00     0.278 C 
ENDBRANCH   1  12
BRANCH   2  14
ATOM     14  O   UNL     1     107.452  40.059 136.168  1.00  0.00    -0.493 OA
ATOM     15  C   UNL     1     106.067  39.733 136.228  1.00  0.00     0.278 C 
ENDBRANCH   2  14
TORSDOF 2
ENDMDL
MODEL 3
REMARK VINA RESULT:    -4.949      1.321      2.849
REMARK INTER + INTRA:          -5.638
REMARK INTER:                  -5.513
REMARK INTRA:                  -0.125
REMARK UNBOUND:                -0.110
REMARK SMILES COc1cc2ccc(=O)oc2cc1OC
REMARK SMILES IDX 3 1 13 2 12 3 11 4 5 5 4 6 6 7 7 8 8 9 9 10 10 11 2 12 1 13
REMARK SMILES IDX 14 14 15 15
REMARK H PARENT
REMARK Flexibility Score: inf
ROOT
ATOM      1  C   UNL     1     109.167  41.410 137.610  1.00  0.00     0.161 A 
ATOM      2  C   UNL     1     108.525  41.888 136.454  1.00  0.00     0.164 A 
ATOM      3  C   UNL     1     108.219  43.258 136.341  1.00  0.00     0.098 A 
ATOM      4  C   UNL     1     108.550  44.145 137.369  1.00  0.00     0.142 A 
ATOM      5  C   UNL     1     109.195  43.666 138.527  1.00  0.00     0.022 A 
ATOM      6  C   UNL     1     109.501  42.305 138.646  1.00  0.00     0.062 A 
ATOM      7  C   UNL     1     109.514  44.578 139.539  1.00  0.00     0.019 A 
ATOM      8  C   UNL     1     109.188  45.925 139.374  1.00  0.00     0.094 A 
ATOM      9  C   UNL     1     108.549  46.327 138.197  1.00  0.00     0.336 A 
ATOM     10  O   UNL     1     108.246  47.538 138.028  1.00  0.00    -0.246 OA
ATOM     11  O   UNL     1     108.258  45.438 137.251  1.00  0.00    -0.423 OA
ENDROOT
BRANCH   1  12
ATOM     12  O   UNL     1     109.457  40.039 137.689  1.00  0.00    -0.493 OA
ATOM     13  C   UNL     1     108.683  39.090 138.417  1.00  0.00     0.278 C 
ENDBRANCH   1  12
BRANCH   2  14
ATOM     14  O   UNL     1     108.207  40.969 135.442  1.00  0.00    -0.493 OA
ATOM     15  C   UNL     1     108.477  41.167 134.059  1.00  0.00     0.278 C 
ENDBRANCH   2  14
TORSDOF 2
ENDMDL
MODEL 4
REMARK VINA RESULT:    -4.884     10.245     11.873
REMARK INTER + INTRA:          -5.566
REMARK INTER:                  -5.448
REMARK INTRA:                  -0.118
REMARK UNBOUND:                -0.110
REMARK SMILES COc1cc2ccc(=O)oc2cc1OC
REMARK SMILES IDX 3 1 13 2 12 3 11 4 5 5 4 6 6 7 7 8 8 9 9 10 10 11 2 12 1 13
REMARK SMILES IDX 14 14 15 15
REMARK H PARENT
REMARK Flexibility Score: inf
ROOT
ATOM      1  C   UNL     1     101.797  47.990 132.860  1.00  0.00     0.161 A 
ATOM      2  C   UNL     1     101.189  47.725 131.621  1.00  0.00     0.164 A 
ATOM      3  C   UNL     1     100.772  48.793 130.803  1.00  0.00     0.098 A 
ATOM      4  C   UNL     1     100.960  50.115 131.215  1.00  0.00     0.142 A 
ATOM      5  C   UNL     1     101.572  50.381 132.457  1.00  0.00     0.022 A 
ATOM      6  C   UNL     1     101.987  49.324 133.274  1.00  0.00     0.062 A 
ATOM      7  C   UNL     1     101.747  51.715 132.842  1.00  0.00     0.019 A 
ATOM      8  C   UNL     1     101.315  52.735 131.993  1.00  0.00     0.094 A 
ATOM      9  C   UNL     1     100.718  52.394 130.775  1.00  0.00     0.336 A 
ATOM     10  O   UNL     1     100.322  53.299 129.994  1.00  0.00    -0.246 OA
ATOM     11  O   UNL     1     100.564  51.118 130.435  1.00  0.00    -0.423 OA
ENDROOT
BRANCH   1  12
ATOM     12  O   UNL     1     102.200  46.901 133.649  1.00  0.00    -0.493 OA
ATOM     13  C   UNL     1     103.205  46.962 134.657  1.00  0.00     0.278 C 
ENDBRANCH   1  12
BRANCH   2  14
ATOM     14  O   UNL     1     101.015  46.385 131.239  1.00  0.00    -0.493 OA
ATOM     15  C   UNL     1      99.752  45.758 131.044  1.00  0.00     0.278 C 
ENDBRANCH   2  14
TORSDOF 2
ENDMDL
MODEL 5
REMARK VINA RESULT:    -4.877      1.820      4.963
REMARK INTER + INTRA:          -5.557
REMARK INTER:                  -5.391
REMARK INTRA:                  -0.166
REMARK UNBOUND:                -0.110
REMARK SMILES COc1cc2ccc(=O)oc2cc1OC
REMARK SMILES IDX 3 1 13 2 12 3 11 4 5 5 4 6 6 7 7 8 8 9 9 10 10 11 2 12 1 13
REMARK SMILES IDX 14 14 15 15
REMARK H PARENT
REMARK Flexibility Score: inf
ROOT
ATOM      1  C   UNL     1     107.789  45.563 137.619  1.00  0.00     0.161 A 
ATOM      2  C   UNL     1     108.537  44.755 138.492  1.00  0.00     0.164 A 
ATOM      3  C   UNL     1     108.953  43.474 138.077  1.00  0.00     0.098 A 
ATOM      4  C   UNL     1     108.627  43.003 136.803  1.00  0.00     0.142 A 
ATOM      5  C   UNL     1     107.878  43.813 135.927  1.00  0.00     0.022 A 
ATOM      6  C   UNL     1     107.460  45.086 136.334  1.00  0.00     0.062 A 
ATOM      7  C   UNL     1     107.567  43.313 134.657  1.00  0.00     0.019 A 
ATOM      8  C   UNL     1     108.004  42.038 134.298  1.00  0.00     0.094 A 
ATOM      9  C   UNL     1     108.745  41.292 135.220  1.00  0.00     0.336 A 
ATOM     10  O   UNL     1     109.150  40.139 134.915  1.00  0.00    -0.246 OA
ATOM     11  O   UNL     1     109.026  41.792 136.420  1.00  0.00    -0.423 OA
ENDROOT
BRANCH   1  12
ATOM     12  O   UNL     1     107.391  46.832 138.065  1.00  0.00    -0.493 OA
ATOM     13  C   UNL     1     106.081  47.155 138.522  1.00  0.00     0.278 C 
ENDBRANCH   1  12
BRANCH   2  14
ATOM     14  O   UNL     1     108.846  45.260 139.765  1.00  0.00    -0.493 OA
ATOM     15  C   UNL     1     108.194  44.870 140.969  1.00  0.00     0.278 C 
ENDBRANCH   2  14
TORSDOF 2
ENDMDL
MODEL 6
REMARK VINA RESULT:    -4.871     12.682     12.871
REMARK INTER + INTRA:          -5.550
REMARK INTER:                  -5.447
REMARK INTRA:                  -0.104
REMARK UNBOUND:                -0.110
REMARK SMILES COc1cc2ccc(=O)oc2cc1OC
REMARK SMILES IDX 3 1 13 2 12 3 11 4 5 5 4 6 6 7 7 8 8 9 9 10 10 11 2 12 1 13
REMARK SMILES IDX 14 14 15 15
REMARK H PARENT
REMARK Flexibility Score: inf
ROOT
ATOM      1  C   UNL     1      99.395  49.344 131.745  1.00  0.00     0.161 A 
ATOM      2  C   UNL     1      99.445  49.925 133.024  1.00  0.00     0.164 A 
ATOM      3  C   UNL     1     100.317  51.005 133.267  1.00  0.00     0.098 A 
ATOM      4  C   UNL     1     101.131  51.502 132.245  1.00  0.00     0.142 A 
ATOM      5  C   UNL     1     101.080  50.920 130.963  1.00  0.00     0.022 A 
ATOM      6  C   UNL     1     100.217  49.846 130.715  1.00  0.00     0.062 A 
ATOM      7  C   UNL     1     101.907  51.439 129.961  1.00  0.00     0.019 A 
ATOM      8  C   UNL     1     102.751  52.510 130.257  1.00  0.00     0.094 A 
ATOM      9  C   UNL     1     102.746  53.037 131.552  1.00  0.00     0.336 A 
ATOM     10  O   UNL     1     103.500  54.004 131.840  1.00  0.00    -0.246 OA
ATOM     11  O   UNL     1     101.950  52.523 132.486  1.00  0.00    -0.423 OA
ENDROOT
BRANCH   1  12
ATOM     12  O   UNL     1      98.516  48.270 131.538  1.00  0.00    -0.493 OA
ATOM     13  C   UNL     1      98.708  47.243 130.569  1.00  0.00     0.278 C 
ENDBRANCH   1  12
BRANCH   2  14
ATOM     14  O   UNL     1      98.614  49.401 134.026  1.00  0.00    -0.493 OA
ATOM     15  C   UNL     1      98.313  50.059 135.251  1.00  0.00     0.278 C 
ENDBRANCH   2  14
TORSDOF 2
ENDMDL
MODEL 7
REMARK VINA RESULT:    -4.767     10.783     13.173
REMARK INTER + INTRA:          -5.435
REMARK INTER:                  -5.316
REMARK INTRA:                  -0.119
REMARK UNBOUND:                -0.110
REMARK SMILES COc1cc2ccc(=O)oc2cc1OC
REMARK SMILES IDX 3 1 13 2 12 3 11 4 5 5 4 6 6 7 7 8 8 9 9 10 10 11 2 12 1 13
REMARK SMILES IDX 14 14 15 15
REMARK H PARENT
REMARK Flexibility Score: inf
ROOT
ATOM      1  C   UNL     1     101.381  50.245 133.050  1.00  0.00     0.161 A 
ATOM      2  C   UNL     1     100.809  50.881 131.934  1.00  0.00     0.164 A 
ATOM      3  C   UNL     1     100.077  50.125 130.997  1.00  0.00     0.098 A 
ATOM      4  C   UNL     1      99.914  48.748 131.171  1.00  0.00     0.142 A 
ATOM      5  C   UNL     1     100.487  48.111 132.291  1.00  0.00     0.022 A 
ATOM      6  C   UNL     1     101.217  48.856 133.224  1.00  0.00     0.062 A 
ATOM      7  C   UNL     1     100.306  46.731 132.437  1.00  0.00     0.019 A 
ATOM      8  C   UNL     1      99.572  46.031 131.480  1.00  0.00     0.094 A 
ATOM      9  C   UNL     1      99.033  46.731 130.396  1.00  0.00     0.336 A 
ATOM     10  O   UNL     1      98.366  46.118 129.521  1.00  0.00    -0.246 OA
ATOM     11  O   UNL     1      99.220  48.043 130.282  1.00  0.00    -0.423 OA
ENDROOT
BRANCH   1  12
ATOM     12  O   UNL     1     102.104  51.029 133.962  1.00  0.00    -0.493 OA
ATOM     13  C   UNL     1     102.204  50.760 135.357  1.00  0.00     0.278 C 
ENDBRANCH   1  12
BRANCH   2  14
ATOM     14  O   UNL     1     100.993  52.265 131.791  1.00  0.00    -0.493 OA
ATOM     15  C   UNL     1      99.941  53.224 131.800  1.00  0.00     0.278 C 
ENDBRANCH   2  14
TORSDOF 2
ENDMDL
MODEL 8
REMARK VINA RESULT:    -4.763      2.007      5.811
REMARK INTER + INTRA:          -5.430
REMARK INTER:                  -5.302
REMARK INTRA:                  -0.128
REMARK UNBOUND:                -0.110
REMARK SMILES COc1cc2ccc(=O)oc2cc1OC
REMARK SMILES IDX 3 1 13 2 12 3 11 4 5 5 4 6 6 7 7 8 8 9 9 10 10 11 2 12 1 13
REMARK SMILES IDX 14 14 15 15
REMARK H PARENT
REMARK Flexibility Score: inf
ROOT
ATOM      1  C   UNL     1     107.722  44.787 137.622  1.00  0.00     0.161 A 
ATOM      2  C   UNL     1     106.940  44.783 136.454  1.00  0.00     0.164 A 
ATOM      3  C   UNL     1     107.013  43.691 135.566  1.00  0.00     0.098 A 
ATOM      4  C   UNL     1     107.858  42.612 135.841  1.00  0.00     0.142 A 
ATOM      5  C   UNL     1     108.641  42.615 137.013  1.00  0.00     0.022 A 
ATOM      6  C   UNL     1     108.573  43.698 137.898  1.00  0.00     0.062 A 
ATOM      7  C   UNL     1     109.477  41.520 137.259  1.00  0.00     0.019 A 
ATOM      8  C   UNL     1     109.511  40.466 136.347  1.00  0.00     0.094 A 
ATOM      9  C   UNL     1     108.705  40.532 135.206  1.00  0.00     0.336 A 
ATOM     10  O   UNL     1     108.720  39.590 134.370  1.00  0.00    -0.246 OA
ATOM     11  O   UNL     1     107.919  41.585 134.997  1.00  0.00    -0.423 OA
ENDROOT
BRANCH   1  12
ATOM     12  O   UNL     1     107.623  45.890 138.483  1.00  0.00    -0.493 OA
ATOM     13  C   UNL     1     108.632  46.883 138.643  1.00  0.00     0.278 C 
ENDBRANCH   1  12
BRANCH   2  14
ATOM     14  O   UNL     1     106.103  45.883 136.210  1.00  0.00    -0.493 OA
ATOM     15  C   UNL     1     104.730  45.788 135.846  1.00  0.00     0.278 C 
ENDBRANCH   2  14
TORSDOF 2
ENDMDL
MODEL 9
REMARK VINA RESULT:    -4.750      1.930      3.153
REMARK INTER + INTRA:          -5.415
REMARK INTER:                  -5.278
REMARK INTRA:                  -0.138
REMARK UNBOUND:                -0.110
REMARK SMILES COc1cc2ccc(=O)oc2cc1OC
REMARK SMILES IDX 3 1 13 2 12 3 11 4 5 5 4 6 6 7 7 8 8 9 9 10 10 11 2 12 1 13
REMARK SMILES IDX 14 14 15 15
REMARK H PARENT
REMARK Flexibility Score: inf
ROOT
ATOM      1  C   UNL     1     107.789  42.332 136.300  1.00  0.00     0.161 A 
ATOM      2  C   UNL     1     106.661  43.079 135.916  1.00  0.00     0.164 A 
ATOM      3  C   UNL     1     106.525  44.412 136.349  1.00  0.00     0.098 A 
ATOM      4  C   UNL     1     107.504  44.998 137.156  1.00  0.00     0.142 A 
ATOM      5  C   UNL     1     108.636  44.250 137.539  1.00  0.00     0.022 A 
ATOM      6  C   UNL     1     108.776  42.924 137.113  1.00  0.00     0.062 A 
ATOM      7  C   UNL     1     109.599  44.864 138.347  1.00  0.00     0.019 A 
ATOM      8  C   UNL     1     109.414  46.188 138.746  1.00  0.00     0.094 A 
ATOM      9  C   UNL     1     108.266  46.868 138.326  1.00  0.00     0.336 A 
ATOM     10  O   UNL     1     108.081  48.064 138.675  1.00  0.00    -0.246 OA
ATOM     11  O   UNL     1     107.367  46.259 137.558  1.00  0.00    -0.423 OA
ENDROOT
BRANCH   1  12
ATOM     12  O   UNL     1     107.891  41.006 135.850  1.00  0.00    -0.493 OA
ATOM     13  C   UNL     1     108.788  40.565 134.835  1.00  0.00     0.278 C 
ENDBRANCH   1  12
BRANCH   2  14
ATOM     14  O   UNL     1     105.697  42.458 135.106  1.00  0.00    -0.493 OA
ATOM     15  C   UNL     1     104.455  41.945 135.577  1.00  0.00     0.278 C 
ENDBRANCH   2  14
TORSDOF 2
ENDMDL
