MODEL 1
REMARK VINA RESULT:    -5.451      0.000      0.000
REMARK INTER + INTRA:         -10.719
REMARK INTER:                  -8.319
REMARK INTRA:                  -2.400
REMARK UNBOUND:                -2.400
REMARK SMILES CC(=O)CCC=C(C)CCC=C(C)CCC=C(C)C
REMARK SMILES IDX 10 1 11 2 12 3 13 4 14 5 15 6 16 7 18 8 17 9 19 10 9 11 7 12
REMARK SMILES IDX 6 13 8 14 5 15 4 16 2 17 3 18 1 19
REMARK H PARENT
REMARK Flexibility Score: inf
ROOT
ATOM      1  C   UNL     1      20.320  12.249 -25.603  1.00  0.00     0.032 C 
ENDROOT
BRANCH   1   2
ATOM      2  C   UNL     1      19.607  10.925 -25.499  1.00  0.00    -0.028 C 
ATOM      3  C   UNL     1      20.199   9.762 -25.141  1.00  0.00    -0.077 C 
ATOM      4  C   UNL     1      21.658   9.697 -24.750  1.00  0.00     0.039 C 
BRANCH   3   5
ATOM      5  C   UNL     1      19.372   8.492 -25.113  1.00  0.00     0.034 C 
BRANCH   5   6
ATOM      6  C   UNL     1      18.024   8.702 -24.409  1.00  0.00     0.032 C 
BRANCH   6   7
ATOM      7  C   UNL     1      17.200   7.436 -24.390  1.00  0.00    -0.028 C 
ATOM      8  C   UNL     1      15.411   8.373 -25.872  1.00  0.00     0.039 C 
ATOM      9  C   UNL     1      16.043   7.264 -25.065  1.00  0.00    -0.080 C 
ATOM     10  C   UNL     1      15.360   5.922 -24.987  1.00  0.00     0.039 C 
ENDBRANCH   6   7
ENDBRANCH   5   6
ENDBRANCH   3   5
ENDBRANCH   1   2
BRANCH   1  11
ATOM     11  C   UNL     1      20.518  12.645 -27.071  1.00  0.00     0.034 C 
BRANCH  11  12
ATOM     12  C   UNL     1      21.748  11.975 -27.648  1.00  0.00    -0.077 C 
ATOM     13  C   UNL     1      21.701  11.114 -28.692  1.00  0.00    -0.028 C 
ATOM     14  C   UNL     1      23.094  12.297 -27.053  1.00  0.00     0.039 C 
BRANCH  13  15
ATOM     15  C   UNL     1      20.443  10.637 -29.380  1.00  0.00     0.035 C 
BRANCH  15  16
ATOM     16  C   UNL     1      20.008   9.266 -28.849  1.00  0.00     0.079 C 
BRANCH  16  17
ATOM     17  C   UNL     1      18.527   9.215 -28.584  1.00  0.00     0.130 C 
ATOM     18  O   UNL     1      17.991   8.143 -28.344  1.00  0.00    -0.300 OA
ATOM     19  C   UNL     1      17.710  10.471 -28.585  1.00  0.00     0.087 C 
ENDBRANCH  16  17
ENDBRANCH  15  16
ENDBRANCH  13  15
ENDBRANCH  11  12
ENDBRANCH   1  11
TORSDOF 9
ENDMDL
MODEL 2
REMARK VINA RESULT:    -5.296      1.591      5.501
REMARK INTER + INTRA:         -10.483
REMARK INTER:                  -8.221
REMARK INTRA:                  -2.262
REMARK UNBOUND:                -2.400
REMARK SMILES CC(=O)CCC=C(C)CCC=C(C)CCC=C(C)C
REMARK SMILES IDX 10 1 11 2 12 3 13 4 14 5 15 6 16 7 18 8 17 9 19 10 9 11 7 12
REMARK SMILES IDX 6 13 8 14 5 15 4 16 2 17 3 18 1 19
REMARK H PARENT
REMARK Flexibility Score: inf
ROOT
ATOM      1  C   UNL     1      19.060   8.426 -25.144  1.00  0.00     0.032 C 
ENDROOT
BRANCH   1   2
ATOM      2  C   UNL     1      20.401   9.082 -24.935  1.00  0.00    -0.028 C 
ATOM      3  C   UNL     1      21.405   9.078 -25.841  1.00  0.00    -0.077 C 
ATOM      4  C   UNL     1      21.249   8.441 -27.203  1.00  0.00     0.039 C 
BRANCH   3   5
ATOM      5  C   UNL     1      22.720   9.744 -25.488  1.00  0.00     0.034 C 
BRANCH   5   6
ATOM      6  C   UNL     1      22.573  11.268 -25.361  1.00  0.00     0.032 C 
BRANCH   6   7
ATOM      7  C   UNL     1      21.876  11.865 -26.561  1.00  0.00    -0.028 C 
ATOM      8  C   UNL     1      19.940  12.725 -25.225  1.00  0.00     0.039 C 
ATOM      9  C   UNL     1      20.711  12.546 -26.511  1.00  0.00    -0.080 C 
ATOM     10  C   UNL     1      20.165  13.128 -27.790  1.00  0.00     0.039 C 
ENDBRANCH   6   7
ENDBRANCH   5   6
ENDBRANCH   3   5
ENDBRANCH   1   2
BRANCH   1  11
ATOM     11  C   UNL     1      17.936   9.468 -25.122  1.00  0.00     0.034 C 
BRANCH  11  12
ATOM     12  C   UNL     1      17.250   9.550 -26.470  1.00  0.00    -0.077 C 
ATOM     13  C   UNL     1      15.971   9.155 -26.676  1.00  0.00    -0.028 C 
ATOM     14  C   UNL     1      18.015  10.120 -27.637  1.00  0.00     0.039 C 
BRANCH  13  15
ATOM     15  C   UNL     1      15.073   8.518 -25.641  1.00  0.00     0.035 C 
BRANCH  15  16
ATOM     16  C   UNL     1      14.889   7.021 -25.915  1.00  0.00     0.079 C 
BRANCH  16  17
ATOM     17  C   UNL     1      16.130   6.237 -25.583  1.00  0.00     0.130 C 
ATOM     18  O   UNL     1      16.878   5.876 -26.480  1.00  0.00    -0.300 OA
ATOM     19  C   UNL     1      16.469   5.919 -24.158  1.00  0.00     0.087 C 
ENDBRANCH  16  17
ENDBRANCH  15  16
ENDBRANCH  13  15
ENDBRANCH  11  12
ENDBRANCH   1  11
TORSDOF 9
ENDMDL
MODEL 3
REMARK VINA RESULT:    -5.278     14.811     16.068
REMARK INTER + INTRA:         -10.455
REMARK INTER:                  -8.094
REMARK INTRA:                  -2.361
REMARK UNBOUND:                -2.400
REMARK SMILES CC(=O)CCC=C(C)CCC=C(C)CCC=C(C)C
REMARK SMILES IDX 10 1 11 2 12 3 13 4 14 5 15 6 16 7 18 8 17 9 19 10 9 11 7 12
REMARK SMILES IDX 6 13 8 14 5 15 4 16 2 17 3 18 1 19
REMARK H PARENT
REMARK Flexibility Score: inf
ROOT
ATOM      1  C   UNL     1      10.739  20.778 -20.381  1.00  0.00     0.032 C 
ENDROOT
BRANCH   1   2
ATOM      2  C   UNL     1      10.100  19.695 -19.551  1.00  0.00    -0.028 C 
ATOM      3  C   UNL     1      10.546  18.419 -19.481  1.00  0.00    -0.077 C 
ATOM      4  C   UNL     1      11.790  17.968 -20.210  1.00  0.00     0.039 C 
BRANCH   3   5
ATOM      5  C   UNL     1       9.786  17.417 -18.635  1.00  0.00     0.034 C 
BRANCH   5   6
ATOM      6  C   UNL     1       8.382  17.145 -19.193  1.00  0.00     0.032 C 
BRANCH   6   7
ATOM      7  C   UNL     1       8.393  17.018 -20.698  1.00  0.00    -0.028 C 
ATOM      8  C   UNL     1       6.813  18.930 -21.045  1.00  0.00     0.039 C 
ATOM      9  C   UNL     1       7.719  17.829 -21.542  1.00  0.00    -0.080 C 
ATOM     10  C   UNL     1       7.872  17.607 -23.026  1.00  0.00     0.039 C 
ENDBRANCH   6   7
ENDBRANCH   5   6
ENDBRANCH   3   5
ENDBRANCH   1   2
BRANCH   1  11
ATOM     11  C   UNL     1       9.682  21.523 -21.205  1.00  0.00     0.034 C 
BRANCH  11  12
ATOM     12  C   UNL     1       9.622  20.983 -22.619  1.00  0.00    -0.077 C 
ATOM     13  C   UNL     1       8.612  21.262 -23.476  1.00  0.00    -0.028 C 
ATOM     14  C   UNL     1      10.751  20.113 -23.110  1.00  0.00     0.039 C 
BRANCH  13  15
ATOM     15  C   UNL     1       7.379  22.072 -23.146  1.00  0.00     0.035 C 
BRANCH  15  16
ATOM     16  C   UNL     1       7.304  23.339 -24.006  1.00  0.00     0.079 C 
BRANCH  16  17
ATOM     17  C   UNL     1       7.118  24.573 -23.164  1.00  0.00     0.130 C 
ATOM     18  O   UNL     1       6.522  25.536 -23.624  1.00  0.00    -0.300 OA
ATOM     19  C   UNL     1       7.634  24.620 -21.758  1.00  0.00     0.087 C 
ENDBRANCH  16  17
ENDBRANCH  15  16
ENDBRANCH  13  15
ENDBRANCH  11  12
ENDBRANCH   1  11
TORSDOF 9
ENDMDL
MODEL 4
REMARK VINA RESULT:    -5.188      2.031      3.794
REMARK INTER + INTRA:         -10.318
REMARK INTER:                  -8.150
REMARK INTRA:                  -2.168
REMARK UNBOUND:                -2.400
REMARK SMILES CC(=O)CCC=C(C)CCC=C(C)CCC=C(C)C
REMARK SMILES IDX 10 1 11 2 12 3 13 4 14 5 15 6 16 7 18 8 17 9 19 10 9 11 7 12
REMARK SMILES IDX 6 13 8 14 5 15 4 16 2 17 3 18 1 19
REMARK H PARENT
REMARK Flexibility Score: inf
ROOT
ATOM      1  C   UNL     1      19.542   9.299 -25.139  1.00  0.00     0.032 C 
ENDROOT
BRANCH   1   2
ATOM      2  C   UNL     1      18.810   8.133 -24.525  1.00  0.00    -0.028 C 
ATOM      3  C   UNL     1      18.491   6.995 -25.183  1.00  0.00    -0.077 C 
ATOM      4  C   UNL     1      18.900   6.764 -26.620  1.00  0.00     0.039 C 
BRANCH   3   5
ATOM      5  C   UNL     1      17.718   5.914 -24.456  1.00  0.00     0.034 C 
BRANCH   5   6
ATOM      6  C   UNL     1      16.251   6.311 -24.233  1.00  0.00     0.032 C 
BRANCH   6   7
ATOM      7  C   UNL     1      15.421   6.110 -25.479  1.00  0.00    -0.028 C 
ATOM      8  C   UNL     1      15.150   8.563 -25.904  1.00  0.00     0.039 C 
ATOM      9  C   UNL     1      14.946   7.108 -26.255  1.00  0.00    -0.080 C 
ATOM     10  C   UNL     1      14.175   6.745 -27.499  1.00  0.00     0.039 C 
ENDBRANCH   6   7
ENDBRANCH   5   6
ENDBRANCH   3   5
ENDBRANCH   1   2
BRANCH   1  11
ATOM     11  C   UNL     1      18.572  10.442 -25.458  1.00  0.00     0.034 C 
BRANCH  11  12
ATOM     12  C   UNL     1      18.694  10.863 -26.908  1.00  0.00    -0.077 C 
ATOM     13  C   UNL     1      19.515  11.857 -27.324  1.00  0.00    -0.028 C 
ATOM     14  C   UNL     1      17.885  10.129 -27.945  1.00  0.00     0.039 C 
BRANCH  13  15
ATOM     15  C   UNL     1      20.360  12.731 -26.426  1.00  0.00     0.035 C 
BRANCH  15  16
ATOM     16  C   UNL     1      21.851  12.576 -26.748  1.00  0.00     0.079 C 
BRANCH  16  17
ATOM     17  C   UNL     1      22.411  11.294 -26.196  1.00  0.00     0.130 C 
ATOM     18  O   UNL     1      22.523  11.152 -24.986  1.00  0.00    -0.300 OA
ATOM     19  C   UNL     1      22.807  10.178 -27.115  1.00  0.00     0.087 C 
ENDBRANCH  16  17
ENDBRANCH  15  16
ENDBRANCH  13  15
ENDBRANCH  11  12
ENDBRANCH   1  11
TORSDOF 9
ENDMDL
MODEL 5
REMARK VINA RESULT:    -5.072     14.286     15.955
REMARK INTER + INTRA:         -10.140
REMARK INTER:                  -7.923
REMARK INTRA:                  -2.218
REMARK UNBOUND:                -2.400
REMARK SMILES CC(=O)CCC=C(C)CCC=C(C)CCC=C(C)C
REMARK SMILES IDX 10 1 11 2 12 3 13 4 14 5 15 6 16 7 18 8 17 9 19 10 9 11 7 12
REMARK SMILES IDX 6 13 8 14 5 15 4 16 2 17 3 18 1 19
REMARK H PARENT
REMARK Flexibility Score: inf
ROOT
ATOM      1  C   UNL     1      10.102  20.899 -20.120  1.00  0.00     0.032 C 
ENDROOT
BRANCH   1   2
ATOM      2  C   UNL     1       9.858  21.182 -21.580  1.00  0.00    -0.028 C 
ATOM      3  C   UNL     1       8.745  20.815 -22.256  1.00  0.00    -0.077 C 
ATOM      4  C   UNL     1       7.592  20.114 -21.574  1.00  0.00     0.039 C 
BRANCH   3   5
ATOM      5  C   UNL     1       8.642  21.130 -23.735  1.00  0.00     0.034 C 
BRANCH   5   6
ATOM      6  C   UNL     1       8.867  22.622 -24.019  1.00  0.00     0.032 C 
BRANCH   6   7
ATOM      7  C   UNL     1       7.562  23.357 -24.212  1.00  0.00    -0.028 C 
ATOM      8  C   UNL     1       7.750  24.611 -22.051  1.00  0.00     0.039 C 
ATOM      9  C   UNL     1       7.063  24.274 -23.353  1.00  0.00    -0.080 C 
ATOM     10  C   UNL     1       5.770  24.962 -23.710  1.00  0.00     0.039 C 
ENDBRANCH   6   7
ENDBRANCH   5   6
ENDBRANCH   3   5
ENDBRANCH   1   2
BRANCH   1  11
ATOM     11  C   UNL     1      11.096  19.744 -19.951  1.00  0.00     0.034 C 
BRANCH  11  12
ATOM     12  C   UNL     1      10.405  18.516 -19.395  1.00  0.00    -0.077 C 
ATOM     13  C   UNL     1      10.011  17.476 -20.167  1.00  0.00    -0.028 C 
ATOM     14  C   UNL     1      10.165  18.431 -17.910  1.00  0.00     0.039 C 
BRANCH  13  15
ATOM     15  C   UNL     1      10.124  17.407 -21.672  1.00  0.00     0.035 C 
BRANCH  15  16
ATOM     16  C   UNL     1      11.446  16.758 -22.098  1.00  0.00     0.079 C 
BRANCH  16  17
ATOM     17  C   UNL     1      12.311  17.713 -22.875  1.00  0.00     0.130 C 
ATOM     18  O   UNL     1      13.525  17.570 -22.874  1.00  0.00    -0.300 OA
ATOM     19  C   UNL     1      11.694  18.823 -23.671  1.00  0.00     0.087 C 
ENDBRANCH  16  17
ENDBRANCH  15  16
ENDBRANCH  13  15
ENDBRANCH  11  12
ENDBRANCH   1  11
TORSDOF 9
ENDMDL
MODEL 6
REMARK VINA RESULT:    -5.050     15.363     16.917
REMARK INTER + INTRA:         -10.107
REMARK INTER:                  -7.766
REMARK INTRA:                  -2.340
REMARK UNBOUND:                -2.400
REMARK SMILES CC(=O)CCC=C(C)CCC=C(C)CCC=C(C)C
REMARK SMILES IDX 10 1 11 2 12 3 13 4 14 5 15 6 16 7 18 8 17 9 19 10 9 11 7 12
REMARK SMILES IDX 6 13 8 14 5 15 4 16 2 17 3 18 1 19
REMARK H PARENT
REMARK Flexibility Score: inf
ROOT
ATOM      1  C   UNL     1       8.115  24.052 -22.266  1.00  0.00     0.032 C 
ENDROOT
BRANCH   1   2
ATOM      2  C   UNL     1       8.813  22.771 -21.886  1.00  0.00    -0.028 C 
ATOM      3  C   UNL     1       9.478  21.974 -22.753  1.00  0.00    -0.077 C 
ATOM      4  C   UNL     1       9.630  22.335 -24.213  1.00  0.00     0.039 C 
BRANCH   3   5
ATOM      5  C   UNL     1      10.104  20.691 -22.244  1.00  0.00     0.034 C 
BRANCH   5   6
ATOM      6  C   UNL     1      10.390  20.753 -20.737  1.00  0.00     0.032 C 
BRANCH   6   7
ATOM      7  C   UNL     1       9.635  19.686 -19.980  1.00  0.00    -0.028 C 
ATOM      8  C   UNL     1      11.558  18.081 -19.979  1.00  0.00     0.039 C 
ATOM      9  C   UNL     1      10.154  18.496 -19.606  1.00  0.00    -0.080 C 
ATOM     10  C   UNL     1       9.289  17.554 -18.808  1.00  0.00     0.039 C 
ENDBRANCH   6   7
ENDBRANCH   5   6
ENDBRANCH   3   5
ENDBRANCH   1   2
BRANCH   1  11
ATOM     11  C   UNL     1       6.594  23.862 -22.266  1.00  0.00     0.034 C 
BRANCH  11  12
ATOM     12  C   UNL     1       6.118  23.328 -23.602  1.00  0.00    -0.077 C 
ATOM     13  C   UNL     1       5.666  22.063 -23.775  1.00  0.00    -0.028 C 
ATOM     14  C   UNL     1       6.122  24.251 -24.793  1.00  0.00     0.039 C 
BRANCH  13  15
ATOM     15  C   UNL     1       5.636  20.989 -22.713  1.00  0.00     0.035 C 
BRANCH  15  16
ATOM     16  C   UNL     1       6.491  19.783 -23.121  1.00  0.00     0.079 C 
BRANCH  16  17
ATOM     17  C   UNL     1       6.656  18.808 -21.988  1.00  0.00     0.130 C 
ATOM     18  O   UNL     1       7.422  17.862 -22.108  1.00  0.00    -0.300 OA
ATOM     19  C   UNL     1       5.911  19.001 -20.702  1.00  0.00     0.087 C 
ENDBRANCH  16  17
ENDBRANCH  15  16
ENDBRANCH  13  15
ENDBRANCH  11  12
ENDBRANCH   1  11
TORSDOF 9
ENDMDL
MODEL 7
REMARK VINA RESULT:    -5.050     15.008     16.391
REMARK INTER + INTRA:         -10.107
REMARK INTER:                  -7.877
REMARK INTRA:                  -2.230
REMARK UNBOUND:                -2.400
REMARK SMILES CC(=O)CCC=C(C)CCC=C(C)CCC=C(C)C
REMARK SMILES IDX 10 1 11 2 12 3 13 4 14 5 15 6 16 7 18 8 17 9 19 10 9 11 7 12
REMARK SMILES IDX 6 13 8 14 5 15 4 16 2 17 3 18 1 19
REMARK H PARENT
REMARK Flexibility Score: inf
ROOT
ATOM      1  C   UNL     1       9.733  21.498 -21.640  1.00  0.00     0.032 C 
ENDROOT
BRANCH   1   2
ATOM      2  C   UNL     1       8.795  20.424 -21.153  1.00  0.00    -0.028 C 
ATOM      3  C   UNL     1       8.700  19.187 -21.691  1.00  0.00    -0.077 C 
ATOM      4  C   UNL     1       9.591  18.741 -22.829  1.00  0.00     0.039 C 
BRANCH   3   5
ATOM      5  C   UNL     1       7.685  18.213 -21.128  1.00  0.00     0.034 C 
BRANCH   5   6
ATOM      6  C   UNL     1       8.340  17.169 -20.212  1.00  0.00     0.032 C 
BRANCH   6   7
ATOM      7  C   UNL     1       8.772  17.771 -18.896  1.00  0.00    -0.028 C 
ATOM      8  C   UNL     1      11.215  17.586 -19.414  1.00  0.00     0.039 C 
ATOM      9  C   UNL     1      10.055  17.992 -18.537  1.00  0.00    -0.080 C 
ATOM     10  C   UNL     1      10.325  18.650 -17.207  1.00  0.00     0.039 C 
ENDBRANCH   6   7
ENDBRANCH   5   6
ENDBRANCH   3   5
ENDBRANCH   1   2
BRANCH   1  11
ATOM     11  C   UNL     1       8.950  22.722 -22.128  1.00  0.00     0.034 C 
BRANCH  11  12
ATOM     12  C   UNL     1       8.824  22.714 -23.638  1.00  0.00    -0.077 C 
ATOM     13  C   UNL     1       7.710  23.122 -24.290  1.00  0.00    -0.028 C 
ATOM     14  C   UNL     1      10.002  22.256 -24.459  1.00  0.00     0.039 C 
BRANCH  13  15
ATOM     15  C   UNL     1       6.422  23.565 -23.635  1.00  0.00     0.035 C 
BRANCH  15  16
ATOM     16  C   UNL     1       5.301  22.547 -23.877  1.00  0.00     0.079 C 
BRANCH  16  17
ATOM     17  C   UNL     1       5.535  21.268 -23.119  1.00  0.00     0.130 C 
ATOM     18  O   UNL     1       5.446  21.261 -21.900  1.00  0.00    -0.300 OA
ATOM     19  C   UNL     1       5.852  19.998 -23.849  1.00  0.00     0.087 C 
ENDBRANCH  16  17
ENDBRANCH  15  16
ENDBRANCH  13  15
ENDBRANCH  11  12
ENDBRANCH   1  11
TORSDOF 9
ENDMDL
MODEL 8
REMARK VINA RESULT:    -5.037     13.982     15.726
REMARK INTER + INTRA:         -10.088
REMARK INTER:                  -8.688
REMARK INTRA:                  -1.400
REMARK UNBOUND:                -2.400
REMARK SMILES CC(=O)CCC=C(C)CCC=C(C)CCC=C(C)C
REMARK SMILES IDX 10 1 11 2 12 3 13 4 14 5 15 6 16 7 18 8 17 9 19 10 9 11 7 12
REMARK SMILES IDX 6 13 8 14 5 15 4 16 2 17 3 18 1 19
REMARK H PARENT
REMARK Flexibility Score: inf
ROOT
ATOM      1  C   UNL     1      10.938  20.657 -20.152  1.00  0.00     0.032 C 
ENDROOT
BRANCH   1   2
ATOM      2  C   UNL     1       9.846  21.029 -21.121  1.00  0.00    -0.028 C 
ATOM      3  C   UNL     1       9.809  20.646 -22.418  1.00  0.00    -0.077 C 
ATOM      4  C   UNL     1      10.863  19.740 -23.013  1.00  0.00     0.039 C 
BRANCH   3   5
ATOM      5  C   UNL     1       8.670  21.124 -23.296  1.00  0.00     0.034 C 
BRANCH   5   6
ATOM      6  C   UNL     1       8.967  22.495 -23.922  1.00  0.00     0.032 C 
BRANCH   6   7
ATOM      7  C   UNL     1       7.702  23.287 -24.159  1.00  0.00    -0.028 C 
ATOM      8  C   UNL     1       7.850  24.504 -21.975  1.00  0.00     0.039 C 
ATOM      9  C   UNL     1       7.206  24.212 -23.309  1.00  0.00    -0.080 C 
ATOM     10  C   UNL     1       5.959  24.959 -23.710  1.00  0.00     0.039 C 
ENDBRANCH   6   7
ENDBRANCH   5   6
ENDBRANCH   3   5
ENDBRANCH   1   2
BRANCH   1  11
ATOM     11  C   UNL     1      10.382  19.794 -19.013  1.00  0.00     0.034 C 
BRANCH  11  12
ATOM     12  C   UNL     1      10.165  18.367 -19.475  1.00  0.00    -0.077 C 
ATOM     13  C   UNL     1      11.181  17.505 -19.714  1.00  0.00    -0.028 C 
ATOM     14  C   UNL     1       8.754  17.871 -19.653  1.00  0.00     0.039 C 
BRANCH  13  15
ATOM     15  C   UNL     1      12.653  17.838 -19.636  1.00  0.00     0.035 C 
BRANCH  15  16
ATOM     16  C   UNL     1      13.292  17.848 -21.029  1.00  0.00     0.079 C 
BRANCH  16  17
ATOM     17  C   UNL     1      14.794  17.900 -20.953  1.00  0.00     0.130 C 
ATOM     18  O   UNL     1      15.338  18.198 -19.900  1.00  0.00    -0.300 OA
ATOM     19  C   UNL     1      15.629  17.564 -22.152  1.00  0.00     0.087 C 
ENDBRANCH  16  17
ENDBRANCH  15  16
ENDBRANCH  13  15
ENDBRANCH  11  12
ENDBRANCH   1  11
TORSDOF 9
ENDMDL
MODEL 9
REMARK VINA RESULT:    -5.018     15.372     17.067
REMARK INTER + INTRA:         -10.058
REMARK INTER:                  -8.017
REMARK INTRA:                  -2.042
REMARK UNBOUND:                -2.400
REMARK SMILES CC(=O)CCC=C(C)CCC=C(C)CCC=C(C)C
REMARK SMILES IDX 10 1 11 2 12 3 13 4 14 5 15 6 16 7 18 8 17 9 19 10 9 11 7 12
REMARK SMILES IDX 6 13 8 14 5 15 4 16 2 17 3 18 1 19
REMARK H PARENT
REMARK Flexibility Score: inf
ROOT
ATOM      1  C   UNL     1      10.740  20.521 -20.124  1.00  0.00     0.032 C 
ENDROOT
BRANCH   1   2
ATOM      2  C   UNL     1       9.632  21.243 -20.846  1.00  0.00    -0.028 C 
ATOM      3  C   UNL     1       9.397  21.152 -22.175  1.00  0.00    -0.077 C 
ATOM      4  C   UNL     1      10.215  20.249 -23.070  1.00  0.00     0.039 C 
BRANCH   3   5
ATOM      5  C   UNL     1       8.270  21.963 -22.783  1.00  0.00     0.034 C 
BRANCH   5   6
ATOM      6  C   UNL     1       8.527  23.473 -22.670  1.00  0.00     0.032 C 
BRANCH   6   7
ATOM      7  C   UNL     1       7.505  24.151 -21.789  1.00  0.00    -0.028 C 
ATOM      8  C   UNL     1       6.291  25.204 -23.710  1.00  0.00     0.039 C 
ATOM      9  C   UNL     1       6.480  24.904 -22.242  1.00  0.00    -0.080 C 
ATOM     10  C   UNL     1       5.509  25.474 -21.238  1.00  0.00     0.039 C 
ENDBRANCH   6   7
ENDBRANCH   5   6
ENDBRANCH   3   5
ENDBRANCH   1   2
BRANCH   1  11
ATOM     11  C   UNL     1      10.174  19.404 -19.241  1.00  0.00     0.034 C 
BRANCH  11  12
ATOM     12  C   UNL     1      10.363  18.051 -19.896  1.00  0.00    -0.077 C 
ATOM     13  C   UNL     1       9.356  17.368 -20.489  1.00  0.00    -0.028 C 
ATOM     14  C   UNL     1      11.742  17.443 -19.913  1.00  0.00     0.039 C 
BRANCH  13  15
ATOM     15  C   UNL     1       7.907  17.796 -20.525  1.00  0.00     0.035 C 
BRANCH  15  16
ATOM     16  C   UNL     1       7.390  17.873 -21.967  1.00  0.00     0.079 C 
BRANCH  16  17
ATOM     17  C   UNL     1       6.141  18.706 -22.067  1.00  0.00     0.130 C 
ATOM     18  O   UNL     1       5.406  18.582 -23.036  1.00  0.00    -0.300 OA
ATOM     19  C   UNL     1       5.778  19.668 -20.976  1.00  0.00     0.087 C 
ENDBRANCH  16  17
ENDBRANCH  15  16
ENDBRANCH  13  15
ENDBRANCH  11  12
ENDBRANCH   1  11
TORSDOF 9
ENDMDL
