MODEL 1
REMARK VINA RESULT:    -6.051      0.000      0.000
REMARK INTER + INTRA:          -8.089
REMARK INTER:                  -7.466
REMARK INTRA:                  -0.623
REMARK UNBOUND:                -0.623
REMARK SMILES CC(C)=CCC[C@H](C)c1ccc(C)cc1
REMARK SMILES IDX 6 1 7 2 8 3 9 4 13 5 12 6 11 7 14 8 10 9 15 10 5 11 4 12
REMARK SMILES IDX 2 13 1 14 3 15
REMARK H PARENT
REMARK Flexibility Score: inf
ROOT
ATOM      1  C   UNL     1     -15.240 -22.703 -41.457  1.00  0.00     0.012 C 
ENDROOT
BRANCH   1   2
ATOM      2  C   UNL     1     -14.428 -22.879 -42.759  1.00  0.00     0.016 C 
ATOM      3  C   UNL     1     -15.184 -23.706 -43.812  1.00  0.00     0.013 C 
BRANCH   2   4
ATOM      4  C   UNL     1     -13.080 -23.510 -42.462  1.00  0.00    -0.045 A 
ATOM      5  C   UNL     1      -9.249 -25.303 -41.579  1.00  0.00     0.044 C 
ATOM      6  C   UNL     1     -10.589 -24.708 -41.897  1.00  0.00    -0.051 A 
ATOM      7  C   UNL     1     -11.599 -24.683 -40.925  1.00  0.00     0.004 A 
ATOM      8  C   UNL     1     -10.820 -24.111 -43.144  1.00  0.00     0.004 A 
ATOM      9  C   UNL     1     -12.837 -24.095 -41.206  1.00  0.00     0.004 A 
ATOM     10  C   UNL     1     -12.057 -23.523 -43.427  1.00  0.00     0.004 A 
ENDBRANCH   2   4
ENDBRANCH   1   2
BRANCH   1  11
ATOM     11  C   UNL     1     -15.384 -21.231 -41.043  1.00  0.00     0.028 C 
BRANCH  11  12
ATOM     12  C   UNL     1     -14.899 -21.023 -39.629  1.00  0.00    -0.028 C 
ATOM     13  C   UNL     1     -14.653 -19.813 -39.079  1.00  0.00    -0.080 C 
ATOM     14  C   UNL     1     -14.140 -19.723 -37.665  1.00  0.00     0.039 C 
ATOM     15  C   UNL     1     -14.911 -18.526 -39.823  1.00  0.00     0.039 C 
ENDBRANCH  11  12
ENDBRANCH   1  11
TORSDOF 4
ENDMDL
MODEL 2
REMARK VINA RESULT:    -5.594      0.910      1.585
REMARK INTER + INTRA:          -7.525
REMARK INTER:                  -6.384
REMARK INTRA:                  -1.141
REMARK UNBOUND:                -0.623
REMARK SMILES CC(C)=CCC[C@H](C)c1ccc(C)cc1
REMARK SMILES IDX 6 1 7 2 8 3 9 4 13 5 12 6 11 7 14 8 10 9 15 10 5 11 4 12
REMARK SMILES IDX 2 13 1 14 3 15
REMARK H PARENT
REMARK Flexibility Score: inf
ROOT
ATOM      1  C   UNL     1     -14.908 -22.352 -43.203  1.00  0.00     0.012 C 
ENDROOT
BRANCH   1   2
ATOM      2  C   UNL     1     -14.512 -23.837 -43.362  1.00  0.00     0.016 C 
ATOM      3  C   UNL     1     -15.538 -24.787 -42.722  1.00  0.00     0.013 C 
BRANCH   2   4
ATOM      4  C   UNL     1     -13.132 -24.083 -42.779  1.00  0.00    -0.045 A 
ATOM      5  C   UNL     1      -9.218 -24.779 -41.088  1.00  0.00     0.044 C 
ATOM      6  C   UNL     1     -10.578 -24.567 -41.685  1.00  0.00    -0.051 A 
ATOM      7  C   UNL     1     -11.727 -24.724 -40.897  1.00  0.00     0.004 A 
ATOM      8  C   UNL     1     -10.708 -24.144 -43.015  1.00  0.00     0.004 A 
ATOM      9  C   UNL     1     -12.994 -24.491 -41.441  1.00  0.00     0.004 A 
ATOM     10  C   UNL     1     -11.975 -23.911 -43.560  1.00  0.00     0.004 A 
ENDBRANCH   2   4
ENDBRANCH   1   2
BRANCH   1  11
ATOM     11  C   UNL     1     -15.849 -22.114 -42.012  1.00  0.00     0.028 C 
BRANCH  11  12
ATOM     12  C   UNL     1     -15.198 -21.216 -40.989  1.00  0.00    -0.028 C 
ATOM     13  C   UNL     1     -15.023 -21.545 -39.689  1.00  0.00    -0.080 C 
ATOM     14  C   UNL     1     -14.388 -20.557 -38.745  1.00  0.00     0.039 C 
ATOM     15  C   UNL     1     -15.409 -22.899 -39.144  1.00  0.00     0.039 C 
ENDBRANCH  11  12
ENDBRANCH   1  11
TORSDOF 4
ENDMDL
MODEL 3
REMARK VINA RESULT:    -5.429      1.532      5.706
REMARK INTER + INTRA:          -7.321
REMARK INTER:                  -6.588
REMARK INTRA:                  -0.733
REMARK UNBOUND:                -0.623
REMARK SMILES CC(C)=CCC[C@H](C)c1ccc(C)cc1
REMARK SMILES IDX 6 1 7 2 8 3 9 4 13 5 12 6 11 7 14 8 10 9 15 10 5 11 4 12
REMARK SMILES IDX 2 13 1 14 3 15
REMARK H PARENT
REMARK Flexibility Score: inf
ROOT
ATOM      1  C   UNL     1     -11.548 -23.820 -43.312  1.00  0.00     0.012 C 
ENDROOT
BRANCH   1   2
ATOM      2  C   UNL     1     -12.848 -24.491 -42.814  1.00  0.00     0.016 C 
ATOM      3  C   UNL     1     -13.589 -25.232 -43.939  1.00  0.00     0.013 C 
BRANCH   2   4
ATOM      4  C   UNL     1     -13.760 -23.465 -42.168  1.00  0.00    -0.045 A 
ATOM      5  C   UNL     1     -16.347 -20.556 -40.293  1.00  0.00     0.044 C 
ATOM      6  C   UNL     1     -15.430 -21.543 -40.954  1.00  0.00    -0.051 A 
ATOM      7  C   UNL     1     -14.389 -22.136 -40.227  1.00  0.00     0.004 A 
ATOM      8  C   UNL     1     -15.649 -21.931 -42.283  1.00  0.00     0.004 A 
ATOM      9  C   UNL     1     -13.556 -23.084 -40.829  1.00  0.00     0.004 A 
ATOM     10  C   UNL     1     -14.817 -22.879 -42.887  1.00  0.00     0.004 A 
ENDBRANCH   2   4
ENDBRANCH   1   2
BRANCH   1  11
ATOM     11  C   UNL     1     -10.284 -24.513 -42.783  1.00  0.00     0.028 C 
BRANCH  11  12
ATOM     12  C   UNL     1     -10.514 -25.059 -41.395  1.00  0.00    -0.028 C 
ATOM     13  C   UNL     1      -9.535 -25.530 -40.590  1.00  0.00    -0.080 C 
ATOM     14  C   UNL     1      -9.883 -26.081 -39.232  1.00  0.00     0.039 C 
ATOM     15  C   UNL     1      -8.080 -25.489 -40.987  1.00  0.00     0.039 C 
ENDBRANCH  11  12
ENDBRANCH   1  11
TORSDOF 4
ENDMDL
MODEL 4
REMARK VINA RESULT:    -5.418      1.566      2.227
REMARK INTER + INTRA:          -7.309
REMARK INTER:                  -6.609
REMARK INTRA:                  -0.699
REMARK UNBOUND:                -0.623
REMARK SMILES CC(C)=CCC[C@H](C)c1ccc(C)cc1
REMARK SMILES IDX 6 1 7 2 8 3 9 4 13 5 12 6 11 7 14 8 10 9 15 10 5 11 4 12
REMARK SMILES IDX 2 13 1 14 3 15
REMARK H PARENT
REMARK Flexibility Score: inf
ROOT
ATOM      1  C   UNL     1     -13.939 -22.812 -40.528  1.00  0.00     0.012 C 
ENDROOT
BRANCH   1   2
ATOM      2  C   UNL     1     -14.371 -22.762 -42.011  1.00  0.00     0.016 C 
ATOM      3  C   UNL     1     -15.862 -23.090 -42.197  1.00  0.00     0.013 C 
BRANCH   2   4
ATOM      4  C   UNL     1     -13.517 -23.701 -42.843  1.00  0.00    -0.045 A 
ATOM      5  C   UNL     1     -11.114 -26.399 -45.213  1.00  0.00     0.044 C 
ATOM      6  C   UNL     1     -11.951 -25.443 -44.415  1.00  0.00    -0.051 A 
ATOM      7  C   UNL     1     -13.343 -25.595 -44.364  1.00  0.00     0.004 A 
ATOM      8  C   UNL     1     -11.341 -24.433 -43.658  1.00  0.00     0.004 A 
ATOM      9  C   UNL     1     -14.122 -24.728 -43.591  1.00  0.00     0.004 A 
ATOM     10  C   UNL     1     -12.118 -23.565 -42.884  1.00  0.00     0.004 A 
ENDBRANCH   2   4
ENDBRANCH   1   2
BRANCH   1  11
ATOM     11  C   UNL     1     -14.930 -22.096 -39.599  1.00  0.00     0.028 C 
BRANCH  11  12
ATOM     12  C   UNL     1     -14.570 -20.638 -39.456  1.00  0.00    -0.028 C 
ATOM     13  C   UNL     1     -15.434 -19.617 -39.654  1.00  0.00    -0.080 C 
ATOM     14  C   UNL     1     -14.958 -18.194 -39.515  1.00  0.00     0.039 C 
ATOM     15  C   UNL     1     -16.890 -19.849 -39.976  1.00  0.00     0.039 C 
ENDBRANCH  11  12
ENDBRANCH   1  11
TORSDOF 4
ENDMDL
MODEL 5
REMARK VINA RESULT:    -5.413      1.117      5.664
REMARK INTER + INTRA:          -7.302
REMARK INTER:                  -6.506
REMARK INTRA:                  -0.796
REMARK UNBOUND:                -0.623
REMARK SMILES CC(C)=CCC[C@H](C)c1ccc(C)cc1
REMARK SMILES IDX 6 1 7 2 8 3 9 4 13 5 12 6 11 7 14 8 10 9 15 10 5 11 4 12
REMARK SMILES IDX 2 13 1 14 3 15
REMARK H PARENT
REMARK Flexibility Score: inf
ROOT
ATOM      1  C   UNL     1     -14.646 -22.666 -43.033  1.00  0.00     0.012 C 
ENDROOT
BRANCH   1   2
ATOM      2  C   UNL     1     -15.678 -22.822 -41.894  1.00  0.00     0.016 C 
ATOM      3  C   UNL     1     -17.125 -22.823 -42.414  1.00  0.00     0.013 C 
BRANCH   2   4
ATOM      4  C   UNL     1     -15.491 -21.730 -40.856  1.00  0.00    -0.045 A 
ATOM      5  C   UNL     1     -14.936 -18.646 -37.883  1.00  0.00     0.044 C 
ATOM      6  C   UNL     1     -15.112 -19.699 -38.936  1.00  0.00    -0.051 A 
ATOM      7  C   UNL     1     -14.204 -20.763 -39.030  1.00  0.00     0.004 A 
ATOM      8  C   UNL     1     -16.224 -19.667 -39.789  1.00  0.00     0.004 A 
ATOM      9  C   UNL     1     -14.387 -21.767 -39.986  1.00  0.00     0.004 A 
ATOM     10  C   UNL     1     -16.409 -20.670 -40.746  1.00  0.00     0.004 A 
ENDBRANCH   2   4
ENDBRANCH   1   2
BRANCH   1  11
ATOM     11  C   UNL     1     -13.977 -23.996 -43.412  1.00  0.00     0.028 C 
BRANCH  11  12
ATOM     12  C   UNL     1     -13.127 -24.509 -42.276  1.00  0.00    -0.028 C 
ATOM     13  C   UNL     1     -11.775 -24.475 -42.261  1.00  0.00    -0.080 C 
ATOM     14  C   UNL     1     -11.024 -25.044 -41.085  1.00  0.00     0.039 C 
ATOM     15  C   UNL     1     -10.976 -23.843 -43.374  1.00  0.00     0.039 C 
ENDBRANCH  11  12
ENDBRANCH   1  11
TORSDOF 4
ENDMDL
MODEL 6
REMARK VINA RESULT:    -5.410      1.404      6.314
REMARK INTER + INTRA:          -7.298
REMARK INTER:                  -6.801
REMARK INTRA:                  -0.496
REMARK UNBOUND:                -0.623
REMARK SMILES CC(C)=CCC[C@H](C)c1ccc(C)cc1
REMARK SMILES IDX 6 1 7 2 8 3 9 4 13 5 12 6 11 7 14 8 10 9 15 10 5 11 4 12
REMARK SMILES IDX 2 13 1 14 3 15
REMARK H PARENT
REMARK Flexibility Score: inf
ROOT
ATOM      1  C   UNL     1     -13.667 -22.765 -40.856  1.00  0.00     0.012 C 
ENDROOT
BRANCH   1   2
ATOM      2  C   UNL     1     -15.145 -22.539 -40.468  1.00  0.00     0.016 C 
ATOM      3  C   UNL     1     -15.939 -21.833 -41.579  1.00  0.00     0.013 C 
BRANCH   2   4
ATOM      4  C   UNL     1     -15.239 -21.754 -39.173  1.00  0.00    -0.045 A 
ATOM      5  C   UNL     1     -15.472 -19.504 -35.491  1.00  0.00     0.044 C 
ATOM      6  C   UNL     1     -15.414 -20.267 -36.782  1.00  0.00    -0.051 A 
ATOM      7  C   UNL     1     -14.495 -19.902 -37.777  1.00  0.00     0.004 A 
ATOM      8  C   UNL     1     -16.228 -21.392 -36.976  1.00  0.00     0.004 A 
ATOM      9  C   UNL     1     -14.413 -20.635 -38.965  1.00  0.00     0.004 A 
ATOM     10  C   UNL     1     -16.146 -22.125 -38.164  1.00  0.00     0.004 A 
ENDBRANCH   2   4
ENDBRANCH   1   2
BRANCH   1  11
ATOM     11  C   UNL     1     -13.418 -24.157 -41.455  1.00  0.00     0.028 C 
BRANCH  11  12
ATOM     12  C   UNL     1     -11.998 -24.601 -41.202  1.00  0.00    -0.028 C 
ATOM     13  C   UNL     1     -10.997 -24.503 -42.107  1.00  0.00    -0.080 C 
ATOM     14  C   UNL     1      -9.621 -25.007 -41.758  1.00  0.00     0.039 C 
ATOM     15  C   UNL     1     -11.197 -23.864 -43.459  1.00  0.00     0.039 C 
ENDBRANCH  11  12
ENDBRANCH   1  11
TORSDOF 4
ENDMDL
MODEL 7
REMARK VINA RESULT:    -5.370      4.801      7.013
REMARK INTER + INTRA:          -7.249
REMARK INTER:                  -6.743
REMARK INTRA:                  -0.506
REMARK UNBOUND:                -0.623
REMARK SMILES CC(C)=CCC[C@H](C)c1ccc(C)cc1
REMARK SMILES IDX 6 1 7 2 8 3 9 4 13 5 12 6 11 7 14 8 10 9 15 10 5 11 4 12
REMARK SMILES IDX 2 13 1 14 3 15
REMARK H PARENT
REMARK Flexibility Score: inf
ROOT
ATOM      1  C   UNL     1     -10.158 -26.106 -36.570  1.00  0.00     0.012 C 
ENDROOT
BRANCH   1   2
ATOM      2  C   UNL     1      -9.056 -26.436 -37.601  1.00  0.00     0.016 C 
ATOM      3  C   UNL     1      -7.704 -25.804 -37.234  1.00  0.00     0.013 C 
BRANCH   2   4
ATOM      4  C   UNL     1      -9.483 -25.997 -38.991  1.00  0.00    -0.045 A 
ATOM      5  C   UNL     1     -10.667 -24.728 -42.947  1.00  0.00     0.044 C 
ATOM      6  C   UNL     1     -10.250 -25.198 -41.585  1.00  0.00    -0.051 A 
ATOM      7  C   UNL     1      -8.920 -25.054 -41.164  1.00  0.00     0.004 A 
ATOM      8  C   UNL     1     -11.200 -25.720 -40.696  1.00  0.00     0.004 A 
ATOM      9  C   UNL     1      -8.537 -25.456 -39.880  1.00  0.00     0.004 A 
ATOM     10  C   UNL     1     -10.819 -26.123 -39.412  1.00  0.00     0.004 A 
ENDBRANCH   2   4
ENDBRANCH   1   2
BRANCH   1  11
ATOM     11  C   UNL     1      -9.608 -25.958 -35.143  1.00  0.00     0.028 C 
BRANCH  11  12
ATOM     12  C   UNL     1      -9.978 -24.614 -34.566  1.00  0.00    -0.028 C 
ATOM     13  C   UNL     1     -10.161 -24.376 -33.247  1.00  0.00    -0.080 C 
ATOM     14  C   UNL     1     -10.559 -22.999 -32.782  1.00  0.00     0.039 C 
ATOM     15  C   UNL     1      -9.941 -25.441 -32.201  1.00  0.00     0.039 C 
ENDBRANCH  11  12
ENDBRANCH   1  11
TORSDOF 4
ENDMDL
MODEL 8
REMARK VINA RESULT:    -5.273      3.252      6.283
REMARK INTER + INTRA:          -7.129
REMARK INTER:                  -6.536
REMARK INTRA:                  -0.592
REMARK UNBOUND:                -0.623
REMARK SMILES CC(C)=CCC[C@H](C)c1ccc(C)cc1
REMARK SMILES IDX 6 1 7 2 8 3 9 4 13 5 12 6 11 7 14 8 10 9 15 10 5 11 4 12
REMARK SMILES IDX 2 13 1 14 3 15
REMARK H PARENT
REMARK Flexibility Score: inf
ROOT
ATOM      1  C   UNL     1      -8.763 -25.370 -39.038  1.00  0.00     0.012 C 
ENDROOT
BRANCH   1   2
ATOM      2  C   UNL     1      -9.076 -26.044 -40.392  1.00  0.00     0.016 C 
ATOM      3  C   UNL     1      -7.855 -26.072 -41.326  1.00  0.00     0.013 C 
BRANCH   2   4
ATOM      4  C   UNL     1     -10.243 -25.351 -41.072  1.00  0.00    -0.045 A 
ATOM      5  C   UNL     1     -13.542 -23.360 -43.026  1.00  0.00     0.044 C 
ATOM      6  C   UNL     1     -12.405 -24.078 -42.362  1.00  0.00    -0.051 A 
ATOM      7  C   UNL     1     -11.137 -24.100 -42.960  1.00  0.00     0.004 A 
ATOM      8  C   UNL     1     -12.583 -24.674 -41.105  1.00  0.00     0.004 A 
ATOM      9  C   UNL     1     -10.066 -24.736 -42.324  1.00  0.00     0.004 A 
ATOM     10  C   UNL     1     -11.513 -25.311 -40.468  1.00  0.00     0.004 A 
ENDBRANCH   2   4
ENDBRANCH   1   2
BRANCH   1  11
ATOM     11  C   UNL     1      -8.936 -26.325 -37.847  1.00  0.00     0.028 C 
BRANCH  11  12
ATOM     12  C   UNL     1      -9.014 -25.555 -36.552  1.00  0.00    -0.028 C 
ATOM     13  C   UNL     1     -10.069 -25.591 -35.707  1.00  0.00    -0.080 C 
ATOM     14  C   UNL     1     -10.054 -24.756 -34.453  1.00  0.00     0.039 C 
ATOM     15  C   UNL     1     -11.264 -26.479 -35.953  1.00  0.00     0.039 C 
ENDBRANCH  11  12
ENDBRANCH   1  11
TORSDOF 4
ENDMDL
