MODEL 1
REMARK VINA RESULT:    -5.176      0.000      0.000
REMARK INTER + INTRA:          -9.988
REMARK INTER:                  -7.899
REMARK INTRA:                  -2.090
REMARK UNBOUND:                -2.090
REMARK SMILES CC(=O)CCC=C(C)CCC=C(C)CCC=C(C)C
REMARK SMILES IDX 10 1 11 2 12 3 13 4 14 5 15 6 16 7 18 8 17 9 19 10 9 11 7 12
REMARK SMILES IDX 6 13 8 14 5 15 4 16 2 17 3 18 1 19
REMARK H PARENT
REMARK Flexibility Score: inf
ROOT
ATOM      1  C   UNL     1       5.178  -3.332  45.938  1.00  0.00     0.032 C 
ENDROOT
BRANCH   1   2
ATOM      2  C   UNL     1       4.934  -3.846  47.333  1.00  0.00    -0.028 C 
ATOM      3  C   UNL     1       5.329  -5.060  47.782  1.00  0.00    -0.077 C 
ATOM      4  C   UNL     1       5.998  -6.067  46.876  1.00  0.00     0.039 C 
BRANCH   3   5
ATOM      5  C   UNL     1       5.126  -5.410  49.241  1.00  0.00     0.034 C 
BRANCH   5   6
ATOM      6  C   UNL     1       4.525  -4.236  50.027  1.00  0.00     0.032 C 
BRANCH   6   7
ATOM      7  C   UNL     1       5.524  -3.616  50.976  1.00  0.00    -0.028 C 
ATOM      8  C   UNL     1       7.042  -1.904  51.863  1.00  0.00     0.039 C 
ATOM      9  C   UNL     1       5.997  -2.355  50.876  1.00  0.00    -0.080 C 
ATOM     10  C   UNL     1       5.496  -1.390  49.828  1.00  0.00     0.039 C 
ENDBRANCH   6   7
ENDBRANCH   5   6
ENDBRANCH   3   5
ENDBRANCH   1   2
BRANCH   1  11
ATOM     11  C   UNL     1       5.499  -1.834  45.967  1.00  0.00     0.034 C 
BRANCH  11  12
ATOM     12  C   UNL     1       6.845  -1.591  46.611  1.00  0.00    -0.077 C 
ATOM     13  C   UNL     1       7.622  -2.651  46.931  1.00  0.00    -0.028 C 
ATOM     14  C   UNL     1       7.250  -0.174  46.936  1.00  0.00     0.039 C 
BRANCH  13  15
ATOM     15  C   UNL     1       8.989  -2.549  47.557  1.00  0.00     0.035 C 
BRANCH  15  16
ATOM     16  C   UNL     1       9.040  -3.304  48.893  1.00  0.00     0.079 C 
BRANCH  16  17
ATOM     17  C   UNL     1       9.028  -4.805  48.725  1.00  0.00     0.130 C 
ATOM     18  O   UNL     1       9.349  -5.321  47.664  1.00  0.00    -0.300 OA
ATOM     19  C   UNL     1       8.590  -5.683  49.858  1.00  0.00     0.087 C 
ENDBRANCH  16  17
ENDBRANCH  15  16
ENDBRANCH  13  15
ENDBRANCH  11  12
ENDBRANCH   1  11
TORSDOF 9
ENDMDL
MODEL 2
REMARK VINA RESULT:    -4.941     13.513     15.276
REMARK INTER + INTRA:          -9.630
REMARK INTER:                  -8.275
REMARK INTRA:                  -1.355
REMARK UNBOUND:                -2.090
REMARK SMILES CC(=O)CCC=C(C)CCC=C(C)CCC=C(C)C
REMARK SMILES IDX 10 1 11 2 12 3 13 4 14 5 15 6 16 7 18 8 17 9 19 10 9 11 7 12
REMARK SMILES IDX 6 13 8 14 5 15 4 16 2 17 3 18 1 19
REMARK H PARENT
REMARK Flexibility Score: inf
ROOT
ATOM      1  C   UNL     1       0.946   8.949  47.747  1.00  0.00     0.032 C 
ENDROOT
BRANCH   1   2
ATOM      2  C   UNL     1       1.629   9.996  48.587  1.00  0.00    -0.028 C 
ATOM      3  C   UNL     1       1.903  11.254  48.170  1.00  0.00    -0.077 C 
ATOM      4  C   UNL     1       1.611  11.708  46.758  1.00  0.00     0.039 C 
BRANCH   3   5
ATOM      5  C   UNL     1       2.487  12.248  49.151  1.00  0.00     0.034 C 
BRANCH   5   6
ATOM      6  C   UNL     1       3.791  12.865  48.624  1.00  0.00     0.032 C 
BRANCH   6   7
ATOM      7  C   UNL     1       5.013  12.143  49.143  1.00  0.00    -0.028 C 
ATOM      8  C   UNL     1       6.864  10.532  49.137  1.00  0.00     0.039 C 
ATOM      9  C   UNL     1       5.704  11.210  48.455  1.00  0.00    -0.080 C 
ATOM     10  C   UNL     1       5.364  10.849  47.028  1.00  0.00     0.039 C 
ENDBRANCH   6   7
ENDBRANCH   5   6
ENDBRANCH   3   5
ENDBRANCH   1   2
BRANCH   1  11
ATOM     11  C   UNL     1      -0.512   8.774  48.188  1.00  0.00     0.034 C 
BRANCH  11  12
ATOM     12  C   UNL     1      -1.408   8.559  46.989  1.00  0.00    -0.077 C 
ATOM     13  C   UNL     1      -0.846   8.376  45.773  1.00  0.00    -0.028 C 
ATOM     14  C   UNL     1      -2.904   8.622  47.180  1.00  0.00     0.039 C 
BRANCH  13  15
ATOM     15  C   UNL     1      -1.621   8.131  44.503  1.00  0.00     0.035 C 
BRANCH  15  16
ATOM     16  C   UNL     1      -0.764   8.444  43.267  1.00  0.00     0.079 C 
BRANCH  16  17
ATOM     17  C   UNL     1      -0.729   7.310  42.270  1.00  0.00     0.130 C 
ATOM     18  O   UNL     1      -0.346   7.494  41.123  1.00  0.00    -0.300 OA
ATOM     19  C   UNL     1      -1.196   5.944  42.671  1.00  0.00     0.087 C 
ENDBRANCH  16  17
ENDBRANCH  15  16
ENDBRANCH  13  15
ENDBRANCH  11  12
ENDBRANCH   1  11
TORSDOF 9
ENDMDL
MODEL 3
REMARK VINA RESULT:    -4.888     13.692     15.071
REMARK INTER + INTRA:          -9.549
REMARK INTER:                  -7.993
REMARK INTRA:                  -1.555
REMARK UNBOUND:                -2.090
REMARK SMILES CC(=O)CCC=C(C)CCC=C(C)CCC=C(C)C
REMARK SMILES IDX 10 1 11 2 12 3 13 4 14 5 15 6 16 7 18 8 17 9 19 10 9 11 7 12
REMARK SMILES IDX 6 13 8 14 5 15 4 16 2 17 3 18 1 19
REMARK H PARENT
REMARK Flexibility Score: inf
ROOT
ATOM      1  C   UNL     1       1.197   9.592  48.269  1.00  0.00     0.032 C 
ENDROOT
BRANCH   1   2
ATOM      2  C   UNL     1      -0.122   8.874  48.157  1.00  0.00    -0.028 C 
ATOM      3  C   UNL     1      -1.297   9.473  47.855  1.00  0.00    -0.077 C 
ATOM      4  C   UNL     1      -1.408  10.970  47.677  1.00  0.00     0.039 C 
BRANCH   3   5
ATOM      5  C   UNL     1      -2.533   8.621  47.655  1.00  0.00     0.034 C 
BRANCH   5   6
ATOM      6  C   UNL     1      -3.079   8.742  46.225  1.00  0.00     0.032 C 
BRANCH   6   7
ATOM      7  C   UNL     1      -2.493   7.698  45.302  1.00  0.00    -0.028 C 
ATOM      8  C   UNL     1      -1.080   6.800  43.508  1.00  0.00     0.039 C 
ATOM      9  C   UNL     1      -1.512   7.931  44.404  1.00  0.00    -0.080 C 
ATOM     10  C   UNL     1      -0.830   9.274  44.291  1.00  0.00     0.039 C 
ENDBRANCH   6   7
ENDBRANCH   5   6
ENDBRANCH   3   5
ENDBRANCH   1   2
BRANCH   1  11
ATOM     11  C   UNL     1       1.903   9.634  46.910  1.00  0.00     0.034 C 
BRANCH  11  12
ATOM     12  C   UNL     1       2.751  10.879  46.788  1.00  0.00    -0.077 C 
ATOM     13  C   UNL     1       4.099  10.761  46.811  1.00  0.00    -0.028 C 
ATOM     14  C   UNL     1       2.065  12.221  46.713  1.00  0.00     0.039 C 
BRANCH  13  15
ATOM     15  C   UNL     1       5.058  11.916  46.679  1.00  0.00     0.035 C 
BRANCH  15  16
ATOM     16  C   UNL     1       5.444  12.470  48.058  1.00  0.00     0.079 C 
BRANCH  16  17
ATOM     17  C   UNL     1       5.766  11.389  49.061  1.00  0.00     0.130 C 
ATOM     18  O   UNL     1       5.065  11.219  50.049  1.00  0.00    -0.300 OA
ATOM     19  C   UNL     1       6.976  10.525  48.871  1.00  0.00     0.087 C 
ENDBRANCH  16  17
ENDBRANCH  15  16
ENDBRANCH  13  15
ENDBRANCH  11  12
ENDBRANCH   1  11
TORSDOF 9
ENDMDL
MODEL 4
REMARK VINA RESULT:    -4.732     13.621     14.921
REMARK INTER + INTRA:          -9.311
REMARK INTER:                  -8.075
REMARK INTRA:                  -1.236
REMARK UNBOUND:                -2.090
REMARK SMILES CC(=O)CCC=C(C)CCC=C(C)CCC=C(C)C
REMARK SMILES IDX 10 1 11 2 12 3 13 4 14 5 15 6 16 7 18 8 17 9 19 10 9 11 7 12
REMARK SMILES IDX 6 13 8 14 5 15 4 16 2 17 3 18 1 19
REMARK H PARENT
REMARK Flexibility Score: inf
ROOT
ATOM      1  C   UNL     1       3.067  12.315  49.127  1.00  0.00     0.032 C 
ENDROOT
BRANCH   1   2
ATOM      2  C   UNL     1       2.081  11.180  49.029  1.00  0.00    -0.028 C 
ATOM      3  C   UNL     1       1.999  10.325  47.984  1.00  0.00    -0.077 C 
ATOM      4  C   UNL     1       2.858  10.486  46.751  1.00  0.00     0.039 C 
BRANCH   3   5
ATOM      5  C   UNL     1       1.043   9.153  48.060  1.00  0.00     0.034 C 
BRANCH   5   6
ATOM      6  C   UNL     1      -0.274   9.448  47.327  1.00  0.00     0.032 C 
BRANCH   6   7
ATOM      7  C   UNL     1      -0.305   8.836  45.945  1.00  0.00    -0.028 C 
ATOM      8  C   UNL     1      -1.189   7.524  44.070  1.00  0.00     0.039 C 
ATOM      9  C   UNL     1      -1.337   8.126  45.443  1.00  0.00    -0.080 C 
ATOM     10  C   UNL     1      -2.629   7.941  46.202  1.00  0.00     0.039 C 
ENDBRANCH   6   7
ENDBRANCH   5   6
ENDBRANCH   3   5
ENDBRANCH   1   2
BRANCH   1  11
ATOM     11  C   UNL     1       4.370  11.840  49.778  1.00  0.00     0.034 C 
BRANCH  11  12
ATOM     12  C   UNL     1       5.500  11.846  48.774  1.00  0.00    -0.077 C 
ATOM     13  C   UNL     1       6.366  10.807  48.754  1.00  0.00    -0.028 C 
ATOM     14  C   UNL     1       5.664  13.044  47.871  1.00  0.00     0.039 C 
BRANCH  13  15
ATOM     15  C   UNL     1       7.521  10.678  47.794  1.00  0.00     0.035 C 
BRANCH  15  16
ATOM     16  C   UNL     1       7.098   9.930  46.521  1.00  0.00     0.079 C 
BRANCH  16  17
ATOM     17  C   UNL     1       7.361  10.715  45.258  1.00  0.00     0.130 C 
ATOM     18  O   UNL     1       6.450  10.998  44.493  1.00  0.00    -0.300 OA
ATOM     19  C   UNL     1       8.759  11.132  44.912  1.00  0.00     0.087 C 
ENDBRANCH  16  17
ENDBRANCH  15  16
ENDBRANCH  13  15
ENDBRANCH  11  12
ENDBRANCH   1  11
TORSDOF 9
ENDMDL
MODEL 5
REMARK VINA RESULT:    -4.712      8.080     10.397
REMARK INTER + INTRA:          -9.281
REMARK INTER:                  -7.899
REMARK INTRA:                  -1.382
REMARK UNBOUND:                -2.090
REMARK SMILES CC(=O)CCC=C(C)CCC=C(C)CCC=C(C)C
REMARK SMILES IDX 10 1 11 2 12 3 13 4 14 5 15 6 16 7 18 8 17 9 19 10 9 11 7 12
REMARK SMILES IDX 6 13 8 14 5 15 4 16 2 17 3 18 1 19
REMARK H PARENT
REMARK Flexibility Score: inf
ROOT
ATOM      1  C   UNL     1      11.306   5.233  49.885  1.00  0.00     0.032 C 
ENDROOT
BRANCH   1   2
ATOM      2  C   UNL     1      11.024   4.374  51.091  1.00  0.00    -0.028 C 
ATOM      3  C   UNL     1      10.041   4.615  51.989  1.00  0.00    -0.077 C 
ATOM      4  C   UNL     1       9.168   5.846  51.907  1.00  0.00     0.039 C 
BRANCH   3   5
ATOM      5  C   UNL     1       9.785   3.610  53.092  1.00  0.00     0.034 C 
BRANCH   5   6
ATOM      6  C   UNL     1       8.559   3.993  53.934  1.00  0.00     0.032 C 
BRANCH   6   7
ATOM      7  C   UNL     1       7.452   2.970  53.824  1.00  0.00    -0.028 C 
ATOM      8  C   UNL     1       5.205   2.109  53.341  1.00  0.00     0.039 C 
ATOM      9  C   UNL     1       6.223   3.220  53.323  1.00  0.00    -0.080 C 
ATOM     10  C   UNL     1       5.854   4.560  52.731  1.00  0.00     0.039 C 
ENDBRANCH   6   7
ENDBRANCH   5   6
ENDBRANCH   3   5
ENDBRANCH   1   2
BRANCH   1  11
ATOM     11  C   UNL     1      10.579   4.685  48.653  1.00  0.00     0.034 C 
BRANCH  11  12
ATOM     12  C   UNL     1       9.458   5.611  48.240  1.00  0.00    -0.077 C 
ATOM     13  C   UNL     1       9.724   6.925  48.061  1.00  0.00    -0.028 C 
ATOM     14  C   UNL     1       8.064   5.050  48.106  1.00  0.00     0.039 C 
BRANCH  13  15
ATOM     15  C   UNL     1       8.706   7.951  47.632  1.00  0.00     0.035 C 
BRANCH  15  16
ATOM     16  C   UNL     1       8.437   7.860  46.123  1.00  0.00     0.079 C 
BRANCH  16  17
ATOM     17  C   UNL     1       9.623   8.271  45.284  1.00  0.00     0.130 C 
ATOM     18  O   UNL     1      10.255   7.445  44.641  1.00  0.00    -0.300 OA
ATOM     19  C   UNL     1      10.060   9.704  45.255  1.00  0.00     0.087 C 
ENDBRANCH  16  17
ENDBRANCH  15  16
ENDBRANCH  13  15
ENDBRANCH  11  12
ENDBRANCH   1  11
TORSDOF 9
ENDMDL
MODEL 6
REMARK VINA RESULT:    -4.577     12.678     15.315
REMARK INTER + INTRA:          -9.075
REMARK INTER:                  -7.481
REMARK INTRA:                  -1.594
REMARK UNBOUND:                -2.090
REMARK SMILES CC(=O)CCC=C(C)CCC=C(C)CCC=C(C)C
REMARK SMILES IDX 10 1 11 2 12 3 13 4 14 5 15 6 16 7 18 8 17 9 19 10 9 11 7 12
REMARK SMILES IDX 6 13 8 14 5 15 4 16 2 17 3 18 1 19
REMARK H PARENT
REMARK Flexibility Score: inf
ROOT
ATOM      1  C   UNL     1       5.785  11.059  49.144  1.00  0.00     0.032 C 
ENDROOT
BRANCH   1   2
ATOM      2  C   UNL     1       6.832  11.557  48.181  1.00  0.00    -0.028 C 
ATOM      3  C   UNL     1       6.761  11.421  46.837  1.00  0.00    -0.077 C 
ATOM      4  C   UNL     1       5.635  10.667  46.168  1.00  0.00     0.039 C 
BRANCH   3   5
ATOM      5  C   UNL     1       7.821  12.070  45.972  1.00  0.00     0.034 C 
BRANCH   5   6
ATOM      6  C   UNL     1       8.289  11.130  44.850  1.00  0.00     0.032 C 
BRANCH   6   7
ATOM      7  C   UNL     1       9.596  10.449  45.186  1.00  0.00    -0.028 C 
ATOM      8  C   UNL     1      11.078   8.669  45.997  1.00  0.00     0.039 C 
ATOM      9  C   UNL     1       9.707   9.184  45.644  1.00  0.00    -0.080 C 
ATOM     10  C   UNL     1       8.509   8.275  45.788  1.00  0.00     0.039 C 
ENDBRANCH   6   7
ENDBRANCH   5   6
ENDBRANCH   3   5
ENDBRANCH   1   2
BRANCH   1  11
ATOM     11  C   UNL     1       4.808  12.183  49.503  1.00  0.00     0.034 C 
BRANCH  11  12
ATOM     12  C   UNL     1       3.475  11.967  48.824  1.00  0.00    -0.077 C 
ATOM     13  C   UNL     1       2.750  10.869  49.135  1.00  0.00    -0.028 C 
ATOM     14  C   UNL     1       3.027  12.951  47.771  1.00  0.00     0.039 C 
BRANCH  13  15
ATOM     15  C   UNL     1       1.399  10.543  48.548  1.00  0.00     0.035 C 
BRANCH  15  16
ATOM     16  C   UNL     1       1.537   9.610  47.337  1.00  0.00     0.079 C 
BRANCH  16  17
ATOM     17  C   UNL     1       0.212   9.072  46.851  1.00  0.00     0.130 C 
ATOM     18  O   UNL     1       0.017   8.860  45.662  1.00  0.00    -0.300 OA
ATOM     19  C   UNL     1      -0.898   8.819  47.826  1.00  0.00     0.087 C 
ENDBRANCH  16  17
ENDBRANCH  15  16
ENDBRANCH  13  15
ENDBRANCH  11  12
ENDBRANCH   1  11
TORSDOF 9
ENDMDL
MODEL 7
REMARK VINA RESULT:    -4.573      7.892      9.731
REMARK INTER + INTRA:          -9.069
REMARK INTER:                  -7.284
REMARK INTRA:                  -1.785
REMARK UNBOUND:                -2.090
REMARK SMILES CC(=O)CCC=C(C)CCC=C(C)CCC=C(C)C
REMARK SMILES IDX 10 1 11 2 12 3 13 4 14 5 15 6 16 7 18 8 17 9 19 10 9 11 7 12
REMARK SMILES IDX 6 13 8 14 5 15 4 16 2 17 3 18 1 19
REMARK H PARENT
REMARK Flexibility Score: inf
ROOT
ATOM      1  C   UNL     1       7.011   4.741  53.007  1.00  0.00     0.032 C 
ENDROOT
BRANCH   1   2
ATOM      2  C   UNL     1       7.671   3.758  53.939  1.00  0.00    -0.028 C 
ATOM      3  C   UNL     1       7.243   2.491  54.143  1.00  0.00    -0.077 C 
ATOM      4  C   UNL     1       5.985   1.959  53.498  1.00  0.00     0.039 C 
BRANCH   3   5
ATOM      5  C   UNL     1       8.064   1.565  55.017  1.00  0.00     0.034 C 
BRANCH   5   6
ATOM      6  C   UNL     1       9.404   2.202  55.414  1.00  0.00     0.032 C 
BRANCH   6   7
ATOM      7  C   UNL     1      10.448   2.049  54.332  1.00  0.00    -0.028 C 
ATOM      8  C   UNL     1      12.198   2.749  52.759  1.00  0.00     0.039 C 
ATOM      9  C   UNL     1      11.250   3.043  53.893  1.00  0.00    -0.080 C 
ATOM     10  C   UNL     1      11.239   4.419  54.518  1.00  0.00     0.039 C 
ENDBRANCH   6   7
ENDBRANCH   5   6
ENDBRANCH   3   5
ENDBRANCH   1   2
BRANCH   1  11
ATOM     11  C   UNL     1       7.686   6.113  53.109  1.00  0.00     0.034 C 
BRANCH  11  12
ATOM     12  C   UNL     1       8.898   6.178  52.208  1.00  0.00    -0.077 C 
ATOM     13  C   UNL     1       9.183   5.122  51.413  1.00  0.00    -0.028 C 
ATOM     14  C   UNL     1       9.788   7.395  52.273  1.00  0.00     0.039 C 
BRANCH  13  15
ATOM     15  C   UNL     1      10.346   5.064  50.455  1.00  0.00     0.035 C 
BRANCH  15  16
ATOM     16  C   UNL     1       9.890   4.603  49.063  1.00  0.00     0.079 C 
BRANCH  16  17
ATOM     17  C   UNL     1       8.942   5.573  48.400  1.00  0.00     0.130 C 
ATOM     18  O   UNL     1       7.900   5.185  47.891  1.00  0.00    -0.300 OA
ATOM     19  C   UNL     1       9.286   7.030  48.331  1.00  0.00     0.087 C 
ENDBRANCH  16  17
ENDBRANCH  15  16
ENDBRANCH  13  15
ENDBRANCH  11  12
ENDBRANCH   1  11
TORSDOF 9
ENDMDL
MODEL 8
REMARK VINA RESULT:    -4.549     13.085     14.777
REMARK INTER + INTRA:          -9.032
REMARK INTER:                  -7.721
REMARK INTRA:                  -1.311
REMARK UNBOUND:                -2.090
REMARK SMILES CC(=O)CCC=C(C)CCC=C(C)CCC=C(C)C
REMARK SMILES IDX 10 1 11 2 12 3 13 4 14 5 15 6 16 7 18 8 17 9 19 10 9 11 7 12
REMARK SMILES IDX 6 13 8 14 5 15 4 16 2 17 3 18 1 19
REMARK H PARENT
REMARK Flexibility Score: inf
ROOT
ATOM      1  C   UNL     1       4.063  12.393  49.465  1.00  0.00     0.032 C 
ENDROOT
BRANCH   1   2
ATOM      2  C   UNL     1       2.952  11.741  48.684  1.00  0.00    -0.028 C 
ATOM      3  C   UNL     1       2.547  12.135  47.455  1.00  0.00    -0.077 C 
ATOM      4  C   UNL     1       3.135  13.348  46.771  1.00  0.00     0.039 C 
BRANCH   3   5
ATOM      5  C   UNL     1       1.498  11.322  46.726  1.00  0.00     0.034 C 
BRANCH   5   6
ATOM      6  C   UNL     1       1.568   9.836  47.108  1.00  0.00     0.032 C 
BRANCH   6   7
ATOM      7  C   UNL     1       0.345   9.389  47.876  1.00  0.00    -0.028 C 
ATOM      8  C   UNL     1      -1.938   8.553  48.209  1.00  0.00     0.039 C 
ATOM      9  C   UNL     1      -0.777   8.894  47.312  1.00  0.00    -0.080 C 
ATOM     10  C   UNL     1      -0.890   8.654  45.824  1.00  0.00     0.039 C 
ENDBRANCH   6   7
ENDBRANCH   5   6
ENDBRANCH   3   5
ENDBRANCH   1   2
BRANCH   1  11
ATOM     11  C   UNL     1       5.275  11.460  49.556  1.00  0.00     0.034 C 
BRANCH  11  12
ATOM     12  C   UNL     1       6.115  11.555  48.304  1.00  0.00    -0.077 C 
ATOM     13  C   UNL     1       6.357  10.433  47.588  1.00  0.00    -0.028 C 
ATOM     14  C   UNL     1       6.714  12.889  47.929  1.00  0.00     0.039 C 
BRANCH  13  15
ATOM     15  C   UNL     1       7.160  10.391  46.312  1.00  0.00     0.035 C 
BRANCH  15  16
ATOM     16  C   UNL     1       8.617   9.995  46.593  1.00  0.00     0.079 C 
BRANCH  16  17
ATOM     17  C   UNL     1       9.110   8.882  45.700  1.00  0.00     0.130 C 
ATOM     18  O   UNL     1       8.478   7.841  45.586  1.00  0.00    -0.300 OA
ATOM     19  C   UNL     1      10.406   9.030  44.962  1.00  0.00     0.087 C 
ENDBRANCH  16  17
ENDBRANCH  15  16
ENDBRANCH  13  15
ENDBRANCH  11  12
ENDBRANCH   1  11
TORSDOF 9
ENDMDL
MODEL 9
REMARK VINA RESULT:    -4.525     12.875     14.683
REMARK INTER + INTRA:          -8.995
REMARK INTER:                  -7.816
REMARK INTRA:                  -1.179
REMARK UNBOUND:                -2.090
REMARK SMILES CC(=O)CCC=C(C)CCC=C(C)CCC=C(C)C
REMARK SMILES IDX 10 1 11 2 12 3 13 4 14 5 15 6 16 7 18 8 17 9 19 10 9 11 7 12
REMARK SMILES IDX 6 13 8 14 5 15 4 16 2 17 3 18 1 19
REMARK H PARENT
REMARK Flexibility Score: inf
ROOT
ATOM      1  C   UNL     1       2.098  10.211  47.030  1.00  0.00     0.032 C 
ENDROOT
BRANCH   1   2
ATOM      2  C   UNL     1       0.974   9.252  47.326  1.00  0.00    -0.028 C 
ATOM      3  C   UNL     1      -0.316   9.618  47.508  1.00  0.00    -0.077 C 
ATOM      4  C   UNL     1      -0.743  11.068  47.509  1.00  0.00     0.039 C 
BRANCH   3   5
ATOM      5  C   UNL     1      -1.371   8.546  47.682  1.00  0.00     0.034 C 
BRANCH   5   6
ATOM      6  C   UNL     1      -2.332   8.497  46.485  1.00  0.00     0.032 C 
BRANCH   6   7
ATOM      7  C   UNL     1      -1.760   7.713  45.327  1.00  0.00    -0.028 C 
ATOM      8  C   UNL     1      -0.826   7.336  43.089  1.00  0.00     0.039 C 
ATOM      9  C   UNL     1      -1.308   8.258  44.178  1.00  0.00    -0.080 C 
ATOM     10  C   UNL     1      -1.252   9.753  43.968  1.00  0.00     0.039 C 
ENDBRANCH   6   7
ENDBRANCH   5   6
ENDBRANCH   3   5
ENDBRANCH   1   2
BRANCH   1  11
ATOM     11  C   UNL     1       2.666  10.789  48.330  1.00  0.00     0.034 C 
BRANCH  11  12
ATOM     12  C   UNL     1       4.131  11.124  48.169  1.00  0.00    -0.077 C 
ATOM     13  C   UNL     1       4.699  11.015  46.946  1.00  0.00    -0.028 C 
ATOM     14  C   UNL     1       4.929  11.505  49.392  1.00  0.00     0.039 C 
BRANCH  13  15
ATOM     15  C   UNL     1       6.141  11.337  46.643  1.00  0.00     0.035 C 
BRANCH  15  16
ATOM     16  C   UNL     1       6.638  10.538  45.429  1.00  0.00     0.079 C 
BRANCH  16  17
ATOM     17  C   UNL     1       8.058  10.048  45.585  1.00  0.00     0.130 C 
ATOM     18  O   UNL     1       9.006  10.763  45.290  1.00  0.00    -0.300 OA
ATOM     19  C   UNL     1       8.322   8.658  46.079  1.00  0.00     0.087 C 
ENDBRANCH  16  17
ENDBRANCH  15  16
ENDBRANCH  13  15
ENDBRANCH  11  12
ENDBRANCH   1  11
TORSDOF 9
ENDMDL
