MODEL 1
REMARK VINA RESULT:     6.779      0.000      0.000
REMARK INTER + INTRA:          12.346
REMARK INTER:                  13.120
REMARK INTRA:                  -0.773
REMARK UNBOUND:                -0.773
REMARK SMILES CCCCCCCCCCCCCCCCCC(=O)[O-]
REMARK SMILES IDX 10 1 11 2 12 3 13 4 14 5 15 6 16 7 17 8 18 9 19 10 20 11
REMARK SMILES IDX 9 12 8 13 7 14 6 15 5 16 4 17 3 18 2 19 1 20
REMARK H PARENT
REMARK Flexibility Score: inf
ROOT
ATOM      1  C   UNL     1     -13.423  61.861  -4.231  1.00  0.00     0.000 C 
ENDROOT
BRANCH   1   2
ATOM      2  C   UNL     1     -12.283  61.870  -5.265  1.00  0.00     0.000 C 
BRANCH   2   3
ATOM      3  C   UNL     1     -12.793  61.770  -6.711  1.00  0.00     0.000 C 
BRANCH   3   4
ATOM      4  C   UNL     1     -13.191  63.131  -7.301  1.00  0.00     0.000 C 
BRANCH   4   5
ATOM      5  C   UNL     1     -13.160  63.094  -8.833  1.00  0.00     0.000 C 
BRANCH   5   6
ATOM      6  C   UNL     1     -12.088  62.120  -9.341  1.00  0.00     0.000 C 
BRANCH   6   7
ATOM      7  C   UNL     1     -12.684  60.921 -10.095  1.00  0.00     0.006 C 
BRANCH   7   8
ATOM      8  C   UNL     1     -12.195  59.574  -9.546  1.00  0.00     0.053 C 
BRANCH   8   9
ATOM      9  C   UNL     1     -13.331  58.605  -9.442  1.00  0.00     0.041 C 
ATOM     10  O   UNL     1     -14.483  59.013  -9.141  1.00  0.00    -0.550 OA
ATOM     11  O   UNL     1     -13.111  57.248  -9.652  1.00  0.00    -0.550 OA
ENDBRANCH   8   9
ENDBRANCH   7   8
ENDBRANCH   6   7
ENDBRANCH   5   6
ENDBRANCH   4   5
ENDBRANCH   3   4
ENDBRANCH   2   3
ENDBRANCH   1   2
BRANCH   1  12
ATOM     12  C   UNL     1     -12.938  61.454  -2.830  1.00  0.00     0.000 C 
BRANCH  12  13
ATOM     13  C   UNL     1     -14.075  60.894  -1.957  1.00  0.00    -0.000 C 
BRANCH  13  14
ATOM     14  C   UNL     1     -15.294  61.829  -1.905  1.00  0.00    -0.000 C 
BRANCH  14  15
ATOM     15  C   UNL     1     -16.600  61.119  -2.308  1.00  0.00    -0.000 C 
BRANCH  15  16
ATOM     16  C   UNL     1     -17.826  62.052  -2.207  1.00  0.00    -0.000 C 
BRANCH  16  17
ATOM     17  C   UNL     1     -19.171  61.323  -2.371  1.00  0.00    -0.000 C 
BRANCH  17  18
ATOM     18  C   UNL     1     -20.334  62.051  -1.677  1.00  0.00    -0.000 C 
BRANCH  18  19
ATOM     19  C   UNL     1     -19.914  62.698  -0.349  1.00  0.00    -0.003 C 
ATOM     20  C   UNL     1     -19.960  64.226  -0.392  1.00  0.00     0.004 C 
ENDBRANCH  18  19
ENDBRANCH  17  18
ENDBRANCH  16  17
ENDBRANCH  15  16
ENDBRANCH  14  15
ENDBRANCH  13  14
ENDBRANCH  12  13
ENDBRANCH   1  12
TORSDOF 16
ENDMDL
MODEL 2
REMARK VINA RESULT:     7.474      4.240      8.852
REMARK INTER + INTRA:          13.692
REMARK INTER:                  14.536
REMARK INTRA:                  -0.844
REMARK UNBOUND:                -0.773
REMARK SMILES CCCCCCCCCCCCCCCCCC(=O)[O-]
REMARK SMILES IDX 10 1 11 2 12 3 13 4 14 5 15 6 16 7 17 8 18 9 19 10 20 11
REMARK SMILES IDX 9 12 8 13 7 14 6 15 5 16 4 17 3 18 2 19 1 20
REMARK H PARENT
REMARK Flexibility Score: inf
ROOT
ATOM      1  C   UNL     1     -13.480  61.853  -4.292  1.00  0.00     0.000 C 
ENDROOT
BRANCH   1   2
ATOM      2  C   UNL     1     -13.135  61.497  -2.835  1.00  0.00     0.000 C 
BRANCH   2   3
ATOM      3  C   UNL     1     -14.381  61.354  -1.947  1.00  0.00     0.000 C 
BRANCH   3   4
ATOM      4  C   UNL     1     -15.685  61.270  -2.756  1.00  0.00     0.000 C 
BRANCH   4   5
ATOM      5  C   UNL     1     -16.893  61.630  -1.884  1.00  0.00     0.000 C 
BRANCH   5   6
ATOM      6  C   UNL     1     -18.208  61.439  -2.655  1.00  0.00     0.000 C 
BRANCH   6   7
ATOM      7  C   UNL     1     -19.324  62.374  -2.165  1.00  0.00     0.006 C 
BRANCH   7   8
ATOM      8  C   UNL     1     -19.260  62.630  -0.653  1.00  0.00     0.053 C 
BRANCH   8   9
ATOM      9  C   UNL     1     -20.086  63.822  -0.285  1.00  0.00     0.041 C 
ATOM     10  O   UNL     1     -19.537  64.940  -0.104  1.00  0.00    -0.550 OA
ATOM     11  O   UNL     1     -21.461  63.692  -0.117  1.00  0.00    -0.550 OA
ENDBRANCH   8   9
ENDBRANCH   7   8
ENDBRANCH   6   7
ENDBRANCH   5   6
ENDBRANCH   4   5
ENDBRANCH   3   4
ENDBRANCH   2   3
ENDBRANCH   1   2
BRANCH   1  12
ATOM     12  C   UNL     1     -12.226  62.038  -5.161  1.00  0.00     0.000 C 
BRANCH  12  13
ATOM     13  C   UNL     1     -12.294  61.227  -6.467  1.00  0.00    -0.000 C 
BRANCH  13  14
ATOM     14  C   UNL     1     -11.973  62.076  -7.706  1.00  0.00    -0.000 C 
BRANCH  14  15
ATOM     15  C   UNL     1     -11.878  61.233  -8.992  1.00  0.00    -0.000 C 
BRANCH  15  16
ATOM     16  C   UNL     1     -12.765  61.794 -10.124  1.00  0.00    -0.000 C 
BRANCH  16  17
ATOM     17  C   UNL     1     -14.225  61.313 -10.059  1.00  0.00    -0.000 C 
BRANCH  17  18
ATOM     18  C   UNL     1     -15.235  62.472 -10.028  1.00  0.00    -0.000 C 
BRANCH  18  19
ATOM     19  C   UNL     1     -14.611  63.784  -9.529  1.00  0.00    -0.003 C 
ATOM     20  C   UNL     1     -14.661  63.924  -8.007  1.00  0.00     0.004 C 
ENDBRANCH  18  19
ENDBRANCH  17  18
ENDBRANCH  16  17
ENDBRANCH  15  16
ENDBRANCH  14  15
ENDBRANCH  13  14
ENDBRANCH  12  13
ENDBRANCH   1  12
TORSDOF 16
ENDMDL
MODEL 3
REMARK VINA RESULT:     7.588      3.361      8.714
REMARK INTER + INTRA:          13.912
REMARK INTER:                  14.801
REMARK INTRA:                  -0.889
REMARK UNBOUND:                -0.773
REMARK SMILES CCCCCCCCCCCCCCCCCC(=O)[O-]
REMARK SMILES IDX 10 1 11 2 12 3 13 4 14 5 15 6 16 7 17 8 18 9 19 10 20 11
REMARK SMILES IDX 9 12 8 13 7 14 6 15 5 16 4 17 3 18 2 19 1 20
REMARK H PARENT
REMARK Flexibility Score: inf
ROOT
ATOM      1  C   UNL     1     -14.259  62.572  -5.223  1.00  0.00     0.000 C 
ENDROOT
BRANCH   1   2
ATOM      2  C   UNL     1     -13.160  61.861  -4.411  1.00  0.00     0.000 C 
BRANCH   2   3
ATOM      3  C   UNL     1     -13.350  62.014  -2.894  1.00  0.00     0.000 C 
BRANCH   3   4
ATOM      4  C   UNL     1     -14.390  61.039  -2.320  1.00  0.00     0.000 C 
BRANCH   4   5
ATOM      5  C   UNL     1     -15.635  61.791  -1.837  1.00  0.00     0.000 C 
BRANCH   5   6
ATOM      6  C   UNL     1     -16.852  61.469  -2.717  1.00  0.00     0.000 C 
BRANCH   6   7
ATOM      7  C   UNL     1     -18.185  61.797  -2.028  1.00  0.00     0.006 C 
BRANCH   7   8
ATOM      8  C   UNL     1     -19.369  61.808  -3.006  1.00  0.00     0.053 C 
BRANCH   8   9
ATOM      9  C   UNL     1     -20.499  60.984  -2.474  1.00  0.00     0.041 C 
ATOM     10  O   UNL     1     -21.144  60.226  -3.243  1.00  0.00    -0.550 OA
ATOM     11  O   UNL     1     -20.856  61.075  -1.133  1.00  0.00    -0.550 OA
ENDBRANCH   8   9
ENDBRANCH   7   8
ENDBRANCH   6   7
ENDBRANCH   5   6
ENDBRANCH   4   5
ENDBRANCH   3   4
ENDBRANCH   2   3
ENDBRANCH   1   2
BRANCH   1  12
ATOM     12  C   UNL     1     -13.769  63.008  -6.613  1.00  0.00     0.000 C 
BRANCH  12  13
ATOM     13  C   UNL     1     -14.905  63.571  -7.484  1.00  0.00    -0.000 C 
BRANCH  13  14
ATOM     14  C   UNL     1     -14.640  63.392  -8.987  1.00  0.00    -0.000 C 
BRANCH  14  15
ATOM     15  C   UNL     1     -13.278  63.968  -9.419  1.00  0.00    -0.000 C 
BRANCH  15  16
ATOM     16  C   UNL     1     -12.397  62.914 -10.124  1.00  0.00    -0.000 C 
BRANCH  16  17
ATOM     17  C   UNL     1     -12.153  61.650  -9.280  1.00  0.00    -0.000 C 
BRANCH  17  18
ATOM     18  C   UNL     1     -12.109  60.367 -10.125  1.00  0.00    -0.000 C 
BRANCH  18  19
ATOM     19  C   UNL     1     -13.262  59.405  -9.795  1.00  0.00    -0.003 C 
ATOM     20  C   UNL     1     -12.803  58.175  -9.012  1.00  0.00     0.004 C 
ENDBRANCH  18  19
ENDBRANCH  17  18
ENDBRANCH  16  17
ENDBRANCH  15  16
ENDBRANCH  14  15
ENDBRANCH  13  14
ENDBRANCH  12  13
ENDBRANCH   1  12
TORSDOF 16
ENDMDL
MODEL 4
REMARK VINA RESULT:     7.637      3.887      8.857
REMARK INTER + INTRA:          14.008
REMARK INTER:                  14.618
REMARK INTRA:                  -0.610
REMARK UNBOUND:                -0.773
REMARK SMILES CCCCCCCCCCCCCCCCCC(=O)[O-]
REMARK SMILES IDX 10 1 11 2 12 3 13 4 14 5 15 6 16 7 17 8 18 9 19 10 20 11
REMARK SMILES IDX 9 12 8 13 7 14 6 15 5 16 4 17 3 18 2 19 1 20
REMARK H PARENT
REMARK Flexibility Score: inf
ROOT
ATOM      1  C   UNL     1     -13.670  61.873  -4.343  1.00  0.00     0.000 C 
ENDROOT
BRANCH   1   2
ATOM      2  C   UNL     1     -13.394  62.079  -2.842  1.00  0.00     0.000 C 
BRANCH   2   3
ATOM      3  C   UNL     1     -13.642  60.810  -2.013  1.00  0.00     0.000 C 
BRANCH   3   4
ATOM      4  C   UNL     1     -15.079  60.717  -1.476  1.00  0.00     0.000 C 
BRANCH   4   5
ATOM      5  C   UNL     1     -16.061  61.428  -2.415  1.00  0.00     0.000 C 
BRANCH   5   6
ATOM      6  C   UNL     1     -17.344  61.827  -1.673  1.00  0.00     0.000 C 
BRANCH   6   7
ATOM      7  C   UNL     1     -18.613  61.571  -2.501  1.00  0.00     0.006 C 
BRANCH   7   8
ATOM      8  C   UNL     1     -19.654  62.688  -2.349  1.00  0.00     0.053 C 
BRANCH   8   9
ATOM      9  C   UNL     1     -19.798  63.081  -0.912  1.00  0.00     0.041 C 
ATOM     10  O   UNL     1     -19.635  64.280  -0.566  1.00  0.00    -0.550 OA
ATOM     11  O   UNL     1     -20.086  62.117   0.049  1.00  0.00    -0.550 OA
ENDBRANCH   8   9
ENDBRANCH   7   8
ENDBRANCH   6   7
ENDBRANCH   5   6
ENDBRANCH   4   5
ENDBRANCH   3   4
ENDBRANCH   2   3
ENDBRANCH   1   2
BRANCH   1  12
ATOM     12  C   UNL     1     -12.381  61.871  -5.179  1.00  0.00     0.000 C 
BRANCH  12  13
ATOM     13  C   UNL     1     -12.662  61.955  -6.690  1.00  0.00    -0.000 C 
BRANCH  13  14
ATOM     14  C   UNL     1     -13.524  63.171  -7.063  1.00  0.00    -0.000 C 
BRANCH  14  15
ATOM     15  C   UNL     1     -13.654  63.358  -8.586  1.00  0.00    -0.000 C 
BRANCH  15  16
ATOM     16  C   UNL     1     -12.346  63.011  -9.329  1.00  0.00    -0.000 C 
BRANCH  16  17
ATOM     17  C   UNL     1     -12.419  61.696 -10.125  1.00  0.00    -0.000 C 
BRANCH  17  18
ATOM     18  C   UNL     1     -13.825  61.074 -10.123  1.00  0.00    -0.000 C 
BRANCH  18  19
ATOM     19  C   UNL     1     -13.807  59.579  -9.771  1.00  0.00    -0.003 C 
ATOM     20  C   UNL     1     -12.433  59.094  -9.309  1.00  0.00     0.004 C 
ENDBRANCH  18  19
ENDBRANCH  17  18
ENDBRANCH  16  17
ENDBRANCH  15  16
ENDBRANCH  14  15
ENDBRANCH  13  14
ENDBRANCH  12  13
ENDBRANCH   1  12
TORSDOF 16
ENDMDL
MODEL 5
REMARK VINA RESULT:     7.683      5.753      8.566
REMARK INTER + INTRA:          14.096
REMARK INTER:                  15.013
REMARK INTRA:                  -0.916
REMARK UNBOUND:                -0.773
REMARK SMILES CCCCCCCCCCCCCCCCCC(=O)[O-]
REMARK SMILES IDX 10 1 11 2 12 3 13 4 14 5 15 6 16 7 17 8 18 9 19 10 20 11
REMARK SMILES IDX 9 12 8 13 7 14 6 15 5 16 4 17 3 18 2 19 1 20
REMARK H PARENT
REMARK Flexibility Score: inf
ROOT
ATOM      1  C   UNL     1     -19.546  64.212  -0.375  1.00  0.00     0.000 C 
ENDROOT
BRANCH   1   2
ATOM      2  C   UNL     1     -18.024  64.366  -0.549  1.00  0.00     0.000 C 
BRANCH   2   3
ATOM      3  C   UNL     1     -17.563  65.829  -0.472  1.00  0.00     0.000 C 
BRANCH   3   4
ATOM      4  C   UNL     1     -16.768  66.272  -1.710  1.00  0.00     0.000 C 
BRANCH   4   5
ATOM      5  C   UNL     1     -15.493  67.020  -1.303  1.00  0.00     0.000 C 
BRANCH   5   6
ATOM      6  C   UNL     1     -15.152  68.123  -2.316  1.00  0.00     0.000 C 
BRANCH   6   7
ATOM      7  C   UNL     1     -14.157  69.153  -1.758  1.00  0.00     0.006 C 
BRANCH   7   8
ATOM      8  C   UNL     1     -12.707  68.853  -2.162  1.00  0.00     0.053 C 
BRANCH   8   9
ATOM      9  C   UNL     1     -12.133  67.773  -1.301  1.00  0.00     0.041 C 
ATOM     10  O   UNL     1     -11.875  66.643  -1.793  1.00  0.00    -0.550 OA
ATOM     11  O   UNL     1     -11.908  68.005   0.052  1.00  0.00    -0.550 OA
ENDBRANCH   8   9
ENDBRANCH   7   8
ENDBRANCH   6   7
ENDBRANCH   5   6
ENDBRANCH   4   5
ENDBRANCH   3   4
ENDBRANCH   2   3
ENDBRANCH   1   2
BRANCH   1  12
ATOM     12  C   UNL     1     -20.202  63.506  -1.573  1.00  0.00     0.000 C 
BRANCH  12  13
ATOM     13  C   UNL     1     -20.276  61.980  -1.384  1.00  0.00    -0.000 C 
BRANCH  13  14
ATOM     14  C   UNL     1     -19.716  61.209  -2.588  1.00  0.00    -0.000 C 
BRANCH  14  15
ATOM     15  C   UNL     1     -18.312  61.692  -2.998  1.00  0.00    -0.000 C 
BRANCH  15  16
ATOM     16  C   UNL     1     -17.261  61.428  -1.899  1.00  0.00    -0.000 C 
BRANCH  16  17
ATOM     17  C   UNL     1     -15.834  61.844  -2.297  1.00  0.00    -0.000 C 
BRANCH  17  18
ATOM     18  C   UNL     1     -14.814  60.704  -2.143  1.00  0.00    -0.000 C 
BRANCH  18  19
ATOM     19  C   UNL     1     -13.440  61.203  -1.669  1.00  0.00    -0.003 C 
ATOM     20  C   UNL     1     -12.743  60.218  -0.730  1.00  0.00     0.004 C 
ENDBRANCH  18  19
ENDBRANCH  17  18
ENDBRANCH  16  17
ENDBRANCH  15  16
ENDBRANCH  14  15
ENDBRANCH  13  14
ENDBRANCH  12  13
ENDBRANCH   1  12
TORSDOF 16
ENDMDL
MODEL 6
REMARK VINA RESULT:     7.745      4.558      8.021
REMARK INTER + INTRA:          14.216
REMARK INTER:                  15.002
REMARK INTRA:                  -0.787
REMARK UNBOUND:                -0.773
REMARK SMILES CCCCCCCCCCCCCCCCCC(=O)[O-]
REMARK SMILES IDX 10 1 11 2 12 3 13 4 14 5 15 6 16 7 17 8 18 9 19 10 20 11
REMARK SMILES IDX 9 12 8 13 7 14 6 15 5 16 4 17 3 18 2 19 1 20
REMARK H PARENT
REMARK Flexibility Score: inf
ROOT
ATOM      1  C   UNL     1     -18.477  64.480  -0.353  1.00  0.00     0.000 C 
ENDROOT
BRANCH   1   2
ATOM      2  C   UNL     1     -20.015  64.503  -0.293  1.00  0.00     0.000 C 
BRANCH   2   3
ATOM      3  C   UNL     1     -20.657  63.348  -1.078  1.00  0.00     0.000 C 
BRANCH   3   4
ATOM      4  C   UNL     1     -20.026  63.144  -2.464  1.00  0.00     0.000 C 
BRANCH   4   5
ATOM      5  C   UNL     1     -19.658  61.672  -2.686  1.00  0.00     0.000 C 
BRANCH   5   6
ATOM      6  C   UNL     1     -20.746  60.740  -2.134  1.00  0.00     0.000 C 
BRANCH   6   7
ATOM      7  C   UNL     1     -21.469  59.954  -3.238  1.00  0.00     0.006 C 
BRANCH   7   8
ATOM      8  C   UNL     1     -20.740  60.020  -4.586  1.00  0.00     0.053 C 
BRANCH   8   9
ATOM      9  C   UNL     1     -21.572  59.403  -5.666  1.00  0.00     0.041 C 
ATOM     10  O   UNL     1     -22.735  59.830  -5.890  1.00  0.00    -0.550 OA
ATOM     11  O   UNL     1     -21.074  58.336  -6.407  1.00  0.00    -0.550 OA
ENDBRANCH   8   9
ENDBRANCH   7   8
ENDBRANCH   6   7
ENDBRANCH   5   6
ENDBRANCH   4   5
ENDBRANCH   3   4
ENDBRANCH   2   3
ENDBRANCH   1   2
BRANCH   1  12
ATOM     12  C   UNL     1     -17.902  63.083  -0.070  1.00  0.00     0.000 C 
BRANCH  12  13
ATOM     13  C   UNL     1     -16.577  62.834  -0.812  1.00  0.00    -0.000 C 
BRANCH  13  14
ATOM     14  C   UNL     1     -16.659  61.647  -1.784  1.00  0.00    -0.000 C 
BRANCH  14  15
ATOM     15  C   UNL     1     -15.290  60.981  -2.019  1.00  0.00    -0.000 C 
BRANCH  15  16
ATOM     16  C   UNL     1     -14.428  61.763  -3.033  1.00  0.00    -0.000 C 
BRANCH  16  17
ATOM     17  C   UNL     1     -12.914  61.569  -2.833  1.00  0.00    -0.000 C 
BRANCH  17  18
ATOM     18  C   UNL     1     -12.523  61.402  -1.356  1.00  0.00    -0.000 C 
BRANCH  18  19
ATOM     19  C   UNL     1     -11.968  60.002  -1.048  1.00  0.00    -0.003 C 
ATOM     20  C   UNL     1     -12.774  59.267   0.023  1.00  0.00     0.004 C 
ENDBRANCH  18  19
ENDBRANCH  17  18
ENDBRANCH  16  17
ENDBRANCH  15  16
ENDBRANCH  14  15
ENDBRANCH  13  14
ENDBRANCH  12  13
ENDBRANCH   1  12
TORSDOF 16
ENDMDL
MODEL 7
REMARK VINA RESULT:     7.853      2.956      8.947
REMARK INTER + INTRA:          14.426
REMARK INTER:                  15.147
REMARK INTRA:                  -0.720
REMARK UNBOUND:                -0.773
REMARK SMILES CCCCCCCCCCCCCCCCCC(=O)[O-]
REMARK SMILES IDX 10 1 11 2 12 3 13 4 14 5 15 6 16 7 17 8 18 9 19 10 20 11
REMARK SMILES IDX 9 12 8 13 7 14 6 15 5 16 4 17 3 18 2 19 1 20
REMARK H PARENT
REMARK Flexibility Score: inf
ROOT
ATOM      1  C   UNL     1     -14.430  61.101  -2.717  1.00  0.00     0.000 C 
ENDROOT
BRANCH   1   2
ATOM      2  C   UNL     1     -15.083  61.573  -1.405  1.00  0.00     0.000 C 
BRANCH   2   3
ATOM      3  C   UNL     1     -16.568  61.928  -1.575  1.00  0.00     0.000 C 
BRANCH   3   4
ATOM      4  C   UNL     1     -16.967  63.206  -0.821  1.00  0.00     0.000 C 
BRANCH   4   5
ATOM      5  C   UNL     1     -18.265  62.994  -0.034  1.00  0.00     0.000 C 
BRANCH   5   6
ATOM      6  C   UNL     1     -19.340  64.006  -0.455  1.00  0.00     0.000 C 
BRANCH   6   7
ATOM      7  C   UNL     1     -20.506  63.353  -1.213  1.00  0.00     0.006 C 
BRANCH   7   8
ATOM      8  C   UNL     1     -20.473  61.821  -1.143  1.00  0.00     0.053 C 
BRANCH   8   9
ATOM      9  C   UNL     1     -20.242  61.236  -2.501  1.00  0.00     0.041 C 
ATOM     10  O   UNL     1     -21.030  60.367  -2.957  1.00  0.00    -0.550 OA
ATOM     11  O   UNL     1     -19.142  61.633  -3.253  1.00  0.00    -0.550 OA
ENDBRANCH   8   9
ENDBRANCH   7   8
ENDBRANCH   6   7
ENDBRANCH   5   6
ENDBRANCH   4   5
ENDBRANCH   3   4
ENDBRANCH   2   3
ENDBRANCH   1   2
BRANCH   1  12
ATOM     12  C   UNL     1     -13.101  61.820  -2.999  1.00  0.00     0.000 C 
BRANCH  12  13
ATOM     13  C   UNL     1     -12.448  61.350  -4.311  1.00  0.00    -0.000 C 
BRANCH  13  14
ATOM     14  C   UNL     1     -13.022  62.064  -5.544  1.00  0.00    -0.000 C 
BRANCH  14  15
ATOM     15  C   UNL     1     -12.184  61.817  -6.813  1.00  0.00    -0.000 C 
BRANCH  15  16
ATOM     16  C   UNL     1     -12.648  62.692  -7.997  1.00  0.00    -0.000 C 
BRANCH  16  17
ATOM     17  C   UNL     1     -12.386  62.056  -9.374  1.00  0.00    -0.000 C 
BRANCH  17  18
ATOM     18  C   UNL     1     -11.875  60.609  -9.276  1.00  0.00    -0.000 C 
BRANCH  18  19
ATOM     19  C   UNL     1     -12.896  59.587  -9.800  1.00  0.00    -0.003 C 
ATOM     20  C   UNL     1     -12.798  58.235  -9.093  1.00  0.00     0.004 C 
ENDBRANCH  18  19
ENDBRANCH  17  18
ENDBRANCH  16  17
ENDBRANCH  15  16
ENDBRANCH  14  15
ENDBRANCH  13  14
ENDBRANCH  12  13
ENDBRANCH   1  12
TORSDOF 16
ENDMDL
MODEL 8
REMARK VINA RESULT:     8.029      5.070      8.142
REMARK INTER + INTRA:          14.766
REMARK INTER:                  15.430
REMARK INTRA:                  -0.664
REMARK UNBOUND:                -0.773
REMARK SMILES CCCCCCCCCCCCCCCCCC(=O)[O-]
REMARK SMILES IDX 10 1 11 2 12 3 13 4 14 5 15 6 16 7 17 8 18 9 19 10 20 11
REMARK SMILES IDX 9 12 8 13 7 14 6 15 5 16 4 17 3 18 2 19 1 20
REMARK H PARENT
REMARK Flexibility Score: inf
ROOT
ATOM      1  C   UNL     1     -19.447  64.265  -0.717  1.00  0.00     0.000 C 
ENDROOT
BRANCH   1   2
ATOM      2  C   UNL     1     -19.883  62.856  -0.274  1.00  0.00     0.000 C 
BRANCH   2   3
ATOM      3  C   UNL     1     -20.286  61.961  -1.456  1.00  0.00     0.000 C 
BRANCH   3   4
ATOM      4  C   UNL     1     -19.388  62.155  -2.688  1.00  0.00     0.000 C 
BRANCH   4   5
ATOM      5  C   UNL     1     -18.184  61.208  -2.641  1.00  0.00     0.000 C 
BRANCH   5   6
ATOM      6  C   UNL     1     -17.016  61.837  -1.867  1.00  0.00     0.000 C 
BRANCH   6   7
ATOM      7  C   UNL     1     -15.651  61.534  -2.504  1.00  0.00     0.006 C 
BRANCH   7   8
ATOM      8  C   UNL     1     -14.824  60.535  -1.683  1.00  0.00     0.053 C 
BRANCH   8   9
ATOM      9  C   UNL     1     -13.389  60.956  -1.631  1.00  0.00     0.041 C 
ATOM     10  O   UNL     1     -12.637  60.525  -0.719  1.00  0.00    -0.550 OA
ATOM     11  O   UNL     1     -12.890  61.847  -2.575  1.00  0.00    -0.550 OA
ENDBRANCH   8   9
ENDBRANCH   7   8
ENDBRANCH   6   7
ENDBRANCH   5   6
ENDBRANCH   4   5
ENDBRANCH   3   4
ENDBRANCH   2   3
ENDBRANCH   1   2
BRANCH   1  12
ATOM     12  C   UNL     1     -17.939  64.495  -0.529  1.00  0.00     0.000 C 
BRANCH  12  13
ATOM     13  C   UNL     1     -17.547  65.974  -0.698  1.00  0.00    -0.000 C 
BRANCH  13  14
ATOM     14  C   UNL     1     -16.545  66.191  -1.842  1.00  0.00    -0.000 C 
BRANCH  14  15
ATOM     15  C   UNL     1     -15.387  67.126  -1.444  1.00  0.00    -0.000 C 
BRANCH  15  16
ATOM     16  C   UNL     1     -15.406  68.448  -2.241  1.00  0.00    -0.000 C 
BRANCH  16  17
ATOM     17  C   UNL     1     -14.008  68.930  -2.670  1.00  0.00    -0.000 C 
BRANCH  17  18
ATOM     18  C   UNL     1     -13.087  69.229  -1.476  1.00  0.00    -0.000 C 
BRANCH  18  19
ATOM     19  C   UNL     1     -11.906  68.250  -1.384  1.00  0.00    -0.003 C 
ATOM     20  C   UNL     1     -11.886  67.465  -0.072  1.00  0.00     0.004 C 
ENDBRANCH  18  19
ENDBRANCH  17  18
ENDBRANCH  16  17
ENDBRANCH  15  16
ENDBRANCH  14  15
ENDBRANCH  13  14
ENDBRANCH  12  13
ENDBRANCH   1  12
TORSDOF 16
ENDMDL
