MODEL 1
REMARK VINA RESULT:    -4.371      0.000      0.000
REMARK INTER + INTRA:         -10.082
REMARK INTER:                  -8.460
REMARK INTRA:                  -1.622
REMARK UNBOUND:                -1.622
REMARK SMILES CCCCCCCCCCCCCCCCCC(=O)[O-]
REMARK SMILES IDX 10 1 11 2 12 3 13 4 14 5 15 6 16 7 17 8 18 9 19 10 20 11
REMARK SMILES IDX 9 12 8 13 7 14 6 15 5 16 4 17 3 18 2 19 1 20
REMARK H PARENT
REMARK Flexibility Score: inf
ROOT
ATOM      1  C   UNL     1      17.332   3.224  -3.806  1.00  0.00     0.000 C 
ENDROOT
BRANCH   1   2
ATOM      2  C   UNL     1      18.804   3.676  -3.720  1.00  0.00     0.000 C 
BRANCH   2   3
ATOM      3  C   UNL     1      19.316   3.979  -2.298  1.00  0.00     0.000 C 
BRANCH   3   4
ATOM      4  C   UNL     1      18.864   5.329  -1.712  1.00  0.00     0.000 C 
BRANCH   4   5
ATOM      5  C   UNL     1      17.922   5.171  -0.507  1.00  0.00     0.000 C 
BRANCH   5   6
ATOM      6  C   UNL     1      18.309   6.073   0.679  1.00  0.00     0.000 C 
BRANCH   6   7
ATOM      7  C   UNL     1      18.734   5.330   1.962  1.00  0.00     0.006 C 
BRANCH   7   8
ATOM      8  C   UNL     1      18.312   3.853   2.015  1.00  0.00     0.053 C 
BRANCH   8   9
ATOM      9  C   UNL     1      17.360   3.582   3.140  1.00  0.00     0.041 C 
ATOM     10  O   UNL     1      16.636   2.552   3.123  1.00  0.00    -0.550 OA
ATOM     11  O   UNL     1      17.296   4.450   4.222  1.00  0.00    -0.550 OA
ENDBRANCH   8   9
ENDBRANCH   7   8
ENDBRANCH   6   7
ENDBRANCH   5   6
ENDBRANCH   4   5
ENDBRANCH   3   4
ENDBRANCH   2   3
ENDBRANCH   1   2
BRANCH   1  12
ATOM     12  C   UNL     1      17.106   1.897  -4.553  1.00  0.00     0.000 C 
BRANCH  12  13
ATOM     13  C   UNL     1      16.444   2.096  -5.928  1.00  0.00    -0.000 C 
BRANCH  13  14
ATOM     14  C   UNL     1      17.442   1.948  -7.088  1.00  0.00    -0.000 C 
BRANCH  14  15
ATOM     15  C   UNL     1      17.511   3.205  -7.971  1.00  0.00    -0.000 C 
BRANCH  15  16
ATOM     16  C   UNL     1      18.370   4.322  -7.340  1.00  0.00    -0.000 C 
BRANCH  16  17
ATOM     17  C   UNL     1      17.614   5.650  -7.143  1.00  0.00    -0.000 C 
BRANCH  17  18
ATOM     18  C   UNL     1      16.137   5.629  -7.578  1.00  0.00    -0.000 C 
BRANCH  18  19
ATOM     19  C   UNL     1      15.127   5.494  -6.423  1.00  0.00    -0.003 C 
ATOM     20  C   UNL     1      13.732   5.999  -6.788  1.00  0.00     0.004 C 
ENDBRANCH  18  19
ENDBRANCH  17  18
ENDBRANCH  16  17
ENDBRANCH  15  16
ENDBRANCH  14  15
ENDBRANCH  13  14
ENDBRANCH  12  13
ENDBRANCH   1  12
TORSDOF 16
ENDMDL
MODEL 2
REMARK VINA RESULT:    -4.371      1.402      2.767
REMARK INTER + INTRA:         -10.082
REMARK INTER:                  -8.939
REMARK INTRA:                  -1.143
REMARK UNBOUND:                -1.622
REMARK SMILES CCCCCCCCCCCCCCCCCC(=O)[O-]
REMARK SMILES IDX 10 1 11 2 12 3 13 4 14 5 15 6 16 7 17 8 18 9 19 10 20 11
REMARK SMILES IDX 9 12 8 13 7 14 6 15 5 16 4 17 3 18 2 19 1 20
REMARK H PARENT
REMARK Flexibility Score: inf
ROOT
ATOM      1  C   UNL     1      17.349   4.142  -1.212  1.00  0.00     0.000 C 
ENDROOT
BRANCH   1   2
ATOM      2  C   UNL     1      17.887   5.422  -0.541  1.00  0.00     0.000 C 
BRANCH   2   3
ATOM      3  C   UNL     1      18.900   5.192   0.598  1.00  0.00     0.000 C 
BRANCH   3   4
ATOM      4  C   UNL     1      18.752   6.131   1.809  1.00  0.00     0.000 C 
BRANCH   4   5
ATOM      5  C   UNL     1      19.538   5.649   3.039  1.00  0.00     0.000 C 
BRANCH   5   6
ATOM      6  C   UNL     1      18.961   4.360   3.652  1.00  0.00     0.000 C 
BRANCH   6   7
ATOM      7  C   UNL     1      17.430   4.208   3.545  1.00  0.00     0.006 C 
BRANCH   7   8
ATOM      8  C   UNL     1      16.938   2.757   3.422  1.00  0.00     0.053 C 
BRANCH   8   9
ATOM      9  C   UNL     1      16.796   2.333   1.992  1.00  0.00     0.041 C 
ATOM     10  O   UNL     1      15.703   2.500   1.388  1.00  0.00    -0.550 OA
ATOM     11  O   UNL     1      17.879   1.785   1.317  1.00  0.00    -0.550 OA
ENDBRANCH   8   9
ENDBRANCH   7   8
ENDBRANCH   6   7
ENDBRANCH   5   6
ENDBRANCH   4   5
ENDBRANCH   3   4
ENDBRANCH   2   3
ENDBRANCH   1   2
BRANCH   1  12
ATOM     12  C   UNL     1      18.384   3.368  -2.049  1.00  0.00     0.000 C 
BRANCH  12  13
ATOM     13  C   UNL     1      17.734   2.362  -3.015  1.00  0.00    -0.000 C 
BRANCH  13  14
ATOM     14  C   UNL     1      17.606   2.917  -4.443  1.00  0.00    -0.000 C 
BRANCH  14  15
ATOM     15  C   UNL     1      16.749   2.020  -5.351  1.00  0.00    -0.000 C 
BRANCH  15  16
ATOM     16  C   UNL     1      16.554   2.622  -6.760  1.00  0.00    -0.000 C 
BRANCH  16  17
ATOM     17  C   UNL     1      17.241   3.988  -6.951  1.00  0.00    -0.000 C 
BRANCH  17  18
ATOM     18  C   UNL     1      16.283   5.190  -7.052  1.00  0.00    -0.000 C 
BRANCH  18  19
ATOM     19  C   UNL     1      14.916   4.984  -6.373  1.00  0.00    -0.003 C 
ATOM     20  C   UNL     1      13.884   6.034  -6.779  1.00  0.00     0.004 C 
ENDBRANCH  18  19
ENDBRANCH  17  18
ENDBRANCH  16  17
ENDBRANCH  15  16
ENDBRANCH  14  15
ENDBRANCH  13  14
ENDBRANCH  12  13
ENDBRANCH   1  12
TORSDOF 16
ENDMDL
MODEL 3
REMARK VINA RESULT:    -4.369      1.544      2.659
REMARK INTER + INTRA:         -10.077
REMARK INTER:                  -8.311
REMARK INTRA:                  -1.767
REMARK UNBOUND:                -1.622
REMARK SMILES CCCCCCCCCCCCCCCCCC(=O)[O-]
REMARK SMILES IDX 10 1 11 2 12 3 13 4 14 5 15 6 16 7 17 8 18 9 19 10 20 11
REMARK SMILES IDX 9 12 8 13 7 14 6 15 5 16 4 17 3 18 2 19 1 20
REMARK H PARENT
REMARK Flexibility Score: inf
ROOT
ATOM      1  C   UNL     1      19.459   4.239  -3.448  1.00  0.00     0.000 C 
ENDROOT
BRANCH   1   2
ATOM      2  C   UNL     1      19.962   5.236  -2.384  1.00  0.00     0.000 C 
BRANCH   2   3
ATOM      3  C   UNL     1      19.510   4.940  -0.940  1.00  0.00     0.000 C 
BRANCH   3   4
ATOM      4  C   UNL     1      18.253   5.700  -0.477  1.00  0.00     0.000 C 
BRANCH   4   5
ATOM      5  C   UNL     1      18.352   6.185   0.979  1.00  0.00     0.000 C 
BRANCH   5   6
ATOM      6  C   UNL     1      18.709   5.056   1.963  1.00  0.00     0.000 C 
BRANCH   6   7
ATOM      7  C   UNL     1      17.525   4.485   2.769  1.00  0.00     0.006 C 
BRANCH   7   8
ATOM      8  C   UNL     1      17.281   2.981   2.569  1.00  0.00     0.053 C 
BRANCH   8   9
ATOM      9  C   UNL     1      16.743   2.678   1.204  1.00  0.00     0.041 C 
ATOM     10  O   UNL     1      17.512   2.258   0.299  1.00  0.00    -0.550 OA
ATOM     11  O   UNL     1      15.387   2.827   0.940  1.00  0.00    -0.550 OA
ENDBRANCH   8   9
ENDBRANCH   7   8
ENDBRANCH   6   7
ENDBRANCH   5   6
ENDBRANCH   4   5
ENDBRANCH   3   4
ENDBRANCH   2   3
ENDBRANCH   1   2
BRANCH   1  12
ATOM     12  C   UNL     1      19.206   2.812  -2.927  1.00  0.00     0.000 C 
BRANCH  12  13
ATOM     13  C   UNL     1      17.767   2.332  -3.187  1.00  0.00    -0.000 C 
BRANCH  13  14
ATOM     14  C   UNL     1      17.094   3.092  -4.341  1.00  0.00    -0.000 C 
BRANCH  14  15
ATOM     15  C   UNL     1      16.646   2.161  -5.480  1.00  0.00    -0.000 C 
BRANCH  15  16
ATOM     16  C   UNL     1      15.793   2.892  -6.539  1.00  0.00    -0.000 C 
BRANCH  16  17
ATOM     17  C   UNL     1      15.507   4.367  -6.195  1.00  0.00    -0.000 C 
BRANCH  17  18
ATOM     18  C   UNL     1      16.120   5.393  -7.166  1.00  0.00    -0.000 C 
BRANCH  18  19
ATOM     19  C   UNL     1      17.443   4.952  -7.820  1.00  0.00    -0.003 C 
ATOM     20  C   UNL     1      18.663   5.227  -6.943  1.00  0.00     0.004 C 
ENDBRANCH  18  19
ENDBRANCH  17  18
ENDBRANCH  16  17
ENDBRANCH  15  16
ENDBRANCH  14  15
ENDBRANCH  13  14
ENDBRANCH  12  13
ENDBRANCH   1  12
TORSDOF 16
ENDMDL
MODEL 4
REMARK VINA RESULT:    -4.335      1.628      2.182
REMARK INTER + INTRA:         -10.011
REMARK INTER:                  -7.789
REMARK INTRA:                  -2.221
REMARK UNBOUND:                -1.622
REMARK SMILES CCCCCCCCCCCCCCCCCC(=O)[O-]
REMARK SMILES IDX 10 1 11 2 12 3 13 4 14 5 15 6 16 7 17 8 18 9 19 10 20 11
REMARK SMILES IDX 9 12 8 13 7 14 6 15 5 16 4 17 3 18 2 19 1 20
REMARK H PARENT
REMARK Flexibility Score: inf
ROOT
ATOM      1  C   UNL     1      16.931   2.652  -4.482  1.00  0.00     0.000 C 
ENDROOT
BRANCH   1   2
ATOM      2  C   UNL     1      17.726   2.143  -3.262  1.00  0.00     0.000 C 
BRANCH   2   3
ATOM      3  C   UNL     1      19.000   2.943  -2.927  1.00  0.00     0.000 C 
BRANCH   3   4
ATOM      4  C   UNL     1      18.920   4.454  -3.215  1.00  0.00     0.000 C 
BRANCH   4   5
ATOM      5  C   UNL     1      19.933   5.271  -2.396  1.00  0.00     0.000 C 
BRANCH   5   6
ATOM      6  C   UNL     1      19.742   5.115  -0.877  1.00  0.00     0.000 C 
BRANCH   6   7
ATOM      7  C   UNL     1      18.327   5.435  -0.353  1.00  0.00     0.006 C 
BRANCH   7   8
ATOM      8  C   UNL     1      17.706   4.339   0.526  1.00  0.00     0.053 C 
BRANCH   8   9
ATOM      9  C   UNL     1      16.480   3.746  -0.100  1.00  0.00     0.041 C 
ATOM     10  O   UNL     1      15.880   2.793   0.463  1.00  0.00    -0.550 OA
ATOM     11  O   UNL     1      15.982   4.268  -1.287  1.00  0.00    -0.550 OA
ENDBRANCH   8   9
ENDBRANCH   7   8
ENDBRANCH   6   7
ENDBRANCH   5   6
ENDBRANCH   4   5
ENDBRANCH   3   4
ENDBRANCH   2   3
ENDBRANCH   1   2
BRANCH   1  12
ATOM     12  C   UNL     1      16.745   1.619  -5.608  1.00  0.00     0.000 C 
BRANCH  12  13
ATOM     13  C   UNL     1      17.430   2.041  -6.920  1.00  0.00    -0.000 C 
BRANCH  13  14
ATOM     14  C   UNL     1      18.799   2.699  -6.682  1.00  0.00    -0.000 C 
BRANCH  14  15
ATOM     15  C   UNL     1      18.826   4.176  -7.112  1.00  0.00    -0.000 C 
BRANCH  15  16
ATOM     16  C   UNL     1      18.091   4.414  -8.449  1.00  0.00    -0.000 C 
BRANCH  16  17
ATOM     17  C   UNL     1      16.823   5.278  -8.315  1.00  0.00    -0.000 C 
BRANCH  17  18
ATOM     18  C   UNL     1      16.413   5.613  -6.868  1.00  0.00    -0.000 C 
BRANCH  18  19
ATOM     19  C   UNL     1      15.035   5.070  -6.446  1.00  0.00    -0.003 C 
ATOM     20  C   UNL     1      13.886   6.007  -6.814  1.00  0.00     0.004 C 
ENDBRANCH  18  19
ENDBRANCH  17  18
ENDBRANCH  16  17
ENDBRANCH  15  16
ENDBRANCH  14  15
ENDBRANCH  13  14
ENDBRANCH  12  13
ENDBRANCH   1  12
TORSDOF 16
ENDMDL
MODEL 5
REMARK VINA RESULT:    -4.200      1.582      3.295
REMARK INTER + INTRA:          -9.751
REMARK INTER:                  -8.155
REMARK INTRA:                  -1.595
REMARK UNBOUND:                -1.622
REMARK SMILES CCCCCCCCCCCCCCCCCC(=O)[O-]
REMARK SMILES IDX 10 1 11 2 12 3 13 4 14 5 15 6 16 7 17 8 18 9 19 10 20 11
REMARK SMILES IDX 9 12 8 13 7 14 6 15 5 16 4 17 3 18 2 19 1 20
REMARK H PARENT
REMARK Flexibility Score: inf
ROOT
ATOM      1  C   UNL     1      16.965   4.588  -0.718  1.00  0.00     0.000 C 
ENDROOT
BRANCH   1   2
ATOM      2  C   UNL     1      18.287   5.374  -0.599  1.00  0.00     0.000 C 
BRANCH   2   3
ATOM      3  C   UNL     1      18.478   6.141   0.724  1.00  0.00     0.000 C 
BRANCH   3   4
ATOM      4  C   UNL     1      19.542   5.557   1.673  1.00  0.00     0.000 C 
BRANCH   4   5
ATOM      5  C   UNL     1      18.992   5.264   3.079  1.00  0.00     0.000 C 
BRANCH   5   6
ATOM      6  C   UNL     1      17.614   4.578   3.053  1.00  0.00     0.000 C 
BRANCH   6   7
ATOM      7  C   UNL     1      17.625   3.092   2.641  1.00  0.00     0.006 C 
BRANCH   7   8
ATOM      8  C   UNL     1      16.404   2.288   3.114  1.00  0.00     0.053 C 
BRANCH   8   9
ATOM      9  C   UNL     1      16.345   2.185   4.607  1.00  0.00     0.041 C 
ATOM     10  O   UNL     1      15.248   2.328   5.209  1.00  0.00    -0.550 OA
ATOM     11  O   UNL     1      17.494   1.898   5.332  1.00  0.00    -0.550 OA
ENDBRANCH   8   9
ENDBRANCH   7   8
ENDBRANCH   6   7
ENDBRANCH   5   6
ENDBRANCH   4   5
ENDBRANCH   3   4
ENDBRANCH   2   3
ENDBRANCH   1   2
BRANCH   1  12
ATOM     12  C   UNL     1      17.121   3.127  -1.177  1.00  0.00     0.000 C 
BRANCH  12  13
ATOM     13  C   UNL     1      18.588   2.742  -1.441  1.00  0.00    -0.000 C 
BRANCH  13  14
ATOM     14  C   UNL     1      18.849   2.401  -2.917  1.00  0.00    -0.000 C 
BRANCH  14  15
ATOM     15  C   UNL     1      17.754   2.944  -3.851  1.00  0.00    -0.000 C 
BRANCH  15  16
ATOM     16  C   UNL     1      17.166   1.850  -4.767  1.00  0.00    -0.000 C 
BRANCH  16  17
ATOM     17  C   UNL     1      16.265   2.398  -5.891  1.00  0.00    -0.000 C 
BRANCH  17  18
ATOM     18  C   UNL     1      16.187   3.935  -5.971  1.00  0.00    -0.000 C 
BRANCH  18  19
ATOM     19  C   UNL     1      14.788   4.494  -6.284  1.00  0.00    -0.003 C 
ATOM     20  C   UNL     1      14.806   5.977  -6.652  1.00  0.00     0.004 C 
ENDBRANCH  18  19
ENDBRANCH  17  18
ENDBRANCH  16  17
ENDBRANCH  15  16
ENDBRANCH  14  15
ENDBRANCH  13  14
ENDBRANCH  12  13
ENDBRANCH   1  12
TORSDOF 16
ENDMDL
MODEL 6
REMARK VINA RESULT:    -4.197      3.617      8.472
REMARK INTER + INTRA:          -9.744
REMARK INTER:                  -7.515
REMARK INTRA:                  -2.228
REMARK UNBOUND:                -1.622
REMARK SMILES CCCCCCCCCCCCCCCCCC(=O)[O-]
REMARK SMILES IDX 10 1 11 2 12 3 13 4 14 5 15 6 16 7 17 8 18 9 19 10 20 11
REMARK SMILES IDX 9 12 8 13 7 14 6 15 5 16 4 17 3 18 2 19 1 20
REMARK H PARENT
REMARK Flexibility Score: inf
ROOT
ATOM      1  C   UNL     1      16.952   4.357  -0.346  1.00  0.00     0.000 C 
ENDROOT
BRANCH   1   2
ATOM      2  C   UNL     1      17.077   3.034  -1.129  1.00  0.00     0.000 C 
BRANCH   2   3
ATOM      3  C   UNL     1      18.518   2.534  -1.349  1.00  0.00     0.000 C 
BRANCH   3   4
ATOM      4  C   UNL     1      18.970   2.462  -2.819  1.00  0.00     0.000 C 
BRANCH   4   5
ATOM      5  C   UNL     1      17.910   2.996  -3.797  1.00  0.00     0.000 C 
BRANCH   5   6
ATOM      6  C   UNL     1      17.188   1.877  -4.568  1.00  0.00     0.000 C 
BRANCH   6   7
ATOM      7  C   UNL     1      16.967   2.148  -6.070  1.00  0.00     0.006 C 
BRANCH   7   8
ATOM      8  C   UNL     1      15.610   2.782  -6.414  1.00  0.00     0.053 C 
BRANCH   8   9
ATOM      9  C   UNL     1      15.690   4.277  -6.474  1.00  0.00     0.041 C 
ATOM     10  O   UNL     1      16.806   4.847  -6.598  1.00  0.00    -0.550 OA
ATOM     11  O   UNL     1      14.530   5.040  -6.428  1.00  0.00    -0.550 OA
ENDBRANCH   8   9
ENDBRANCH   7   8
ENDBRANCH   6   7
ENDBRANCH   5   6
ENDBRANCH   4   5
ENDBRANCH   3   4
ENDBRANCH   2   3
ENDBRANCH   1   2
BRANCH   1  12
ATOM     12  C   UNL     1      18.059   5.386  -0.635  1.00  0.00     0.000 C 
BRANCH  12  13
ATOM     13  C   UNL     1      18.565   6.087   0.638  1.00  0.00    -0.000 C 
BRANCH  13  14
ATOM     14  C   UNL     1      17.999   5.456   1.921  1.00  0.00    -0.000 C 
BRANCH  14  15
ATOM     15  C   UNL     1      19.090   4.810   2.792  1.00  0.00    -0.000 C 
BRANCH  15  16
ATOM     16  C   UNL     1      19.566   3.453   2.230  1.00  0.00    -0.000 C 
BRANCH  16  17
ATOM     17  C   UNL     1      18.911   2.235   2.910  1.00  0.00    -0.000 C 
BRANCH  17  18
ATOM     18  C   UNL     1      17.677   1.669   2.182  1.00  0.00    -0.000 C 
BRANCH  18  19
ATOM     19  C   UNL     1      16.325   2.193   2.702  1.00  0.00    -0.003 C 
ATOM     20  C   UNL     1      16.355   2.552   4.186  1.00  0.00     0.004 C 
ENDBRANCH  18  19
ENDBRANCH  17  18
ENDBRANCH  16  17
ENDBRANCH  15  16
ENDBRANCH  14  15
ENDBRANCH  13  14
ENDBRANCH  12  13
ENDBRANCH   1  12
TORSDOF 16
ENDMDL
MODEL 7
REMARK VINA RESULT:    -4.145      1.448      3.804
REMARK INTER + INTRA:          -9.643
REMARK INTER:                  -7.992
REMARK INTRA:                  -1.651
REMARK UNBOUND:                -1.622
REMARK SMILES CCCCCCCCCCCCCCCCCC(=O)[O-]
REMARK SMILES IDX 10 1 11 2 12 3 13 4 14 5 15 6 16 7 17 8 18 9 19 10 20 11
REMARK SMILES IDX 9 12 8 13 7 14 6 15 5 16 4 17 3 18 2 19 1 20
REMARK H PARENT
REMARK Flexibility Score: inf
ROOT
ATOM      1  C   UNL     1      18.025   5.200  -0.355  1.00  0.00     0.000 C 
ENDROOT
BRANCH   1   2
ATOM      2  C   UNL     1      18.297   6.141   0.836  1.00  0.00     0.000 C 
BRANCH   2   3
ATOM      3  C   UNL     1      19.346   5.637   1.846  1.00  0.00     0.000 C 
BRANCH   3   4
ATOM      4  C   UNL     1      18.771   5.030   3.140  1.00  0.00     0.000 C 
BRANCH   4   5
ATOM      5  C   UNL     1      19.580   3.822   3.642  1.00  0.00     0.000 C 
BRANCH   5   6
ATOM      6  C   UNL     1      19.842   2.777   2.543  1.00  0.00     0.000 C 
BRANCH   6   7
ATOM      7  C   UNL     1      18.759   1.689   2.395  1.00  0.00     0.006 C 
BRANCH   7   8
ATOM      8  C   UNL     1      17.762   1.927   1.250  1.00  0.00     0.053 C 
BRANCH   8   9
ATOM      9  C   UNL     1      16.413   2.334   1.758  1.00  0.00     0.041 C 
ATOM     10  O   UNL     1      15.496   2.636   0.948  1.00  0.00    -0.550 OA
ATOM     11  O   UNL     1      16.156   2.347   3.123  1.00  0.00    -0.550 OA
ENDBRANCH   8   9
ENDBRANCH   7   8
ENDBRANCH   6   7
ENDBRANCH   5   6
ENDBRANCH   4   5
ENDBRANCH   3   4
ENDBRANCH   2   3
ENDBRANCH   1   2
BRANCH   1  12
ATOM     12  C   UNL     1      18.984   5.373  -1.547  1.00  0.00     0.000 C 
BRANCH  12  13
ATOM     13  C   UNL     1      18.906   4.204  -2.545  1.00  0.00    -0.000 C 
BRANCH  13  14
ATOM     14  C   UNL     1      17.831   3.175  -2.162  1.00  0.00    -0.000 C 
BRANCH  14  15
ATOM     15  C   UNL     1      17.459   2.247  -3.332  1.00  0.00    -0.000 C 
BRANCH  15  16
ATOM     16  C   UNL     1      17.580   2.949  -4.702  1.00  0.00    -0.000 C 
BRANCH  16  17
ATOM     17  C   UNL     1      16.756   2.278  -5.818  1.00  0.00    -0.000 C 
BRANCH  17  18
ATOM     18  C   UNL     1      15.640   3.154  -6.419  1.00  0.00    -0.000 C 
BRANCH  18  19
ATOM     19  C   UNL     1      15.946   4.663  -6.441  1.00  0.00    -0.003 C 
ATOM     20  C   UNL     1      14.689   5.526  -6.530  1.00  0.00     0.004 C 
ENDBRANCH  18  19
ENDBRANCH  17  18
ENDBRANCH  16  17
ENDBRANCH  15  16
ENDBRANCH  14  15
ENDBRANCH  13  14
ENDBRANCH  12  13
ENDBRANCH   1  12
TORSDOF 16
ENDMDL
MODEL 8
REMARK VINA RESULT:    -4.091      3.625      8.300
REMARK INTER + INTRA:          -9.540
REMARK INTER:                  -7.464
REMARK INTRA:                  -2.076
REMARK UNBOUND:                -1.622
REMARK SMILES CCCCCCCCCCCCCCCCCC(=O)[O-]
REMARK SMILES IDX 10 1 11 2 12 3 13 4 14 5 15 6 16 7 17 8 18 9 19 10 20 11
REMARK SMILES IDX 9 12 8 13 7 14 6 15 5 16 4 17 3 18 2 19 1 20
REMARK H PARENT
REMARK Flexibility Score: inf
ROOT
ATOM      1  C   UNL     1      17.850   5.169  -0.748  1.00  0.00     0.000 C 
ENDROOT
BRANCH   1   2
ATOM      2  C   UNL     1      19.243   4.532  -0.930  1.00  0.00     0.000 C 
BRANCH   2   3
ATOM      3  C   UNL     1      19.724   4.412  -2.390  1.00  0.00     0.000 C 
BRANCH   3   4
ATOM      4  C   UNL     1      19.950   2.973  -2.890  1.00  0.00     0.000 C 
BRANCH   4   5
ATOM      5  C   UNL     1      19.145   2.649  -4.159  1.00  0.00     0.000 C 
BRANCH   5   6
ATOM      6  C   UNL     1      18.100   3.728  -4.498  1.00  0.00     0.000 C 
BRANCH   6   7
ATOM      7  C   UNL     1      16.692   3.199  -4.838  1.00  0.00     0.006 C 
BRANCH   7   8
ATOM      8  C   UNL     1      16.273   3.391  -6.304  1.00  0.00     0.053 C 
BRANCH   8   9
ATOM      9  C   UNL     1      15.799   4.787  -6.573  1.00  0.00     0.041 C 
ATOM     10  O   UNL     1      14.614   5.116  -6.305  1.00  0.00    -0.550 OA
ATOM     11  O   UNL     1      16.676   5.732  -7.089  1.00  0.00    -0.550 OA
ENDBRANCH   8   9
ENDBRANCH   7   8
ENDBRANCH   6   7
ENDBRANCH   5   6
ENDBRANCH   4   5
ENDBRANCH   3   4
ENDBRANCH   2   3
ENDBRANCH   1   2
BRANCH   1  12
ATOM     12  C   UNL     1      16.668   4.256  -1.123  1.00  0.00     0.000 C 
BRANCH  12  13
ATOM     13  C   UNL     1      16.737   2.882  -0.432  1.00  0.00    -0.000 C 
BRANCH  13  14
ATOM     14  C   UNL     1      15.910   2.834   0.863  1.00  0.00    -0.000 C 
BRANCH  14  15
ATOM     15  C   UNL     1      16.693   2.232   2.042  1.00  0.00    -0.000 C 
BRANCH  15  16
ATOM     16  C   UNL     1      17.991   3.011   2.346  1.00  0.00    -0.000 C 
BRANCH  16  17
ATOM     17  C   UNL     1      17.749   4.422   2.917  1.00  0.00    -0.000 C 
BRANCH  17  18
ATOM     18  C   UNL     1      18.938   5.391   2.783  1.00  0.00    -0.000 C 
BRANCH  18  19
ATOM     19  C   UNL     1      19.685   5.682   4.098  1.00  0.00    -0.003 C 
ATOM     20  C   UNL     1      19.044   5.007   5.310  1.00  0.00     0.004 C 
ENDBRANCH  18  19
ENDBRANCH  17  18
ENDBRANCH  16  17
ENDBRANCH  15  16
ENDBRANCH  14  15
ENDBRANCH  13  14
ENDBRANCH  12  13
ENDBRANCH   1  12
TORSDOF 16
ENDMDL
MODEL 9
REMARK VINA RESULT:    -4.086      3.617      8.310
REMARK INTER + INTRA:          -9.530
REMARK INTER:                  -7.367
REMARK INTRA:                  -2.163
REMARK UNBOUND:                -1.622
REMARK SMILES CCCCCCCCCCCCCCCCCC(=O)[O-]
REMARK SMILES IDX 10 1 11 2 12 3 13 4 14 5 15 6 16 7 17 8 18 9 19 10 20 11
REMARK SMILES IDX 9 12 8 13 7 14 6 15 5 16 4 17 3 18 2 19 1 20
REMARK H PARENT
REMARK Flexibility Score: inf
ROOT
ATOM      1  C   UNL     1      18.538   5.717  -0.895  1.00  0.00     0.000 C 
ENDROOT
BRANCH   1   2
ATOM      2  C   UNL     1      18.996   4.923  -2.136  1.00  0.00     0.000 C 
BRANCH   2   3
ATOM      3  C   UNL     1      19.412   3.464  -1.864  1.00  0.00     0.000 C 
BRANCH   3   4
ATOM      4  C   UNL     1      18.423   2.395  -2.365  1.00  0.00     0.000 C 
BRANCH   4   5
ATOM      5  C   UNL     1      17.429   2.942  -3.403  1.00  0.00     0.000 C 
BRANCH   5   6
ATOM      6  C   UNL     1      17.167   1.958  -4.557  1.00  0.00     0.000 C 
BRANCH   6   7
ATOM      7  C   UNL     1      17.119   2.588  -5.964  1.00  0.00     0.006 C 
BRANCH   7   8
ATOM      8  C   UNL     1      17.486   4.080  -6.010  1.00  0.00     0.053 C 
BRANCH   8   9
ATOM      9  C   UNL     1      16.464   4.885  -6.754  1.00  0.00     0.041 C 
ATOM     10  O   UNL     1      16.783   5.488  -7.813  1.00  0.00    -0.550 OA
ATOM     11  O   UNL     1      15.154   4.941  -6.298  1.00  0.00    -0.550 OA
ENDBRANCH   8   9
ENDBRANCH   7   8
ENDBRANCH   6   7
ENDBRANCH   5   6
ENDBRANCH   4   5
ENDBRANCH   3   4
ENDBRANCH   2   3
ENDBRANCH   1   2
BRANCH   1  12
ATOM     12  C   UNL     1      19.244   5.331   0.416  1.00  0.00     0.000 C 
BRANCH  12  13
ATOM     13  C   UNL     1      18.548   5.913   1.660  1.00  0.00    -0.000 C 
BRANCH  13  14
ATOM     14  C   UNL     1      18.873   5.124   2.938  1.00  0.00    -0.000 C 
BRANCH  14  15
ATOM     15  C   UNL     1      17.619   4.526   3.598  1.00  0.00    -0.000 C 
BRANCH  15  16
ATOM     16  C   UNL     1      17.652   2.982   3.633  1.00  0.00    -0.000 C 
BRANCH  16  17
ATOM     17  C   UNL     1      18.426   2.351   2.459  1.00  0.00    -0.000 C 
BRANCH  17  18
ATOM     18  C   UNL     1      17.589   2.089   1.193  1.00  0.00    -0.000 C 
BRANCH  18  19
ATOM     19  C   UNL     1      16.131   2.581   1.270  1.00  0.00    -0.003 C 
ATOM     20  C   UNL     1      15.636   3.189  -0.041  1.00  0.00     0.004 C 
ENDBRANCH  18  19
ENDBRANCH  17  18
ENDBRANCH  16  17
ENDBRANCH  15  16
ENDBRANCH  14  15
ENDBRANCH  13  14
ENDBRANCH  12  13
ENDBRANCH   1  12
TORSDOF 16
ENDMDL
