MODEL 1
REMARK VINA RESULT:    37.186      0.000      0.000
REMARK INTER + INTRA:          40.855
REMARK INTER:                  40.446
REMARK INTRA:                   0.408
REMARK UNBOUND:                 0.408
REMARK SMILES CC(=O)[C@H]1CC[C@H]2[C@H]3CC=C4C[C@H](O)CC[C@]4(C)[C@H]3CC[C@@]12C
REMARK SMILES IDX 4 1 5 2 6 3 7 4 22 5 21 6 20 7 19 8 8 9 9 10 10 11 11 12
REMARK SMILES IDX 17 13 16 14 15 15 13 16 12 17 18 18 23 19 2 20 1 21 3 22
REMARK SMILES IDX 14 23
REMARK H PARENT 14 24
REMARK Flexibility Score: inf
ROOT
ATOM      1  C   UNL     1     -35.566  27.024   6.604  1.00  0.00     0.062 C 
ATOM      2  C   UNL     1     -36.931  27.461   7.135  1.00  0.00     0.012 C 
ATOM      3  C   UNL     1     -37.454  26.307   7.983  1.00  0.00     0.005 C 
ATOM      4  C   UNL     1     -36.512  25.108   7.766  1.00  0.00    -0.001 C 
ATOM      5  C   UNL     1     -35.583  25.470   6.575  1.00  0.00    -0.020 C 
ATOM      6  C   UNL     1     -36.113  24.858   5.229  1.00  0.00     0.008 C 
ATOM      7  C   UNL     1     -37.635  24.674   5.204  1.00  0.00     0.005 C 
ATOM      8  C   UNL     1     -38.128  23.657   6.284  1.00  0.00     0.003 C 
ATOM      9  C   UNL     1     -37.227  23.739   7.564  1.00  0.00     0.000 C 
ATOM     10  C   UNL     1     -37.922  23.238   8.827  1.00  0.00     0.031 C 
ATOM     11  C   UNL     1     -39.269  23.848   9.003  1.00  0.00    -0.027 C 
ATOM     12  C   UNL     1     -40.122  23.975   7.972  1.00  0.00    -0.065 C 
ATOM     13  C   UNL     1     -39.718  23.609   6.538  1.00  0.00    -0.008 C 
ATOM     14  C   UNL     1     -40.235  22.151   6.335  1.00  0.00     0.014 C 
ATOM     15  C   UNL     1     -41.728  21.946   6.700  1.00  0.00     0.033 C 
ATOM     16  C   UNL     1     -42.118  22.512   8.091  1.00  0.00     0.118 C 
ATOM     17  C   UNL     1     -41.599  23.946   8.298  1.00  0.00     0.063 C 
ATOM     18  C   UNL     1     -40.471  24.541   5.538  1.00  0.00     0.016 C 
ATOM     19  C   UNL     1     -34.155  24.927   6.825  1.00  0.00     0.012 C 
ENDROOT
BRANCH   1  20
ATOM     20  C   UNL     1     -35.112  27.699   5.317  1.00  0.00     0.133 C 
ATOM     21  C   UNL     1     -35.748  27.427   3.983  1.00  0.00     0.088 C 
ATOM     22  O   UNL     1     -34.204  28.509   5.370  1.00  0.00    -0.300 OA
ENDBRANCH   1  20
BRANCH  16  23
ATOM     23  O   UNL     1     -41.610  21.684   9.107  1.00  0.00    -0.393 OA
ATOM     24  H   UNL     1     -41.634  20.752   8.764  1.00  0.00     0.210 HD
ENDBRANCH  16  23
TORSDOF 2
ENDMDL
