MODEL 1
REMARK VINA RESULT:    -4.922      0.000      0.000
REMARK INTER + INTRA:          -6.566
REMARK INTER:                  -6.361
REMARK INTRA:                  -0.205
REMARK UNBOUND:                -0.205
REMARK SMILES C=CC(=O)CCCCC
REMARK SMILES IDX 6 1 7 2 8 3 9 4 5 5 3 6 4 7 2 8 1 9
REMARK H PARENT
REMARK Flexibility Score: inf
ROOT
ATOM      1  C   UNL     1     -16.812 -13.980  25.755  1.00  0.00     0.008 C 
ENDROOT
BRANCH   1   2
ATOM      2  C   UNL     1     -18.226 -14.358  25.286  1.00  0.00     0.000 C 
BRANCH   2   3
ATOM      3  C   UNL     1     -18.218 -15.429  24.186  1.00  0.00    -0.003 C 
ATOM      4  C   UNL     1     -19.633 -15.920  23.887  1.00  0.00     0.004 C 
ENDBRANCH   2   3
ENDBRANCH   1   2
BRANCH   1   5
ATOM      5  C   UNL     1     -15.715 -14.571  24.860  1.00  0.00     0.080 C 
BRANCH   5   6
ATOM      6  C   UNL     1     -14.900 -15.573  25.622  1.00  0.00     0.155 C 
ATOM      7  O   UNL     1     -15.340 -16.746  25.766  1.00  0.00    -0.295 OA
BRANCH   6   8
ATOM      8  C   UNL     1     -13.618 -15.171  26.235  1.00  0.00     0.039 C 
ATOM      9  C   UNL     1     -12.852 -16.024  26.914  1.00  0.00     0.012 C 
ENDBRANCH   6   8
ENDBRANCH   5   6
ENDBRANCH   1   5
TORSDOF 5
ENDMDL
MODEL 2
REMARK VINA RESULT:    -4.729      1.615      4.916
REMARK INTER + INTRA:          -6.317
REMARK INTER:                  -6.156
REMARK INTRA:                  -0.161
REMARK UNBOUND:                -0.205
REMARK SMILES C=CC(=O)CCCCC
REMARK SMILES IDX 6 1 7 2 8 3 9 4 5 5 3 6 4 7 2 8 1 9
REMARK H PARENT
REMARK Flexibility Score: inf
ROOT
ATOM      1  C   UNL     1     -15.678 -14.510  25.035  1.00  0.00     0.008 C 
ENDROOT
BRANCH   1   2
ATOM      2  C   UNL     1     -14.677 -14.639  26.194  1.00  0.00     0.000 C 
BRANCH   2   3
ATOM      3  C   UNL     1     -14.215 -16.085  26.418  1.00  0.00    -0.003 C 
ATOM      4  C   UNL     1     -12.730 -16.139  26.770  1.00  0.00     0.004 C 
ENDBRANCH   2   3
ENDBRANCH   1   2
BRANCH   1   5
ATOM      5  C   UNL     1     -16.540 -15.766  24.855  1.00  0.00     0.080 C 
BRANCH   5   6
ATOM      6  C   UNL     1     -17.958 -15.389  24.542  1.00  0.00     0.155 C 
ATOM      7  O   UNL     1     -18.453 -14.358  25.071  1.00  0.00    -0.295 OA
BRANCH   6   8
ATOM      8  C   UNL     1     -18.773 -16.247  23.658  1.00  0.00     0.039 C 
ATOM      9  C   UNL     1     -19.379 -15.778  22.569  1.00  0.00     0.012 C 
ENDBRANCH   6   8
ENDBRANCH   5   6
ENDBRANCH   1   5
TORSDOF 5
ENDMDL
MODEL 3
REMARK VINA RESULT:    -4.345     11.860     13.441
REMARK INTER + INTRA:          -5.819
REMARK INTER:                  -5.693
REMARK INTRA:                  -0.127
REMARK UNBOUND:                -0.205
REMARK SMILES C=CC(=O)CCCCC
REMARK SMILES IDX 6 1 7 2 8 3 9 4 5 5 3 6 4 7 2 8 1 9
REMARK H PARENT
REMARK Flexibility Score: inf
ROOT
ATOM      1  C   UNL     1     -20.089 -20.353  15.622  1.00  0.00     0.008 C 
ENDROOT
BRANCH   1   2
ATOM      2  C   UNL     1     -20.101 -21.536  16.603  1.00  0.00     0.000 C 
BRANCH   2   3
ATOM      3  C   UNL     1     -21.492 -22.170  16.748  1.00  0.00    -0.003 C 
ATOM      4  C   UNL     1     -22.306 -21.466  17.831  1.00  0.00     0.004 C 
ENDBRANCH   2   3
ENDBRANCH   1   2
BRANCH   1   5
ATOM      5  C   UNL     1     -20.074 -20.802  14.154  1.00  0.00     0.080 C 
BRANCH   5   6
ATOM      6  C   UNL     1     -20.624 -19.723  13.270  1.00  0.00     0.155 C 
ATOM      7  O   UNL     1     -21.195 -18.728  13.792  1.00  0.00    -0.295 OA
BRANCH   6   8
ATOM      8  C   UNL     1     -20.535 -19.853  11.802  1.00  0.00     0.039 C 
ATOM      9  C   UNL     1     -20.554 -18.799  10.988  1.00  0.00     0.012 C 
ENDBRANCH   6   8
ENDBRANCH   5   6
ENDBRANCH   1   5
TORSDOF 5
ENDMDL
MODEL 4
REMARK VINA RESULT:    -4.188     11.638     12.982
REMARK INTER + INTRA:          -5.617
REMARK INTER:                  -5.506
REMARK INTRA:                  -0.111
REMARK UNBOUND:                -0.205
REMARK SMILES C=CC(=O)CCCCC
REMARK SMILES IDX 6 1 7 2 8 3 9 4 5 5 3 6 4 7 2 8 1 9
REMARK H PARENT
REMARK Flexibility Score: inf
ROOT
ATOM      1  C   UNL     1     -20.126 -20.456  14.344  1.00  0.00     0.008 C 
ENDROOT
BRANCH   1   2
ATOM      2  C   UNL     1     -20.573 -19.395  13.326  1.00  0.00     0.000 C 
BRANCH   2   3
ATOM      3  C   UNL     1     -20.646 -19.942  11.894  1.00  0.00    -0.003 C 
ATOM      4  C   UNL     1     -20.576 -18.812  10.869  1.00  0.00     0.004 C 
ENDBRANCH   2   3
ENDBRANCH   1   2
BRANCH   1   5
ATOM      5  C   UNL     1     -20.757 -20.251  15.727  1.00  0.00     0.080 C 
BRANCH   5   6
ATOM      6  C   UNL     1     -20.463 -21.421  16.617  1.00  0.00     0.155 C 
ATOM      7  O   UNL     1     -19.323 -21.957  16.575  1.00  0.00    -0.295 OA
BRANCH   6   8
ATOM      8  C   UNL     1     -21.517 -21.965  17.497  1.00  0.00     0.039 C 
ATOM      9  C   UNL     1     -22.580 -21.251  17.863  1.00  0.00     0.012 C 
ENDBRANCH   6   8
ENDBRANCH   5   6
ENDBRANCH   1   5
TORSDOF 5
ENDMDL
MODEL 5
REMARK VINA RESULT:    -3.806      8.273      8.698
REMARK INTER + INTRA:          -5.123
REMARK INTER:                  -5.039
REMARK INTRA:                  -0.085
REMARK UNBOUND:                -0.205
REMARK SMILES C=CC(=O)CCCCC
REMARK SMILES IDX 6 1 7 2 8 3 9 4 5 5 3 6 4 7 2 8 1 9
REMARK H PARENT
REMARK Flexibility Score: inf
ROOT
ATOM      1  C   UNL     1     -14.911 -21.740  20.808  1.00  0.00     0.008 C 
ENDROOT
BRANCH   1   2
ATOM      2  C   UNL     1     -15.639 -21.556  22.149  1.00  0.00     0.000 C 
BRANCH   2   3
ATOM      3  C   UNL     1     -17.150 -21.348  21.978  1.00  0.00    -0.003 C 
ATOM      4  C   UNL     1     -17.780 -20.812  23.262  1.00  0.00     0.004 C 
ENDBRANCH   2   3
ENDBRANCH   1   2
BRANCH   1   5
ATOM      5  C   UNL     1     -13.390 -21.577  20.933  1.00  0.00     0.080 C 
BRANCH   5   6
ATOM      6  C   UNL     1     -12.687 -22.402  19.897  1.00  0.00     0.155 C 
ATOM      7  O   UNL     1     -13.319 -22.775  18.872  1.00  0.00    -0.295 OA
BRANCH   6   8
ATOM      8  C   UNL     1     -11.283 -22.808  20.103  1.00  0.00     0.039 C 
ATOM      9  C   UNL     1     -10.372 -22.751  19.133  1.00  0.00     0.012 C 
ENDBRANCH   6   8
ENDBRANCH   5   6
ENDBRANCH   1   5
TORSDOF 5
ENDMDL
MODEL 6
REMARK VINA RESULT:    -3.751      9.128     10.307
REMARK INTER + INTRA:          -5.052
REMARK INTER:                  -4.580
REMARK INTRA:                  -0.472
REMARK UNBOUND:                -0.205
REMARK SMILES C=CC(=O)CCCCC
REMARK SMILES IDX 6 1 7 2 8 3 9 4 5 5 3 6 4 7 2 8 1 9
REMARK H PARENT
REMARK Flexibility Score: inf
ROOT
ATOM      1  C   UNL     1     -11.310 -22.875  19.563  1.00  0.00     0.008 C 
ENDROOT
BRANCH   1   2
ATOM      2  C   UNL     1      -9.773 -22.853  19.530  1.00  0.00     0.000 C 
BRANCH   2   3
ATOM      3  C   UNL     1      -9.217 -22.437  18.161  1.00  0.00    -0.003 C 
ATOM      4  C   UNL     1      -9.961 -21.222  17.611  1.00  0.00     0.004 C 
ENDBRANCH   2   3
ENDBRANCH   1   2
BRANCH   1   5
ATOM      5  C   UNL     1     -11.873 -22.673  20.976  1.00  0.00     0.080 C 
BRANCH   5   6
ATOM      6  C   UNL     1     -12.330 -21.257  21.161  1.00  0.00     0.155 C 
ATOM      7  O   UNL     1     -13.499 -20.935  20.817  1.00  0.00    -0.295 OA
BRANCH   6   8
ATOM      8  C   UNL     1     -11.399 -20.245  21.700  1.00  0.00     0.039 C 
ATOM      9  C   UNL     1     -10.619 -19.502  20.916  1.00  0.00     0.012 C 
ENDBRANCH   6   8
ENDBRANCH   5   6
ENDBRANCH   1   5
TORSDOF 5
ENDMDL
MODEL 7
REMARK VINA RESULT:    -3.743      7.497      8.797
REMARK INTER + INTRA:          -5.043
REMARK INTER:                  -4.868
REMARK INTRA:                  -0.175
REMARK UNBOUND:                -0.205
REMARK SMILES C=CC(=O)CCCCC
REMARK SMILES IDX 6 1 7 2 8 3 9 4 5 5 3 6 4 7 2 8 1 9
REMARK H PARENT
REMARK Flexibility Score: inf
ROOT
ATOM      1  C   UNL     1     -14.743 -21.718  20.793  1.00  0.00     0.008 C 
ENDROOT
BRANCH   1   2
ATOM      2  C   UNL     1     -13.211 -21.805  20.710  1.00  0.00     0.000 C 
BRANCH   2   3
ATOM      3  C   UNL     1     -12.728 -22.549  19.457  1.00  0.00    -0.003 C 
ATOM      4  C   UNL     1     -11.241 -22.881  19.555  1.00  0.00     0.004 C 
ENDBRANCH   2   3
ENDBRANCH   1   2
BRANCH   1   5
ATOM      5  C   UNL     1     -15.297 -22.283  22.109  1.00  0.00     0.080 C 
BRANCH   5   6
ATOM      6  C   UNL     1     -15.890 -21.187  22.942  1.00  0.00     0.155 C 
ATOM      7  O   UNL     1     -15.178 -20.622  23.816  1.00  0.00    -0.295 OA
BRANCH   6   8
ATOM      8  C   UNL     1     -17.306 -20.809  22.768  1.00  0.00     0.039 C 
ATOM      9  C   UNL     1     -18.189 -21.603  22.164  1.00  0.00     0.012 C 
ENDBRANCH   6   8
ENDBRANCH   5   6
ENDBRANCH   1   5
TORSDOF 5
ENDMDL
MODEL 8
REMARK VINA RESULT:    -3.637      6.421      7.007
REMARK INTER + INTRA:          -4.905
REMARK INTER:                  -4.508
REMARK INTRA:                  -0.397
REMARK UNBOUND:                -0.205
REMARK SMILES C=CC(=O)CCCCC
REMARK SMILES IDX 6 1 7 2 8 3 9 4 5 5 3 6 4 7 2 8 1 9
REMARK H PARENT
REMARK Flexibility Score: inf
ROOT
ATOM      1  C   UNL     1     -15.270 -22.363  22.157  1.00  0.00     0.008 C 
ENDROOT
BRANCH   1   2
ATOM      2  C   UNL     1     -16.138 -21.221  21.605  1.00  0.00     0.000 C 
BRANCH   2   3
ATOM      3  C   UNL     1     -17.587 -21.284  22.105  1.00  0.00    -0.003 C 
ATOM      4  C   UNL     1     -17.729 -20.605  23.466  1.00  0.00     0.004 C 
ENDBRANCH   2   3
ENDBRANCH   1   2
BRANCH   1   5
ATOM      5  C   UNL     1     -13.979 -21.859  22.816  1.00  0.00     0.080 C 
BRANCH   5   6
ATOM      6  C   UNL     1     -14.248 -21.412  24.222  1.00  0.00     0.155 C 
ATOM      7  O   UNL     1     -14.281 -20.179  24.483  1.00  0.00    -0.295 OA
BRANCH   6   8
ATOM      8  C   UNL     1     -14.426 -22.412  25.295  1.00  0.00     0.039 C 
ATOM      9  C   UNL     1     -13.843 -23.609  25.260  1.00  0.00     0.012 C 
ENDBRANCH   6   8
ENDBRANCH   5   6
ENDBRANCH   1   5
TORSDOF 5
ENDMDL
MODEL 9
REMARK VINA RESULT:    -3.602      9.356     10.585
REMARK INTER + INTRA:          -4.860
REMARK INTER:                  -4.721
REMARK INTRA:                  -0.139
REMARK UNBOUND:                -0.205
REMARK SMILES C=CC(=O)CCCCC
REMARK SMILES IDX 6 1 7 2 8 3 9 4 5 5 3 6 4 7 2 8 1 9
REMARK H PARENT
REMARK Flexibility Score: inf
ROOT
ATOM      1  C   UNL     1     -11.447 -22.356  19.384  1.00  0.00     0.008 C 
ENDROOT
BRANCH   1   2
ATOM      2  C   UNL     1     -10.014 -22.857  19.625  1.00  0.00     0.000 C 
BRANCH   2   3
ATOM      3  C   UNL     1      -9.060 -22.493  18.478  1.00  0.00    -0.003 C 
ATOM      4  C   UNL     1      -9.653 -21.397  17.596  1.00  0.00     0.004 C 
ENDBRANCH   2   3
ENDBRANCH   1   2
BRANCH   1   5
ATOM      5  C   UNL     1     -12.251 -22.218  20.684  1.00  0.00     0.080 C 
BRANCH   5   6
ATOM      6  C   UNL     1     -13.717 -22.120  20.386  1.00  0.00     0.155 C 
ATOM      7  O   UNL     1     -14.144 -22.493  19.260  1.00  0.00    -0.295 OA
BRANCH   6   8
ATOM      8  C   UNL     1     -14.639 -21.549  21.388  1.00  0.00     0.039 C 
ATOM      9  C   UNL     1     -14.846 -22.118  22.575  1.00  0.00     0.012 C 
ENDBRANCH   6   8
ENDBRANCH   5   6
ENDBRANCH   1   5
TORSDOF 5
ENDMDL
