MODEL 1
REMARK VINA RESULT:    -5.557      0.000      0.000
REMARK INTER + INTRA:          -6.241
REMARK INTER:                  -6.045
REMARK INTRA:                  -0.196
REMARK UNBOUND:                -0.196
REMARK SMILES Cc1ccc(C(C)C)c(O)c1
REMARK SMILES IDX 1 1 2 2 11 3 9 4 5 5 4 6 3 7 10 8 6 10 7 11 8 12
REMARK H PARENT 10 9
REMARK Flexibility Score: inf
ROOT
ATOM      1  C   UNL     1     -10.990  -4.457 -11.091  1.00  0.00     0.044 C 
ATOM      2  C   UNL     1     -10.930  -4.709  -9.613  1.00  0.00    -0.047 A 
ATOM      3  C   UNL     1     -10.993  -3.639  -8.712  1.00  0.00     0.049 A 
ATOM      4  C   UNL     1     -10.900  -3.859  -7.330  1.00  0.00     0.119 A 
ATOM      5  C   UNL     1     -10.730  -5.174  -6.834  1.00  0.00    -0.004 A 
ATOM      6  C   UNL     1     -10.649  -6.238  -7.752  1.00  0.00     0.008 A 
ATOM      7  C   UNL     1     -10.742  -6.006  -9.126  1.00  0.00     0.004 A 
ENDROOT
BRANCH   4   8
ATOM      8  O   UNL     1     -10.975  -2.774  -6.458  1.00  0.00    -0.508 OA
ATOM      9  H   UNL     1     -10.605  -2.820  -5.516  1.00  0.00     0.293 HD
ENDBRANCH   4   8
BRANCH   5  10
ATOM     10  C   UNL     1     -10.623  -5.479  -5.345  1.00  0.00     0.017 C 
ATOM     11  C   UNL     1     -12.000  -5.722  -4.714  1.00  0.00     0.012 C 
ATOM     12  C   UNL     1      -9.663  -6.643  -5.069  1.00  0.00     0.012 C 
ENDBRANCH   5  10
TORSDOF 2
ENDMDL
MODEL 2
REMARK VINA RESULT:    -5.137      1.723      4.512
REMARK INTER + INTRA:          -5.783
REMARK INTER:                  -5.632
REMARK INTRA:                  -0.151
REMARK UNBOUND:                -0.196
REMARK SMILES Cc1ccc(C(C)C)c(O)c1
REMARK SMILES IDX 1 1 2 2 11 3 9 4 5 5 4 6 3 7 10 8 6 10 7 11 8 12
REMARK H PARENT 10 9
REMARK Flexibility Score: inf
ROOT
ATOM      1  C   UNL     1     -12.603  -5.492  -4.054  1.00  0.00     0.044 C 
ATOM      2  C   UNL     1     -12.162  -5.254  -5.468  1.00  0.00    -0.047 A 
ATOM      3  C   UNL     1     -11.098  -5.988  -6.009  1.00  0.00     0.049 A 
ATOM      4  C   UNL     1     -10.652  -5.746  -7.317  1.00  0.00     0.119 A 
ATOM      5  C   UNL     1     -11.272  -4.744  -8.100  1.00  0.00    -0.004 A 
ATOM      6  C   UNL     1     -12.327  -4.000  -7.538  1.00  0.00     0.008 A 
ATOM      7  C   UNL     1     -12.761  -4.249  -6.234  1.00  0.00     0.004 A 
ENDROOT
BRANCH   4   8
ATOM      8  O   UNL     1      -9.598  -6.500  -7.829  1.00  0.00    -0.508 OA
ATOM      9  H   UNL     1      -9.408  -7.441  -7.505  1.00  0.00     0.293 HD
ENDBRANCH   4   8
BRANCH   5  10
ATOM     10  C   UNL     1     -10.835  -4.435  -9.527  1.00  0.00     0.017 C 
ATOM     11  C   UNL     1     -11.367  -5.472 -10.523  1.00  0.00     0.012 C 
ATOM     12  C   UNL     1     -11.215  -3.008  -9.943  1.00  0.00     0.012 C 
ENDBRANCH   5  10
TORSDOF 2
ENDMDL
MODEL 3
REMARK VINA RESULT:    -4.962      2.068      2.935
REMARK INTER + INTRA:          -5.593
REMARK INTER:                  -5.439
REMARK INTRA:                  -0.154
REMARK UNBOUND:                -0.196
REMARK SMILES Cc1ccc(C(C)C)c(O)c1
REMARK SMILES IDX 1 1 2 2 11 3 9 4 5 5 4 6 3 7 10 8 6 10 7 11 8 12
REMARK H PARENT 10 9
REMARK Flexibility Score: inf
ROOT
ATOM      1  C   UNL     1     -10.771  -3.956  -9.381  1.00  0.00     0.044 C 
ATOM      2  C   UNL     1     -11.260  -4.601  -8.118  1.00  0.00    -0.047 A 
ATOM      3  C   UNL     1     -10.775  -5.857  -7.734  1.00  0.00     0.049 A 
ATOM      4  C   UNL     1     -11.254  -6.486  -6.574  1.00  0.00     0.119 A 
ATOM      5  C   UNL     1     -12.246  -5.855  -5.786  1.00  0.00    -0.004 A 
ATOM      6  C   UNL     1     -12.738  -4.601  -6.195  1.00  0.00     0.008 A 
ATOM      7  C   UNL     1     -12.255  -3.985  -7.352  1.00  0.00     0.004 A 
ENDROOT
BRANCH   4   8
ATOM      8  O   UNL     1     -10.745  -7.732  -6.213  1.00  0.00    -0.508 OA
ATOM      9  H   UNL     1     -11.336  -8.458  -5.826  1.00  0.00     0.293 HD
ENDBRANCH   4   8
BRANCH   5  10
ATOM     10  C   UNL     1     -12.805  -6.485  -4.517  1.00  0.00     0.017 C 
ATOM     11  C   UNL     1     -13.372  -5.430  -3.559  1.00  0.00     0.012 C 
ATOM     12  C   UNL     1     -13.839  -7.575  -4.830  1.00  0.00     0.012 C 
ENDBRANCH   5  10
TORSDOF 2
ENDMDL
MODEL 4
REMARK VINA RESULT:    -4.889      1.156      4.073
REMARK INTER + INTRA:          -5.514
REMARK INTER:                  -5.387
REMARK INTRA:                  -0.127
REMARK UNBOUND:                -0.196
REMARK SMILES Cc1ccc(C(C)C)c(O)c1
REMARK SMILES IDX 1 1 2 2 11 3 9 4 5 5 4 6 3 7 10 8 6 10 7 11 8 12
REMARK H PARENT 10 9
REMARK Flexibility Score: inf
ROOT
ATOM      1  C   UNL     1      -9.627  -6.410  -4.793  1.00  0.00     0.044 C 
ATOM      2  C   UNL     1     -10.144  -5.779  -6.051  1.00  0.00    -0.047 A 
ATOM      3  C   UNL     1     -11.212  -4.875  -6.000  1.00  0.00     0.049 A 
ATOM      4  C   UNL     1     -11.729  -4.309  -7.175  1.00  0.00     0.119 A 
ATOM      5  C   UNL     1     -11.177  -4.659  -8.430  1.00  0.00    -0.004 A 
ATOM      6  C   UNL     1     -10.116  -5.583  -8.468  1.00  0.00     0.008 A 
ATOM      7  C   UNL     1      -9.611  -6.142  -7.293  1.00  0.00     0.004 A 
ENDROOT
BRANCH   4   8
ATOM      8  O   UNL     1     -12.787  -3.404  -7.090  1.00  0.00    -0.508 OA
ATOM      9  H   UNL     1     -13.228  -3.182  -6.205  1.00  0.00     0.293 HD
ENDBRANCH   4   8
BRANCH   5  10
ATOM     10  C   UNL     1     -11.693  -4.078  -9.741  1.00  0.00     0.017 C 
ATOM     11  C   UNL     1     -11.242  -2.625  -9.936  1.00  0.00     0.012 C 
ATOM     12  C   UNL     1     -11.310  -4.953 -10.941  1.00  0.00     0.012 C 
ENDBRANCH   5  10
TORSDOF 2
ENDMDL
MODEL 5
REMARK VINA RESULT:    -4.817      1.667      2.418
REMARK INTER + INTRA:          -5.435
REMARK INTER:                  -5.240
REMARK INTRA:                  -0.195
REMARK UNBOUND:                -0.196
REMARK SMILES Cc1ccc(C(C)C)c(O)c1
REMARK SMILES IDX 1 1 2 2 11 3 9 4 5 5 4 6 3 7 10 8 6 10 7 11 8 12
REMARK H PARENT 10 9
REMARK Flexibility Score: inf
ROOT
ATOM      1  C   UNL     1     -10.763  -4.405 -10.771  1.00  0.00     0.044 C 
ATOM      2  C   UNL     1     -10.905  -4.686  -9.305  1.00  0.00    -0.047 A 
ATOM      3  C   UNL     1     -10.704  -5.982  -8.812  1.00  0.00     0.049 A 
ATOM      4  C   UNL     1     -10.872  -6.263  -7.447  1.00  0.00     0.119 A 
ATOM      5  C   UNL     1     -11.258  -5.234  -6.556  1.00  0.00    -0.004 A 
ATOM      6  C   UNL     1     -11.475  -3.941  -7.068  1.00  0.00     0.008 A 
ATOM      7  C   UNL     1     -11.306  -3.672  -8.428  1.00  0.00     0.004 A 
ENDROOT
BRANCH   4   8
ATOM      8  O   UNL     1     -10.656  -7.560  -6.986  1.00  0.00    -0.508 OA
ATOM      9  H   UNL     1      -9.892  -8.129  -7.332  1.00  0.00     0.293 HD
ENDBRANCH   4   8
BRANCH   5  10
ATOM     10  C   UNL     1     -11.455  -5.476  -5.065  1.00  0.00     0.017 C 
ATOM     11  C   UNL     1     -10.732  -4.422  -4.217  1.00  0.00     0.012 C 
ATOM     12  C   UNL     1     -12.941  -5.574  -4.695  1.00  0.00     0.012 C 
ENDBRANCH   5  10
TORSDOF 2
ENDMDL
MODEL 6
REMARK VINA RESULT:    -4.389      1.378      4.252
REMARK INTER + INTRA:          -4.969
REMARK INTER:                  -4.996
REMARK INTRA:                   0.027
REMARK UNBOUND:                -0.196
REMARK SMILES Cc1ccc(C(C)C)c(O)c1
REMARK SMILES IDX 1 1 2 2 11 3 9 4 5 5 4 6 3 7 10 8 6 10 7 11 8 12
REMARK H PARENT 10 9
REMARK Flexibility Score: inf
ROOT
ATOM      1  C   UNL     1     -13.761  -6.115  -3.306  1.00  0.00     0.044 C 
ATOM      2  C   UNL     1     -12.910  -5.735  -4.482  1.00  0.00    -0.047 A 
ATOM      3  C   UNL     1     -12.615  -4.389  -4.733  1.00  0.00     0.049 A 
ATOM      4  C   UNL     1     -11.852  -4.020  -5.851  1.00  0.00     0.119 A 
ATOM      5  C   UNL     1     -11.383  -5.012  -6.745  1.00  0.00    -0.004 A 
ATOM      6  C   UNL     1     -11.704  -6.358  -6.491  1.00  0.00     0.008 A 
ATOM      7  C   UNL     1     -12.465  -6.714  -5.375  1.00  0.00     0.004 A 
ENDROOT
BRANCH   4   8
ATOM      8  O   UNL     1     -11.567  -2.673  -6.069  1.00  0.00    -0.508 OA
ATOM      9  H   UNL     1     -11.286  -2.059  -5.313  1.00  0.00     0.293 HD
ENDBRANCH   4   8
BRANCH   5  10
ATOM     10  C   UNL     1     -10.550  -4.675  -7.976  1.00  0.00     0.017 C 
ATOM     11  C   UNL     1     -10.005  -5.936  -8.657  1.00  0.00     0.012 C 
ATOM     12  C   UNL     1     -11.324  -3.792  -8.963  1.00  0.00     0.012 C 
ENDBRANCH   5  10
TORSDOF 2
ENDMDL
MODEL 7
REMARK VINA RESULT:    -4.338      6.259      7.253
REMARK INTER + INTRA:          -4.914
REMARK INTER:                  -4.722
REMARK INTRA:                  -0.191
REMARK UNBOUND:                -0.196
REMARK SMILES Cc1ccc(C(C)C)c(O)c1
REMARK SMILES IDX 1 1 2 2 11 3 9 4 5 5 4 6 3 7 10 8 6 10 7 11 8 12
REMARK H PARENT 10 9
REMARK Flexibility Score: inf
ROOT
ATOM      1  C   UNL     1      -4.745 -10.931  -6.745  1.00  0.00     0.044 C 
ATOM      2  C   UNL     1      -6.188 -10.954  -6.337  1.00  0.00    -0.047 A 
ATOM      3  C   UNL     1      -6.667 -10.045  -5.385  1.00  0.00     0.049 A 
ATOM      4  C   UNL     1      -8.006 -10.083  -4.967  1.00  0.00     0.119 A 
ATOM      5  C   UNL     1      -8.885 -11.055  -5.501  1.00  0.00    -0.004 A 
ATOM      6  C   UNL     1      -8.386 -11.975  -6.442  1.00  0.00     0.008 A 
ATOM      7  C   UNL     1      -7.051 -11.929  -6.850  1.00  0.00     0.004 A 
ENDROOT
BRANCH   4   8
ATOM      8  O   UNL     1      -8.454  -9.158  -4.026  1.00  0.00    -0.508 OA
ATOM      9  H   UNL     1      -8.108  -8.206  -4.007  1.00  0.00     0.293 HD
ENDBRANCH   4   8
BRANCH   5  10
ATOM     10  C   UNL     1     -10.349 -11.147  -5.089  1.00  0.00     0.017 C 
ATOM     11  C   UNL     1     -11.290 -10.799  -6.249  1.00  0.00     0.012 C 
ATOM     12  C   UNL     1     -10.685 -12.515  -4.482  1.00  0.00     0.012 C 
ENDBRANCH   5  10
TORSDOF 2
ENDMDL
MODEL 8
REMARK VINA RESULT:    -4.287      4.288      5.857
REMARK INTER + INTRA:          -4.858
REMARK INTER:                  -4.664
REMARK INTRA:                  -0.194
REMARK UNBOUND:                -0.196
REMARK SMILES Cc1ccc(C(C)C)c(O)c1
REMARK SMILES IDX 1 1 2 2 11 3 9 4 5 5 4 6 3 7 10 8 6 10 7 11 8 12
REMARK H PARENT 10 9
REMARK Flexibility Score: inf
ROOT
ATOM      1  C   UNL     1     -10.090  -5.880  -5.680  1.00  0.00     0.044 C 
ATOM      2  C   UNL     1     -10.037  -7.370  -5.515  1.00  0.00    -0.047 A 
ATOM      3  C   UNL     1      -8.876  -7.986  -5.032  1.00  0.00     0.049 A 
ATOM      4  C   UNL     1      -8.803  -9.382  -4.911  1.00  0.00     0.119 A 
ATOM      5  C   UNL     1      -9.907 -10.183  -5.289  1.00  0.00    -0.004 A 
ATOM      6  C   UNL     1     -11.060  -9.551  -5.791  1.00  0.00     0.008 A 
ATOM      7  C   UNL     1     -11.121  -8.161  -5.909  1.00  0.00     0.004 A 
ENDROOT
BRANCH   4   8
ATOM      8  O   UNL     1      -7.637  -9.965  -4.417  1.00  0.00    -0.508 OA
ATOM      9  H   UNL     1      -7.656 -10.820  -3.875  1.00  0.00     0.293 HD
ENDBRANCH   4   8
BRANCH   5  10
ATOM     10  C   UNL     1      -9.890 -11.702  -5.180  1.00  0.00     0.017 C 
ATOM     11  C   UNL     1     -11.120 -12.234  -4.433  1.00  0.00     0.012 C 
ATOM     12  C   UNL     1      -9.731 -12.370  -6.552  1.00  0.00     0.012 C 
ENDBRANCH   5  10
TORSDOF 2
ENDMDL
MODEL 9
REMARK VINA RESULT:    -4.245      6.990      8.775
REMARK INTER + INTRA:          -4.813
REMARK INTER:                  -4.620
REMARK INTRA:                  -0.193
REMARK UNBOUND:                -0.196
REMARK SMILES Cc1ccc(C(C)C)c(O)c1
REMARK SMILES IDX 1 1 2 2 11 3 9 4 5 5 4 6 3 7 10 8 6 10 7 11 8 12
REMARK H PARENT 10 9
REMARK Flexibility Score: inf
ROOT
ATOM      1  C   UNL     1      -8.497  -9.488  -4.744  1.00  0.00     0.044 C 
ATOM      2  C   UNL     1      -7.611 -10.349  -5.595  1.00  0.00    -0.047 A 
ATOM      3  C   UNL     1      -6.285  -9.971  -5.841  1.00  0.00     0.049 A 
ATOM      4  C   UNL     1      -5.460 -10.749  -6.667  1.00  0.00     0.119 A 
ATOM      5  C   UNL     1      -5.969 -11.923  -7.269  1.00  0.00    -0.004 A 
ATOM      6  C   UNL     1      -7.309 -12.281  -7.029  1.00  0.00     0.008 A 
ATOM      7  C   UNL     1      -8.122 -11.498  -6.207  1.00  0.00     0.004 A 
ENDROOT
BRANCH   4   8
ATOM      8  O   UNL     1      -4.142 -10.351  -6.884  1.00  0.00    -0.508 OA
ATOM      9  H   UNL     1      -3.469 -10.297  -6.128  1.00  0.00     0.293 HD
ENDBRANCH   4   8
BRANCH   5  10
ATOM     10  C   UNL     1      -5.123 -12.810  -8.174  1.00  0.00     0.017 C 
ATOM     11  C   UNL     1      -4.344 -13.862  -7.374  1.00  0.00     0.012 C 
ATOM     12  C   UNL     1      -5.962 -13.455  -9.286  1.00  0.00     0.012 C 
ENDBRANCH   5  10
TORSDOF 2
ENDMDL
