MODEL 1
REMARK VINA RESULT:    -3.137      0.000      0.000
REMARK INTER + INTRA:          -5.025
REMARK INTER:                  -4.604
REMARK INTRA:                  -0.420
REMARK UNBOUND:                -0.420
REMARK SMILES O=C([O-])CCCCCCCC(=O)[O-]
REMARK SMILES IDX 7 1 6 2 5 3 4 4 2 5 1 6 3 7 8 8 9 9 10 10 11 11 12 12 13 13
REMARK H PARENT
REMARK Flexibility Score: inf
ROOT
ATOM      1  C   UNL     1      33.670  36.812   1.953  1.00  0.00     0.000 C 
ENDROOT
BRANCH   1   2
ATOM      2  C   UNL     1      34.598  36.906   3.170  1.00  0.00     0.000 C 
BRANCH   2   3
ATOM      3  C   UNL     1      34.221  38.096   4.061  1.00  0.00     0.006 C 
BRANCH   3   4
ATOM      4  C   UNL     1      35.075  38.124   5.331  1.00  0.00     0.053 C 
BRANCH   4   5
ATOM      5  C   UNL     1      34.217  38.358   6.534  1.00  0.00     0.041 C 
ATOM      6  O   UNL     1      32.968  38.465   6.411  1.00  0.00    -0.550 OA
ATOM      7  O   UNL     1      34.790  38.407   7.798  1.00  0.00    -0.550 OA
ENDBRANCH   4   5
ENDBRANCH   3   4
ENDBRANCH   2   3
ENDBRANCH   1   2
BRANCH   1   8
ATOM      8  C   UNL     1      32.947  38.144   1.710  1.00  0.00     0.000 C 
BRANCH   8   9
ATOM      9  C   UNL     1      33.254  38.747   0.326  1.00  0.00     0.006 C 
BRANCH   9  10
ATOM     10  C   UNL     1      34.098  37.841  -0.585  1.00  0.00     0.053 C 
BRANCH  10  11
ATOM     11  C   UNL     1      33.308  37.319  -1.744  1.00  0.00     0.041 C 
ATOM     12  O   UNL     1      32.850  36.146  -1.722  1.00  0.00    -0.550 OA
ATOM     13  O   UNL     1      33.048  38.139  -2.835  1.00  0.00    -0.550 OA
ENDBRANCH  10  11
ENDBRANCH   9  10
ENDBRANCH   8   9
ENDBRANCH   1   8
TORSDOF 8
ENDMDL
MODEL 2
REMARK VINA RESULT:    -1.394      1.536      2.125
REMARK INTER + INTRA:          -2.466
REMARK INTER:                  -2.205
REMARK INTRA:                  -0.261
REMARK UNBOUND:                -0.420
REMARK SMILES O=C([O-])CCCCCCCC(=O)[O-]
REMARK SMILES IDX 7 1 6 2 5 3 4 4 2 5 1 6 3 7 8 8 9 9 10 10 11 11 12 12 13 13
REMARK H PARENT
REMARK Flexibility Score: inf
ROOT
ATOM      1  C   UNL     1      31.910  36.236   1.656  1.00  0.00     0.000 C 
ENDROOT
BRANCH   1   2
ATOM      2  C   UNL     1      32.310  37.635   2.141  1.00  0.00     0.000 C 
BRANCH   2   3
ATOM      3  C   UNL     1      33.355  37.553   3.260  1.00  0.00     0.006 C 
BRANCH   3   4
ATOM      4  C   UNL     1      33.669  38.942   3.822  1.00  0.00     0.053 C 
BRANCH   4   5
ATOM      5  C   UNL     1      33.943  38.863   5.291  1.00  0.00     0.041 C 
ATOM      6  O   UNL     1      35.124  38.942   5.720  1.00  0.00    -0.550 OA
ATOM      7  O   UNL     1      32.890  38.752   6.189  1.00  0.00    -0.550 OA
ENDBRANCH   4   5
ENDBRANCH   3   4
ENDBRANCH   2   3
ENDBRANCH   1   2
BRANCH   1   8
ATOM      8  C   UNL     1      33.094  35.532   0.976  1.00  0.00     0.000 C 
BRANCH   8   9
ATOM      9  C   UNL     1      33.428  36.125  -0.405  1.00  0.00     0.006 C 
BRANCH   9  10
ATOM     10  C   UNL     1      32.200  36.568  -1.217  1.00  0.00     0.053 C 
BRANCH  10  11
ATOM     11  C   UNL     1      32.369  36.295  -2.680  1.00  0.00     0.041 C 
ATOM     12  O   UNL     1      32.004  35.192  -3.165  1.00  0.00    -0.550 OA
ATOM     13  O   UNL     1      32.898  37.272  -3.513  1.00  0.00    -0.550 OA
ENDBRANCH  10  11
ENDBRANCH   9  10
ENDBRANCH   8   9
ENDBRANCH   1   8
TORSDOF 8
ENDMDL
MODEL 3
REMARK VINA RESULT:    -1.134      2.898      4.114
REMARK INTER + INTRA:          -2.085
REMARK INTER:                  -1.372
REMARK INTRA:                  -0.713
REMARK UNBOUND:                -0.420
REMARK SMILES O=C([O-])CCCCCCCC(=O)[O-]
REMARK SMILES IDX 7 1 6 2 5 3 4 4 2 5 1 6 3 7 8 8 9 9 10 10 11 11 12 12 13 13
REMARK H PARENT
REMARK Flexibility Score: inf
ROOT
ATOM      1  C   UNL     1      34.145  36.828  -0.107  1.00  0.00     0.000 C 
ENDROOT
BRANCH   1   2
ATOM      2  C   UNL     1      34.588  38.280  -0.323  1.00  0.00     0.000 C 
BRANCH   2   3
ATOM      3  C   UNL     1      34.357  39.120   0.938  1.00  0.00     0.006 C 
BRANCH   3   4
ATOM      4  C   UNL     1      35.125  38.544   2.131  1.00  0.00     0.053 C 
BRANCH   4   5
ATOM      5  C   UNL     1      34.205  38.327   3.291  1.00  0.00     0.041 C 
ATOM      6  O   UNL     1      34.648  37.855   4.371  1.00  0.00    -0.550 OA
ATOM      7  O   UNL     1      32.869  38.693   3.196  1.00  0.00    -0.550 OA
ENDBRANCH   4   5
ENDBRANCH   3   4
ENDBRANCH   2   3
ENDBRANCH   1   2
BRANCH   1   8
ATOM      8  C   UNL     1      32.624  36.740   0.081  1.00  0.00     0.000 C 
BRANCH   8   9
ATOM      9  C   UNL     1      32.195  35.522   0.920  1.00  0.00     0.006 C 
BRANCH   9  10
ATOM     10  C   UNL     1      33.295  34.967   1.839  1.00  0.00     0.053 C 
BRANCH  10  11
ATOM     11  C   UNL     1      33.261  33.472   1.913  1.00  0.00     0.041 C 
ATOM     12  O   UNL     1      34.216  32.843   2.440  1.00  0.00    -0.550 OA
ATOM     13  O   UNL     1      32.162  32.776   1.429  1.00  0.00    -0.550 OA
ENDBRANCH  10  11
ENDBRANCH   9  10
ENDBRANCH   8   9
ENDBRANCH   1   8
TORSDOF 8
ENDMDL
