MODEL 1
REMARK VINA RESULT:    -2.910      0.000      0.000
REMARK INTER + INTRA:          -3.445
REMARK INTER:                  -3.421
REMARK INTRA:                  -0.024
REMARK UNBOUND:                -0.024
REMARK SMILES CCCCC(=O)[O-]
REMARK SMILES IDX 4 1 5 2 6 3 7 4 3 5 2 6 1 7
REMARK H PARENT
REMARK Flexibility Score: inf
ROOT
ATOM      1  C   UNL     1      23.405   3.419  13.770  1.00  0.00     0.053 C 
ENDROOT
BRANCH   1   2
ATOM      2  C   UNL     1      23.467   2.072  14.418  1.00  0.00     0.041 C 
ATOM      3  O   UNL     1      22.554   1.228  14.214  1.00  0.00    -0.550 OA
ATOM      4  O   UNL     1      24.506   1.766  15.288  1.00  0.00    -0.550 OA
ENDBRANCH   1   2
BRANCH   1   5
ATOM      5  C   UNL     1      24.624   4.260  14.167  1.00  0.00     0.006 C 
BRANCH   5   6
ATOM      6  C   UNL     1      25.040   5.252  13.068  1.00  0.00    -0.003 C 
ATOM      7  C   UNL     1      25.503   6.595  13.629  1.00  0.00     0.004 C 
ENDBRANCH   5   6
ENDBRANCH   1   5
TORSDOF 3
ENDMDL
MODEL 2
REMARK VINA RESULT:    -2.898      0.286      1.257
REMARK INTER + INTRA:          -3.430
REMARK INTER:                  -3.405
REMARK INTRA:                  -0.024
REMARK UNBOUND:                -0.024
REMARK SMILES CCCCC(=O)[O-]
REMARK SMILES IDX 4 1 5 2 6 3 7 4 3 5 2 6 1 7
REMARK H PARENT
REMARK Flexibility Score: inf
ROOT
ATOM      1  C   UNL     1      23.397   3.631  13.626  1.00  0.00     0.053 C 
ENDROOT
BRANCH   1   2
ATOM      2  C   UNL     1      23.381   2.274  14.259  1.00  0.00     0.041 C 
ATOM      3  O   UNL     1      24.287   1.943  15.069  1.00  0.00    -0.550 OA
ATOM      4  O   UNL     1      22.395   1.359  13.915  1.00  0.00    -0.550 OA
ENDBRANCH   1   2
BRANCH   1   5
ATOM      5  C   UNL     1      24.634   4.417  14.077  1.00  0.00     0.006 C 
BRANCH   5   6
ATOM      6  C   UNL     1      25.019   5.528  13.088  1.00  0.00    -0.003 C 
ATOM      7  C   UNL     1      25.662   6.732  13.774  1.00  0.00     0.004 C 
ENDBRANCH   5   6
ENDBRANCH   1   5
TORSDOF 3
ENDMDL
MODEL 3
REMARK VINA RESULT:    -2.877      1.544      2.258
REMARK INTER + INTRA:          -3.406
REMARK INTER:                  -3.297
REMARK INTRA:                  -0.109
REMARK UNBOUND:                -0.024
REMARK SMILES CCCCC(=O)[O-]
REMARK SMILES IDX 4 1 5 2 6 3 7 4 3 5 2 6 1 7
REMARK H PARENT
REMARK Flexibility Score: inf
ROOT
ATOM      1  C   UNL     1      23.496   5.049  12.680  1.00  0.00     0.053 C 
ENDROOT
BRANCH   1   2
ATOM      2  C   UNL     1      23.055   3.716  13.198  1.00  0.00     0.041 C 
ATOM      3  O   UNL     1      23.752   3.107  14.053  1.00  0.00    -0.550 OA
ATOM      4  O   UNL     1      21.901   3.125  12.702  1.00  0.00    -0.550 OA
ENDBRANCH   1   2
BRANCH   1   5
ATOM      5  C   UNL     1      25.013   5.209  12.836  1.00  0.00     0.006 C 
BRANCH   5   6
ATOM      6  C   UNL     1      25.395   6.477  13.616  1.00  0.00    -0.003 C 
ATOM      7  C   UNL     1      25.028   6.394  15.096  1.00  0.00     0.004 C 
ENDBRANCH   5   6
ENDBRANCH   1   5
TORSDOF 3
ENDMDL
MODEL 4
REMARK VINA RESULT:    -2.806      3.337      4.317
REMARK INTER + INTRA:          -3.322
REMARK INTER:                  -3.252
REMARK INTRA:                  -0.070
REMARK UNBOUND:                -0.024
REMARK SMILES CCCCC(=O)[O-]
REMARK SMILES IDX 4 1 5 2 6 3 7 4 3 5 2 6 1 7
REMARK H PARENT
REMARK Flexibility Score: inf
ROOT
ATOM      1  C   UNL     1      24.891   5.257  12.895  1.00  0.00     0.053 C 
ENDROOT
BRANCH   1   2
ATOM      2  C   UNL     1      25.036   6.663  13.386  1.00  0.00     0.041 C 
ATOM      3  O   UNL     1      24.094   7.487  13.236  1.00  0.00    -0.550 OA
ATOM      4  O   UNL     1      26.229   7.078  13.964  1.00  0.00    -0.550 OA
ENDBRANCH   1   2
BRANCH   1   5
ATOM      5  C   UNL     1      24.579   4.312  14.061  1.00  0.00     0.006 C 
BRANCH   5   6
ATOM      6  C   UNL     1      23.394   3.380  13.764  1.00  0.00    -0.003 C 
ATOM      7  C   UNL     1      22.561   3.845  12.571  1.00  0.00     0.004 C 
ENDBRANCH   5   6
ENDBRANCH   1   5
TORSDOF 3
ENDMDL
MODEL 5
REMARK VINA RESULT:    -2.748      3.263      5.241
REMARK INTER + INTRA:          -3.254
REMARK INTER:                  -3.213
REMARK INTRA:                  -0.040
REMARK UNBOUND:                -0.024
REMARK SMILES CCCCC(=O)[O-]
REMARK SMILES IDX 4 1 5 2 6 3 7 4 3 5 2 6 1 7
REMARK H PARENT
REMARK Flexibility Score: inf
ROOT
ATOM      1  C   UNL     1      21.942   1.281  13.547  1.00  0.00     0.053 C 
ENDROOT
BRANCH   1   2
ATOM      2  C   UNL     1      23.147   1.362  14.430  1.00  0.00     0.041 C 
ATOM      3  O   UNL     1      23.782   2.445  14.539  1.00  0.00    -0.550 OA
ATOM      4  O   UNL     1      23.599   0.229  15.093  1.00  0.00    -0.550 OA
ENDBRANCH   1   2
BRANCH   1   5
ATOM      5  C   UNL     1      21.378  -0.144  13.539  1.00  0.00     0.006 C 
BRANCH   5   6
ATOM      6  C   UNL     1      21.316  -0.747  12.127  1.00  0.00    -0.003 C 
ATOM      7  C   UNL     1      19.959  -1.373  11.811  1.00  0.00     0.004 C 
ENDBRANCH   5   6
ENDBRANCH   1   5
TORSDOF 3
ENDMDL
MODEL 6
REMARK VINA RESULT:    -2.746      1.583      2.054
REMARK INTER + INTRA:          -3.252
REMARK INTER:                  -3.219
REMARK INTRA:                  -0.034
REMARK UNBOUND:                -0.024
REMARK SMILES CCCCC(=O)[O-]
REMARK SMILES IDX 4 1 5 2 6 3 7 4 3 5 2 6 1 7
REMARK H PARENT
REMARK Flexibility Score: inf
ROOT
ATOM      1  C   UNL     1      23.474   2.487  14.380  1.00  0.00     0.053 C 
ENDROOT
BRANCH   1   2
ATOM      2  C   UNL     1      24.263   1.644  15.333  1.00  0.00     0.041 C 
ATOM      3  O   UNL     1      23.903   0.463  15.581  1.00  0.00    -0.550 OA
ATOM      4  O   UNL     1      25.366   2.180  15.984  1.00  0.00    -0.550 OA
ENDBRANCH   1   2
BRANCH   1   5
ATOM      5  C   UNL     1      24.160   3.841  14.169  1.00  0.00     0.006 C 
BRANCH   5   6
ATOM      6  C   UNL     1      23.684   4.550  12.890  1.00  0.00    -0.003 C 
ATOM      7  C   UNL     1      22.355   4.003  12.372  1.00  0.00     0.004 C 
ENDBRANCH   5   6
ENDBRANCH   1   5
TORSDOF 3
ENDMDL
MODEL 7
REMARK VINA RESULT:    -2.716     10.557     11.389
REMARK INTER + INTRA:          -3.216
REMARK INTER:                  -3.107
REMARK INTRA:                  -0.109
REMARK UNBOUND:                -0.024
REMARK SMILES CCCCC(=O)[O-]
REMARK SMILES IDX 4 1 5 2 6 3 7 4 3 5 2 6 1 7
REMARK H PARENT
REMARK Flexibility Score: inf
ROOT
ATOM      1  C   UNL     1      15.231   0.368   9.078  1.00  0.00     0.053 C 
ENDROOT
BRANCH   1   2
ATOM      2  C   UNL     1      13.884  -0.248   8.866  1.00  0.00     0.041 C 
ATOM      3  O   UNL     1      12.875   0.484   8.680  1.00  0.00    -0.550 OA
ATOM      4  O   UNL     1      13.734  -1.627   8.923  1.00  0.00    -0.550 OA
ENDBRANCH   1   2
BRANCH   1   5
ATOM      5  C   UNL     1      15.589   0.373  10.569  1.00  0.00     0.006 C 
BRANCH   5   6
ATOM      6  C   UNL     1      16.525  -0.783  10.955  1.00  0.00    -0.003 C 
ATOM      7  C   UNL     1      15.870  -1.779  11.911  1.00  0.00     0.004 C 
ENDBRANCH   5   6
ENDBRANCH   1   5
TORSDOF 3
ENDMDL
MODEL 8
REMARK VINA RESULT:    -2.702     11.089     12.207
REMARK INTER + INTRA:          -3.200
REMARK INTER:                  -3.170
REMARK INTRA:                  -0.030
REMARK UNBOUND:                -0.024
REMARK SMILES CCCCC(=O)[O-]
REMARK SMILES IDX 4 1 5 2 6 3 7 4 3 5 2 6 1 7
REMARK H PARENT
REMARK Flexibility Score: inf
ROOT
ATOM      1  C   UNL     1      13.724   1.166   9.328  1.00  0.00     0.053 C 
ENDROOT
BRANCH   1   2
ATOM      2  C   UNL     1      12.874   0.318   8.435  1.00  0.00     0.041 C 
ATOM      3  O   UNL     1      13.229  -0.857   8.152  1.00  0.00    -0.550 OA
ATOM      4  O   UNL     1      11.717   0.842   7.875  1.00  0.00    -0.550 OA
ENDBRANCH   1   2
BRANCH   1   5
ATOM      5  C   UNL     1      13.122   2.570   9.465  1.00  0.00     0.006 C 
BRANCH   5   6
ATOM      6  C   UNL     1      13.606   3.298  10.729  1.00  0.00    -0.003 C 
ATOM      7  C   UNL     1      15.055   2.967  11.083  1.00  0.00     0.004 C 
ENDBRANCH   5   6
ENDBRANCH   1   5
TORSDOF 3
ENDMDL
MODEL 9
REMARK VINA RESULT:    -2.687      5.218      7.185
REMARK INTER + INTRA:          -3.182
REMARK INTER:                  -3.135
REMARK INTRA:                  -0.047
REMARK UNBOUND:                -0.024
REMARK SMILES CCCCC(=O)[O-]
REMARK SMILES IDX 4 1 5 2 6 3 7 4 3 5 2 6 1 7
REMARK H PARENT
REMARK Flexibility Score: inf
ROOT
ATOM      1  C   UNL     1      22.950  -2.625  14.254  1.00  0.00     0.053 C 
ENDROOT
BRANCH   1   2
ATOM      2  C   UNL     1      22.752  -1.142  14.282  1.00  0.00     0.041 C 
ATOM      3  O   UNL     1      23.492  -0.418  14.999  1.00  0.00    -0.550 OA
ATOM      4  O   UNL     1      21.718  -0.565  13.557  1.00  0.00    -0.550 OA
ENDBRANCH   1   2
BRANCH   1   5
ATOM      5  C   UNL     1      23.875  -3.064  15.395  1.00  0.00     0.006 C 
BRANCH   5   6
ATOM      6  C   UNL     1      23.114  -3.748  16.542  1.00  0.00    -0.003 C 
ATOM      7  C   UNL     1      24.035  -4.528  17.478  1.00  0.00     0.004 C 
ENDBRANCH   5   6
ENDBRANCH   1   5
TORSDOF 3
ENDMDL
