MODEL 1
REMARK VINA RESULT:    -5.157      0.000      0.000
REMARK INTER + INTRA:          -7.479
REMARK INTER:                  -6.966
REMARK INTRA:                  -0.513
REMARK UNBOUND:                -0.513
REMARK SMILES [NH3+]CCCC[C@@H]([NH3+])C(=O)[O-]
REMARK SMILES IDX 4 1 3 2 2 3 1 4 5 8 6 9 7 10 8 14 9 15 10 16
REMARK H PARENT 1 5 1 6 1 7 7 11 7 12 7 13
REMARK Flexibility Score: inf
ROOT
ATOM      1  C   UNL     1      13.435   5.792  55.026  1.00  0.00     0.012 C 
ENDROOT
BRANCH   1   2
ATOM      2  C   UNL     1      14.893   5.719  54.547  1.00  0.00     0.061 C 
BRANCH   2   3
ATOM      3  C   UNL     1      15.799   5.123  55.633  1.00  0.00     0.258 C 
BRANCH   3   4
ATOM      4  N   UNL     1      15.571   5.777  56.922  1.00  0.00    -0.358 N 
ATOM      5  H   UNL     1      15.597   5.059  57.680  1.00  0.00     0.344 HD
ATOM      6  H   UNL     1      16.320   6.485  57.102  1.00  0.00     0.344 HD
ATOM      7  H   UNL     1      14.634   6.242  56.929  1.00  0.00     0.344 HD
ENDBRANCH   3   4
ENDBRANCH   2   3
ENDBRANCH   1   2
BRANCH   1   8
ATOM      8  C   UNL     1      12.872   7.225  55.013  1.00  0.00     0.072 C 
BRANCH   8   9
ATOM      9  C   UNL     1      13.919   8.320  54.702  1.00  0.00     0.227 C 
BRANCH   9  10
ATOM     10  N   UNL     1      13.394   9.257  53.703  1.00  0.00    -0.350 N 
ATOM     11  H   UNL     1      13.991  10.115  53.648  1.00  0.00     0.345 HD
ATOM     12  H   UNL     1      13.368   8.796  52.763  1.00  0.00     0.345 HD
ATOM     13  H   UNL     1      12.419   9.535  53.957  1.00  0.00     0.345 HD
ENDBRANCH   9  10
BRANCH   9  14
ATOM     14  C   UNL     1      14.310   9.068  55.950  1.00  0.00     0.099 C 
ATOM     15  O   UNL     1      14.803  10.224  55.866  1.00  0.00    -0.544 OA
ATOM     16  O   UNL     1      14.137   8.487  57.200  1.00  0.00    -0.544 OA
ENDBRANCH   9  14
ENDBRANCH   8   9
ENDBRANCH   1   8
TORSDOF 7
ENDMDL
MODEL 2
REMARK VINA RESULT:    -4.931      2.830      4.783
REMARK INTER + INTRA:          -7.174
REMARK INTER:                  -7.070
REMARK INTRA:                  -0.104
REMARK UNBOUND:                -0.513
REMARK SMILES [NH3+]CCCC[C@@H]([NH3+])C(=O)[O-]
REMARK SMILES IDX 4 1 3 2 2 3 1 4 5 8 6 9 7 10 8 14 9 15 10 16
REMARK H PARENT 1 5 1 6 1 7 7 11 7 12 7 13
REMARK Flexibility Score: inf
ROOT
ATOM      1  C   UNL     1      13.630   9.270  53.252  1.00  0.00     0.012 C 
ENDROOT
BRANCH   1   2
ATOM      2  C   UNL     1      13.845  10.594  52.504  1.00  0.00     0.061 C 
BRANCH   2   3
ATOM      3  C   UNL     1      13.590  10.423  51.000  1.00  0.00     0.258 C 
BRANCH   3   4
ATOM      4  N   UNL     1      12.214  10.783  50.658  1.00  0.00    -0.358 N 
ATOM      5  H   UNL     1      11.578  10.001  50.929  1.00  0.00     0.344 HD
ATOM      6  H   UNL     1      11.930  11.646  51.177  1.00  0.00     0.344 HD
ATOM      7  H   UNL     1      12.130  10.946  49.628  1.00  0.00     0.344 HD
ENDBRANCH   3   4
ENDBRANCH   2   3
ENDBRANCH   1   2
BRANCH   1   8
ATOM      8  C   UNL     1      13.779   9.415  54.778  1.00  0.00     0.072 C 
BRANCH   8   9
ATOM      9  C   UNL     1      14.404   8.186  55.478  1.00  0.00     0.227 C 
BRANCH   9  10
ATOM     10  N   UNL     1      14.212   8.275  56.930  1.00  0.00    -0.350 N 
ATOM     11  H   UNL     1      14.483   7.378  57.396  1.00  0.00     0.345 HD
ATOM     12  H   UNL     1      14.795   9.053  57.318  1.00  0.00     0.345 HD
ATOM     13  H   UNL     1      13.209   8.480  57.143  1.00  0.00     0.345 HD
ENDBRANCH   9  10
BRANCH   9  14
ATOM     14  C   UNL     1      13.805   6.903  54.961  1.00  0.00     0.099 C 
ATOM     15  O   UNL     1      14.516   6.091  54.311  1.00  0.00    -0.544 OA
ATOM     16  O   UNL     1      12.466   6.611  55.190  1.00  0.00    -0.544 OA
ENDBRANCH   9  14
ENDBRANCH   8   9
ENDBRANCH   1   8
TORSDOF 7
ENDMDL
MODEL 3
REMARK VINA RESULT:    -4.801      2.077      3.244
REMARK INTER + INTRA:          -6.998
REMARK INTER:                  -6.553
REMARK INTRA:                  -0.445
REMARK UNBOUND:                -0.513
REMARK SMILES [NH3+]CCCC[C@@H]([NH3+])C(=O)[O-]
REMARK SMILES IDX 4 1 3 2 2 3 1 4 5 8 6 9 7 10 8 14 9 15 10 16
REMARK H PARENT 1 5 1 6 1 7 7 11 7 12 7 13
REMARK Flexibility Score: inf
ROOT
ATOM      1  C   UNL     1      14.452  10.050  56.355  1.00  0.00     0.012 C 
ENDROOT
BRANCH   1   2
ATOM      2  C   UNL     1      15.204   9.770  57.665  1.00  0.00     0.061 C 
BRANCH   2   3
ATOM      3  C   UNL     1      16.179   8.596  57.498  1.00  0.00     0.258 C 
BRANCH   3   4
ATOM      4  N   UNL     1      15.605   7.359  58.028  1.00  0.00    -0.358 N 
ATOM      5  H   UNL     1      16.212   7.003  58.800  1.00  0.00     0.344 HD
ATOM      6  H   UNL     1      14.648   7.542  58.408  1.00  0.00     0.344 HD
ATOM      7  H   UNL     1      15.556   6.634  57.275  1.00  0.00     0.344 HD
ENDBRANCH   3   4
ENDBRANCH   2   3
ENDBRANCH   1   2
BRANCH   1   8
ATOM      8  C   UNL     1      13.132   9.263  56.244  1.00  0.00     0.072 C 
BRANCH   8   9
ATOM      9  C   UNL     1      12.947   8.514  54.904  1.00  0.00     0.227 C 
BRANCH   9  10
ATOM     10  N   UNL     1      13.730   9.162  53.847  1.00  0.00    -0.350 N 
ATOM     11  H   UNL     1      14.697   9.382  54.182  1.00  0.00     0.345 HD
ATOM     12  H   UNL     1      13.792   8.532  53.013  1.00  0.00     0.345 HD
ATOM     13  H   UNL     1      13.262  10.049  53.552  1.00  0.00     0.345 HD
ENDBRANCH   9  10
BRANCH   9  14
ATOM     14  C   UNL     1      13.351   7.068  55.028  1.00  0.00     0.099 C 
ATOM     15  O   UNL     1      14.570   6.752  55.042  1.00  0.00    -0.544 OA
ATOM     16  O   UNL     1      12.385   6.074  55.121  1.00  0.00    -0.544 OA
ENDBRANCH   9  14
ENDBRANCH   8   9
ENDBRANCH   1   8
TORSDOF 7
ENDMDL
MODEL 4
REMARK VINA RESULT:    -4.781      1.299      1.687
REMARK INTER + INTRA:          -6.972
REMARK INTER:                  -6.468
REMARK INTRA:                  -0.504
REMARK UNBOUND:                -0.513
REMARK SMILES [NH3+]CCCC[C@@H]([NH3+])C(=O)[O-]
REMARK SMILES IDX 4 1 3 2 2 3 1 4 5 8 6 9 7 10 8 14 9 15 10 16
REMARK H PARENT 1 5 1 6 1 7 7 11 7 12 7 13
REMARK Flexibility Score: inf
ROOT
ATOM      1  C   UNL     1      14.759   4.774  54.741  1.00  0.00     0.012 C 
ENDROOT
BRANCH   1   2
ATOM      2  C   UNL     1      16.212   5.252  54.601  1.00  0.00     0.061 C 
BRANCH   2   3
ATOM      3  C   UNL     1      17.095   4.654  55.705  1.00  0.00     0.258 C 
BRANCH   3   4
ATOM      4  N   UNL     1      16.333   4.461  56.938  1.00  0.00    -0.358 N 
ATOM      5  H   UNL     1      16.943   4.001  57.650  1.00  0.00     0.344 HD
ATOM      6  H   UNL     1      16.015   5.385  57.312  1.00  0.00     0.344 HD
ATOM      7  H   UNL     1      15.505   3.848  56.756  1.00  0.00     0.344 HD
ENDBRANCH   3   4
ENDBRANCH   2   3
ENDBRANCH   1   2
BRANCH   1   8
ATOM      8  C   UNL     1      13.787   5.914  55.099  1.00  0.00     0.072 C 
BRANCH   8   9
ATOM      9  C   UNL     1      14.442   7.312  55.176  1.00  0.00     0.227 C 
BRANCH   9  10
ATOM     10  N   UNL     1      13.709   8.264  54.334  1.00  0.00    -0.350 N 
ATOM     11  H   UNL     1      12.708   8.329  54.633  1.00  0.00     0.345 HD
ATOM     12  H   UNL     1      14.149   9.211  54.402  1.00  0.00     0.345 HD
ATOM     13  H   UNL     1      13.748   7.957  53.336  1.00  0.00     0.345 HD
ENDBRANCH   9  10
BRANCH   9  14
ATOM     14  C   UNL     1      14.489   7.814  56.596  1.00  0.00     0.099 C 
ATOM     15  O   UNL     1      15.247   7.262  57.436  1.00  0.00    -0.544 OA
ATOM     16  O   UNL     1      13.692   8.882  56.989  1.00  0.00    -0.544 OA
ENDBRANCH   9  14
ENDBRANCH   8   9
ENDBRANCH   1   8
TORSDOF 7
ENDMDL
MODEL 5
REMARK VINA RESULT:    -4.727      2.757      4.156
REMARK INTER + INTRA:          -6.898
REMARK INTER:                  -6.688
REMARK INTRA:                  -0.210
REMARK UNBOUND:                -0.513
REMARK SMILES [NH3+]CCCC[C@@H]([NH3+])C(=O)[O-]
REMARK SMILES IDX 4 1 3 2 2 3 1 4 5 8 6 9 7 10 8 14 9 15 10 16
REMARK H PARENT 1 5 1 6 1 7 7 11 7 12 7 13
REMARK Flexibility Score: inf
ROOT
ATOM      1  C   UNL     1      13.065   6.944  55.074  1.00  0.00     0.012 C 
ENDROOT
BRANCH   1   2
ATOM      2  C   UNL     1      13.625   8.157  54.316  1.00  0.00     0.061 C 
BRANCH   2   3
ATOM      3  C   UNL     1      13.832   9.348  55.262  1.00  0.00     0.258 C 
BRANCH   3   4
ATOM      4  N   UNL     1      13.097   9.158  56.512  1.00  0.00    -0.358 N 
ATOM      5  H   UNL     1      12.126   9.527  56.398  1.00  0.00     0.344 HD
ATOM      6  H   UNL     1      13.046   8.140  56.747  1.00  0.00     0.344 HD
ATOM      7  H   UNL     1      13.567   9.678  57.289  1.00  0.00     0.344 HD
ENDBRANCH   3   4
ENDBRANCH   2   3
ENDBRANCH   1   2
BRANCH   1   8
ATOM      8  C   UNL     1      14.017   5.733  55.051  1.00  0.00     0.072 C 
BRANCH   8   9
ATOM      9  C   UNL     1      15.447   6.035  55.555  1.00  0.00     0.227 C 
BRANCH   9  10
ATOM     10  N   UNL     1      15.492   5.981  57.020  1.00  0.00    -0.350 N 
ATOM     11  H   UNL     1      16.341   6.473  57.384  1.00  0.00     0.345 HD
ATOM     12  H   UNL     1      14.636   6.433  57.419  1.00  0.00     0.345 HD
ATOM     13  H   UNL     1      15.513   4.984  57.337  1.00  0.00     0.345 HD
ENDBRANCH   9  10
BRANCH   9  14
ATOM     14  C   UNL     1      16.444   5.064  54.975  1.00  0.00     0.099 C 
ATOM     15  O   UNL     1      16.576   4.963  53.727  1.00  0.00    -0.544 OA
ATOM     16  O   UNL     1      17.218   4.270  55.812  1.00  0.00    -0.544 OA
ENDBRANCH   9  14
ENDBRANCH   8   9
ENDBRANCH   1   8
TORSDOF 7
ENDMDL
MODEL 6
REMARK VINA RESULT:    -4.618      2.363      3.656
REMARK INTER + INTRA:          -6.750
REMARK INTER:                  -6.216
REMARK INTRA:                  -0.535
REMARK UNBOUND:                -0.513
REMARK SMILES [NH3+]CCCC[C@@H]([NH3+])C(=O)[O-]
REMARK SMILES IDX 4 1 3 2 2 3 1 4 5 8 6 9 7 10 8 14 9 15 10 16
REMARK H PARENT 1 5 1 6 1 7 7 11 7 12 7 13
REMARK Flexibility Score: inf
ROOT
ATOM      1  C   UNL     1      14.267   9.516  55.288  1.00  0.00     0.012 C 
ENDROOT
BRANCH   1   2
ATOM      2  C   UNL     1      13.966  10.022  56.706  1.00  0.00     0.061 C 
BRANCH   2   3
ATOM      3  C   UNL     1      15.214   9.942  57.595  1.00  0.00     0.258 C 
BRANCH   3   4
ATOM      4  N   UNL     1      16.272   9.169  56.944  1.00  0.00    -0.358 N 
ATOM      5  H   UNL     1      15.851   8.578  56.192  1.00  0.00     0.344 HD
ATOM      6  H   UNL     1      16.975   9.814  56.514  1.00  0.00     0.344 HD
ATOM      7  H   UNL     1      16.743   8.546  57.640  1.00  0.00     0.344 HD
ENDBRANCH   3   4
ENDBRANCH   2   3
ENDBRANCH   1   2
BRANCH   1   8
ATOM      8  C   UNL     1      13.231   8.493  54.784  1.00  0.00     0.072 C 
BRANCH   8   9
ATOM      9  C   UNL     1      13.202   7.169  55.581  1.00  0.00     0.227 C 
BRANCH   9  10
ATOM     10  N   UNL     1      12.107   6.315  55.108  1.00  0.00    -0.350 N 
ATOM     11  H   UNL     1      11.500   6.014  55.905  1.00  0.00     0.345 HD
ATOM     12  H   UNL     1      11.525   6.836  54.411  1.00  0.00     0.345 HD
ATOM     13  H   UNL     1      12.497   5.467  54.637  1.00  0.00     0.345 HD
ENDBRANCH   9  10
BRANCH   9  14
ATOM     14  C   UNL     1      14.512   6.434  55.462  1.00  0.00     0.099 C 
ATOM     15  O   UNL     1      15.286   6.358  56.452  1.00  0.00    -0.544 OA
ATOM     16  O   UNL     1      14.879   5.843  54.259  1.00  0.00    -0.544 OA
ENDBRANCH   9  14
ENDBRANCH   8   9
ENDBRANCH   1   8
TORSDOF 7
ENDMDL
MODEL 7
REMARK VINA RESULT:    -4.596      2.559      4.488
REMARK INTER + INTRA:          -6.721
REMARK INTER:                  -6.651
REMARK INTRA:                  -0.070
REMARK UNBOUND:                -0.513
REMARK SMILES [NH3+]CCCC[C@@H]([NH3+])C(=O)[O-]
REMARK SMILES IDX 4 1 3 2 2 3 1 4 5 8 6 9 7 10 8 14 9 15 10 16
REMARK H PARENT 1 5 1 6 1 7 7 11 7 12 7 13
REMARK Flexibility Score: inf
ROOT
ATOM      1  C   UNL     1      13.627   9.266  53.499  1.00  0.00     0.012 C 
ENDROOT
BRANCH   1   2
ATOM      2  C   UNL     1      13.710  10.479  52.561  1.00  0.00     0.061 C 
BRANCH   2   3
ATOM      3  C   UNL     1      13.637  10.043  51.091  1.00  0.00     0.258 C 
BRANCH   3   4
ATOM      4  N   UNL     1      13.123  11.124  50.249  1.00  0.00    -0.358 N 
ATOM      5  H   UNL     1      13.759  11.253  49.431  1.00  0.00     0.344 HD
ATOM      6  H   UNL     1      12.167  10.881  49.899  1.00  0.00     0.344 HD
ATOM      7  H   UNL     1      13.085  12.016  50.793  1.00  0.00     0.344 HD
ENDBRANCH   3   4
ENDBRANCH   2   3
ENDBRANCH   1   2
BRANCH   1   8
ATOM      8  C   UNL     1      13.984   9.611  54.957  1.00  0.00     0.072 C 
BRANCH   8   9
ATOM      9  C   UNL     1      13.439   8.611  56.002  1.00  0.00     0.227 C 
BRANCH   9  10
ATOM     10  N   UNL     1      12.887   7.428  55.334  1.00  0.00    -0.350 N 
ATOM     11  H   UNL     1      11.915   7.614  54.993  1.00  0.00     0.345 HD
ATOM     12  H   UNL     1      13.491   7.165  54.520  1.00  0.00     0.345 HD
ATOM     13  H   UNL     1      12.867   6.622  56.000  1.00  0.00     0.345 HD
ENDBRANCH   9  10
BRANCH   9  14
ATOM     14  C   UNL     1      14.517   8.196  56.970  1.00  0.00     0.099 C 
ATOM     15  O   UNL     1      14.935   7.007  56.980  1.00  0.00    -0.544 OA
ATOM     16  O   UNL     1      15.051   9.116  57.863  1.00  0.00    -0.544 OA
ENDBRANCH   9  14
ENDBRANCH   8   9
ENDBRANCH   1   8
TORSDOF 7
ENDMDL
MODEL 8
REMARK VINA RESULT:    -4.545      2.319      4.420
REMARK INTER + INTRA:          -6.652
REMARK INTER:                  -6.212
REMARK INTRA:                  -0.441
REMARK UNBOUND:                -0.513
REMARK SMILES [NH3+]CCCC[C@@H]([NH3+])C(=O)[O-]
REMARK SMILES IDX 4 1 3 2 2 3 1 4 5 8 6 9 7 10 8 14 9 15 10 16
REMARK H PARENT 1 5 1 6 1 7 7 11 7 12 7 13
REMARK Flexibility Score: inf
ROOT
ATOM      1  C   UNL     1      15.449   8.621  56.651  1.00  0.00     0.012 C 
ENDROOT
BRANCH   1   2
ATOM      2  C   UNL     1      14.257   9.537  56.336  1.00  0.00     0.061 C 
BRANCH   2   3
ATOM      3  C   UNL     1      13.974   9.573  54.828  1.00  0.00     0.258 C 
BRANCH   3   4
ATOM      4  N   UNL     1      12.810   8.753  54.494  1.00  0.00    -0.358 N 
ATOM      5  H   UNL     1      13.133   7.858  54.064  1.00  0.00     0.344 HD
ATOM      6  H   UNL     1      12.265   8.534  55.360  1.00  0.00     0.344 HD
ATOM      7  H   UNL     1      12.200   9.256  53.810  1.00  0.00     0.344 HD
ENDBRANCH   3   4
ENDBRANCH   2   3
ENDBRANCH   1   2
BRANCH   1   8
ATOM      8  C   UNL     1      15.039   7.147  56.833  1.00  0.00     0.072 C 
BRANCH   8   9
ATOM      9  C   UNL     1      15.981   6.133  56.145  1.00  0.00     0.227 C 
BRANCH   9  10
ATOM     10  N   UNL     1      16.140   4.938  56.982  1.00  0.00    -0.350 N 
ATOM     11  H   UNL     1      16.672   4.195  56.471  1.00  0.00     0.345 HD
ATOM     12  H   UNL     1      16.653   5.185  57.860  1.00  0.00     0.345 HD
ATOM     13  H   UNL     1      15.200   4.564  57.247  1.00  0.00     0.345 HD
ENDBRANCH   9  10
BRANCH   9  14
ATOM     14  C   UNL     1      15.459   5.741  54.787  1.00  0.00     0.099 C 
ATOM     15  O   UNL     1      14.330   6.146  54.403  1.00  0.00    -0.544 OA
ATOM     16  O   UNL     1      16.214   4.926  53.953  1.00  0.00    -0.544 OA
ENDBRANCH   9  14
ENDBRANCH   8   9
ENDBRANCH   1   8
TORSDOF 7
ENDMDL
MODEL 9
REMARK VINA RESULT:    -4.545      2.038      3.630
REMARK INTER + INTRA:          -6.652
REMARK INTER:                  -6.155
REMARK INTRA:                  -0.497
REMARK UNBOUND:                -0.513
REMARK SMILES [NH3+]CCCC[C@@H]([NH3+])C(=O)[O-]
REMARK SMILES IDX 4 1 3 2 2 3 1 4 5 8 6 9 7 10 8 14 9 15 10 16
REMARK H PARENT 1 5 1 6 1 7 7 11 7 12 7 13
REMARK Flexibility Score: inf
ROOT
ATOM      1  C   UNL     1      12.937   7.002  55.117  1.00  0.00     0.012 C 
ENDROOT
BRANCH   1   2
ATOM      2  C   UNL     1      12.845   8.486  55.504  1.00  0.00     0.061 C 
BRANCH   2   3
ATOM      3  C   UNL     1      13.998   9.288  54.885  1.00  0.00     0.258 C 
BRANCH   3   4
ATOM      4  N   UNL     1      14.811   9.923  55.922  1.00  0.00    -0.358 N 
ATOM      5  H   UNL     1      14.665   9.421  56.826  1.00  0.00     0.344 HD
ATOM      6  H   UNL     1      15.824   9.870  55.666  1.00  0.00     0.344 HD
ATOM      7  H   UNL     1      14.527  10.922  56.040  1.00  0.00     0.344 HD
ENDBRANCH   3   4
ENDBRANCH   2   3
ENDBRANCH   1   2
BRANCH   1   8
ATOM      8  C   UNL     1      14.310   6.621  54.531  1.00  0.00     0.072 C 
BRANCH   8   9
ATOM      9  C   UNL     1      15.155   5.696  55.436  1.00  0.00     0.227 C 
BRANCH   9  10
ATOM     10  N   UNL     1      15.912   4.740  54.620  1.00  0.00    -0.350 N 
ATOM     11  H   UNL     1      15.984   3.814  55.103  1.00  0.00     0.345 HD
ATOM     12  H   UNL     1      15.438   4.609  53.695  1.00  0.00     0.345 HD
ATOM     13  H   UNL     1      16.875   5.109  54.444  1.00  0.00     0.345 HD
ENDBRANCH   9  10
BRANCH   9  14
ATOM     14  C   UNL     1      16.099   6.493  56.298  1.00  0.00     0.099 C 
ATOM     15  O   UNL     1      15.651   7.207  57.234  1.00  0.00    -0.544 OA
ATOM     16  O   UNL     1      17.468   6.452  56.064  1.00  0.00    -0.544 OA
ENDBRANCH   9  14
ENDBRANCH   8   9
ENDBRANCH   1   8
TORSDOF 7
ENDMDL
