MODEL 1
REMARK VINA RESULT:    -5.044      0.000      0.000
REMARK INTER + INTRA:          -5.044
REMARK INTER:                  -5.044
REMARK INTRA:                   0.000
REMARK UNBOUND:                 0.000
REMARK SMILES C=C1CCCC(C)(C)[C@@]12CC=C(C)CC2
REMARK SMILES IDX 13 1 12 2 11 3 10 4 9 5 15 6 14 7 2 8 1 9 3 10 4 11 5 12
REMARK SMILES IDX 6 13 7 14 8 15
REMARK H PARENT
REMARK Flexibility Score: inf
ROOT
ATOM      1  C   UNL     1      -1.173  -1.519  13.767  1.00  0.00     0.039 C 
ATOM      2  C   UNL     1       0.133  -1.702  14.490  1.00  0.00    -0.077 C 
ATOM      3  C   UNL     1       0.680  -2.927  14.553  1.00  0.00    -0.027 C 
ATOM      4  C   UNL     1       2.012  -3.157  15.207  1.00  0.00     0.039 C 
ATOM      5  C   UNL     1       2.180  -2.281  16.489  1.00  0.00    -0.000 C 
ATOM      6  C   UNL     1       2.059  -0.802  15.974  1.00  0.00     0.017 C 
ATOM      7  C   UNL     1       0.770  -0.502  15.164  1.00  0.00     0.031 C 
ATOM      8  C   UNL     1       1.083  -2.666  17.514  1.00  0.00    -0.070 C 
ATOM      9  C   UNL     1       0.283  -1.774  18.137  1.00  0.00     0.008 C 
ATOM     10  C   UNL     1       1.106  -4.082  18.043  1.00  0.00     0.031 C 
ATOM     11  C   UNL     1       2.451  -4.339  18.721  1.00  0.00     0.005 C 
ATOM     12  C   UNL     1       3.631  -4.010  17.791  1.00  0.00     0.008 C 
ATOM     13  C   UNL     1       3.590  -2.561  17.196  1.00  0.00    -0.026 C 
ATOM     14  C   UNL     1       3.846  -1.549  18.347  1.00  0.00     0.012 C 
ATOM     15  C   UNL     1       4.796  -2.445  16.224  1.00  0.00     0.012 C 
ENDROOT
TORSDOF 0
ENDMDL
MODEL 2
REMARK VINA RESULT:    -4.774      1.722      2.562
REMARK INTER + INTRA:          -4.774
REMARK INTER:                  -4.774
REMARK INTRA:                   0.000
REMARK UNBOUND:                 0.000
REMARK SMILES C=C1CCCC(C)(C)[C@@]12CC=C(C)CC2
REMARK SMILES IDX 13 1 12 2 11 3 10 4 9 5 15 6 14 7 2 8 1 9 3 10 4 11 5 12
REMARK SMILES IDX 6 13 7 14 8 15
REMARK H PARENT
REMARK Flexibility Score: inf
ROOT
ATOM      1  C   UNL     1      -1.957  -4.033  12.992  1.00  0.00     0.039 C 
ATOM      2  C   UNL     1      -0.621  -3.371  13.185  1.00  0.00    -0.077 C 
ATOM      3  C   UNL     1       0.437  -4.122  13.537  1.00  0.00    -0.027 C 
ATOM      4  C   UNL     1       1.806  -3.525  13.683  1.00  0.00     0.039 C 
ATOM      5  C   UNL     1       1.747  -2.105  14.330  1.00  0.00    -0.000 C 
ATOM      6  C   UNL     1       0.872  -1.257  13.339  1.00  0.00     0.017 C 
ATOM      7  C   UNL     1      -0.518  -1.868  13.018  1.00  0.00     0.031 C 
ATOM      8  C   UNL     1       1.134  -2.217  15.749  1.00  0.00    -0.070 C 
ATOM      9  C   UNL     1       0.120  -1.447  16.198  1.00  0.00     0.008 C 
ATOM     10  C   UNL     1       1.897  -3.041  16.762  1.00  0.00     0.031 C 
ATOM     11  C   UNL     1       3.295  -2.448  16.933  1.00  0.00     0.005 C 
ATOM     12  C   UNL     1       4.022  -2.302  15.586  1.00  0.00     0.008 C 
ATOM     13  C   UNL     1       3.217  -1.494  14.511  1.00  0.00    -0.026 C 
ATOM     14  C   UNL     1       3.151  -0.007  14.960  1.00  0.00     0.012 C 
ATOM     15  C   UNL     1       4.060  -1.528  13.207  1.00  0.00     0.012 C 
ENDROOT
TORSDOF 0
ENDMDL
MODEL 3
REMARK VINA RESULT:    -4.734     13.587     15.047
REMARK INTER + INTRA:          -4.734
REMARK INTER:                  -4.734
REMARK INTRA:                   0.000
REMARK UNBOUND:                 0.000
REMARK SMILES C=C1CCCC(C)(C)[C@@]12CC=C(C)CC2
REMARK SMILES IDX 13 1 12 2 11 3 10 4 9 5 15 6 14 7 2 8 1 9 3 10 4 11 5 12
REMARK SMILES IDX 6 13 7 14 8 15
REMARK H PARENT
REMARK Flexibility Score: inf
ROOT
ATOM      1  C   UNL     1       7.799  -0.292  28.802  1.00  0.00     0.039 C 
ATOM      2  C   UNL     1       9.041  -0.358  27.957  1.00  0.00    -0.077 C 
ATOM      3  C   UNL     1       9.829  -1.442  28.035  1.00  0.00    -0.027 C 
ATOM      4  C   UNL     1      11.047  -1.589  27.170  1.00  0.00     0.039 C 
ATOM      5  C   UNL     1      11.794  -0.230  26.994  1.00  0.00    -0.000 C 
ATOM      6  C   UNL     1      10.737   0.715  26.316  1.00  0.00     0.017 C 
ATOM      7  C   UNL     1       9.387   0.824  27.072  1.00  0.00     0.031 C 
ATOM      8  C   UNL     1      12.266   0.274  28.381  1.00  0.00    -0.070 C 
ATOM      9  C   UNL     1      12.041   1.520  28.851  1.00  0.00     0.008 C 
ATOM     10  C   UNL     1      13.263  -0.589  29.121  1.00  0.00     0.031 C 
ATOM     11  C   UNL     1      14.517  -0.749  28.261  1.00  0.00     0.005 C 
ATOM     12  C   UNL     1      14.180  -1.265  26.852  1.00  0.00     0.008 C 
ATOM     13  C   UNL     1      13.109  -0.407  26.097  1.00  0.00    -0.026 C 
ATOM     14  C   UNL     1      13.737   0.971  25.750  1.00  0.00     0.012 C 
ATOM     15  C   UNL     1      12.837  -1.125  24.746  1.00  0.00     0.012 C 
ENDROOT
TORSDOF 0
ENDMDL
MODEL 4
REMARK VINA RESULT:    -4.609      4.063      6.380
REMARK INTER + INTRA:          -4.609
REMARK INTER:                  -4.609
REMARK INTRA:                   0.000
REMARK UNBOUND:                 0.000
REMARK SMILES C=C1CCCC(C)(C)[C@@]12CC=C(C)CC2
REMARK SMILES IDX 13 1 12 2 11 3 10 4 9 5 15 6 14 7 2 8 1 9 3 10 4 11 5 12
REMARK SMILES IDX 6 13 7 14 8 15
REMARK H PARENT
REMARK Flexibility Score: inf
ROOT
ATOM      1  C   UNL     1       4.662  -2.420  18.188  1.00  0.00     0.039 C 
ATOM      2  C   UNL     1       4.811  -3.336  19.372  1.00  0.00    -0.077 C 
ATOM      3  C   UNL     1       4.494  -4.635  19.238  1.00  0.00    -0.027 C 
ATOM      4  C   UNL     1       4.681  -5.607  20.367  1.00  0.00     0.039 C 
ATOM      5  C   UNL     1       4.314  -4.966  21.742  1.00  0.00    -0.000 C 
ATOM      6  C   UNL     1       5.296  -3.749  21.885  1.00  0.00     0.017 C 
ATOM      7  C   UNL     1       5.273  -2.755  20.694  1.00  0.00     0.031 C 
ATOM      8  C   UNL     1       2.820  -4.551  21.727  1.00  0.00    -0.070 C 
ATOM      9  C   UNL     1       2.370  -3.329  22.087  1.00  0.00     0.008 C 
ATOM     10  C   UNL     1       1.803  -5.657  21.564  1.00  0.00     0.031 C 
ATOM     11  C   UNL     1       1.969  -6.658  22.707  1.00  0.00     0.005 C 
ATOM     12  C   UNL     1       3.416  -7.164  22.816  1.00  0.00     0.008 C 
ATOM     13  C   UNL     1       4.484  -6.023  22.934  1.00  0.00    -0.026 C 
ATOM     14  C   UNL     1       4.320  -5.335  24.317  1.00  0.00     0.012 C 
ATOM     15  C   UNL     1       5.875  -6.715  22.943  1.00  0.00     0.012 C 
ENDROOT
TORSDOF 0
ENDMDL
MODEL 5
REMARK VINA RESULT:    -4.575      3.621      6.863
REMARK INTER + INTRA:          -4.575
REMARK INTER:                  -4.575
REMARK INTRA:                   0.000
REMARK UNBOUND:                 0.000
REMARK SMILES C=C1CCCC(C)(C)[C@@]12CC=C(C)CC2
REMARK SMILES IDX 13 1 12 2 11 3 10 4 9 5 15 6 14 7 2 8 1 9 3 10 4 11 5 12
REMARK SMILES IDX 6 13 7 14 8 15
REMARK H PARENT
REMARK Flexibility Score: inf
ROOT
ATOM      1  C   UNL     1       4.996  -4.871  24.282  1.00  0.00     0.039 C 
ATOM      2  C   UNL     1       4.188  -4.802  23.016  1.00  0.00    -0.077 C 
ATOM      3  C   UNL     1       4.048  -3.620  22.393  1.00  0.00    -0.027 C 
ATOM      4  C   UNL     1       3.304  -3.503  21.094  1.00  0.00     0.039 C 
ATOM      5  C   UNL     1       2.047  -4.428  21.066  1.00  0.00    -0.000 C 
ATOM      6  C   UNL     1       2.621  -5.878  21.252  1.00  0.00     0.017 C 
ATOM      7  C   UNL     1       3.520  -6.063  22.504  1.00  0.00     0.031 C 
ATOM      8  C   UNL     1       1.078  -4.002  22.198  1.00  0.00    -0.070 C 
ATOM      9  C   UNL     1       0.539  -4.856  23.095  1.00  0.00     0.008 C 
ATOM     10  C   UNL     1       0.499  -2.607  22.116  1.00  0.00     0.031 C 
ATOM     11  C   UNL     1      -0.270  -2.465  20.802  1.00  0.00     0.005 C 
ATOM     12  C   UNL     1       0.597  -2.844  19.590  1.00  0.00     0.008 C 
ATOM     13  C   UNL     1       1.245  -4.268  19.689  1.00  0.00    -0.026 C 
ATOM     14  C   UNL     1       0.117  -5.331  19.575  1.00  0.00     0.012 C 
ATOM     15  C   UNL     1       2.144  -4.435  18.434  1.00  0.00     0.012 C 
ENDROOT
TORSDOF 0
ENDMDL
MODEL 6
REMARK VINA RESULT:    -4.541      3.743      5.837
REMARK INTER + INTRA:          -4.541
REMARK INTER:                  -4.541
REMARK INTRA:                   0.000
REMARK UNBOUND:                 0.000
REMARK SMILES C=C1CCCC(C)(C)[C@@]12CC=C(C)CC2
REMARK SMILES IDX 13 1 12 2 11 3 10 4 9 5 15 6 14 7 2 8 1 9 3 10 4 11 5 12
REMARK SMILES IDX 6 13 7 14 8 15
REMARK H PARENT
REMARK Flexibility Score: inf
ROOT
ATOM      1  C   UNL     1       6.093  -3.018  18.533  1.00  0.00     0.039 C 
ATOM      2  C   UNL     1       5.147  -3.603  19.545  1.00  0.00    -0.077 C 
ATOM      3  C   UNL     1       4.682  -4.850  19.363  1.00  0.00    -0.027 C 
ATOM      4  C   UNL     1       3.785  -5.506  20.372  1.00  0.00     0.039 C 
ATOM      5  C   UNL     1       2.763  -4.492  20.976  1.00  0.00    -0.000 C 
ATOM      6  C   UNL     1       3.655  -3.391  21.654  1.00  0.00     0.017 C 
ATOM      7  C   UNL     1       4.711  -2.747  20.719  1.00  0.00     0.031 C 
ATOM      8  C   UNL     1       1.863  -3.940  19.841  1.00  0.00    -0.070 C 
ATOM      9  C   UNL     1       1.630  -2.627  19.631  1.00  0.00     0.008 C 
ATOM     10  C   UNL     1       0.991  -4.937  19.111  1.00  0.00     0.031 C 
ATOM     11  C   UNL     1       0.062  -5.615  20.118  1.00  0.00     0.005 C 
ATOM     12  C   UNL     1       0.842  -6.225  21.294  1.00  0.00     0.008 C 
ATOM     13  C   UNL     1       1.789  -5.213  22.025  1.00  0.00    -0.026 C 
ATOM     14  C   UNL     1       0.912  -4.172  22.776  1.00  0.00     0.012 C 
ATOM     15  C   UNL     1       2.551  -6.021  23.111  1.00  0.00     0.012 C 
ENDROOT
TORSDOF 0
ENDMDL
MODEL 7
REMARK VINA RESULT:    -4.508      3.945      6.474
REMARK INTER + INTRA:          -4.508
REMARK INTER:                  -4.508
REMARK INTRA:                   0.000
REMARK UNBOUND:                 0.000
REMARK SMILES C=C1CCCC(C)(C)[C@@]12CC=C(C)CC2
REMARK SMILES IDX 13 1 12 2 11 3 10 4 9 5 15 6 14 7 2 8 1 9 3 10 4 11 5 12
REMARK SMILES IDX 6 13 7 14 8 15
REMARK H PARENT
REMARK Flexibility Score: inf
ROOT
ATOM      1  C   UNL     1      -0.288  -1.864  19.183  1.00  0.00     0.039 C 
ATOM      2  C   UNL     1       0.022  -2.930  20.198  1.00  0.00    -0.077 C 
ATOM      3  C   UNL     1       0.209  -2.578  21.481  1.00  0.00    -0.027 C 
ATOM      4  C   UNL     1       0.459  -3.605  22.546  1.00  0.00     0.039 C 
ATOM      5  C   UNL     1       1.374  -4.759  22.028  1.00  0.00    -0.000 C 
ATOM      6  C   UNL     1       0.578  -5.383  20.826  1.00  0.00     0.017 C 
ATOM      7  C   UNL     1       0.155  -4.367  19.733  1.00  0.00     0.031 C 
ATOM      8  C   UNL     1       2.748  -4.171  21.615  1.00  0.00    -0.070 C 
ATOM      9  C   UNL     1       3.350  -4.413  20.431  1.00  0.00     0.008 C 
ATOM     10  C   UNL     1       3.572  -3.523  22.705  1.00  0.00     0.031 C 
ATOM     11  C   UNL     1       3.845  -4.552  23.801  1.00  0.00     0.005 C 
ATOM     12  C   UNL     1       2.548  -5.200  24.312  1.00  0.00     0.008 C 
ATOM     13  C   UNL     1       1.661  -5.830  23.184  1.00  0.00    -0.026 C 
ATOM     14  C   UNL     1       2.396  -7.077  22.619  1.00  0.00     0.012 C 
ATOM     15  C   UNL     1       0.369  -6.349  23.872  1.00  0.00     0.012 C 
ENDROOT
TORSDOF 0
ENDMDL
MODEL 8
REMARK VINA RESULT:    -4.497      3.188      6.199
REMARK INTER + INTRA:          -4.497
REMARK INTER:                  -4.497
REMARK INTRA:                   0.000
REMARK UNBOUND:                 0.000
REMARK SMILES C=C1CCCC(C)(C)[C@@]12CC=C(C)CC2
REMARK SMILES IDX 13 1 12 2 11 3 10 4 9 5 15 6 14 7 2 8 1 9 3 10 4 11 5 12
REMARK SMILES IDX 6 13 7 14 8 15
REMARK H PARENT
REMARK Flexibility Score: inf
ROOT
ATOM      1  C   UNL     1       0.123  -5.710  24.380  1.00  0.00     0.039 C 
ATOM      2  C   UNL     1       1.004  -5.232  23.260  1.00  0.00    -0.077 C 
ATOM      3  C   UNL     1       1.041  -3.921  22.970  1.00  0.00    -0.027 C 
ATOM      4  C   UNL     1       1.949  -3.380  21.903  1.00  0.00     0.039 C 
ATOM      5  C   UNL     1       2.028  -4.340  20.675  1.00  0.00    -0.000 C 
ATOM      6  C   UNL     1       2.593  -5.684  21.261  1.00  0.00     0.017 C 
ATOM      7  C   UNL     1       1.794  -6.253  22.463  1.00  0.00     0.031 C 
ATOM      8  C   UNL     1       0.615  -4.488  20.054  1.00  0.00    -0.070 C 
ATOM      9  C   UNL     1       0.034  -5.673  19.768  1.00  0.00     0.008 C 
ATOM     10  C   UNL     1      -0.020  -3.237  19.490  1.00  0.00     0.031 C 
ATOM     11  C   UNL     1       0.884  -2.669  18.397  1.00  0.00     0.005 C 
ATOM     12  C   UNL     1       2.322  -2.458  18.897  1.00  0.00     0.008 C 
ATOM     13  C   UNL     1       2.972  -3.735  19.531  1.00  0.00    -0.026 C 
ATOM     14  C   UNL     1       3.215  -4.775  18.402  1.00  0.00     0.012 C 
ATOM     15  C   UNL     1       4.371  -3.310  20.054  1.00  0.00     0.012 C 
ENDROOT
TORSDOF 0
ENDMDL
MODEL 9
REMARK VINA RESULT:    -4.282      3.834      6.048
REMARK INTER + INTRA:          -4.282
REMARK INTER:                  -4.282
REMARK INTRA:                   0.000
REMARK UNBOUND:                 0.000
REMARK SMILES C=C1CCCC(C)(C)[C@@]12CC=C(C)CC2
REMARK SMILES IDX 13 1 12 2 11 3 10 4 9 5 15 6 14 7 2 8 1 9 3 10 4 11 5 12
REMARK SMILES IDX 6 13 7 14 8 15
REMARK H PARENT
REMARK Flexibility Score: inf
ROOT
ATOM      1  C   UNL     1       2.740  -3.752  17.607  1.00  0.00     0.039 C 
ATOM      2  C   UNL     1       2.541  -3.696  19.096  1.00  0.00    -0.077 C 
ATOM      3  C   UNL     1       3.449  -4.274  19.900  1.00  0.00    -0.027 C 
ATOM      4  C   UNL     1       3.334  -4.195  21.395  1.00  0.00     0.039 C 
ATOM      5  C   UNL     1       1.849  -4.318  21.864  1.00  0.00    -0.000 C 
ATOM      6  C   UNL     1       1.119  -3.105  21.183  1.00  0.00     0.017 C 
ATOM      7  C   UNL     1       1.296  -3.025  19.644  1.00  0.00     0.031 C 
ATOM      8  C   UNL     1       1.291  -5.696  21.424  1.00  0.00    -0.070 C 
ATOM      9  C   UNL     1       0.124  -5.865  20.766  1.00  0.00     0.008 C 
ATOM     10  C   UNL     1       1.954  -6.923  22.009  1.00  0.00     0.031 C 
ATOM     11  C   UNL     1       1.844  -6.869  23.533  1.00  0.00     0.005 C 
ATOM     12  C   UNL     1       2.388  -5.547  24.098  1.00  0.00     0.008 C 
ATOM     13  C   UNL     1       1.744  -4.268  23.461  1.00  0.00    -0.026 C 
ATOM     14  C   UNL     1       0.261  -4.183  23.919  1.00  0.00     0.012 C 
ATOM     15  C   UNL     1       2.473  -3.046  24.084  1.00  0.00     0.012 C 
ENDROOT
TORSDOF 0
ENDMDL
