MODEL 1
REMARK VINA RESULT:     1.331      0.000      0.000
REMARK INTER + INTRA:           1.588
REMARK INTER:                   2.421
REMARK INTRA:                  -0.833
REMARK UNBOUND:                -0.833
REMARK SMILES CCCCCCCCCCCCCCCC(=O)[O-]
REMARK SMILES IDX 9 1 10 2 11 3 12 4 13 5 14 6 15 7 16 8 17 9 18 10 8 11 7 12
REMARK SMILES IDX 6 13 5 14 4 15 3 16 2 17 1 18
REMARK H PARENT
REMARK Flexibility Score: inf
ROOT
ATOM      1  C   UNL     1     103.372 104.041 102.274  1.00  0.00     0.000 C 
ENDROOT
BRANCH   1   2
ATOM      2  C   UNL     1     103.823 102.569 102.303  1.00  0.00     0.000 C 
BRANCH   2   3
ATOM      3  C   UNL     1     103.357 101.836 103.571  1.00  0.00     0.000 C 
BRANCH   3   4
ATOM      4  C   UNL     1     103.246 102.773 104.786  1.00  0.00     0.000 C 
BRANCH   4   5
ATOM      5  C   UNL     1     103.365 102.024 106.122  1.00  0.00     0.000 C 
BRANCH   5   6
ATOM      6  C   UNL     1     103.853 102.926 107.265  1.00  0.00     0.006 C 
BRANCH   6   7
ATOM      7  C   UNL     1     103.414 104.377 107.044  1.00  0.00     0.053 C 
BRANCH   7   8
ATOM      8  C   UNL     1     104.566 105.310 107.243  1.00  0.00     0.041 C 
ATOM      9  O   UNL     1     105.744 104.868 107.255  1.00  0.00    -0.550 OA
ATOM     10  O   UNL     1     104.335 106.662 107.466  1.00  0.00    -0.550 OA
ENDBRANCH   7   8
ENDBRANCH   6   7
ENDBRANCH   5   6
ENDBRANCH   4   5
ENDBRANCH   3   4
ENDBRANCH   2   3
ENDBRANCH   1   2
BRANCH   1  11
ATOM     11  C   UNL     1     104.546 105.019 102.438  1.00  0.00     0.000 C 
BRANCH  11  12
ATOM     12  C   UNL     1     104.623 106.045 101.296  1.00  0.00    -0.000 C 
BRANCH  12  13
ATOM     13  C   UNL     1     104.814 105.388  99.917  1.00  0.00    -0.000 C 
BRANCH  13  14
ATOM     14  C   UNL     1     104.643 106.371  98.739  1.00  0.00    -0.000 C 
BRANCH  14  15
ATOM     15  C   UNL     1     104.036 105.691  97.500  1.00  0.00    -0.000 C 
BRANCH  15  16
ATOM     16  C   UNL     1     104.412 104.204  97.395  1.00  0.00    -0.000 C 
BRANCH  16  17
ATOM     17  C   UNL     1     103.224 103.273  97.672  1.00  0.00    -0.003 C 
ATOM     18  C   UNL     1     103.694 101.842  97.920  1.00  0.00     0.004 C 
ENDBRANCH  16  17
ENDBRANCH  15  16
ENDBRANCH  14  15
ENDBRANCH  13  14
ENDBRANCH  12  13
ENDBRANCH  11  12
ENDBRANCH   1  11
TORSDOF 14
ENDMDL
MODEL 2
REMARK VINA RESULT:     1.373      1.767      3.305
REMARK INTER + INTRA:           1.664
REMARK INTER:                   2.463
REMARK INTRA:                  -0.799
REMARK UNBOUND:                -0.833
REMARK SMILES CCCCCCCCCCCCCCCC(=O)[O-]
REMARK SMILES IDX 9 1 10 2 11 3 12 4 13 5 14 6 15 7 16 8 17 9 18 10 8 11 7 12
REMARK SMILES IDX 6 13 5 14 4 15 3 16 2 17 1 18
REMARK H PARENT
REMARK Flexibility Score: inf
ROOT
ATOM      1  C   UNL     1     104.671 104.460 102.304  1.00  0.00     0.000 C 
ENDROOT
BRANCH   1   2
ATOM      2  C   UNL     1     104.137 105.889 102.509  1.00  0.00     0.000 C 
BRANCH   2   3
ATOM      3  C   UNL     1     104.690 106.546 103.783  1.00  0.00     0.000 C 
BRANCH   3   4
ATOM      4  C   UNL     1     104.746 105.572 104.972  1.00  0.00     0.000 C 
BRANCH   4   5
ATOM      5  C   UNL     1     104.466 106.264 106.316  1.00  0.00     0.000 C 
BRANCH   5   6
ATOM      6  C   UNL     1     104.255 105.265 107.463  1.00  0.00     0.006 C 
BRANCH   6   7
ATOM      7  C   UNL     1     104.593 103.839 107.017  1.00  0.00     0.053 C 
BRANCH   7   8
ATOM      8  C   UNL     1     103.439 102.922 107.274  1.00  0.00     0.041 C 
ATOM      9  O   UNL     1     103.638 101.694 107.471  1.00  0.00    -0.550 OA
ATOM     10  O   UNL     1     102.140 103.413 107.245  1.00  0.00    -0.550 OA
ENDBRANCH   7   8
ENDBRANCH   6   7
ENDBRANCH   5   6
ENDBRANCH   4   5
ENDBRANCH   3   4
ENDBRANCH   2   3
ENDBRANCH   1   2
BRANCH   1  11
ATOM     11  C   UNL     1     103.585 103.391 102.505  1.00  0.00     0.000 C 
BRANCH  11  12
ATOM     12  C   UNL     1     103.574 102.342 101.381  1.00  0.00    -0.000 C 
BRANCH  12  13
ATOM     13  C   UNL     1     103.212 102.941 100.011  1.00  0.00    -0.000 C 
BRANCH  13  14
ATOM     14  C   UNL     1     103.392 101.951  98.840  1.00  0.00    -0.000 C 
BRANCH  14  15
ATOM     15  C   UNL     1     103.867 102.652  97.555  1.00  0.00    -0.000 C 
BRANCH  15  16
ATOM     16  C   UNL     1     103.499 104.144  97.523  1.00  0.00    -0.000 C 
BRANCH  16  17
ATOM     17  C   UNL     1     104.719 105.057  97.710  1.00  0.00    -0.003 C 
ATOM     18  C   UNL     1     104.304 106.525  97.762  1.00  0.00     0.004 C 
ENDBRANCH  16  17
ENDBRANCH  15  16
ENDBRANCH  14  15
ENDBRANCH  13  14
ENDBRANCH  12  13
ENDBRANCH  11  12
ENDBRANCH   1  11
TORSDOF 14
ENDMDL
MODEL 3
REMARK VINA RESULT:     1.375      3.479      8.119
REMARK INTER + INTRA:           1.668
REMARK INTER:                   2.384
REMARK INTRA:                  -0.716
REMARK UNBOUND:                -0.833
REMARK SMILES CCCCCCCCCCCCCCCC(=O)[O-]
REMARK SMILES IDX 9 1 10 2 11 3 12 4 13 5 14 6 15 7 16 8 17 9 18 10 8 11 7 12
REMARK SMILES IDX 6 13 5 14 4 15 3 16 2 17 1 18
REMARK H PARENT
REMARK Flexibility Score: inf
ROOT
ATOM      1  C   UNL     1     104.681 104.332 102.258  1.00  0.00     0.000 C 
ENDROOT
BRANCH   1   2
ATOM      2  C   UNL     1     104.364 105.833 102.396  1.00  0.00     0.000 C 
BRANCH   2   3
ATOM      3  C   UNL     1     104.487 106.584 101.060  1.00  0.00     0.000 C 
BRANCH   3   4
ATOM      4  C   UNL     1     104.750 105.640  99.875  1.00  0.00     0.000 C 
BRANCH   4   5
ATOM      5  C   UNL     1     104.500 106.315  98.517  1.00  0.00     0.000 C 
BRANCH   5   6
ATOM      6  C   UNL     1     104.166 105.306  97.408  1.00  0.00     0.006 C 
BRANCH   6   7
ATOM      7  C   UNL     1     104.654 103.902  97.779  1.00  0.00     0.053 C 
BRANCH   7   8
ATOM      8  C   UNL     1     103.510 102.939  97.806  1.00  0.00     0.041 C 
ATOM      9  O   UNL     1     103.725 101.698  97.792  1.00  0.00    -0.550 OA
ATOM     10  O   UNL     1     102.203 103.411  97.793  1.00  0.00    -0.550 OA
ENDBRANCH   7   8
ENDBRANCH   6   7
ENDBRANCH   5   6
ENDBRANCH   4   5
ENDBRANCH   3   4
ENDBRANCH   2   3
ENDBRANCH   1   2
BRANCH   1  11
ATOM     11  C   UNL     1     103.413 103.463 102.229  1.00  0.00     0.000 C 
BRANCH  11  12
ATOM     12  C   UNL     1     103.424 102.370 103.308  1.00  0.00    -0.000 C 
BRANCH  12  13
ATOM     13  C   UNL     1     103.291 102.936 104.733  1.00  0.00    -0.000 C 
BRANCH  13  14
ATOM     14  C   UNL     1     103.411 101.862 105.835  1.00  0.00    -0.000 C 
BRANCH  14  15
ATOM     15  C   UNL     1     103.691 102.479 107.217  1.00  0.00    -0.000 C 
BRANCH  15  16
ATOM     16  C   UNL     1     103.404 103.988 107.263  1.00  0.00    -0.000 C 
BRANCH  16  17
ATOM     17  C   UNL     1     104.683 104.834 107.202  1.00  0.00    -0.003 C 
ATOM     18  C   UNL     1     104.358 106.325 107.251  1.00  0.00     0.004 C 
ENDBRANCH  16  17
ENDBRANCH  15  16
ENDBRANCH  14  15
ENDBRANCH  13  14
ENDBRANCH  12  13
ENDBRANCH  11  12
ENDBRANCH   1  11
TORSDOF 14
ENDMDL
MODEL 4
REMARK VINA RESULT:     1.384      3.352      9.166
REMARK INTER + INTRA:           1.684
REMARK INTER:                   2.503
REMARK INTRA:                  -0.819
REMARK UNBOUND:                -0.833
REMARK SMILES CCCCCCCCCCCCCCCC(=O)[O-]
REMARK SMILES IDX 9 1 10 2 11 3 12 4 13 5 14 6 15 7 16 8 17 9 18 10 8 11 7 12
REMARK SMILES IDX 6 13 5 14 4 15 3 16 2 17 1 18
REMARK H PARENT
REMARK Flexibility Score: inf
ROOT
ATOM      1  C   UNL     1     104.596 103.869 106.867  1.00  0.00     0.000 C 
ENDROOT
BRANCH   1   2
ATOM      2  C   UNL     1     104.395 105.361 107.190  1.00  0.00     0.000 C 
BRANCH   2   3
ATOM      3  C   UNL     1     104.447 106.246 105.934  1.00  0.00     0.000 C 
BRANCH   3   4
ATOM      4  C   UNL     1     104.842 105.457 104.674  1.00  0.00     0.000 C 
BRANCH   4   5
ATOM      5  C   UNL     1     104.611 106.256 103.381  1.00  0.00     0.000 C 
BRANCH   5   6
ATOM      6  C   UNL     1     104.086 105.382 102.233  1.00  0.00     0.006 C 
BRANCH   6   7
ATOM      7  C   UNL     1     104.619 103.951 102.344  1.00  0.00     0.053 C 
BRANCH   7   8
ATOM      8  C   UNL     1     103.488 102.978 102.469  1.00  0.00     0.041 C 
ATOM      9  O   UNL     1     102.300 103.392 102.522  1.00  0.00    -0.550 OA
ATOM     10  O   UNL     1     103.750 101.618 102.579  1.00  0.00    -0.550 OA
ENDBRANCH   7   8
ENDBRANCH   6   7
ENDBRANCH   5   6
ENDBRANCH   4   5
ENDBRANCH   3   4
ENDBRANCH   2   3
ENDBRANCH   1   2
BRANCH   1  11
ATOM     11  C   UNL     1     103.290 103.064 106.968  1.00  0.00     0.000 C 
BRANCH  11  12
ATOM     12  C   UNL     1     103.292 102.083 108.151  1.00  0.00    -0.000 C 
BRANCH  12  13
ATOM     13  C   UNL     1     103.307 102.794 109.515  1.00  0.00    -0.000 C 
BRANCH  13  14
ATOM     14  C   UNL     1     103.336 101.823 110.715  1.00  0.00    -0.000 C 
BRANCH  14  15
ATOM     15  C   UNL     1     103.731 102.529 112.024  1.00  0.00    -0.000 C 
BRANCH  15  16
ATOM     16  C   UNL     1     103.435 104.036 111.997  1.00  0.00    -0.000 C 
BRANCH  16  17
ATOM     17  C   UNL     1     104.708 104.890 112.076  1.00  0.00    -0.003 C 
ATOM     18  C   UNL     1     104.377 106.379 112.002  1.00  0.00     0.004 C 
ENDBRANCH  16  17
ENDBRANCH  15  16
ENDBRANCH  14  15
ENDBRANCH  13  14
ENDBRANCH  12  13
ENDBRANCH  11  12
ENDBRANCH   1  11
TORSDOF 14
ENDMDL
MODEL 5
REMARK VINA RESULT:     1.400      3.387      7.433
REMARK INTER + INTRA:           1.712
REMARK INTER:                   2.516
REMARK INTRA:                  -0.804
REMARK UNBOUND:                -0.833
REMARK SMILES CCCCCCCCCCCCCCCC(=O)[O-]
REMARK SMILES IDX 9 1 10 2 11 3 12 4 13 5 14 6 15 7 16 8 17 9 18 10 8 11 7 12
REMARK SMILES IDX 6 13 5 14 4 15 3 16 2 17 1 18
REMARK H PARENT
REMARK Flexibility Score: inf
ROOT
ATOM      1  C   UNL     1     103.393 104.305 102.190  1.00  0.00     0.000 C 
ENDROOT
BRANCH   1   2
ATOM      2  C   UNL     1     103.606 102.806 102.474  1.00  0.00     0.000 C 
BRANCH   2   3
ATOM      3  C   UNL     1     103.633 101.963 101.189  1.00  0.00     0.000 C 
BRANCH   3   4
ATOM      4  C   UNL     1     103.260 102.780  99.941  1.00  0.00     0.000 C 
BRANCH   4   5
ATOM      5  C   UNL     1     103.507 102.008  98.635  1.00  0.00     0.000 C 
BRANCH   5   6
ATOM      6  C   UNL     1     103.775 102.937  97.441  1.00  0.00     0.006 C 
BRANCH   6   7
ATOM      7  C   UNL     1     103.317 104.367  97.745  1.00  0.00     0.053 C 
BRANCH   7   8
ATOM      8  C   UNL     1     104.487 105.299  97.768  1.00  0.00     0.041 C 
ATOM      9  O   UNL     1     105.660 104.843  97.775  1.00  0.00    -0.550 OA
ATOM     10  O   UNL     1     104.281 106.672  97.835  1.00  0.00    -0.550 OA
ENDBRANCH   7   8
ENDBRANCH   6   7
ENDBRANCH   5   6
ENDBRANCH   4   5
ENDBRANCH   3   4
ENDBRANCH   2   3
ENDBRANCH   1   2
BRANCH   1  11
ATOM     11  C   UNL     1     104.700 105.110 102.272  1.00  0.00     0.000 C 
BRANCH  11  12
ATOM     12  C   UNL     1     104.684 106.147 103.406  1.00  0.00    -0.000 C 
BRANCH  12  13
ATOM     13  C   UNL     1     104.732 105.504 104.803  1.00  0.00    -0.000 C 
BRANCH  13  14
ATOM     14  C   UNL     1     104.600 106.523 105.955  1.00  0.00    -0.000 C 
BRANCH  14  15
ATOM     15  C   UNL     1     104.261 105.846 107.294  1.00  0.00    -0.000 C 
BRANCH  15  16
ATOM     16  C   UNL     1     104.556 104.337 107.287  1.00  0.00    -0.000 C 
BRANCH  16  17
ATOM     17  C   UNL     1     103.279 103.485 107.282  1.00  0.00    -0.003 C 
ATOM     18  C   UNL     1     103.612 101.996 107.232  1.00  0.00     0.004 C 
ENDBRANCH  16  17
ENDBRANCH  15  16
ENDBRANCH  14  15
ENDBRANCH  13  14
ENDBRANCH  12  13
ENDBRANCH  11  12
ENDBRANCH   1  11
TORSDOF 14
ENDMDL
MODEL 6
REMARK VINA RESULT:     1.401      3.011      8.578
REMARK INTER + INTRA:           1.714
REMARK INTER:                   2.504
REMARK INTRA:                  -0.790
REMARK UNBOUND:                -0.833
REMARK SMILES CCCCCCCCCCCCCCCC(=O)[O-]
REMARK SMILES IDX 9 1 10 2 11 3 12 4 13 5 14 6 15 7 16 8 17 9 18 10 8 11 7 12
REMARK SMILES IDX 6 13 5 14 4 15 3 16 2 17 1 18
REMARK H PARENT
REMARK Flexibility Score: inf
ROOT
ATOM      1  C   UNL     1     103.471 104.375 106.854  1.00  0.00     0.000 C 
ENDROOT
BRANCH   1   2
ATOM      2  C   UNL     1     103.661 102.870 107.121  1.00  0.00     0.000 C 
BRANCH   2   3
ATOM      3  C   UNL     1     103.394 102.014 105.873  1.00  0.00     0.000 C 
BRANCH   3   4
ATOM      4  C   UNL     1     103.175 102.865 104.611  1.00  0.00     0.000 C 
BRANCH   4   5
ATOM      5  C   UNL     1     103.443 102.080 103.316  1.00  0.00     0.000 C 
BRANCH   5   6
ATOM      6  C   UNL     1     103.930 102.980 102.171  1.00  0.00     0.006 C 
BRANCH   6   7
ATOM      7  C   UNL     1     103.398 104.407 102.329  1.00  0.00     0.053 C 
BRANCH   7   8
ATOM      8  C   UNL     1     104.528 105.375 102.481  1.00  0.00     0.041 C 
ATOM      9  O   UNL     1     104.297 106.609 102.574  1.00  0.00    -0.550 OA
ATOM     10  O   UNL     1     105.841 104.919 102.467  1.00  0.00    -0.550 OA
ENDBRANCH   7   8
ENDBRANCH   6   7
ENDBRANCH   5   6
ENDBRANCH   4   5
ENDBRANCH   3   4
ENDBRANCH   2   3
ENDBRANCH   1   2
BRANCH   1  11
ATOM     11  C   UNL     1     104.768 105.176 107.054  1.00  0.00     0.000 C 
BRANCH  11  12
ATOM     12  C   UNL     1     104.673 106.169 108.222  1.00  0.00    -0.000 C 
BRANCH  12  13
ATOM     13  C   UNL     1     104.738 105.481 109.597  1.00  0.00    -0.000 C 
BRANCH  13  14
ATOM     14  C   UNL     1     104.546 106.452 110.781  1.00  0.00    -0.000 C 
BRANCH  14  15
ATOM     15  C   UNL     1     104.349 105.710 112.115  1.00  0.00    -0.000 C 
BRANCH  15  16
ATOM     16  C   UNL     1     104.597 104.198 111.994  1.00  0.00    -0.000 C 
BRANCH  16  17
ATOM     17  C   UNL     1     103.297 103.383 112.006  1.00  0.00    -0.003 C 
ATOM     18  C   UNL     1     103.587 101.884 111.998  1.00  0.00     0.004 C 
ENDBRANCH  16  17
ENDBRANCH  15  16
ENDBRANCH  14  15
ENDBRANCH  13  14
ENDBRANCH  12  13
ENDBRANCH  11  12
ENDBRANCH   1  11
TORSDOF 14
ENDMDL
MODEL 7
REMARK VINA RESULT:     1.421      3.016      4.851
REMARK INTER + INTRA:           1.751
REMARK INTER:                   2.571
REMARK INTRA:                  -0.820
REMARK UNBOUND:                -0.833
REMARK SMILES CCCCCCCCCCCCCCCC(=O)[O-]
REMARK SMILES IDX 9 1 10 2 11 3 12 4 13 5 14 6 15 7 16 8 17 9 18 10 8 11 7 12
REMARK SMILES IDX 6 13 5 14 4 15 3 16 2 17 1 18
REMARK H PARENT
REMARK Flexibility Score: inf
ROOT
ATOM      1  C   UNL     1     103.339 103.969 107.161  1.00  0.00     0.000 C 
ENDROOT
BRANCH   1   2
ATOM      2  C   UNL     1     103.741 102.483 107.139  1.00  0.00     0.000 C 
BRANCH   2   3
ATOM      3  C   UNL     1     103.408 101.764 108.456  1.00  0.00     0.000 C 
BRANCH   3   4
ATOM      4  C   UNL     1     103.276 102.737 109.640  1.00  0.00     0.000 C 
BRANCH   4   5
ATOM      5  C   UNL     1     103.667 102.093 110.980  1.00  0.00     0.000 C 
BRANCH   5   6
ATOM      6  C   UNL     1     103.584 103.078 112.155  1.00  0.00     0.006 C 
BRANCH   6   7
ATOM      7  C   UNL     1     103.345 104.507 111.659  1.00  0.00     0.053 C 
BRANCH   7   8
ATOM      8  C   UNL     1     104.503 105.386 112.013  1.00  0.00     0.041 C 
ATOM      9  O   UNL     1     104.336 106.624 112.162  1.00  0.00    -0.550 OA
ATOM     10  O   UNL     1     105.778 104.844 112.127  1.00  0.00    -0.550 OA
ENDBRANCH   7   8
ENDBRANCH   6   7
ENDBRANCH   5   6
ENDBRANCH   4   5
ENDBRANCH   3   4
ENDBRANCH   2   3
ENDBRANCH   1   2
BRANCH   1  11
ATOM     11  C   UNL     1     104.556 104.906 107.229  1.00  0.00     0.000 C 
BRANCH  11  12
ATOM     12  C   UNL     1     104.555 105.955 106.106  1.00  0.00    -0.000 C 
BRANCH  12  13
ATOM     13  C   UNL     1     104.746 105.336 104.711  1.00  0.00    -0.000 C 
BRANCH  13  14
ATOM     14  C   UNL     1     104.656 106.364 103.563  1.00  0.00    -0.000 C 
BRANCH  14  15
ATOM     15  C   UNL     1     104.216 105.719 102.238  1.00  0.00    -0.000 C 
BRANCH  15  16
ATOM     16  C   UNL     1     104.549 104.220 102.169  1.00  0.00    -0.000 C 
BRANCH  16  17
ATOM     17  C   UNL     1     103.301 103.332 102.268  1.00  0.00    -0.003 C 
ATOM     18  C   UNL     1     103.676 101.893 102.614  1.00  0.00     0.004 C 
ENDBRANCH  16  17
ENDBRANCH  15  16
ENDBRANCH  14  15
ENDBRANCH  13  14
ENDBRANCH  12  13
ENDBRANCH  11  12
ENDBRANCH   1  11
TORSDOF 14
ENDMDL
MODEL 8
REMARK VINA RESULT:     1.467      3.220      5.774
REMARK INTER + INTRA:           1.835
REMARK INTER:                   2.646
REMARK INTRA:                  -0.811
REMARK UNBOUND:                -0.833
REMARK SMILES CCCCCCCCCCCCCCCC(=O)[O-]
REMARK SMILES IDX 9 1 10 2 11 3 12 4 13 5 14 6 15 7 16 8 17 9 18 10 8 11 7 12
REMARK SMILES IDX 6 13 5 14 4 15 3 16 2 17 1 18
REMARK H PARENT
REMARK Flexibility Score: inf
ROOT
ATOM      1  C   UNL     1     103.461 104.521 106.831  1.00  0.00     0.000 C 
ENDROOT
BRANCH   1   2
ATOM      2  C   UNL     1     104.737 105.359 107.032  1.00  0.00     0.000 C 
BRANCH   2   3
ATOM      3  C   UNL     1     104.686 106.209 108.311  1.00  0.00     0.000 C 
BRANCH   3   4
ATOM      4  C   UNL     1     104.670 105.352 109.588  1.00  0.00     0.000 C 
BRANCH   4   5
ATOM      5  C   UNL     1     104.537 106.198 110.865  1.00  0.00     0.000 C 
BRANCH   5   6
ATOM      6  C   UNL     1     104.150 105.359 112.091  1.00  0.00     0.006 C 
BRANCH   6   7
ATOM      7  C   UNL     1     104.621 103.909 111.936  1.00  0.00     0.053 C 
BRANCH   7   8
ATOM      8  C   UNL     1     103.465 102.967 112.051  1.00  0.00     0.041 C 
ATOM      9  O   UNL     1     103.664 101.725 112.103  1.00  0.00    -0.550 OA
ATOM     10  O   UNL     1     102.165 103.457 112.048  1.00  0.00    -0.550 OA
ENDBRANCH   7   8
ENDBRANCH   6   7
ENDBRANCH   5   6
ENDBRANCH   4   5
ENDBRANCH   3   4
ENDBRANCH   2   3
ENDBRANCH   1   2
BRANCH   1  11
ATOM     11  C   UNL     1     103.642 103.059 107.268  1.00  0.00     0.000 C 
BRANCH  11  12
ATOM     12  C   UNL     1     103.490 102.071 106.101  1.00  0.00    -0.000 C 
BRANCH  12  13
ATOM     13  C   UNL     1     103.287 102.775 104.747  1.00  0.00    -0.000 C 
BRANCH  13  14
ATOM     14  C   UNL     1     103.355 101.816 103.539  1.00  0.00    -0.000 C 
BRANCH  14  15
ATOM     15  C   UNL     1     103.775 102.538 102.247  1.00  0.00    -0.000 C 
BRANCH  15  16
ATOM     16  C   UNL     1     103.447 104.039 102.274  1.00  0.00    -0.000 C 
BRANCH  16  17
ATOM     17  C   UNL     1     104.704 104.919 102.304  1.00  0.00    -0.003 C 
ATOM     18  C   UNL     1     104.359 106.359 102.674  1.00  0.00     0.004 C 
ENDBRANCH  16  17
ENDBRANCH  15  16
ENDBRANCH  14  15
ENDBRANCH  13  14
ENDBRANCH  12  13
ENDBRANCH  11  12
ENDBRANCH   1  11
TORSDOF 14
ENDMDL
MODEL 9
REMARK VINA RESULT:     1.938      3.490      7.978
REMARK INTER + INTRA:           2.691
REMARK INTER:                   3.470
REMARK INTRA:                  -0.780
REMARK UNBOUND:                -0.833
REMARK SMILES CCCCCCCCCCCCCCCC(=O)[O-]
REMARK SMILES IDX 9 1 10 2 11 3 12 4 13 5 14 6 15 7 16 8 17 9 18 10 8 11 7 12
REMARK SMILES IDX 6 13 5 14 4 15 3 16 2 17 1 18
REMARK H PARENT
REMARK Flexibility Score: inf
ROOT
ATOM      1  C   UNL     1     103.321 104.024 102.576  1.00  0.00     0.000 C 
ENDROOT
BRANCH   1   2
ATOM      2  C   UNL     1     104.616 104.851 102.479  1.00  0.00     0.000 C 
BRANCH   2   3
ATOM      3  C   UNL     1     104.364 106.359 102.630  1.00  0.00     0.000 C 
BRANCH   3   4
ATOM      4  C   UNL     1     104.554 107.124 101.310  1.00  0.00     0.000 C 
BRANCH   4   5
ATOM      5  C   UNL     1     104.697 106.186 100.100  1.00  0.00     0.000 C 
BRANCH   5   6
ATOM      6  C   UNL     1     104.732 106.945  98.765  1.00  0.00     0.006 C 
BRANCH   6   7
ATOM      7  C   UNL     1     104.075 106.125  97.651  1.00  0.00     0.053 C 
BRANCH   7   8
ATOM      8  C   UNL     1     104.668 104.753  97.589  1.00  0.00     0.041 C 
ATOM      9  O   UNL     1     105.914 104.605  97.492  1.00  0.00    -0.550 OA
ATOM     10  O   UNL     1     103.840 103.637  97.587  1.00  0.00    -0.550 OA
ENDBRANCH   7   8
ENDBRANCH   6   7
ENDBRANCH   5   6
ENDBRANCH   4   5
ENDBRANCH   3   4
ENDBRANCH   2   3
ENDBRANCH   1   2
BRANCH   1  11
ATOM     11  C   UNL     1     103.555 102.530 102.302  1.00  0.00     0.000 C 
BRANCH  11  12
ATOM     12  C   UNL     1     103.407 101.668 103.566  1.00  0.00    -0.000 C 
BRANCH  12  13
ATOM     13  C   UNL     1     103.296 102.509 104.851  1.00  0.00    -0.000 C 
BRANCH  13  14
ATOM     14  C   UNL     1     103.428 101.676 106.144  1.00  0.00    -0.000 C 
BRANCH  14  15
ATOM     15  C   UNL     1     103.660 102.560 107.382  1.00  0.00    -0.000 C 
BRANCH  15  16
ATOM     16  C   UNL     1     103.390 104.048 107.107  1.00  0.00    -0.000 C 
BRANCH  16  17
ATOM     17  C   UNL     1     104.675 104.886 107.080  1.00  0.00    -0.003 C 
ATOM     18  C   UNL     1     104.377 106.358 107.356  1.00  0.00     0.004 C 
ENDBRANCH  16  17
ENDBRANCH  15  16
ENDBRANCH  14  15
ENDBRANCH  13  14
ENDBRANCH  12  13
ENDBRANCH  11  12
ENDBRANCH   1  11
TORSDOF 14
ENDMDL
