MODEL 1
REMARK VINA RESULT:    -5.187      0.000      0.000
REMARK INTER + INTRA:          -9.694
REMARK INTER:                  -7.917
REMARK INTRA:                  -1.777
REMARK UNBOUND:                -1.777
REMARK SMILES CC(=O)CCC=C(C)CCC=C(C)CCC=C(C)C
REMARK SMILES IDX 10 1 11 2 12 3 13 4 14 5 15 6 16 7 18 8 17 9 19 10 9 11 7 12
REMARK SMILES IDX 6 13 8 14 5 15 4 16 2 17 3 18 1 19
REMARK H PARENT
REMARK Flexibility Score: inf
ROOT
ATOM      1  C   UNL     1     -13.862   1.685  28.540  1.00  0.00     0.032 C 
ENDROOT
BRANCH   1   2
ATOM      2  C   UNL     1     -15.280   2.205  28.523  1.00  0.00    -0.028 C 
ATOM      3  C   UNL     1     -15.814   2.947  27.526  1.00  0.00    -0.077 C 
ATOM      4  C   UNL     1     -15.048   3.259  26.263  1.00  0.00     0.039 C 
BRANCH   3   5
ATOM      5  C   UNL     1     -17.244   3.432  27.651  1.00  0.00     0.034 C 
BRANCH   5   6
ATOM      6  C   UNL     1     -17.507   4.086  29.015  1.00  0.00     0.032 C 
BRANCH   6   7
ATOM      7  C   UNL     1     -17.082   5.536  29.041  1.00  0.00    -0.028 C 
ATOM      8  C   UNL     1     -15.243   5.145  30.696  1.00  0.00     0.039 C 
ATOM      9  C   UNL     1     -16.091   6.031  29.814  1.00  0.00    -0.080 C 
ATOM     10  C   UNL     1     -15.820   7.513  29.768  1.00  0.00     0.039 C 
ENDBRANCH   6   7
ENDBRANCH   5   6
ENDBRANCH   3   5
ENDBRANCH   1   2
BRANCH   1  11
ATOM     11  C   UNL     1     -13.745   0.381  29.342  1.00  0.00     0.034 C 
BRANCH  11  12
ATOM     12  C   UNL     1     -13.248   0.629  30.752  1.00  0.00    -0.077 C 
ATOM     13  C   UNL     1     -12.528   1.741  31.015  1.00  0.00    -0.028 C 
ATOM     14  C   UNL     1     -13.561  -0.379  31.833  1.00  0.00     0.039 C 
BRANCH  13  15
ATOM     15  C   UNL     1     -11.980   2.064  32.384  1.00  0.00     0.035 C 
BRANCH  15  16
ATOM     16  C   UNL     1     -12.738   3.238  33.022  1.00  0.00     0.079 C 
BRANCH  16  17
ATOM     17  C   UNL     1     -13.914   2.829  33.882  1.00  0.00     0.130 C 
ATOM     18  O   UNL     1     -14.989   3.379  33.692  1.00  0.00    -0.300 OA
ATOM     19  C   UNL     1     -13.818   1.780  34.955  1.00  0.00     0.087 C 
ENDBRANCH  16  17
ENDBRANCH  15  16
ENDBRANCH  13  15
ENDBRANCH  11  12
ENDBRANCH   1  11
TORSDOF 9
ENDMDL
MODEL 2
REMARK VINA RESULT:    -5.164      4.872      9.144
REMARK INTER + INTRA:          -9.658
REMARK INTER:                  -7.844
REMARK INTRA:                  -1.814
REMARK UNBOUND:                -1.777
REMARK SMILES CC(=O)CCC=C(C)CCC=C(C)CCC=C(C)C
REMARK SMILES IDX 10 1 11 2 12 3 13 4 14 5 15 6 16 7 18 8 17 9 19 10 9 11 7 12
REMARK SMILES IDX 6 13 8 14 5 15 4 16 2 17 3 18 1 19
REMARK H PARENT
REMARK Flexibility Score: inf
ROOT
ATOM      1  C   UNL     1     -11.130  10.667  31.011  1.00  0.00     0.032 C 
ENDROOT
BRANCH   1   2
ATOM      2  C   UNL     1     -11.093  10.273  32.468  1.00  0.00    -0.028 C 
ATOM      3  C   UNL     1     -10.151   9.479  33.026  1.00  0.00    -0.077 C 
ATOM      4  C   UNL     1      -8.966   8.971  32.240  1.00  0.00     0.039 C 
BRANCH   3   5
ATOM      5  C   UNL     1     -10.252   9.135  34.497  1.00  0.00     0.034 C 
BRANCH   5   6
ATOM      6  C   UNL     1     -11.542   8.366  34.816  1.00  0.00     0.032 C 
BRANCH   6   7
ATOM      7  C   UNL     1     -11.434   6.902  34.459  1.00  0.00    -0.028 C 
ATOM      8  C   UNL     1     -12.992   7.086  32.506  1.00  0.00     0.039 C 
ATOM      9  C   UNL     1     -12.103   6.308  33.447  1.00  0.00    -0.080 C 
ATOM     10  C   UNL     1     -11.930   4.823  33.248  1.00  0.00     0.039 C 
ENDBRANCH   6   7
ENDBRANCH   5   6
ENDBRANCH   3   5
ENDBRANCH   1   2
BRANCH   1  11
ATOM     11  C   UNL     1     -11.903  11.977  30.795  1.00  0.00     0.034 C 
BRANCH  11  12
ATOM     12  C   UNL     1     -13.370  11.725  30.511  1.00  0.00    -0.077 C 
ATOM     13  C   UNL     1     -13.733  10.612  29.839  1.00  0.00    -0.028 C 
ATOM     14  C   UNL     1     -14.396  12.731  30.980  1.00  0.00     0.039 C 
BRANCH  13  15
ATOM     15  C   UNL     1     -15.167  10.286  29.498  1.00  0.00     0.035 C 
BRANCH  15  16
ATOM     16  C   UNL     1     -15.622   8.993  30.193  1.00  0.00     0.079 C 
BRANCH  16  17
ATOM     17  C   UNL     1     -16.381   9.212  31.484  1.00  0.00     0.130 C 
ATOM     18  O   UNL     1     -16.293   8.363  32.358  1.00  0.00    -0.300 OA
ATOM     19  C   UNL     1     -17.234  10.424  31.736  1.00  0.00     0.087 C 
ENDBRANCH  16  17
ENDBRANCH  15  16
ENDBRANCH  13  15
ENDBRANCH  11  12
ENDBRANCH   1  11
TORSDOF 9
ENDMDL
MODEL 3
REMARK VINA RESULT:    -5.108      5.435      7.625
REMARK INTER + INTRA:          -9.573
REMARK INTER:                  -7.188
REMARK INTRA:                  -2.385
REMARK UNBOUND:                -1.777
REMARK SMILES CC(=O)CCC=C(C)CCC=C(C)CCC=C(C)C
REMARK SMILES IDX 10 1 11 2 12 3 13 4 14 5 15 6 16 7 18 8 17 9 19 10 9 11 7 12
REMARK SMILES IDX 6 13 8 14 5 15 4 16 2 17 3 18 1 19
REMARK H PARENT
REMARK Flexibility Score: inf
ROOT
ATOM      1  C   UNL     1     -12.728  12.078  30.160  1.00  0.00     0.032 C 
ENDROOT
BRANCH   1   2
ATOM      2  C   UNL     1     -14.178  12.022  30.576  1.00  0.00    -0.028 C 
ATOM      3  C   UNL     1     -15.102  11.194  30.036  1.00  0.00    -0.077 C 
ATOM      4  C   UNL     1     -14.737  10.157  29.000  1.00  0.00     0.039 C 
BRANCH   3   5
ATOM      5  C   UNL     1     -16.533  11.264  30.525  1.00  0.00     0.034 C 
BRANCH   5   6
ATOM      6  C   UNL     1     -17.081   9.877  30.889  1.00  0.00     0.032 C 
BRANCH   6   7
ATOM      7  C   UNL     1     -16.465   9.338  32.159  1.00  0.00    -0.028 C 
ATOM      8  C   UNL     1     -15.688   7.213  31.085  1.00  0.00     0.039 C 
ATOM      9  C   UNL     1     -15.867   8.132  32.270  1.00  0.00    -0.080 C 
ATOM     10  C   UNL     1     -15.346   7.713  33.621  1.00  0.00     0.039 C 
ENDBRANCH   6   7
ENDBRANCH   5   6
ENDBRANCH   3   5
ENDBRANCH   1   2
BRANCH   1  11
ATOM     11  C   UNL     1     -11.792  11.669  31.307  1.00  0.00     0.034 C 
BRANCH  11  12
ATOM     12  C   UNL     1     -11.433  10.198  31.245  1.00  0.00    -0.077 C 
ATOM     13  C   UNL     1     -12.291   9.285  31.749  1.00  0.00    -0.028 C 
ATOM     14  C   UNL     1     -10.118   9.784  30.626  1.00  0.00     0.039 C 
BRANCH  13  15
ATOM     15  C   UNL     1     -12.013   7.801  31.744  1.00  0.00     0.035 C 
BRANCH  15  16
ATOM     16  C   UNL     1     -11.683   7.293  33.156  1.00  0.00     0.079 C 
BRANCH  16  17
ATOM     17  C   UNL     1     -10.267   7.576  33.606  1.00  0.00     0.130 C 
ATOM     18  O   UNL     1      -9.383   6.813  33.249  1.00  0.00    -0.300 OA
ATOM     19  C   UNL     1      -9.902   8.752  34.470  1.00  0.00     0.087 C 
ENDBRANCH  16  17
ENDBRANCH  15  16
ENDBRANCH  13  15
ENDBRANCH  11  12
ENDBRANCH   1  11
TORSDOF 9
ENDMDL
MODEL 4
REMARK VINA RESULT:    -5.062      1.881      5.732
REMARK INTER + INTRA:          -9.502
REMARK INTER:                  -7.405
REMARK INTRA:                  -2.098
REMARK UNBOUND:                -1.777
REMARK SMILES CC(=O)CCC=C(C)CCC=C(C)CCC=C(C)C
REMARK SMILES IDX 10 1 11 2 12 3 13 4 14 5 15 6 16 7 18 8 17 9 19 10 9 11 7 12
REMARK SMILES IDX 6 13 8 14 5 15 4 16 2 17 3 18 1 19
REMARK H PARENT
REMARK Flexibility Score: inf
ROOT
ATOM      1  C   UNL     1     -13.639   1.972  34.223  1.00  0.00     0.032 C 
ENDROOT
BRANCH   1   2
ATOM      2  C   UNL     1     -13.744   1.003  33.069  1.00  0.00    -0.028 C 
ATOM      3  C   UNL     1     -12.704   0.611  32.298  1.00  0.00    -0.077 C 
ATOM      4  C   UNL     1     -11.288   1.050  32.582  1.00  0.00     0.039 C 
BRANCH   3   5
ATOM      5  C   UNL     1     -12.955  -0.344  31.149  1.00  0.00     0.034 C 
BRANCH   5   6
ATOM      6  C   UNL     1     -12.674   0.313  29.790  1.00  0.00     0.032 C 
BRANCH   6   7
ATOM      7  C   UNL     1     -13.941   0.775  29.110  1.00  0.00    -0.028 C 
ATOM      8  C   UNL     1     -13.574   3.185  29.683  1.00  0.00     0.039 C 
ATOM      9  C   UNL     1     -14.374   2.054  29.082  1.00  0.00    -0.080 C 
ATOM     10  C   UNL     1     -15.689   2.351  28.407  1.00  0.00     0.039 C 
ENDBRANCH   6   7
ENDBRANCH   5   6
ENDBRANCH   3   5
ENDBRANCH   1   2
BRANCH   1  11
ATOM     11  C   UNL     1     -14.879   2.873  34.322  1.00  0.00     0.034 C 
BRANCH  11  12
ATOM     12  C   UNL     1     -14.782   4.070  33.399  1.00  0.00    -0.077 C 
ATOM     13  C   UNL     1     -15.908   4.580  32.854  1.00  0.00    -0.028 C 
ATOM     14  C   UNL     1     -13.425   4.665  33.100  1.00  0.00     0.039 C 
BRANCH  13  15
ATOM     15  C   UNL     1     -15.907   5.761  31.914  1.00  0.00     0.035 C 
BRANCH  15  16
ATOM     16  C   UNL     1     -16.410   5.360  30.519  1.00  0.00     0.079 C 
BRANCH  16  17
ATOM     17  C   UNL     1     -16.152   6.391  29.442  1.00  0.00     0.130 C 
ATOM     18  O   UNL     1     -16.141   7.570  29.761  1.00  0.00    -0.300 OA
ATOM     19  C   UNL     1     -15.910   6.029  28.003  1.00  0.00     0.087 C 
ENDBRANCH  16  17
ENDBRANCH  15  16
ENDBRANCH  13  15
ENDBRANCH  11  12
ENDBRANCH   1  11
TORSDOF 9
ENDMDL
MODEL 5
REMARK VINA RESULT:    -5.022      5.248      8.289
REMARK INTER + INTRA:          -9.442
REMARK INTER:                  -7.249
REMARK INTRA:                  -2.192
REMARK UNBOUND:                -1.777
REMARK SMILES CC(=O)CCC=C(C)CCC=C(C)CCC=C(C)C
REMARK SMILES IDX 10 1 11 2 12 3 13 4 14 5 15 6 16 7 18 8 17 9 19 10 9 11 7 12
REMARK SMILES IDX 6 13 8 14 5 15 4 16 2 17 3 18 1 19
REMARK H PARENT
REMARK Flexibility Score: inf
ROOT
ATOM      1  C   UNL     1     -14.780  11.703  29.369  1.00  0.00     0.032 C 
ENDROOT
BRANCH   1   2
ATOM      2  C   UNL     1     -13.647  11.985  30.327  1.00  0.00    -0.028 C 
ATOM      3  C   UNL     1     -12.551  11.206  30.471  1.00  0.00    -0.077 C 
ATOM      4  C   UNL     1     -12.309   9.996  29.600  1.00  0.00     0.039 C 
BRANCH   3   5
ATOM      5  C   UNL     1     -11.503  11.589  31.496  1.00  0.00     0.034 C 
BRANCH   5   6
ATOM      6  C   UNL     1     -10.524  10.437  31.767  1.00  0.00     0.032 C 
BRANCH   6   7
ATOM      7  C   UNL     1     -10.813   9.742  33.076  1.00  0.00    -0.028 C 
ATOM      8  C   UNL     1     -10.752   7.449  32.071  1.00  0.00     0.039 C 
ATOM      9  C   UNL     1     -10.951   8.407  33.222  1.00  0.00    -0.080 C 
ATOM     10  C   UNL     1     -11.293   7.867  34.587  1.00  0.00     0.039 C 
ENDBRANCH   6   7
ENDBRANCH   5   6
ENDBRANCH   3   5
ENDBRANCH   1   2
BRANCH   1  11
ATOM     11  C   UNL     1     -16.121  11.555  30.102  1.00  0.00     0.034 C 
BRANCH  11  12
ATOM     12  C   UNL     1     -16.204  10.251  30.869  1.00  0.00    -0.077 C 
ATOM     13  C   UNL     1     -15.698   9.126  30.320  1.00  0.00    -0.028 C 
ATOM     14  C   UNL     1     -16.857  10.235  32.231  1.00  0.00     0.039 C 
BRANCH  13  15
ATOM     15  C   UNL     1     -15.747   7.780  31.003  1.00  0.00     0.035 C 
BRANCH  15  16
ATOM     16  C   UNL     1     -14.394   7.433  31.642  1.00  0.00     0.079 C 
BRANCH  16  17
ATOM     17  C   UNL     1     -14.495   6.820  33.022  1.00  0.00     0.130 C 
ATOM     18  O   UNL     1     -13.899   5.775  33.236  1.00  0.00    -0.300 OA
ATOM     19  C   UNL     1     -15.293   7.438  34.137  1.00  0.00     0.087 C 
ENDBRANCH  16  17
ENDBRANCH  15  16
ENDBRANCH  13  15
ENDBRANCH  11  12
ENDBRANCH   1  11
TORSDOF 9
ENDMDL
MODEL 6
REMARK VINA RESULT:    -5.012      1.704      3.807
REMARK INTER + INTRA:          -9.426
REMARK INTER:                  -7.513
REMARK INTRA:                  -1.913
REMARK UNBOUND:                -1.777
REMARK SMILES CC(=O)CCC=C(C)CCC=C(C)CCC=C(C)C
REMARK SMILES IDX 10 1 11 2 12 3 13 4 14 5 15 6 16 7 18 8 17 9 19 10 9 11 7 12
REMARK SMILES IDX 6 13 8 14 5 15 4 16 2 17 3 18 1 19
REMARK H PARENT
REMARK Flexibility Score: inf
ROOT
ATOM      1  C   UNL     1     -11.948   0.846  32.312  1.00  0.00     0.032 C 
ENDROOT
BRANCH   1   2
ATOM      2  C   UNL     1     -12.910   0.472  31.210  1.00  0.00    -0.028 C 
ATOM      3  C   UNL     1     -13.146   1.222  30.109  1.00  0.00    -0.077 C 
ATOM      4  C   UNL     1     -12.382   2.494  29.829  1.00  0.00     0.039 C 
BRANCH   3   5
ATOM      5  C   UNL     1     -14.164   0.745  29.094  1.00  0.00     0.034 C 
BRANCH   5   6
ATOM      6  C   UNL     1     -14.557   1.858  28.113  1.00  0.00     0.032 C 
BRANCH   6   7
ATOM      7  C   UNL     1     -15.851   2.531  28.507  1.00  0.00    -0.028 C 
ATOM      8  C   UNL     1     -14.889   4.840  28.381  1.00  0.00     0.039 C 
ATOM      9  C   UNL     1     -16.006   3.864  28.663  1.00  0.00    -0.080 C 
ATOM     10  C   UNL     1     -17.349   4.381  29.112  1.00  0.00     0.039 C 
ENDBRANCH   6   7
ENDBRANCH   5   6
ENDBRANCH   3   5
ENDBRANCH   1   2
BRANCH   1  11
ATOM     11  C   UNL     1     -12.599   0.730  33.698  1.00  0.00     0.034 C 
BRANCH  11  12
ATOM     12  C   UNL     1     -13.670   1.781  33.908  1.00  0.00    -0.077 C 
ATOM     13  C   UNL     1     -13.519   3.001  33.351  1.00  0.00    -0.028 C 
ATOM     14  C   UNL     1     -14.883   1.442  34.744  1.00  0.00     0.039 C 
BRANCH  13  15
ATOM     15  C   UNL     1     -14.526   4.114  33.517  1.00  0.00     0.035 C 
BRANCH  15  16
ATOM     16  C   UNL     1     -15.088   4.561  32.159  1.00  0.00     0.079 C 
BRANCH  16  17
ATOM     17  C   UNL     1     -16.104   5.679  32.241  1.00  0.00     0.130 C 
ATOM     18  O   UNL     1     -15.976   6.634  31.490  1.00  0.00    -0.300 OA
ATOM     19  C   UNL     1     -17.260   5.665  33.203  1.00  0.00     0.087 C 
ENDBRANCH  16  17
ENDBRANCH  15  16
ENDBRANCH  13  15
ENDBRANCH  11  12
ENDBRANCH   1  11
TORSDOF 9
ENDMDL
MODEL 7
REMARK VINA RESULT:    -5.008      1.565      5.264
REMARK INTER + INTRA:          -9.420
REMARK INTER:                  -7.803
REMARK INTRA:                  -1.617
REMARK UNBOUND:                -1.777
REMARK SMILES CC(=O)CCC=C(C)CCC=C(C)CCC=C(C)C
REMARK SMILES IDX 10 1 11 2 12 3 13 4 14 5 15 6 16 7 18 8 17 9 19 10 9 11 7 12
REMARK SMILES IDX 6 13 8 14 5 15 4 16 2 17 3 18 1 19
REMARK H PARENT
REMARK Flexibility Score: inf
ROOT
ATOM      1  C   UNL     1     -14.544   2.121  28.138  1.00  0.00     0.032 C 
ENDROOT
BRANCH   1   2
ATOM      2  C   UNL     1     -14.165   1.093  29.177  1.00  0.00    -0.028 C 
ATOM      3  C   UNL     1     -12.988   1.072  29.843  1.00  0.00    -0.077 C 
ATOM      4  C   UNL     1     -11.950   2.155  29.669  1.00  0.00     0.039 C 
BRANCH   3   5
ATOM      5  C   UNL     1     -12.722  -0.039  30.839  1.00  0.00     0.034 C 
BRANCH   5   6
ATOM      6  C   UNL     1     -12.042   0.487  32.111  1.00  0.00     0.032 C 
BRANCH   6   7
ATOM      7  C   UNL     1     -13.022   0.666  33.247  1.00  0.00    -0.028 C 
ATOM      8  C   UNL     1     -13.110   3.158  33.006  1.00  0.00     0.039 C 
ATOM      9  C   UNL     1     -13.485   1.859  33.680  1.00  0.00    -0.080 C 
ATOM     10  C   UNL     1     -14.420   1.878  34.862  1.00  0.00     0.039 C 
ENDBRANCH   6   7
ENDBRANCH   5   6
ENDBRANCH   3   5
ENDBRANCH   1   2
BRANCH   1  11
ATOM     11  C   UNL     1     -15.999   2.584  28.301  1.00  0.00     0.034 C 
BRANCH  11  12
ATOM     12  C   UNL     1     -16.089   3.933  28.985  1.00  0.00    -0.077 C 
ATOM     13  C   UNL     1     -15.278   4.201  30.031  1.00  0.00    -0.028 C 
ATOM     14  C   UNL     1     -17.091   4.948  28.487  1.00  0.00     0.039 C 
BRANCH  13  15
ATOM     15  C   UNL     1     -15.306   5.510  30.782  1.00  0.00     0.035 C 
BRANCH  15  16
ATOM     16  C   UNL     1     -16.109   5.385  32.085  1.00  0.00     0.079 C 
BRANCH  16  17
ATOM     17  C   UNL     1     -15.921   6.537  33.048  1.00  0.00     0.130 C 
ATOM     18  O   UNL     1     -15.882   6.291  34.244  1.00  0.00    -0.300 OA
ATOM     19  C   UNL     1     -15.779   7.965  32.598  1.00  0.00     0.087 C 
ENDBRANCH  16  17
ENDBRANCH  15  16
ENDBRANCH  13  15
ENDBRANCH  11  12
ENDBRANCH   1  11
TORSDOF 9
ENDMDL
MODEL 8
REMARK VINA RESULT:    -5.007      1.730      4.850
REMARK INTER + INTRA:          -9.419
REMARK INTER:                  -7.381
REMARK INTRA:                  -2.038
REMARK UNBOUND:                -1.777
REMARK SMILES CC(=O)CCC=C(C)CCC=C(C)CCC=C(C)C
REMARK SMILES IDX 10 1 11 2 12 3 13 4 14 5 15 6 16 7 18 8 17 9 19 10 9 11 7 12
REMARK SMILES IDX 6 13 8 14 5 15 4 16 2 17 3 18 1 19
REMARK H PARENT
REMARK Flexibility Score: inf
ROOT
ATOM      1  C   UNL     1     -16.995   3.770  27.950  1.00  0.00     0.032 C 
ENDROOT
BRANCH   1   2
ATOM      2  C   UNL     1     -16.016   2.628  28.086  1.00  0.00    -0.028 C 
ATOM      3  C   UNL     1     -14.693   2.714  27.815  1.00  0.00    -0.077 C 
ATOM      4  C   UNL     1     -14.039   4.018  27.427  1.00  0.00     0.039 C 
BRANCH   3   5
ATOM      5  C   UNL     1     -13.828   1.480  27.963  1.00  0.00     0.034 C 
BRANCH   5   6
ATOM      6  C   UNL     1     -14.063   0.776  29.307  1.00  0.00     0.032 C 
BRANCH   6   7
ATOM      7  C   UNL     1     -13.484   1.554  30.464  1.00  0.00    -0.028 C 
ATOM      8  C   UNL     1     -13.675  -0.358  32.071  1.00  0.00     0.039 C 
ATOM      9  C   UNL     1     -13.334   1.070  31.717  1.00  0.00    -0.080 C 
ATOM     10  C   UNL     1     -12.789   1.989  32.779  1.00  0.00     0.039 C 
ENDBRANCH   6   7
ENDBRANCH   5   6
ENDBRANCH   3   5
ENDBRANCH   1   2
BRANCH   1  11
ATOM     11  C   UNL     1     -17.474   4.274  29.319  1.00  0.00     0.034 C 
BRANCH  11  12
ATOM     12  C   UNL     1     -16.398   5.064  30.037  1.00  0.00    -0.077 C 
ATOM     13  C   UNL     1     -15.792   4.527  31.118  1.00  0.00    -0.028 C 
ATOM     14  C   UNL     1     -16.031   6.440  29.531  1.00  0.00     0.039 C 
BRANCH  13  15
ATOM     15  C   UNL     1     -14.721   5.245  31.903  1.00  0.00     0.035 C 
BRANCH  15  16
ATOM     16  C   UNL     1     -15.071   5.299  33.398  1.00  0.00     0.079 C 
BRANCH  16  17
ATOM     17  C   UNL     1     -15.567   6.646  33.875  1.00  0.00     0.130 C 
ATOM     18  O   UNL     1     -15.929   6.752  35.038  1.00  0.00    -0.300 OA
ATOM     19  C   UNL     1     -15.632   7.857  32.985  1.00  0.00     0.087 C 
ENDBRANCH  16  17
ENDBRANCH  15  16
ENDBRANCH  13  15
ENDBRANCH  11  12
ENDBRANCH   1  11
TORSDOF 9
ENDMDL
MODEL 9
REMARK VINA RESULT:    -4.977      2.002      4.625
REMARK INTER + INTRA:          -9.373
REMARK INTER:                  -7.164
REMARK INTRA:                  -2.209
REMARK UNBOUND:                -1.777
REMARK SMILES CC(=O)CCC=C(C)CCC=C(C)CCC=C(C)C
REMARK SMILES IDX 10 1 11 2 12 3 13 4 14 5 15 6 16 7 18 8 17 9 19 10 9 11 7 12
REMARK SMILES IDX 6 13 8 14 5 15 4 16 2 17 3 18 1 19
REMARK H PARENT
REMARK Flexibility Score: inf
ROOT
ATOM      1  C   UNL     1     -12.743   1.415  33.540  1.00  0.00     0.032 C 
ENDROOT
BRANCH   1   2
ATOM      2  C   UNL     1     -13.371   0.797  32.314  1.00  0.00    -0.028 C 
ATOM      3  C   UNL     1     -13.017   1.087  31.041  1.00  0.00    -0.077 C 
ATOM      4  C   UNL     1     -11.868   2.013  30.721  1.00  0.00     0.039 C 
BRANCH   3   5
ATOM      5  C   UNL     1     -13.753   0.417  29.899  1.00  0.00     0.034 C 
BRANCH   5   6
ATOM      6  C   UNL     1     -13.824   1.320  28.659  1.00  0.00     0.032 C 
BRANCH   6   7
ATOM      7  C   UNL     1     -15.184   1.956  28.496  1.00  0.00    -0.028 C 
ATOM      8  C   UNL     1     -14.396   4.228  29.197  1.00  0.00     0.039 C 
ATOM      9  C   UNL     1     -15.463   3.250  28.765  1.00  0.00    -0.080 C 
ATOM     10  C   UNL     1     -16.884   3.725  28.603  1.00  0.00     0.039 C 
ENDBRANCH   6   7
ENDBRANCH   5   6
ENDBRANCH   3   5
ENDBRANCH   1   2
BRANCH   1  11
ATOM     11  C   UNL     1     -13.754   2.256  34.334  1.00  0.00     0.034 C 
BRANCH  11  12
ATOM     12  C   UNL     1     -14.212   3.472  33.554  1.00  0.00    -0.077 C 
ATOM     13  C   UNL     1     -15.522   3.616  33.260  1.00  0.00    -0.028 C 
ATOM     14  C   UNL     1     -13.190   4.495  33.114  1.00  0.00     0.039 C 
BRANCH  13  15
ATOM     15  C   UNL     1     -16.068   4.785  32.476  1.00  0.00     0.035 C 
BRANCH  15  16
ATOM     16  C   UNL     1     -16.885   5.723  33.377  1.00  0.00     0.079 C 
BRANCH  16  17
ATOM     17  C   UNL     1     -16.056   6.722  34.154  1.00  0.00     0.130 C 
ATOM     18  O   UNL     1     -16.077   6.668  35.374  1.00  0.00    -0.300 OA
ATOM     19  C   UNL     1     -15.211   7.775  33.491  1.00  0.00     0.087 C 
ENDBRANCH  16  17
ENDBRANCH  15  16
ENDBRANCH  13  15
ENDBRANCH  11  12
ENDBRANCH   1  11
TORSDOF 9
ENDMDL
