MODEL 1
REMARK VINA RESULT:    -5.448      0.000      0.000
REMARK INTER + INTRA:          -6.145
REMARK INTER:                  -5.767
REMARK INTRA:                  -0.378
REMARK UNBOUND:                -0.378
REMARK SMILES CC1=CC[C@@]23[C@@H]([C@H](C(C)C)CC[C@H]2C)[C@H]13
REMARK SMILES IDX 14 1 13 2 12 3 11 4 7 5 6 6 5 7 15 8 2 9 3 10 4 11 1 12 8 13
REMARK SMILES IDX 9 14 10 15
REMARK H PARENT
REMARK Flexibility Score: inf
ROOT
ATOM      1  C   UNL     1      33.053  12.916  30.782  1.00  0.00     0.008 C 
ATOM      2  C   UNL     1      32.779  11.470  30.333  1.00  0.00    -0.007 C 
ATOM      3  C   UNL     1      32.309  11.497  28.866  1.00  0.00     0.004 C 
ATOM      4  C   UNL     1      31.879  10.115  28.383  1.00  0.00     0.004 C 
ATOM      5  C   UNL     1      30.613   9.659  29.133  1.00  0.00    -0.004 C 
ATOM      6  C   UNL     1      30.723   9.753  30.675  1.00  0.00     0.007 C 
ATOM      7  C   UNL     1      31.763  10.729  31.266  1.00  0.00    -0.013 C 
ATOM      8  C   UNL     1      31.989   9.209  31.322  1.00  0.00     0.025 C 
ATOM      9  C   UNL     1      31.867   8.854  32.763  1.00  0.00    -0.073 C 
ATOM     10  C   UNL     1      31.625   9.907  33.529  1.00  0.00    -0.027 C 
ATOM     11  C   UNL     1      31.541  11.165  32.735  1.00  0.00     0.035 C 
ATOM     12  C   UNL     1      31.988   7.458  33.289  1.00  0.00     0.039 C 
ENDROOT
BRANCH   5  13
ATOM     13  C   UNL     1      30.106   8.272  28.636  1.00  0.00    -0.014 C 
ATOM     14  C   UNL     1      29.298   7.544  29.723  1.00  0.00     0.007 C 
ATOM     15  C   UNL     1      31.222   7.351  28.114  1.00  0.00     0.007 C 
ENDBRANCH   5  13
TORSDOF 1
ENDMDL
MODEL 2
REMARK VINA RESULT:    -5.329      2.462      5.355
REMARK INTER + INTRA:          -6.019
REMARK INTER:                  -5.750
REMARK INTRA:                  -0.269
REMARK UNBOUND:                -0.378
REMARK SMILES CC1=CC[C@@]23[C@@H]([C@H](C(C)C)CC[C@H]2C)[C@H]13
REMARK SMILES IDX 14 1 13 2 12 3 11 4 7 5 6 6 5 7 15 8 2 9 3 10 4 11 1 12 8 13
REMARK SMILES IDX 9 14 10 15
REMARK H PARENT
REMARK Flexibility Score: inf
ROOT
ATOM      1  C   UNL     1      31.638   6.716  36.287  1.00  0.00     0.008 C 
ATOM      2  C   UNL     1      31.030   7.705  35.278  1.00  0.00    -0.007 C 
ATOM      3  C   UNL     1      31.558   7.356  33.874  1.00  0.00     0.004 C 
ATOM      4  C   UNL     1      31.115   8.378  32.831  1.00  0.00     0.004 C 
ATOM      5  C   UNL     1      31.776   9.742  33.108  1.00  0.00    -0.004 C 
ATOM      6  C   UNL     1      31.599  10.246  34.562  1.00  0.00     0.007 C 
ATOM      7  C   UNL     1      31.303   9.200  35.658  1.00  0.00    -0.013 C 
ATOM      8  C   UNL     1      30.206  10.160  35.169  1.00  0.00     0.025 C 
ATOM      9  C   UNL     1      29.954  11.074  36.318  1.00  0.00    -0.073 C 
ATOM     10  C   UNL     1      30.706  10.789  37.370  1.00  0.00    -0.027 C 
ATOM     11  C   UNL     1      31.602   9.627  37.115  1.00  0.00     0.035 C 
ATOM     12  C   UNL     1      28.969  12.201  36.284  1.00  0.00     0.039 C 
ENDROOT
BRANCH   5  13
ATOM     13  C   UNL     1      31.392  10.806  32.036  1.00  0.00    -0.014 C 
ATOM     14  C   UNL     1      31.899  10.408  30.640  1.00  0.00     0.007 C 
ATOM     15  C   UNL     1      31.865  12.230  32.374  1.00  0.00     0.007 C 
ENDBRANCH   5  13
TORSDOF 1
ENDMDL
MODEL 3
REMARK VINA RESULT:    -5.239      1.363      3.574
REMARK INTER + INTRA:          -5.923
REMARK INTER:                  -5.532
REMARK INTRA:                  -0.391
REMARK UNBOUND:                -0.378
REMARK SMILES CC1=CC[C@@]23[C@@H]([C@H](C(C)C)CC[C@H]2C)[C@H]13
REMARK SMILES IDX 14 1 13 2 12 3 11 4 7 5 6 6 5 7 15 8 2 9 3 10 4 11 1 12 8 13
REMARK SMILES IDX 9 14 10 15
REMARK H PARENT
REMARK Flexibility Score: inf
ROOT
ATOM      1  C   UNL     1      32.273   9.998  33.012  1.00  0.00     0.008 C 
ATOM      2  C   UNL     1      32.379  10.308  31.509  1.00  0.00    -0.007 C 
ATOM      3  C   UNL     1      32.510  11.833  31.333  1.00  0.00     0.004 C 
ATOM      4  C   UNL     1      32.478  12.240  29.863  1.00  0.00     0.004 C 
ATOM      5  C   UNL     1      31.089  11.951  29.261  1.00  0.00    -0.004 C 
ATOM      6  C   UNL     1      30.585  10.505  29.500  1.00  0.00     0.007 C 
ATOM      7  C   UNL     1      31.185   9.718  30.684  1.00  0.00    -0.013 C 
ATOM      8  C   UNL     1      31.563   9.369  29.235  1.00  0.00     0.025 C 
ATOM      9  C   UNL     1      30.942   8.039  28.985  1.00  0.00    -0.073 C 
ATOM     10  C   UNL     1      30.292   7.573  30.041  1.00  0.00    -0.027 C 
ATOM     11  C   UNL     1      30.362   8.511  31.196  1.00  0.00     0.035 C 
ATOM     12  C   UNL     1      31.028   7.313  27.679  1.00  0.00     0.039 C 
ENDROOT
BRANCH   5  13
ATOM     13  C   UNL     1      30.994  12.398  27.771  1.00  0.00    -0.014 C 
ATOM     14  C   UNL     1      29.819  11.714  27.052  1.00  0.00     0.007 C 
ATOM     15  C   UNL     1      32.289  12.183  26.971  1.00  0.00     0.007 C 
ENDBRANCH   5  13
TORSDOF 1
ENDMDL
MODEL 4
REMARK VINA RESULT:    -5.238      1.305      5.036
REMARK INTER + INTRA:          -5.923
REMARK INTER:                  -5.667
REMARK INTRA:                  -0.255
REMARK UNBOUND:                -0.378
REMARK SMILES CC1=CC[C@@]23[C@@H]([C@H](C(C)C)CC[C@H]2C)[C@H]13
REMARK SMILES IDX 14 1 13 2 12 3 11 4 7 5 6 6 5 7 15 8 2 9 3 10 4 11 1 12 8 13
REMARK SMILES IDX 9 14 10 15
REMARK H PARENT
REMARK Flexibility Score: inf
ROOT
ATOM      1  C   UNL     1      29.259   6.641  30.318  1.00  0.00     0.008 C 
ATOM      2  C   UNL     1      30.526   7.496  30.494  1.00  0.00    -0.007 C 
ATOM      3  C   UNL     1      30.924   7.479  31.982  1.00  0.00     0.004 C 
ATOM      4  C   UNL     1      32.091   8.418  32.269  1.00  0.00     0.004 C 
ATOM      5  C   UNL     1      31.660   9.882  32.054  1.00  0.00    -0.004 C 
ATOM      6  C   UNL     1      30.992  10.150  30.682  1.00  0.00     0.007 C 
ATOM      7  C   UNL     1      30.354   8.953  29.944  1.00  0.00    -0.013 C 
ATOM      8  C   UNL     1      31.671   9.573  29.447  1.00  0.00     0.025 C 
ATOM      9  C   UNL     1      31.322  10.237  28.160  1.00  0.00    -0.073 C 
ATOM     10  C   UNL     1      30.044  10.088  27.840  1.00  0.00    -0.027 C 
ATOM     11  C   UNL     1      29.304   9.294  28.859  1.00  0.00     0.035 C 
ATOM     12  C   UNL     1      32.301  11.001  27.326  1.00  0.00     0.039 C 
ENDROOT
BRANCH   5  13
ATOM     13  C   UNL     1      32.808  10.884  32.385  1.00  0.00    -0.014 C 
ATOM     14  C   UNL     1      32.842  11.226  33.883  1.00  0.00     0.007 C 
ATOM     15  C   UNL     1      32.764  12.179  31.556  1.00  0.00     0.007 C 
ENDBRANCH   5  13
TORSDOF 1
ENDMDL
MODEL 5
REMARK VINA RESULT:    -5.169      3.062      5.837
REMARK INTER + INTRA:          -5.850
REMARK INTER:                  -5.459
REMARK INTRA:                  -0.391
REMARK UNBOUND:                -0.378
REMARK SMILES CC1=CC[C@@]23[C@@H]([C@H](C(C)C)CC[C@H]2C)[C@H]13
REMARK SMILES IDX 14 1 13 2 12 3 11 4 7 5 6 6 5 7 15 8 2 9 3 10 4 11 1 12 8 13
REMARK SMILES IDX 9 14 10 15
REMARK H PARENT
REMARK Flexibility Score: inf
ROOT
ATOM      1  C   UNL     1      32.546  11.370  33.699  1.00  0.00     0.008 C 
ATOM      2  C   UNL     1      31.504  10.491  34.414  1.00  0.00    -0.007 C 
ATOM      3  C   UNL     1      31.640  10.711  35.932  1.00  0.00     0.004 C 
ATOM      4  C   UNL     1      30.739   9.769  36.725  1.00  0.00     0.004 C 
ATOM      5  C   UNL     1      31.209   8.312  36.553  1.00  0.00    -0.004 C 
ATOM      6  C   UNL     1      31.390   7.876  35.078  1.00  0.00     0.007 C 
ATOM      7  C   UNL     1      31.619   8.979  34.022  1.00  0.00    -0.013 C 
ATOM      8  C   UNL     1      30.278   8.230  34.100  1.00  0.00     0.025 C 
ATOM      9  C   UNL     1      30.228   7.400  32.864  1.00  0.00    -0.073 C 
ATOM     10  C   UNL     1      31.297   7.560  32.099  1.00  0.00    -0.027 C 
ATOM     11  C   UNL     1      32.261   8.532  32.687  1.00  0.00     0.035 C 
ATOM     12  C   UNL     1      29.101   6.474  32.529  1.00  0.00     0.039 C 
ENDROOT
BRANCH   5  13
ATOM     13  C   UNL     1      30.346   7.317  37.387  1.00  0.00    -0.014 C 
ATOM     14  C   UNL     1      30.496   5.875  36.875  1.00  0.00     0.007 C 
ATOM     15  C   UNL     1      28.856   7.692  37.458  1.00  0.00     0.007 C 
ENDBRANCH   5  13
TORSDOF 1
ENDMDL
MODEL 6
REMARK VINA RESULT:    -5.126      1.428      3.496
REMARK INTER + INTRA:          -5.803
REMARK INTER:                  -5.578
REMARK INTRA:                  -0.226
REMARK UNBOUND:                -0.378
REMARK SMILES CC1=CC[C@@]23[C@@H]([C@H](C(C)C)CC[C@H]2C)[C@H]13
REMARK SMILES IDX 14 1 13 2 12 3 11 4 7 5 6 6 5 7 15 8 2 9 3 10 4 11 1 12 8 13
REMARK SMILES IDX 9 14 10 15
REMARK H PARENT
REMARK Flexibility Score: inf
ROOT
ATOM      1  C   UNL     1      33.125  10.429  32.913  1.00  0.00     0.008 C 
ATOM      2  C   UNL     1      31.849   9.959  32.194  1.00  0.00    -0.007 C 
ATOM      3  C   UNL     1      31.667   8.453  32.459  1.00  0.00     0.004 C 
ATOM      4  C   UNL     1      30.500   7.873  31.665  1.00  0.00     0.004 C 
ATOM      5  C   UNL     1      30.812   7.913  30.156  1.00  0.00    -0.004 C 
ATOM      6  C   UNL     1      31.265   9.302  29.640  1.00  0.00     0.007 C 
ATOM      7  C   UNL     1      31.859  10.293  30.663  1.00  0.00    -0.013 C 
ATOM      8  C   UNL     1      30.453  10.511  30.081  1.00  0.00     0.025 C 
ATOM      9  C   UNL     1      30.579  11.714  29.212  1.00  0.00    -0.073 C 
ATOM     10  C   UNL     1      31.804  12.218  29.213  1.00  0.00    -0.027 C 
ATOM     11  C   UNL     1      32.725  11.440  30.088  1.00  0.00     0.035 C 
ATOM     12  C   UNL     1      29.450  12.285  28.412  1.00  0.00     0.039 C 
ENDROOT
BRANCH   5  13
ATOM     13  C   UNL     1      29.668   7.283  29.306  1.00  0.00    -0.014 C 
ATOM     14  C   UNL     1      28.964   6.145  30.063  1.00  0.00     0.007 C 
ATOM     15  C   UNL     1      30.120   6.786  27.922  1.00  0.00     0.007 C 
ENDBRANCH   5  13
TORSDOF 1
ENDMDL
MODEL 7
REMARK VINA RESULT:    -5.013      1.060      4.136
REMARK INTER + INTRA:          -5.685
REMARK INTER:                  -5.402
REMARK INTRA:                  -0.282
REMARK UNBOUND:                -0.378
REMARK SMILES CC1=CC[C@@]23[C@@H]([C@H](C(C)C)CC[C@H]2C)[C@H]13
REMARK SMILES IDX 14 1 13 2 12 3 11 4 7 5 6 6 5 7 15 8 2 9 3 10 4 11 1 12 8 13
REMARK SMILES IDX 9 14 10 15
REMARK H PARENT
REMARK Flexibility Score: inf
ROOT
ATOM      1  C   UNL     1      32.299  12.115  26.875  1.00  0.00     0.008 C 
ATOM      2  C   UNL     1      31.673  11.770  28.238  1.00  0.00    -0.007 C 
ATOM      3  C   UNL     1      32.357  12.628  29.319  1.00  0.00     0.004 C 
ATOM      4  C   UNL     1      31.894  12.248  30.722  1.00  0.00     0.004 C 
ATOM      5  C   UNL     1      32.371  10.825  31.072  1.00  0.00    -0.004 C 
ATOM      6  C   UNL     1      32.013   9.759  30.007  1.00  0.00     0.007 C 
ATOM      7  C   UNL     1      31.742  10.240  28.566  1.00  0.00    -0.013 C 
ATOM      8  C   UNL     1      30.590   9.760  29.464  1.00  0.00     0.025 C 
ATOM      9  C   UNL     1      30.138   8.477  28.858  1.00  0.00    -0.073 C 
ATOM     10  C   UNL     1      30.824   8.158  27.770  1.00  0.00    -0.027 C 
ATOM     11  C   UNL     1      31.864   9.175  27.449  1.00  0.00     0.035 C 
ATOM     12  C   UNL     1      29.040   7.632  29.422  1.00  0.00     0.039 C 
ENDROOT
BRANCH   5  13
ATOM     13  C   UNL     1      31.964  10.411  32.519  1.00  0.00    -0.014 C 
ATOM     14  C   UNL     1      32.750  11.205  33.575  1.00  0.00     0.007 C 
ATOM     15  C   UNL     1      32.095   8.904  32.797  1.00  0.00     0.007 C 
ENDBRANCH   5  13
TORSDOF 1
ENDMDL
MODEL 8
REMARK VINA RESULT:    -5.005      1.242      2.566
REMARK INTER + INTRA:          -5.675
REMARK INTER:                  -5.441
REMARK INTRA:                  -0.234
REMARK UNBOUND:                -0.378
REMARK SMILES CC1=CC[C@@]23[C@@H]([C@H](C(C)C)CC[C@H]2C)[C@H]13
REMARK SMILES IDX 14 1 13 2 12 3 11 4 7 5 6 6 5 7 15 8 2 9 3 10 4 11 1 12 8 13
REMARK SMILES IDX 9 14 10 15
REMARK H PARENT
REMARK Flexibility Score: inf
ROOT
ATOM      1  C   UNL     1      32.370  11.568  26.840  1.00  0.00     0.008 C 
ATOM      2  C   UNL     1      32.004  10.271  27.584  1.00  0.00    -0.007 C 
ATOM      3  C   UNL     1      31.096   9.425  26.671  1.00  0.00     0.004 C 
ATOM      4  C   UNL     1      30.571   8.185  27.386  1.00  0.00     0.004 C 
ATOM      5  C   UNL     1      29.616   8.592  28.526  1.00  0.00    -0.004 C 
ATOM      6  C   UNL     1      30.204   9.646  29.496  1.00  0.00     0.007 C 
ATOM      7  C   UNL     1      31.353  10.540  28.983  1.00  0.00    -0.013 C 
ATOM      8  C   UNL     1      31.622   9.420  30.002  1.00  0.00     0.025 C 
ATOM      9  C   UNL     1      31.968  10.126  31.267  1.00  0.00    -0.073 C 
ATOM     10  C   UNL     1      31.953  11.444  31.135  1.00  0.00    -0.027 C 
ATOM     11  C   UNL     1      31.594  11.861  29.751  1.00  0.00     0.035 C 
ATOM     12  C   UNL     1      32.283   9.425  32.551  1.00  0.00     0.039 C 
ENDROOT
BRANCH   5  13
ATOM     13  C   UNL     1      29.013   7.353  29.254  1.00  0.00    -0.014 C 
ATOM     14  C   UNL     1      30.083   6.282  29.525  1.00  0.00     0.007 C 
ATOM     15  C   UNL     1      27.818   6.719  28.522  1.00  0.00     0.007 C 
ENDBRANCH   5  13
TORSDOF 1
ENDMDL
MODEL 9
REMARK VINA RESULT:    -4.998      3.956      7.006
REMARK INTER + INTRA:          -5.668
REMARK INTER:                  -5.324
REMARK INTRA:                  -0.344
REMARK UNBOUND:                -0.378
REMARK SMILES CC1=CC[C@@]23[C@@H]([C@H](C(C)C)CC[C@H]2C)[C@H]13
REMARK SMILES IDX 14 1 13 2 12 3 11 4 7 5 6 6 5 7 15 8 2 9 3 10 4 11 1 12 8 13
REMARK SMILES IDX 9 14 10 15
REMARK H PARENT
REMARK Flexibility Score: inf
ROOT
ATOM      1  C   UNL     1      32.034   7.874  33.373  1.00  0.00     0.008 C 
ATOM      2  C   UNL     1      31.176   8.688  34.356  1.00  0.00    -0.007 C 
ATOM      3  C   UNL     1      31.619  10.162  34.285  1.00  0.00     0.004 C 
ATOM      4  C   UNL     1      30.914  11.017  35.333  1.00  0.00     0.004 C 
ATOM      5  C   UNL     1      31.361  10.601  36.748  1.00  0.00    -0.004 C 
ATOM      6  C   UNL     1      31.240   9.082  37.027  1.00  0.00     0.007 C 
ATOM      7  C   UNL     1      31.230   8.124  35.816  1.00  0.00    -0.013 C 
ATOM      8  C   UNL     1      29.945   8.394  36.618  1.00  0.00     0.025 C 
ATOM      9  C   UNL     1      29.654   7.114  37.321  1.00  0.00    -0.073 C 
ATOM     10  C   UNL     1      30.540   6.168  37.046  1.00  0.00    -0.027 C 
ATOM     11  C   UNL     1      31.590   6.646  36.104  1.00  0.00     0.035 C 
ATOM     12  C   UNL     1      28.496   6.919  38.249  1.00  0.00     0.039 C 
ENDROOT
BRANCH   5  13
ATOM     13  C   UNL     1      30.704  11.483  37.852  1.00  0.00    -0.014 C 
ATOM     14  C   UNL     1      30.483  10.689  39.150  1.00  0.00     0.007 C 
ATOM     15  C   UNL     1      29.386  12.147  37.418  1.00  0.00     0.007 C 
ENDBRANCH   5  13
TORSDOF 1
ENDMDL
