MODEL 1
REMARK VINA RESULT:    -4.566      0.000      0.000
REMARK INTER + INTRA:          -5.746
REMARK INTER:                  -5.501
REMARK INTRA:                  -0.245
REMARK UNBOUND:                -0.245
REMARK SMILES O=c1c(O)c(-c2ccc(O)c(O)c2)oc2cc(O)cc(O)c12
REMARK SMILES IDX 5 1 3 2 2 3 1 4 22 5 20 6 19 7 17 8 16 9 15 10 14 11 6 12
REMARK SMILES IDX 7 13 8 14 9 15 13 16 11 17 10 18 12 20 4 22 21 24 18 26
REMARK H PARENT 10 19 12 21 4 23 21 25 18 27
REMARK Flexibility Score: inf
ROOT
ATOM      1  C   UNL     1      40.650 -30.742  10.507  1.00  0.00     0.180 A 
ATOM      2  C   UNL     1      41.568 -29.994   9.750  1.00  0.00     0.208 A 
ATOM      3  C   UNL     1      42.922 -30.363   9.761  1.00  0.00     0.238 A 
ATOM      4  O   UNL     1      43.747 -29.658   9.125  1.00  0.00    -0.285 OA
ATOM      5  C   UNL     1      43.338 -31.487  10.516  1.00  0.00     0.111 A 
ATOM      6  C   UNL     1      44.678 -31.976  10.568  1.00  0.00     0.134 A 
ATOM      7  C   UNL     1      45.000 -33.015  11.450  1.00  0.00     0.093 A 
ATOM      8  C   UNL     1      44.017 -33.626  12.233  1.00  0.00     0.123 A 
ATOM      9  C   UNL     1      42.696 -33.195  12.145  1.00  0.00     0.094 A 
ATOM     10  C   UNL     1      42.351 -32.136  11.301  1.00  0.00     0.146 A 
ATOM     11  O   UNL     1      41.081 -31.750  11.255  1.00  0.00    -0.452 OA
ENDROOT
BRANCH   1  12
ATOM     12  C   UNL     1      39.202 -30.427  10.525  1.00  0.00     0.025 A 
ATOM     13  C   UNL     1      38.615 -29.945  11.706  1.00  0.00     0.016 A 
ATOM     14  C   UNL     1      37.248 -29.662  11.751  1.00  0.00     0.051 A 
ATOM     15  C   UNL     1      36.444 -29.871  10.623  1.00  0.00     0.157 A 
ATOM     16  C   UNL     1      38.389 -30.656   9.400  1.00  0.00     0.062 A 
ATOM     17  C   UNL     1      37.018 -30.375   9.443  1.00  0.00     0.158 A 
BRANCH  15  18
ATOM     18  O   UNL     1      35.081 -29.586  10.671  1.00  0.00    -0.504 OA
ATOM     19  H   UNL     1      34.385 -30.322  10.704  1.00  0.00     0.293 HD
ENDBRANCH  15  18
BRANCH  17  20
ATOM     20  O   UNL     1      36.243 -30.608   8.308  1.00  0.00    -0.504 OA
ATOM     21  H   UNL     1      36.630 -31.017   7.466  1.00  0.00     0.293 HD
ENDBRANCH  17  20
ENDBRANCH   1  12
BRANCH   2  22
ATOM     22  O   UNL     1      41.138 -28.875   9.030  1.00  0.00    -0.502 OA
ATOM     23  H   UNL     1      41.672 -28.014   8.993  1.00  0.00     0.293 HD
ENDBRANCH   2  22
BRANCH   6  24
ATOM     24  O   UNL     1      45.716 -31.500   9.761  1.00  0.00    -0.507 OA
ATOM     25  H   UNL     1      45.727 -31.546   8.753  1.00  0.00     0.293 HD
ENDBRANCH   6  24
BRANCH   8  26
ATOM     26  O   UNL     1      44.344 -34.670  13.096  1.00  0.00    -0.508 OA
ATOM     27  H   UNL     1      43.895 -35.575  13.026  1.00  0.00     0.293 HD
ENDBRANCH   8  26
TORSDOF 6
ENDMDL
MODEL 2
REMARK VINA RESULT:    -4.551      1.793      6.716
REMARK INTER + INTRA:          -5.728
REMARK INTER:                  -5.410
REMARK INTRA:                  -0.318
REMARK UNBOUND:                -0.245
REMARK SMILES O=c1c(O)c(-c2ccc(O)c(O)c2)oc2cc(O)cc(O)c12
REMARK SMILES IDX 5 1 3 2 2 3 1 4 22 5 20 6 19 7 17 8 16 9 15 10 14 11 6 12
REMARK SMILES IDX 7 13 8 14 9 15 13 16 11 17 10 18 12 20 4 22 21 24 18 26
REMARK H PARENT 10 19 12 21 4 23 21 25 18 27
REMARK Flexibility Score: inf
ROOT
ATOM      1  C   UNL     1      40.708 -30.835  11.250  1.00  0.00     0.180 A 
ATOM      2  C   UNL     1      40.424 -29.976  10.175  1.00  0.00     0.208 A 
ATOM      3  C   UNL     1      39.087 -29.640   9.906  1.00  0.00     0.238 A 
ATOM      4  O   UNL     1      38.835 -28.914   8.909  1.00  0.00    -0.285 OA
ATOM      5  C   UNL     1      38.054 -30.153  10.726  1.00  0.00     0.111 A 
ATOM      6  C   UNL     1      36.668 -29.847  10.570  1.00  0.00     0.134 A 
ATOM      7  C   UNL     1      35.721 -30.514  11.356  1.00  0.00     0.093 A 
ATOM      8  C   UNL     1      36.114 -31.428  12.336  1.00  0.00     0.123 A 
ATOM      9  C   UNL     1      37.467 -31.689  12.537  1.00  0.00     0.094 A 
ATOM     10  C   UNL     1      38.433 -31.067  11.743  1.00  0.00     0.146 A 
ATOM     11  O   UNL     1      39.712 -31.352  11.960  1.00  0.00    -0.452 OA
ENDROOT
BRANCH   1  12
ATOM     12  C   UNL     1      42.094 -31.214  11.610  1.00  0.00     0.025 A 
ATOM     13  C   UNL     1      42.797 -30.445  12.552  1.00  0.00     0.016 A 
ATOM     14  C   UNL     1      44.112 -30.772  12.891  1.00  0.00     0.051 A 
ATOM     15  C   UNL     1      44.750 -31.861  12.283  1.00  0.00     0.157 A 
ATOM     16  C   UNL     1      42.744 -32.294  10.986  1.00  0.00     0.062 A 
ATOM     17  C   UNL     1      44.062 -32.622  11.322  1.00  0.00     0.158 A 
BRANCH  15  18
ATOM     18  O   UNL     1      46.062 -32.185  12.624  1.00  0.00    -0.504 OA
ATOM     19  H   UNL     1      46.618 -32.816  12.058  1.00  0.00     0.293 HD
ENDBRANCH  15  18
BRANCH  17  20
ATOM     20  O   UNL     1      44.674 -33.703  10.688  1.00  0.00    -0.504 OA
ATOM     21  H   UNL     1      45.538 -33.605  10.169  1.00  0.00     0.293 HD
ENDBRANCH  17  20
ENDBRANCH   1  12
BRANCH   2  22
ATOM     22  O   UNL     1      41.458 -29.498   9.365  1.00  0.00    -0.502 OA
ATOM     23  H   UNL     1      41.427 -28.585   8.925  1.00  0.00     0.293 HD
ENDBRANCH   2  22
BRANCH   6  24
ATOM     24  O   UNL     1      36.177 -28.882   9.685  1.00  0.00    -0.507 OA
ATOM     25  H   UNL     1      36.124 -28.994   8.684  1.00  0.00     0.293 HD
ENDBRANCH   6  24
BRANCH   8  26
ATOM     26  O   UNL     1      35.165 -32.076  13.125  1.00  0.00    -0.508 OA
ATOM     27  H   UNL     1      34.332 -32.489  12.721  1.00  0.00     0.293 HD
ENDBRANCH   8  26
TORSDOF 6
ENDMDL
MODEL 3
REMARK VINA RESULT:    -4.516      1.472      2.995
REMARK INTER + INTRA:          -5.685
REMARK INTER:                  -5.362
REMARK INTRA:                  -0.323
REMARK UNBOUND:                -0.245
REMARK SMILES O=c1c(O)c(-c2ccc(O)c(O)c2)oc2cc(O)cc(O)c12
REMARK SMILES IDX 5 1 3 2 2 3 1 4 22 5 20 6 19 7 17 8 16 9 15 10 14 11 6 12
REMARK SMILES IDX 7 13 8 14 9 15 13 16 11 17 10 18 12 20 4 22 21 24 18 26
REMARK H PARENT 10 19 12 21 4 23 21 25 18 27
REMARK Flexibility Score: inf
ROOT
ATOM      1  C   UNL     1      39.930 -30.621  10.390  1.00  0.00     0.180 A 
ATOM      2  C   UNL     1      40.204 -31.665  11.291  1.00  0.00     0.208 A 
ATOM      3  C   UNL     1      41.540 -31.985  11.578  1.00  0.00     0.238 A 
ATOM      4  O   UNL     1      41.779 -32.956  12.343  1.00  0.00    -0.285 OA
ATOM      5  C   UNL     1      42.586 -31.247  10.974  1.00  0.00     0.111 A 
ATOM      6  C   UNL     1      43.976 -31.458  11.223  1.00  0.00     0.134 A 
ATOM      7  C   UNL     1      44.926 -30.757  10.471  1.00  0.00     0.093 A 
ATOM      8  C   UNL     1      44.537 -29.805   9.525  1.00  0.00     0.123 A 
ATOM      9  C   UNL     1      43.184 -29.549   9.317  1.00  0.00     0.094 A 
ATOM     10  C   UNL     1      42.212 -30.259  10.026  1.00  0.00     0.146 A 
ATOM     11  O   UNL     1      40.933 -29.991   9.790  1.00  0.00    -0.452 OA
ENDROOT
BRANCH   1  12
ATOM     12  C   UNL     1      38.547 -30.210  10.058  1.00  0.00     0.025 A 
ATOM     13  C   UNL     1      37.896 -29.263  10.866  1.00  0.00     0.016 A 
ATOM     14  C   UNL     1      36.583 -28.876  10.583  1.00  0.00     0.051 A 
ATOM     15  C   UNL     1      35.896 -29.441   9.501  1.00  0.00     0.157 A 
ATOM     16  C   UNL     1      37.847 -30.790   8.985  1.00  0.00     0.062 A 
ATOM     17  C   UNL     1      36.532 -30.406   8.701  1.00  0.00     0.158 A 
BRANCH  15  18
ATOM     18  O   UNL     1      34.588 -29.051   9.221  1.00  0.00    -0.504 OA
ATOM     19  H   UNL     1      33.793 -29.592   9.542  1.00  0.00     0.293 HD
ENDBRANCH  15  18
BRANCH  17  20
ATOM     20  O   UNL     1      35.871 -30.998   7.625  1.00  0.00    -0.504 OA
ATOM     21  H   UNL     1      34.876 -30.880   7.474  1.00  0.00     0.293 HD
ENDBRANCH  17  20
ENDBRANCH   1  12
BRANCH   2  22
ATOM     22  O   UNL     1      39.155 -32.395  11.859  1.00  0.00    -0.502 OA
ATOM     23  H   UNL     1      38.953 -32.373  12.852  1.00  0.00     0.293 HD
ENDBRANCH   2  22
BRANCH   6  24
ATOM     24  O   UNL     1      44.470 -32.317  12.209  1.00  0.00    -0.507 OA
ATOM     25  H   UNL     1      44.730 -32.033  13.141  1.00  0.00     0.293 HD
ENDBRANCH   6  24
BRANCH   8  26
ATOM     26  O   UNL     1      45.490 -29.101   8.792  1.00  0.00    -0.508 OA
ATOM     27  H   UNL     1      45.352 -28.130   8.537  1.00  0.00     0.293 HD
ENDBRANCH   8  26
TORSDOF 6
ENDMDL
MODEL 4
REMARK VINA RESULT:    -3.983      1.969      2.683
REMARK INTER + INTRA:          -5.043
REMARK INTER:                  -5.286
REMARK INTRA:                   0.244
REMARK UNBOUND:                -0.245
REMARK SMILES O=c1c(O)c(-c2ccc(O)c(O)c2)oc2cc(O)cc(O)c12
REMARK SMILES IDX 5 1 3 2 2 3 1 4 22 5 20 6 19 7 17 8 16 9 15 10 14 11 6 12
REMARK SMILES IDX 7 13 8 14 9 15 13 16 11 17 10 18 12 20 4 22 21 24 18 26
REMARK H PARENT 10 19 12 21 4 23 21 25 18 27
REMARK Flexibility Score: inf
ROOT
ATOM      1  C   UNL     1      38.956 -30.601  10.594  1.00  0.00     0.180 A 
ATOM      2  C   UNL     1      39.325 -29.742  11.644  1.00  0.00     0.208 A 
ATOM      3  C   UNL     1      40.637 -29.799  12.142  1.00  0.00     0.238 A 
ATOM      4  O   UNL     1      40.945 -29.066  13.117  1.00  0.00    -0.285 OA
ATOM      5  C   UNL     1      41.567 -30.701  11.571  1.00  0.00     0.111 A 
ATOM      6  C   UNL     1      42.934 -30.814  11.970  1.00  0.00     0.134 A 
ATOM      7  C   UNL     1      43.729 -31.831  11.427  1.00  0.00     0.093 A 
ATOM      8  C   UNL     1      43.226 -32.697  10.453  1.00  0.00     0.123 A 
ATOM      9  C   UNL     1      41.911 -32.556  10.015  1.00  0.00     0.094 A 
ATOM     10  C   UNL     1      41.083 -31.574  10.564  1.00  0.00     0.146 A 
ATOM     11  O   UNL     1      39.833 -31.481  10.125  1.00  0.00    -0.452 OA
ENDROOT
BRANCH   1  12
ATOM     12  C   UNL     1      37.599 -30.582  10.000  1.00  0.00     0.025 A 
ATOM     13  C   UNL     1      36.486 -30.375  10.831  1.00  0.00     0.016 A 
ATOM     14  C   UNL     1      35.195 -30.373  10.296  1.00  0.00     0.051 A 
ATOM     15  C   UNL     1      34.996 -30.595   8.927  1.00  0.00     0.157 A 
ATOM     16  C   UNL     1      37.395 -30.824   8.630  1.00  0.00     0.062 A 
ATOM     17  C   UNL     1      36.103 -30.826   8.092  1.00  0.00     0.158 A 
BRANCH  15  18
ATOM     18  O   UNL     1      33.708 -30.591   8.397  1.00  0.00    -0.504 OA
ATOM     19  H   UNL     1      33.392 -31.317   7.764  1.00  0.00     0.293 HD
ENDBRANCH  15  18
BRANCH  17  20
ATOM     20  O   UNL     1      35.937 -31.064   6.728  1.00  0.00    -0.504 OA
ATOM     21  H   UNL     1      35.569 -30.361   6.099  1.00  0.00     0.293 HD
ENDBRANCH  17  20
ENDBRANCH   1  12
BRANCH   2  22
ATOM     22  O   UNL     1      38.383 -28.875  12.206  1.00  0.00    -0.502 OA
ATOM     23  H   UNL     1      38.585 -27.899  12.390  1.00  0.00     0.293 HD
ENDBRANCH   2  22
BRANCH   6  24
ATOM     24  O   UNL     1      43.561 -29.943  12.866  1.00  0.00    -0.507 OA
ATOM     25  H   UNL     1      44.368 -30.176  13.425  1.00  0.00     0.293 HD
ENDBRANCH   6  24
BRANCH   8  26
ATOM     26  O   UNL     1      44.029 -33.696   9.907  1.00  0.00    -0.508 OA
ATOM     27  H   UNL     1      43.708 -34.273   9.139  1.00  0.00     0.293 HD
ENDBRANCH   8  26
TORSDOF 6
ENDMDL
MODEL 5
REMARK VINA RESULT:    -3.595      1.415      1.815
REMARK INTER + INTRA:          -4.576
REMARK INTER:                  -5.050
REMARK INTRA:                   0.474
REMARK UNBOUND:                -0.245
REMARK SMILES O=c1c(O)c(-c2ccc(O)c(O)c2)oc2cc(O)cc(O)c12
REMARK SMILES IDX 5 1 3 2 2 3 1 4 22 5 20 6 19 7 17 8 16 9 15 10 14 11 6 12
REMARK SMILES IDX 7 13 8 14 9 15 13 16 11 17 10 18 12 20 4 22 21 24 18 26
REMARK H PARENT 10 19 12 21 4 23 21 25 18 27
REMARK Flexibility Score: inf
ROOT
ATOM      1  C   UNL     1      39.669 -31.181  11.509  1.00  0.00     0.180 A 
ATOM      2  C   UNL     1      40.265 -30.340  10.554  1.00  0.00     0.208 A 
ATOM      3  C   UNL     1      41.618 -30.527  10.229  1.00  0.00     0.238 A 
ATOM      4  O   UNL     1      42.160 -29.736   9.414  1.00  0.00    -0.285 OA
ATOM      5  C   UNL     1      42.353 -31.565  10.851  1.00  0.00     0.111 A 
ATOM      6  C   UNL     1      43.719 -31.871  10.569  1.00  0.00     0.134 A 
ATOM      7  C   UNL     1      44.383 -32.834  11.338  1.00  0.00     0.093 A 
ATOM      8  C   UNL     1      43.714 -33.547  12.336  1.00  0.00     0.123 A 
ATOM      9  C   UNL     1      42.365 -33.297  12.578  1.00  0.00     0.094 A 
ATOM     10  C   UNL     1      41.685 -32.317  11.852  1.00  0.00     0.146 A 
ATOM     11  O   UNL     1      40.403 -32.103  12.122  1.00  0.00    -0.452 OA
ENDROOT
BRANCH   1  12
ATOM     12  C   UNL     1      38.242 -31.060  11.884  1.00  0.00     0.025 A 
ATOM     13  C   UNL     1      37.679 -31.996  12.767  1.00  0.00     0.016 A 
ATOM     14  C   UNL     1      36.328 -31.913  13.118  1.00  0.00     0.051 A 
ATOM     15  C   UNL     1      35.518 -30.905  12.580  1.00  0.00     0.157 A 
ATOM     16  C   UNL     1      37.421 -30.062  11.330  1.00  0.00     0.062 A 
ATOM     17  C   UNL     1      36.068 -29.978  11.679  1.00  0.00     0.158 A 
BRANCH  15  18
ATOM     18  O   UNL     1      34.172 -30.824  12.934  1.00  0.00    -0.504 OA
ATOM     19  H   UNL     1      33.702 -31.584  13.411  1.00  0.00     0.293 HD
ENDBRANCH  15  18
BRANCH  17  20
ATOM     20  O   UNL     1      35.284 -28.971  11.115  1.00  0.00    -0.504 OA
ATOM     21  H   UNL     1      34.305 -29.109  10.896  1.00  0.00     0.293 HD
ENDBRANCH  17  20
ENDBRANCH   1  12
BRANCH   2  22
ATOM     22  O   UNL     1      39.525 -29.308   9.968  1.00  0.00    -0.502 OA
ATOM     23  H   UNL     1      39.189 -28.512  10.498  1.00  0.00     0.293 HD
ENDBRANCH   2  22
BRANCH   6  24
ATOM     24  O   UNL     1      44.453 -31.285   9.534  1.00  0.00    -0.507 OA
ATOM     25  H   UNL     1      44.961 -30.416   9.610  1.00  0.00     0.293 HD
ENDBRANCH   6  24
BRANCH   8  26
ATOM     26  O   UNL     1      44.379 -34.515  13.086  1.00  0.00    -0.508 OA
ATOM     27  H   UNL     1      44.164 -34.668  14.064  1.00  0.00     0.293 HD
ENDBRANCH   8  26
TORSDOF 6
ENDMDL
MODEL 6
REMARK VINA RESULT:    -2.814      1.973      3.450
REMARK INTER + INTRA:          -3.635
REMARK INTER:                  -4.099
REMARK INTRA:                   0.464
REMARK UNBOUND:                -0.245
REMARK SMILES O=c1c(O)c(-c2ccc(O)c(O)c2)oc2cc(O)cc(O)c12
REMARK SMILES IDX 5 1 3 2 2 3 1 4 22 5 20 6 19 7 17 8 16 9 15 10 14 11 6 12
REMARK SMILES IDX 7 13 8 14 9 15 13 16 11 17 10 18 12 20 4 22 21 24 18 26
REMARK H PARENT 10 19 12 21 4 23 21 25 18 27
REMARK Flexibility Score: inf
ROOT
ATOM      1  C   UNL     1      40.876 -29.802  10.767  1.00  0.00     0.180 A 
ATOM      2  C   UNL     1      41.396 -30.362  11.947  1.00  0.00     0.208 A 
ATOM      3  C   UNL     1      42.787 -30.496  12.082  1.00  0.00     0.238 A 
ATOM      4  O   UNL     1      43.244 -31.047  13.117  1.00  0.00    -0.285 OA
ATOM      5  C   UNL     1      43.641 -30.052  11.043  1.00  0.00     0.111 A 
ATOM      6  C   UNL     1      45.067 -30.102  11.090  1.00  0.00     0.134 A 
ATOM      7  C   UNL     1      45.807 -29.756   9.953  1.00  0.00     0.093 A 
ATOM      8  C   UNL     1      45.176 -29.302   8.793  1.00  0.00     0.123 A 
ATOM      9  C   UNL     1      43.788 -29.193   8.758  1.00  0.00     0.094 A 
ATOM     10  C   UNL     1      43.020 -29.565   9.864  1.00  0.00     0.146 A 
ATOM     11  O   UNL     1      41.699 -29.456   9.785  1.00  0.00    -0.452 OA
ENDROOT
BRANCH   1  12
ATOM     12  C   UNL     1      39.422 -29.606  10.563  1.00  0.00     0.025 A 
ATOM     13  C   UNL     1      38.961 -29.088   9.342  1.00  0.00     0.016 A 
ATOM     14  C   UNL     1      37.595 -28.875   9.136  1.00  0.00     0.051 A 
ATOM     15  C   UNL     1      36.673 -29.161  10.151  1.00  0.00     0.157 A 
ATOM     16  C   UNL     1      38.496 -29.873  11.587  1.00  0.00     0.062 A 
ATOM     17  C   UNL     1      37.128 -29.659  11.384  1.00  0.00     0.158 A 
BRANCH  15  18
ATOM     18  O   UNL     1      35.311 -28.950   9.941  1.00  0.00    -0.504 OA
ATOM     19  H   UNL     1      34.847 -28.112  10.272  1.00  0.00     0.293 HD
ENDBRANCH  15  18
BRANCH  17  20
ATOM     20  O   UNL     1      36.237 -29.940  12.419  1.00  0.00    -0.504 OA
ATOM     21  H   UNL     1      35.925 -29.229  13.069  1.00  0.00     0.293 HD
ENDBRANCH  17  20
ENDBRANCH   1  12
BRANCH   2  22
ATOM     22  O   UNL     1      40.534 -30.813  12.950  1.00  0.00    -0.502 OA
ATOM     23  H   UNL     1      40.445 -30.343  13.844  1.00  0.00     0.293 HD
ENDBRANCH   2  22
BRANCH   6  24
ATOM     24  O   UNL     1      45.799 -30.452  12.228  1.00  0.00    -0.507 OA
ATOM     25  H   UNL     1      45.435 -30.449  13.169  1.00  0.00     0.293 HD
ENDBRANCH   6  24
BRANCH   8  26
ATOM     26  O   UNL     1      45.922 -28.945   7.671  1.00  0.00    -0.508 OA
ATOM     27  H   UNL     1      45.507 -28.437   6.898  1.00  0.00     0.293 HD
ENDBRANCH   8  26
TORSDOF 6
ENDMDL
MODEL 7
REMARK VINA RESULT:    -1.648     17.271     19.202
REMARK INTER + INTRA:          -2.230
REMARK INTER:                  -2.781
REMARK INTRA:                   0.551
REMARK UNBOUND:                -0.245
REMARK SMILES O=c1c(O)c(-c2ccc(O)c(O)c2)oc2cc(O)cc(O)c12
REMARK SMILES IDX 5 1 3 2 2 3 1 4 22 5 20 6 19 7 17 8 16 9 15 10 14 11 6 12
REMARK SMILES IDX 7 13 8 14 9 15 13 16 11 17 10 18 12 20 4 22 21 24 18 26
REMARK H PARENT 10 19 12 21 4 23 21 25 18 27
REMARK Flexibility Score: inf
ROOT
ATOM      1  C   UNL     1      26.197 -39.929   3.972  1.00  0.00     0.180 A 
ATOM      2  C   UNL     1      26.099 -41.058   3.140  1.00  0.00     0.208 A 
ATOM      3  C   UNL     1      26.189 -40.889   1.749  1.00  0.00     0.238 A 
ATOM      4  O   UNL     1      26.046 -41.896   1.007  1.00  0.00    -0.285 OA
ATOM      5  C   UNL     1      26.393 -39.597   1.209  1.00  0.00     0.111 A 
ATOM      6  C   UNL     1      26.540 -39.314  -0.183  1.00  0.00     0.134 A 
ATOM      7  C   UNL     1      26.606 -37.984  -0.614  1.00  0.00     0.093 A 
ATOM      8  C   UNL     1      26.597 -36.928   0.301  1.00  0.00     0.123 A 
ATOM      9  C   UNL     1      26.515 -37.197   1.666  1.00  0.00     0.094 A 
ATOM     10  C   UNL     1      26.410 -38.512   2.124  1.00  0.00     0.146 A 
ATOM     11  O   UNL     1      26.322 -38.723   3.432  1.00  0.00    -0.452 OA
ENDROOT
BRANCH   1  12
ATOM     12  C   UNL     1      26.136 -40.032   5.449  1.00  0.00     0.025 A 
ATOM     13  C   UNL     1      25.956 -41.290   6.046  1.00  0.00     0.016 A 
ATOM     14  C   UNL     1      25.875 -41.407   7.436  1.00  0.00     0.051 A 
ATOM     15  C   UNL     1      25.955 -40.269   8.248  1.00  0.00     0.157 A 
ATOM     16  C   UNL     1      26.195 -38.889   6.266  1.00  0.00     0.062 A 
ATOM     17  C   UNL     1      26.112 -39.003   7.658  1.00  0.00     0.158 A 
BRANCH  15  18
ATOM     18  O   UNL     1      25.875 -40.390   9.634  1.00  0.00    -0.504 OA
ATOM     19  H   UNL     1      25.639 -41.270  10.078  1.00  0.00     0.293 HD
ENDBRANCH  15  18
BRANCH  17  20
ATOM     20  O   UNL     1      26.181 -37.850   8.438  1.00  0.00    -0.504 OA
ATOM     21  H   UNL     1      26.323 -37.884   9.440  1.00  0.00     0.293 HD
ENDBRANCH  17  20
ENDBRANCH   1  12
BRANCH   2  22
ATOM     22  O   UNL     1      25.875 -42.322   3.694  1.00  0.00    -0.502 OA
ATOM     23  H   UNL     1      26.404 -42.670   4.486  1.00  0.00     0.293 HD
ENDBRANCH   2  22
BRANCH   6  24
ATOM     24  O   UNL     1      26.653 -40.297  -1.171  1.00  0.00    -0.507 OA
ATOM     25  H   UNL     1      26.977 -40.131  -2.112  1.00  0.00     0.293 HD
ENDBRANCH   6  24
BRANCH   8  26
ATOM     26  O   UNL     1      26.680 -35.608  -0.136  1.00  0.00    -0.508 OA
ATOM     27  H   UNL     1      25.860 -35.016  -0.190  1.00  0.00     0.293 HD
ENDBRANCH   8  26
TORSDOF 6
ENDMDL
