MODEL 1
REMARK VINA RESULT:    -4.819      0.000      0.000
REMARK INTER + INTRA:          -5.428
REMARK INTER:                  -5.242
REMARK INTRA:                  -0.186
REMARK UNBOUND:                -0.186
REMARK SMILES Cc1ccc(C(C)C)c(O)c1
REMARK SMILES IDX 1 1 2 2 11 3 9 4 5 5 4 6 3 7 10 8 6 10 7 11 8 12
REMARK H PARENT 10 9
REMARK Flexibility Score: inf
ROOT
ATOM      1  C   UNL     1      10.901  -1.217 -14.396  1.00  0.00     0.044 C 
ATOM      2  C   UNL     1      12.305  -0.860 -14.002  1.00  0.00    -0.047 A 
ATOM      3  C   UNL     1      12.588  -0.452 -12.693  1.00  0.00     0.049 A 
ATOM      4  C   UNL     1      13.903  -0.153 -12.304  1.00  0.00     0.119 A 
ATOM      5  C   UNL     1      14.961  -0.273 -13.237  1.00  0.00    -0.004 A 
ATOM      6  C   UNL     1      14.664  -0.704 -14.543  1.00  0.00     0.008 A 
ATOM      7  C   UNL     1      13.352  -1.000 -14.919  1.00  0.00     0.004 A 
ENDROOT
BRANCH   4   8
ATOM      8  O   UNL     1      14.150   0.261 -10.996  1.00  0.00    -0.508 OA
ATOM      9  H   UNL     1      14.508  -0.374 -10.294  1.00  0.00     0.293 HD
ENDBRANCH   4   8
BRANCH   5  10
ATOM     10  C   UNL     1      16.408   0.037 -12.876  1.00  0.00     0.017 C 
ATOM     11  C   UNL     1      17.102  -1.165 -12.225  1.00  0.00     0.012 C 
ATOM     12  C   UNL     1      17.196   0.559 -14.083  1.00  0.00     0.012 C 
ENDBRANCH   5  10
TORSDOF 2
ENDMDL
MODEL 2
REMARK VINA RESULT:    -4.795     19.538     22.250
REMARK INTER + INTRA:          -5.401
REMARK INTER:                  -5.224
REMARK INTRA:                  -0.177
REMARK UNBOUND:                -0.186
REMARK SMILES Cc1ccc(C(C)C)c(O)c1
REMARK SMILES IDX 1 1 2 2 11 3 9 4 5 5 4 6 3 7 10 8 6 10 7 11 8 12
REMARK H PARENT 10 9
REMARK Flexibility Score: inf
ROOT
ATOM      1  C   UNL     1      30.667  18.111 -15.615  1.00  0.00     0.044 C 
ATOM      2  C   UNL     1      30.252  16.716 -15.980  1.00  0.00    -0.047 A 
ATOM      3  C   UNL     1      29.854  16.416 -17.288  1.00  0.00     0.049 A 
ATOM      4  C   UNL     1      29.501  15.107 -17.648  1.00  0.00     0.119 A 
ATOM      5  C   UNL     1      29.556  14.070 -16.686  1.00  0.00    -0.004 A 
ATOM      6  C   UNL     1      29.977  14.381 -15.380  1.00  0.00     0.008 A 
ATOM      7  C   UNL     1      30.328  15.688 -15.032  1.00  0.00     0.004 A 
ENDROOT
BRANCH   4   8
ATOM      8  O   UNL     1      29.098  14.844 -18.956  1.00  0.00    -0.508 OA
ATOM      9  H   UNL     1      28.714  15.567 -19.552  1.00  0.00     0.293 HD
ENDBRANCH   4   8
BRANCH   5  10
ATOM     10  C   UNL     1      29.185  12.630 -17.014  1.00  0.00     0.017 C 
ATOM     11  C   UNL     1      30.348  11.879 -17.674  1.00  0.00     0.012 C 
ATOM     12  C   UNL     1      28.657  11.882 -15.784  1.00  0.00     0.012 C 
ENDBRANCH   5  10
TORSDOF 2
ENDMDL
MODEL 3
REMARK VINA RESULT:    -4.558     19.733     20.802
REMARK INTER + INTRA:          -5.143
REMARK INTER:                  -4.953
REMARK INTRA:                  -0.191
REMARK UNBOUND:                -0.186
REMARK SMILES Cc1ccc(C(C)C)c(O)c1
REMARK SMILES IDX 1 1 2 2 11 3 9 4 5 5 4 6 3 7 10 8 6 10 7 11 8 12
REMARK H PARENT 10 9
REMARK Flexibility Score: inf
ROOT
ATOM      1  C   UNL     1      29.256  13.689 -18.565  1.00  0.00     0.044 C 
ATOM      2  C   UNL     1      29.187  13.694 -17.066  1.00  0.00    -0.047 A 
ATOM      3  C   UNL     1      29.656  14.797 -16.341  1.00  0.00     0.049 A 
ATOM      4  C   UNL     1      29.561  14.828 -14.942  1.00  0.00     0.119 A 
ATOM      5  C   UNL     1      28.976  13.741 -14.249  1.00  0.00    -0.004 A 
ATOM      6  C   UNL     1      28.491  12.648 -14.991  1.00  0.00     0.008 A 
ATOM      7  C   UNL     1      28.590  12.628 -16.384  1.00  0.00     0.004 A 
ENDROOT
BRANCH   4   8
ATOM      8  O   UNL     1      30.047  15.935 -14.250  1.00  0.00    -0.508 OA
ATOM      9  H   UNL     1      29.430  16.571 -13.759  1.00  0.00     0.293 HD
ENDBRANCH   4   8
BRANCH   5  10
ATOM     10  C   UNL     1      28.845  13.714 -12.731  1.00  0.00     0.017 C 
ATOM     11  C   UNL     1      27.378  13.686 -12.287  1.00  0.00     0.012 C 
ATOM     12  C   UNL     1      29.644  12.562 -12.111  1.00  0.00     0.012 C 
ENDBRANCH   5  10
TORSDOF 2
ENDMDL
MODEL 4
REMARK VINA RESULT:    -4.526      1.395      4.242
REMARK INTER + INTRA:          -5.109
REMARK INTER:                  -4.912
REMARK INTRA:                  -0.197
REMARK UNBOUND:                -0.186
REMARK SMILES Cc1ccc(C(C)C)c(O)c1
REMARK SMILES IDX 1 1 2 2 11 3 9 4 5 5 4 6 3 7 10 8 6 10 7 11 8 12
REMARK H PARENT 10 9
REMARK Flexibility Score: inf
ROOT
ATOM      1  C   UNL     1      18.643  -1.764 -11.466  1.00  0.00     0.044 C 
ATOM      2  C   UNL     1      17.269  -1.491 -12.006  1.00  0.00    -0.047 A 
ATOM      3  C   UNL     1      16.377  -0.685 -11.290  1.00  0.00     0.049 A 
ATOM      4  C   UNL     1      15.104  -0.393 -11.803  1.00  0.00     0.119 A 
ATOM      5  C   UNL     1      14.716  -0.907 -13.064  1.00  0.00    -0.004 A 
ATOM      6  C   UNL     1      15.630  -1.700 -13.781  1.00  0.00     0.008 A 
ATOM      7  C   UNL     1      16.895  -1.983 -13.261  1.00  0.00     0.004 A 
ENDROOT
BRANCH   4   8
ATOM      8  O   UNL     1      14.235   0.404 -11.061  1.00  0.00    -0.508 OA
ATOM      9  H   UNL     1      14.471   0.729 -10.131  1.00  0.00     0.293 HD
ENDBRANCH   4   8
BRANCH   5  10
ATOM     10  C   UNL     1      13.349  -0.627 -13.675  1.00  0.00     0.017 C 
ATOM     11  C   UNL     1      13.435  -0.420 -15.192  1.00  0.00     0.012 C 
ATOM     12  C   UNL     1      12.329  -1.713 -13.311  1.00  0.00     0.012 C 
ENDBRANCH   5  10
TORSDOF 2
ENDMDL
MODEL 5
REMARK VINA RESULT:    -4.469     18.441     19.209
REMARK INTER + INTRA:          -5.047
REMARK INTER:                  -4.851
REMARK INTRA:                  -0.196
REMARK UNBOUND:                -0.186
REMARK SMILES Cc1ccc(C(C)C)c(O)c1
REMARK SMILES IDX 1 1 2 2 11 3 9 4 5 5 4 6 3 7 10 8 6 10 7 11 8 12
REMARK H PARENT 10 9
REMARK Flexibility Score: inf
ROOT
ATOM      1  C   UNL     1      25.839  14.691 -11.992  1.00  0.00     0.044 C 
ATOM      2  C   UNL     1      26.864  13.629 -11.717  1.00  0.00    -0.047 A 
ATOM      3  C   UNL     1      28.145  13.724 -12.273  1.00  0.00     0.049 A 
ATOM      4  C   UNL     1      29.122  12.757 -11.992  1.00  0.00     0.119 A 
ATOM      5  C   UNL     1      28.819  11.676 -11.130  1.00  0.00    -0.004 A 
ATOM      6  C   UNL     1      27.533  11.603 -10.563  1.00  0.00     0.008 A 
ATOM      7  C   UNL     1      26.568  12.573 -10.848  1.00  0.00     0.004 A 
ENDROOT
BRANCH   4   8
ATOM      8  O   UNL     1      30.385  12.875 -12.570  1.00  0.00    -0.508 OA
ATOM      9  H   UNL     1      31.139  13.369 -12.108  1.00  0.00     0.293 HD
ENDBRANCH   4   8
BRANCH   5  10
ATOM     10  C   UNL     1      29.835  10.594 -10.787  1.00  0.00     0.017 C 
ATOM     11  C   UNL     1      29.839  10.272  -9.288  1.00  0.00     0.012 C 
ATOM     12  C   UNL     1      29.631   9.332 -11.634  1.00  0.00     0.012 C 
ENDBRANCH   5  10
TORSDOF 2
ENDMDL
MODEL 6
REMARK VINA RESULT:    -4.319     18.635     20.594
REMARK INTER + INTRA:          -4.883
REMARK INTER:                  -4.772
REMARK INTRA:                  -0.112
REMARK UNBOUND:                -0.186
REMARK SMILES Cc1ccc(C(C)C)c(O)c1
REMARK SMILES IDX 1 1 2 2 11 3 9 4 5 5 4 6 3 7 10 8 6 10 7 11 8 12
REMARK H PARENT 10 9
REMARK Flexibility Score: inf
ROOT
ATOM      1  C   UNL     1      30.259  14.966 -15.810  1.00  0.00     0.044 C 
ATOM      2  C   UNL     1      29.357  14.739 -14.632  1.00  0.00    -0.047 A 
ATOM      3  C   UNL     1      28.896  15.824 -13.877  1.00  0.00     0.049 A 
ATOM      4  C   UNL     1      28.023  15.626 -12.797  1.00  0.00     0.119 A 
ATOM      5  C   UNL     1      27.590  14.318 -12.468  1.00  0.00    -0.004 A 
ATOM      6  C   UNL     1      28.047  13.239 -13.247  1.00  0.00     0.008 A 
ATOM      7  C   UNL     1      28.915  13.448 -14.322  1.00  0.00     0.004 A 
ENDROOT
BRANCH   4   8
ATOM      8  O   UNL     1      27.590  16.726 -12.059  1.00  0.00    -0.508 OA
ATOM      9  H   UNL     1      27.418  17.625 -12.492  1.00  0.00     0.293 HD
ENDBRANCH   4   8
BRANCH   5  10
ATOM     10  C   UNL     1      26.644  14.038 -11.308  1.00  0.00     0.017 C 
ATOM     11  C   UNL     1      25.208  14.472 -11.627  1.00  0.00     0.012 C 
ATOM     12  C   UNL     1      26.705  12.571 -10.865  1.00  0.00     0.012 C 
ENDBRANCH   5  10
TORSDOF 2
ENDMDL
MODEL 7
REMARK VINA RESULT:    -4.301      1.882      2.657
REMARK INTER + INTRA:          -4.864
REMARK INTER:                  -4.667
REMARK INTRA:                  -0.197
REMARK UNBOUND:                -0.186
REMARK SMILES Cc1ccc(C(C)C)c(O)c1
REMARK SMILES IDX 1 1 2 2 11 3 9 4 5 5 4 6 3 7 10 8 6 10 7 11 8 12
REMARK H PARENT 10 9
REMARK Flexibility Score: inf
ROOT
ATOM      1  C   UNL     1      11.659  -0.292 -12.737  1.00  0.00     0.044 C 
ATOM      2  C   UNL     1      13.131  -0.545 -12.888  1.00  0.00    -0.047 A 
ATOM      3  C   UNL     1      13.618  -1.226 -14.010  1.00  0.00     0.049 A 
ATOM      4  C   UNL     1      14.996  -1.434 -14.178  1.00  0.00     0.119 A 
ATOM      5  C   UNL     1      15.909  -0.944 -13.214  1.00  0.00    -0.004 A 
ATOM      6  C   UNL     1      15.405  -0.245 -12.101  1.00  0.00     0.008 A 
ATOM      7  C   UNL     1      14.032  -0.042 -11.944  1.00  0.00     0.004 A 
ENDROOT
BRANCH   4   8
ATOM      8  O   UNL     1      15.448  -2.125 -15.301  1.00  0.00    -0.508 OA
ATOM      9  H   UNL     1      15.953  -3.000 -15.223  1.00  0.00     0.293 HD
ENDBRANCH   4   8
BRANCH   5  10
ATOM     10  C   UNL     1      17.414  -1.139 -13.340  1.00  0.00     0.017 C 
ATOM     11  C   UNL     1      18.084   0.049 -14.041  1.00  0.00     0.012 C 
ATOM     12  C   UNL     1      18.066  -1.434 -11.983  1.00  0.00     0.012 C 
ENDBRANCH   5  10
TORSDOF 2
ENDMDL
MODEL 8
REMARK VINA RESULT:    -4.168      2.203      3.850
REMARK INTER + INTRA:          -4.720
REMARK INTER:                  -4.529
REMARK INTRA:                  -0.191
REMARK UNBOUND:                -0.186
REMARK SMILES Cc1ccc(C(C)C)c(O)c1
REMARK SMILES IDX 1 1 2 2 11 3 9 4 5 5 4 6 3 7 10 8 6 10 7 11 8 12
REMARK H PARENT 10 9
REMARK Flexibility Score: inf
ROOT
ATOM      1  C   UNL     1      16.841   1.297 -17.674  1.00  0.00     0.044 C 
ATOM      2  C   UNL     1      16.464   0.782 -16.315  1.00  0.00    -0.047 A 
ATOM      3  C   UNL     1      15.241   0.127 -16.123  1.00  0.00     0.049 A 
ATOM      4  C   UNL     1      14.896  -0.391 -14.866  1.00  0.00     0.119 A 
ATOM      5  C   UNL     1      15.793  -0.264 -13.778  1.00  0.00    -0.004 A 
ATOM      6  C   UNL     1      17.026   0.379 -13.991  1.00  0.00     0.008 A 
ATOM      7  C   UNL     1      17.361   0.890 -15.247  1.00  0.00     0.004 A 
ENDROOT
BRANCH   4   8
ATOM      8  O   UNL     1      13.667  -1.028 -14.705  1.00  0.00    -0.508 OA
ATOM      9  H   UNL     1      13.452  -1.900 -15.172  1.00  0.00     0.293 HD
ENDBRANCH   4   8
BRANCH   5  10
ATOM     10  C   UNL     1      15.476  -0.805 -12.390  1.00  0.00     0.017 C 
ATOM     11  C   UNL     1      16.741  -1.268 -11.657  1.00  0.00     0.012 C 
ATOM     12  C   UNL     1      14.678   0.204 -11.554  1.00  0.00     0.012 C 
ENDBRANCH   5  10
TORSDOF 2
ENDMDL
MODEL 9
REMARK VINA RESULT:    -4.166     18.982     20.365
REMARK INTER + INTRA:          -4.718
REMARK INTER:                  -4.545
REMARK INTRA:                  -0.173
REMARK UNBOUND:                -0.186
REMARK SMILES Cc1ccc(C(C)C)c(O)c1
REMARK SMILES IDX 1 1 2 2 11 3 9 4 5 5 4 6 3 7 10 8 6 10 7 11 8 12
REMARK H PARENT 10 9
REMARK Flexibility Score: inf
ROOT
ATOM      1  C   UNL     1      30.661   8.380 -18.419  1.00  0.00     0.044 C 
ATOM      2  C   UNL     1      30.358   9.755 -17.898  1.00  0.00    -0.047 A 
ATOM      3  C   UNL     1      29.731   9.917 -16.656  1.00  0.00     0.049 A 
ATOM      4  C   UNL     1      29.478  11.198 -16.143  1.00  0.00     0.119 A 
ATOM      5  C   UNL     1      29.868  12.344 -16.878  1.00  0.00    -0.004 A 
ATOM      6  C   UNL     1      30.514  12.166 -18.115  1.00  0.00     0.008 A 
ATOM      7  C   UNL     1      30.763  10.886 -18.616  1.00  0.00     0.004 A 
ENDROOT
BRANCH   4   8
ATOM      8  O   UNL     1      28.843  11.325 -14.910  1.00  0.00    -0.508 OA
ATOM      9  H   UNL     1      28.431  10.530 -14.436  1.00  0.00     0.293 HD
ENDBRANCH   4   8
BRANCH   5  10
ATOM     10  C   UNL     1      29.620  13.760 -16.376  1.00  0.00     0.017 C 
ATOM     11  C   UNL     1      30.688  14.201 -15.367  1.00  0.00     0.012 C 
ATOM     12  C   UNL     1      29.489  14.760 -17.531  1.00  0.00     0.012 C 
ENDBRANCH   5  10
TORSDOF 2
ENDMDL
