MODEL 1
REMARK VINA RESULT:     6.459      0.000      0.000
REMARK INTER + INTRA:          10.736
REMARK INTER:                  10.990
REMARK INTRA:                  -0.254
REMARK UNBOUND:                -0.254
REMARK SMILES CCCCCCCCCCCCCC(=O)[O-]
REMARK SMILES IDX 8 1 9 2 10 3 11 4 12 5 13 6 14 7 15 8 16 9 7 10 6 11 5 12
REMARK SMILES IDX 4 13 3 14 2 15 1 16
REMARK H PARENT
REMARK Flexibility Score: inf
ROOT
ATOM      1  C   UNL     1     -18.077  22.684  19.502  1.00  0.00     0.000 C 
ENDROOT
BRANCH   1   2
ATOM      2  C   UNL     1     -18.687  23.475  18.334  1.00  0.00     0.000 C 
BRANCH   2   3
ATOM      3  C   UNL     1     -17.979  24.821  18.098  1.00  0.00     0.000 C 
BRANCH   3   4
ATOM      4  C   UNL     1     -18.295  25.419  16.718  1.00  0.00     0.000 C 
BRANCH   4   5
ATOM      5  C   UNL     1     -17.084  25.392  15.769  1.00  0.00     0.006 C 
BRANCH   5   6
ATOM      6  C   UNL     1     -15.885  26.161  16.340  1.00  0.00     0.053 C 
BRANCH   6   7
ATOM      7  C   UNL     1     -14.681  25.280  16.487  1.00  0.00     0.041 C 
ATOM      8  O   UNL     1     -13.765  25.307  15.622  1.00  0.00    -0.550 OA
ATOM      9  O   UNL     1     -14.589  24.405  17.560  1.00  0.00    -0.550 OA
ENDBRANCH   6   7
ENDBRANCH   5   6
ENDBRANCH   4   5
ENDBRANCH   3   4
ENDBRANCH   2   3
ENDBRANCH   1   2
BRANCH   1  10
ATOM     10  C   UNL     1     -18.905  21.443  19.873  1.00  0.00     0.000 C 
BRANCH  10  11
ATOM     11  C   UNL     1     -19.124  21.365  21.389  1.00  0.00    -0.000 C 
BRANCH  11  12
ATOM     12  C   UNL     1     -17.895  20.766  22.091  1.00  0.00    -0.000 C 
BRANCH  12  13
ATOM     13  C   UNL     1     -17.867  19.228  22.042  1.00  0.00    -0.000 C 
BRANCH  13  14
ATOM     14  C   UNL     1     -18.851  18.588  21.040  1.00  0.00    -0.000 C 
BRANCH  14  15
ATOM     15  C   UNL     1     -18.216  17.593  20.053  1.00  0.00    -0.003 C 
ATOM     16  C   UNL     1     -19.125  17.266  18.869  1.00  0.00     0.004 C 
ENDBRANCH  14  15
ENDBRANCH  13  14
ENDBRANCH  12  13
ENDBRANCH  11  12
ENDBRANCH  10  11
ENDBRANCH   1  10
TORSDOF 12
ENDMDL
MODEL 2
REMARK VINA RESULT:     7.060      1.064      1.672
REMARK INTER + INTRA:          11.759
REMARK INTER:                  12.414
REMARK INTRA:                  -0.655
REMARK UNBOUND:                -0.254
REMARK SMILES CCCCCCCCCCCCCC(=O)[O-]
REMARK SMILES IDX 8 1 9 2 10 3 11 4 12 5 13 6 14 7 15 8 16 9 7 10 6 11 5 12
REMARK SMILES IDX 4 13 3 14 2 15 1 16
REMARK H PARENT
REMARK Flexibility Score: inf
ROOT
ATOM      1  C   UNL     1     -18.214  22.651  18.833  1.00  0.00     0.000 C 
ENDROOT
BRANCH   1   2
ATOM      2  C   UNL     1     -18.998  23.586  17.899  1.00  0.00     0.000 C 
BRANCH   2   3
ATOM      3  C   UNL     1     -18.328  24.962  17.741  1.00  0.00     0.000 C 
BRANCH   3   4
ATOM      4  C   UNL     1     -18.490  25.537  16.324  1.00  0.00     0.000 C 
BRANCH   4   5
ATOM      5  C   UNL     1     -17.143  25.739  15.608  1.00  0.00     0.006 C 
BRANCH   5   6
ATOM      6  C   UNL     1     -16.047  26.227  16.565  1.00  0.00     0.053 C 
BRANCH   6   7
ATOM      7  C   UNL     1     -14.822  25.368  16.487  1.00  0.00     0.041 C 
ATOM      8  O   UNL     1     -14.101  25.382  15.454  1.00  0.00    -0.550 OA
ATOM      9  O   UNL     1     -14.495  24.526  17.542  1.00  0.00    -0.550 OA
ENDBRANCH   6   7
ENDBRANCH   5   6
ENDBRANCH   4   5
ENDBRANCH   3   4
ENDBRANCH   2   3
ENDBRANCH   1   2
BRANCH   1  10
ATOM     10  C   UNL     1     -19.125  21.683  19.604  1.00  0.00     0.000 C 
BRANCH  10  11
ATOM     11  C   UNL     1     -19.125  22.009  21.103  1.00  0.00    -0.000 C 
BRANCH  11  12
ATOM     12  C   UNL     1     -19.100  20.724  21.946  1.00  0.00    -0.000 C 
BRANCH  12  13
ATOM     13  C   UNL     1     -18.996  19.449  21.089  1.00  0.00    -0.000 C 
BRANCH  13  14
ATOM     14  C   UNL     1     -17.692  18.644  21.270  1.00  0.00    -0.000 C 
BRANCH  14  15
ATOM     15  C   UNL     1     -17.079  18.710  22.679  1.00  0.00    -0.003 C 
ATOM     16  C   UNL     1     -15.649  18.173  22.732  1.00  0.00     0.004 C 
ENDBRANCH  14  15
ENDBRANCH  13  14
ENDBRANCH  12  13
ENDBRANCH  11  12
ENDBRANCH  10  11
ENDBRANCH   1  10
TORSDOF 12
ENDMDL
MODEL 3
REMARK VINA RESULT:     9.337      3.540      7.555
REMARK INTER + INTRA:          15.633
REMARK INTER:                  15.685
REMARK INTRA:                  -0.052
REMARK UNBOUND:                -0.254
REMARK SMILES CCCCCCCCCCCCCC(=O)[O-]
REMARK SMILES IDX 8 1 9 2 10 3 11 4 12 5 13 6 14 7 15 8 16 9 7 10 6 11 5 12
REMARK SMILES IDX 4 13 3 14 2 15 1 16
REMARK H PARENT
REMARK Flexibility Score: inf
ROOT
ATOM      1  C   UNL     1     -17.601  23.718  18.401  1.00  0.00     0.000 C 
ENDROOT
BRANCH   1   2
ATOM      2  C   UNL     1     -18.984  23.062  18.256  1.00  0.00     0.000 C 
BRANCH   2   3
ATOM      3  C   UNL     1     -19.123  21.782  19.097  1.00  0.00     0.000 C 
BRANCH   3   4
ATOM      4  C   UNL     1     -19.124  22.067  20.608  1.00  0.00     0.000 C 
BRANCH   4   5
ATOM      5  C   UNL     1     -19.112  20.781  21.454  1.00  0.00     0.006 C 
BRANCH   5   6
ATOM      6  C   UNL     1     -17.706  20.437  21.963  1.00  0.00     0.053 C 
BRANCH   6   7
ATOM      7  C   UNL     1     -17.524  18.958  22.126  1.00  0.00     0.041 C 
ATOM      8  O   UNL     1     -16.807  18.505  23.058  1.00  0.00    -0.550 OA
ATOM      9  O   UNL     1     -18.117  18.082  21.227  1.00  0.00    -0.550 OA
ENDBRANCH   6   7
ENDBRANCH   5   6
ENDBRANCH   4   5
ENDBRANCH   3   4
ENDBRANCH   2   3
ENDBRANCH   1   2
BRANCH   1  10
ATOM     10  C   UNL     1     -17.612  25.211  18.041  1.00  0.00     0.000 C 
BRANCH  10  11
ATOM     11  C   UNL     1     -18.659  25.506  16.959  1.00  0.00    -0.000 C 
BRANCH  11  12
ATOM     12  C   UNL     1     -18.068  26.388  15.848  1.00  0.00    -0.000 C 
BRANCH  12  13
ATOM     13  C   UNL     1     -17.268  25.584  14.808  1.00  0.00    -0.000 C 
BRANCH  13  14
ATOM     14  C   UNL     1     -15.742  25.555  15.036  1.00  0.00    -0.000 C 
BRANCH  14  15
ATOM     15  C   UNL     1     -15.293  25.899  16.466  1.00  0.00    -0.003 C 
ATOM     16  C   UNL     1     -14.272  24.909  17.024  1.00  0.00     0.004 C 
ENDBRANCH  14  15
ENDBRANCH  13  14
ENDBRANCH  12  13
ENDBRANCH  11  12
ENDBRANCH  10  11
ENDBRANCH   1  10
TORSDOF 12
ENDMDL
