MODEL 1
REMARK VINA RESULT:    -2.906      0.000      0.000
REMARK INTER + INTRA:          -3.562
REMARK INTER:                  -3.500
REMARK INTRA:                  -0.062
REMARK UNBOUND:                -0.062
REMARK SMILES CC[C@@H](C)[C@@H]([NH3+])C(=O)[O-]
REMARK SMILES IDX 3 1 4 2 5 3 6 4 7 8 8 9 9 10 2 11 1 12
REMARK H PARENT 6 5 6 6 6 7
REMARK Flexibility Score: inf
ROOT
ATOM      1  C   UNL     1      10.011  -9.041   7.001  1.00  0.00     0.050 C 
ATOM      2  C   UNL     1       8.835  -8.924   7.994  1.00  0.00     0.014 C 
ENDROOT
BRANCH   1   3
ATOM      3  C   UNL     1       9.983  -7.853   5.983  1.00  0.00     0.230 C 
BRANCH   3   4
ATOM      4  N   UNL     1      11.300  -7.212   5.837  1.00  0.00    -0.350 N 
ATOM      5  H   UNL     1      11.348  -6.687   4.933  1.00  0.00     0.345 HD
ATOM      6  H   UNL     1      12.064  -7.928   5.853  1.00  0.00     0.345 HD
ATOM      7  H   UNL     1      11.450  -6.515   6.600  1.00  0.00     0.345 HD
ENDBRANCH   3   4
BRANCH   3   8
ATOM      8  C   UNL     1       9.502  -8.314   4.628  1.00  0.00     0.099 C 
ATOM      9  O   UNL     1       8.712  -9.292   4.531  1.00  0.00    -0.544 OA
ATOM     10  O   UNL     1       9.928  -7.659   3.479  1.00  0.00    -0.544 OA
ENDBRANCH   3   8
ENDBRANCH   1   3
BRANCH   1  11
ATOM     11  C   UNL     1      11.363  -9.108   7.761  1.00  0.00     0.006 C 
ATOM     12  C   UNL     1      11.321  -9.997   9.006  1.00  0.00     0.004 C 
ENDBRANCH   1  11
TORSDOF 4
ENDMDL
MODEL 2
REMARK VINA RESULT:    -2.878     24.082     24.809
REMARK INTER + INTRA:          -3.529
REMARK INTER:                  -3.596
REMARK INTRA:                   0.067
REMARK UNBOUND:                -0.062
REMARK SMILES CC[C@@H](C)[C@@H]([NH3+])C(=O)[O-]
REMARK SMILES IDX 3 1 4 2 5 3 6 4 7 8 8 9 9 10 2 11 1 12
REMARK H PARENT 6 5 6 6 6 7
REMARK Flexibility Score: inf
ROOT
ATOM      1  C   UNL     1      -5.105  10.046  13.173  1.00  0.00     0.050 C 
ATOM      2  C   UNL     1      -6.091   9.156  12.386  1.00  0.00     0.014 C 
ENDROOT
BRANCH   1   3
ATOM      3  C   UNL     1      -5.359   9.910  14.711  1.00  0.00     0.230 C 
BRANCH   3   4
ATOM      4  N   UNL     1      -6.783   9.709  15.025  1.00  0.00    -0.350 N 
ATOM      5  H   UNL     1      -7.382  10.167  14.300  1.00  0.00     0.345 HD
ATOM      6  H   UNL     1      -7.016  10.114  15.962  1.00  0.00     0.345 HD
ATOM      7  H   UNL     1      -7.016   8.690  15.011  1.00  0.00     0.345 HD
ENDBRANCH   3   4
BRANCH   3   8
ATOM      8  C   UNL     1      -4.556   8.771  15.292  1.00  0.00     0.099 C 
ATOM      9  O   UNL     1      -3.595   9.001  16.073  1.00  0.00    -0.544 OA
ATOM     10  O   UNL     1      -4.876   7.458  14.966  1.00  0.00    -0.544 OA
ENDBRANCH   3   8
ENDBRANCH   1   3
BRANCH   1  11
ATOM     11  C   UNL     1      -3.639   9.695  12.804  1.00  0.00     0.006 C 
ATOM     12  C   UNL     1      -3.373   9.683  11.297  1.00  0.00     0.004 C 
ENDBRANCH   1  11
TORSDOF 4
ENDMDL
MODEL 3
REMARK VINA RESULT:    -2.877      2.684      3.450
REMARK INTER + INTRA:          -3.528
REMARK INTER:                  -3.429
REMARK INTRA:                  -0.099
REMARK UNBOUND:                -0.062
REMARK SMILES CC[C@@H](C)[C@@H]([NH3+])C(=O)[O-]
REMARK SMILES IDX 3 1 4 2 5 3 6 4 7 8 8 9 9 10 2 11 1 12
REMARK H PARENT 6 5 6 6 6 7
REMARK Flexibility Score: inf
ROOT
ATOM      1  C   UNL     1      10.262  -7.737   4.738  1.00  0.00     0.050 C 
ATOM      2  C   UNL     1      11.276  -7.994   5.875  1.00  0.00     0.014 C 
ENDROOT
BRANCH   1   3
ATOM      3  C   UNL     1      10.675  -8.528   3.453  1.00  0.00     0.230 C 
BRANCH   3   4
ATOM      4  N   UNL     1       9.518  -9.134   2.776  1.00  0.00    -0.350 N 
ATOM      5  H   UNL     1       8.727  -8.450   2.728  1.00  0.00     0.345 HD
ATOM      6  H   UNL     1       9.195  -9.989   3.287  1.00  0.00     0.345 HD
ATOM      7  H   UNL     1       9.764  -9.381   1.791  1.00  0.00     0.345 HD
ENDBRANCH   3   4
BRANCH   3   8
ATOM      8  C   UNL     1      11.408  -7.635   2.482  1.00  0.00     0.099 C 
ATOM      9  O   UNL     1      11.375  -6.382   2.618  1.00  0.00    -0.544 OA
ATOM     10  O   UNL     1      12.125  -8.192   1.430  1.00  0.00    -0.544 OA
ENDBRANCH   3   8
ENDBRANCH   1   3
BRANCH   1  11
ATOM     11  C   UNL     1       8.825  -8.104   5.196  1.00  0.00     0.006 C 
ATOM     12  C   UNL     1       8.754  -8.624   6.634  1.00  0.00     0.004 C 
ENDBRANCH   1  11
TORSDOF 4
ENDMDL
MODEL 4
REMARK VINA RESULT:    -2.847      2.839      3.793
REMARK INTER + INTRA:          -3.491
REMARK INTER:                  -3.436
REMARK INTRA:                  -0.055
REMARK UNBOUND:                -0.062
REMARK SMILES CC[C@@H](C)[C@@H]([NH3+])C(=O)[O-]
REMARK SMILES IDX 3 1 4 2 5 3 6 4 7 8 8 9 9 10 2 11 1 12
REMARK H PARENT 6 5 6 6 6 7
REMARK Flexibility Score: inf
ROOT
ATOM      1  C   UNL     1      10.352  -8.634   5.694  1.00  0.00     0.050 C 
ATOM      2  C   UNL     1      11.326  -7.499   6.077  1.00  0.00     0.014 C 
ENDROOT
BRANCH   1   3
ATOM      3  C   UNL     1       8.917  -8.326   6.237  1.00  0.00     0.230 C 
BRANCH   3   4
ATOM      4  N   UNL     1       7.870  -8.636   5.251  1.00  0.00    -0.350 N 
ATOM      5  H   UNL     1       7.026  -9.029   5.730  1.00  0.00     0.345 HD
ATOM      6  H   UNL     1       8.215  -9.333   4.550  1.00  0.00     0.345 HD
ATOM      7  H   UNL     1       7.561  -7.765   4.764  1.00  0.00     0.345 HD
ENDBRANCH   3   4
BRANCH   3   8
ATOM      8  C   UNL     1       8.645  -9.093   7.509  1.00  0.00     0.099 C 
ATOM      9  O   UNL     1       7.573  -9.742   7.646  1.00  0.00    -0.544 OA
ATOM     10  O   UNL     1       9.579  -9.087   8.538  1.00  0.00    -0.544 OA
ENDBRANCH   3   8
ENDBRANCH   1   3
BRANCH   1  11
ATOM     11  C   UNL     1      10.345  -8.852   4.157  1.00  0.00     0.006 C 
ATOM     12  C   UNL     1      10.923  -7.674   3.370  1.00  0.00     0.004 C 
ENDBRANCH   1  11
TORSDOF 4
ENDMDL
MODEL 5
REMARK VINA RESULT:    -2.781     24.371     25.173
REMARK INTER + INTRA:          -3.412
REMARK INTER:                  -3.392
REMARK INTRA:                  -0.020
REMARK UNBOUND:                -0.062
REMARK SMILES CC[C@@H](C)[C@@H]([NH3+])C(=O)[O-]
REMARK SMILES IDX 3 1 4 2 5 3 6 4 7 8 8 9 9 10 2 11 1 12
REMARK H PARENT 6 5 6 6 6 7
REMARK Flexibility Score: inf
ROOT
ATOM      1  C   UNL     1      -5.644   9.148  13.062  1.00  0.00     0.050 C 
ATOM      2  C   UNL     1      -4.390   9.370  12.189  1.00  0.00     0.014 C 
ENDROOT
BRANCH   1   3
ATOM      3  C   UNL     1      -5.366   9.592  14.536  1.00  0.00     0.230 C 
BRANCH   3   4
ATOM      4  N   UNL     1      -6.607   9.832  15.290  1.00  0.00    -0.350 N 
ATOM      5  H   UNL     1      -6.986  10.782  15.071  1.00  0.00     0.345 HD
ATOM      6  H   UNL     1      -6.433   9.767  16.321  1.00  0.00     0.345 HD
ATOM      7  H   UNL     1      -7.340   9.142  15.010  1.00  0.00     0.345 HD
ENDBRANCH   3   4
BRANCH   3   8
ATOM      8  C   UNL     1      -4.534   8.563  15.262  1.00  0.00     0.099 C 
ATOM      9  O   UNL     1      -3.634   8.922  16.067  1.00  0.00    -0.544 OA
ATOM     10  O   UNL     1      -4.759   7.209  15.045  1.00  0.00    -0.544 OA
ENDBRANCH   3   8
ENDBRANCH   1   3
BRANCH   1  11
ATOM     11  C   UNL     1      -6.865   9.896  12.462  1.00  0.00     0.006 C 
ATOM     12  C   UNL     1      -8.125   9.032  12.366  1.00  0.00     0.004 C 
ENDBRANCH   1  11
TORSDOF 4
ENDMDL
MODEL 6
REMARK VINA RESULT:    -2.779      2.523      3.741
REMARK INTER + INTRA:          -3.409
REMARK INTER:                  -3.318
REMARK INTRA:                  -0.092
REMARK UNBOUND:                -0.062
REMARK SMILES CC[C@@H](C)[C@@H]([NH3+])C(=O)[O-]
REMARK SMILES IDX 3 1 4 2 5 3 6 4 7 8 8 9 9 10 2 11 1 12
REMARK H PARENT 6 5 6 6 6 7
REMARK Flexibility Score: inf
ROOT
ATOM      1  C   UNL     1       9.992  -7.976   5.956  1.00  0.00     0.050 C 
ATOM      2  C   UNL     1       8.879  -7.941   4.885  1.00  0.00     0.014 C 
ENDROOT
BRANCH   1   3
ATOM      3  C   UNL     1      10.079  -9.397   6.603  1.00  0.00     0.230 C 
BRANCH   3   4
ATOM      4  N   UNL     1      11.470  -9.836   6.798  1.00  0.00    -0.350 N 
ATOM      5  H   UNL     1      11.694 -10.629   6.153  1.00  0.00     0.345 HD
ATOM      6  H   UNL     1      11.625 -10.150   7.785  1.00  0.00     0.345 HD
ATOM      7  H   UNL     1      12.131  -9.061   6.564  1.00  0.00     0.345 HD
ENDBRANCH   3   4
BRANCH   3   8
ATOM      8  C   UNL     1       9.356  -9.433   7.928  1.00  0.00     0.099 C 
ATOM      9  O   UNL     1      10.004  -9.414   9.008  1.00  0.00    -0.544 OA
ATOM     10  O   UNL     1       7.968  -9.485   7.961  1.00  0.00    -0.544 OA
ENDBRANCH   3   8
ENDBRANCH   1   3
BRANCH   1  11
ATOM     11  C   UNL     1      11.351  -7.543   5.344  1.00  0.00     0.006 C 
ATOM     12  C   UNL     1      11.358  -7.531   3.814  1.00  0.00     0.004 C 
ENDBRANCH   1  11
TORSDOF 4
ENDMDL
MODEL 7
REMARK VINA RESULT:    -2.701      2.561      3.425
REMARK INTER + INTRA:          -3.315
REMARK INTER:                  -3.233
REMARK INTRA:                  -0.082
REMARK UNBOUND:                -0.062
REMARK SMILES CC[C@@H](C)[C@@H]([NH3+])C(=O)[O-]
REMARK SMILES IDX 3 1 4 2 5 3 6 4 7 8 8 9 9 10 2 11 1 12
REMARK H PARENT 6 5 6 6 6 7
REMARK Flexibility Score: inf
ROOT
ATOM      1  C   UNL     1       8.544  -8.870   6.400  1.00  0.00     0.050 C 
ATOM      2  C   UNL     1       8.024  -9.672   7.613  1.00  0.00     0.014 C 
ENDROOT
BRANCH   1   3
ATOM      3  C   UNL     1       9.993  -9.326   6.028  1.00  0.00     0.230 C 
BRANCH   3   4
ATOM      4  N   UNL     1      10.195  -9.404   4.572  1.00  0.00    -0.350 N 
ATOM      5  H   UNL     1      10.311 -10.401   4.275  1.00  0.00     0.345 HD
ATOM      6  H   UNL     1      11.047  -8.866   4.286  1.00  0.00     0.345 HD
ATOM      7  H   UNL     1       9.357  -9.035   4.069  1.00  0.00     0.345 HD
ENDBRANCH   3   4
BRANCH   3   8
ATOM      8  C   UNL     1      11.021  -8.395   6.623  1.00  0.00     0.099 C 
ATOM      9  O   UNL     1      11.563  -8.667   7.728  1.00  0.00    -0.544 OA
ATOM     10  O   UNL     1      11.377  -7.231   5.952  1.00  0.00    -0.544 OA
ENDBRANCH   3   8
ENDBRANCH   1   3
BRANCH   1  11
ATOM     11  C   UNL     1       7.573  -9.012   5.197  1.00  0.00     0.006 C 
ATOM     12  C   UNL     1       6.277  -9.748   5.539  1.00  0.00     0.004 C 
ENDBRANCH   1  11
TORSDOF 4
ENDMDL
MODEL 8
REMARK VINA RESULT:    -2.685      1.886      2.374
REMARK INTER + INTRA:          -3.296
REMARK INTER:                  -3.191
REMARK INTRA:                  -0.105
REMARK UNBOUND:                -0.062
REMARK SMILES CC[C@@H](C)[C@@H]([NH3+])C(=O)[O-]
REMARK SMILES IDX 3 1 4 2 5 3 6 4 7 8 8 9 9 10 2 11 1 12
REMARK H PARENT 6 5 6 6 6 7
REMARK Flexibility Score: inf
ROOT
ATOM      1  C   UNL     1       9.806  -8.048   5.980  1.00  0.00     0.050 C 
ATOM      2  C   UNL     1      11.300  -7.835   6.309  1.00  0.00     0.014 C 
ENDROOT
BRANCH   1   3
ATOM      3  C   UNL     1       9.650  -9.027   4.770  1.00  0.00     0.230 C 
BRANCH   3   4
ATOM      4  N   UNL     1       8.242  -9.362   4.501  1.00  0.00    -0.350 N 
ATOM      5  H   UNL     1       8.076  -9.425   3.470  1.00  0.00     0.345 HD
ATOM      6  H   UNL     1       7.605  -8.634   4.902  1.00  0.00     0.345 HD
ATOM      7  H   UNL     1       8.009 -10.298   4.903  1.00  0.00     0.345 HD
ENDBRANCH   3   4
BRANCH   3   8
ATOM      8  C   UNL     1      10.270  -8.446   3.522  1.00  0.00     0.099 C 
ATOM      9  O   UNL     1      11.121  -9.105   2.867  1.00  0.00    -0.544 OA
ATOM     10  O   UNL     1       9.902  -7.178   3.090  1.00  0.00    -0.544 OA
ENDBRANCH   3   8
ENDBRANCH   1   3
BRANCH   1  11
ATOM     11  C   UNL     1       9.040  -8.559   7.230  1.00  0.00     0.006 C 
ATOM     12  C   UNL     1       9.940  -9.240   8.264  1.00  0.00     0.004 C 
ENDBRANCH   1  11
TORSDOF 4
ENDMDL
