MODEL 1
REMARK VINA RESULT:    -4.014      0.000      0.000
REMARK INTER + INTRA:         -14.875
REMARK INTER:                 -10.116
REMARK INTRA:                  -4.759
REMARK UNBOUND:                -4.759
REMARK SMILES CCCCCCCCCCCCCCCCCCCCCCCCCCCC(=O)[O-]
REMARK SMILES IDX 15 1 16 2 17 3 18 4 19 5 20 6 21 7 22 8 23 9 24 10 25 11
REMARK SMILES IDX 26 12 27 13 28 14 29 15 30 16 14 17 13 18 12 19 11 20 10 21
REMARK SMILES IDX 9 22 8 23 7 24 6 25 5 26 4 27 3 28 2 29 1 30
REMARK H PARENT
REMARK Flexibility Score: inf
ROOT
ATOM      1  C   UNL     1       2.780  26.778 114.891  1.00  0.00     0.000 C 
ENDROOT
BRANCH   1   2
ATOM      2  C   UNL     1       1.735  25.643 114.862  1.00  0.00     0.000 C 
BRANCH   2   3
ATOM      3  C   UNL     1       1.175  25.344 113.458  1.00  0.00     0.000 C 
BRANCH   3   4
ATOM      4  C   UNL     1       0.557  23.936 113.308  1.00  0.00     0.000 C 
BRANCH   4   5
ATOM      5  C   UNL     1       0.212  23.227 114.635  1.00  0.00     0.000 C 
BRANCH   5   6
ATOM      6  C   UNL     1       1.150  22.071 115.032  1.00  0.00     0.000 C 
BRANCH   6   7
ATOM      7  C   UNL     1       1.864  21.433 113.828  1.00  0.00     0.000 C 
BRANCH   7   8
ATOM      8  C   UNL     1       3.376  21.708 113.828  1.00  0.00     0.000 C 
BRANCH   8   9
ATOM      9  C   UNL     1       3.776  22.797 114.836  1.00  0.00     0.000 C 
BRANCH   9  10
ATOM     10  C   UNL     1       4.837  22.273 115.815  1.00  0.00     0.000 C 
BRANCH  10  11
ATOM     11  C   UNL     1       5.283  23.333 116.835  1.00  0.00     0.000 C 
BRANCH  11  12
ATOM     12  C   UNL     1       5.626  24.681 116.177  1.00  0.00     0.006 C 
BRANCH  12  13
ATOM     13  C   UNL     1       7.046  25.150 116.526  1.00  0.00     0.053 C 
BRANCH  13  14
ATOM     14  C   UNL     1       8.077  24.132 116.149  1.00  0.00     0.041 C 
ATOM     15  O   UNL     1       8.559  23.365 117.024  1.00  0.00    -0.550 OA
ATOM     16  O   UNL     1       8.476  24.003 114.824  1.00  0.00    -0.550 OA
ENDBRANCH  13  14
ENDBRANCH  12  13
ENDBRANCH  11  12
ENDBRANCH  10  11
ENDBRANCH   9  10
ENDBRANCH   8   9
ENDBRANCH   7   8
ENDBRANCH   6   7
ENDBRANCH   5   6
ENDBRANCH   4   5
ENDBRANCH   3   4
ENDBRANCH   2   3
ENDBRANCH   1   2
BRANCH   1  17
ATOM     17  C   UNL     1       2.512  27.868 113.838  1.00  0.00     0.000 C 
BRANCH  17  18
ATOM     18  C   UNL     1       3.802  28.573 113.393  1.00  0.00     0.000 C 
BRANCH  18  19
ATOM     19  C   UNL     1       4.036  28.387 111.886  1.00  0.00     0.000 C 
BRANCH  19  20
ATOM     20  C   UNL     1       2.799  27.830 111.162  1.00  0.00     0.000 C 
BRANCH  20  21
ATOM     21  C   UNL     1       3.063  26.458 110.516  1.00  0.00     0.000 C 
BRANCH  21  22
ATOM     22  C   UNL     1       4.487  25.944 110.783  1.00  0.00    -0.000 C 
BRANCH  22  23
ATOM     23  C   UNL     1       4.512  24.711 111.704  1.00  0.00    -0.000 C 
BRANCH  23  24
ATOM     24  C   UNL     1       5.826  24.586 112.493  1.00  0.00    -0.000 C 
BRANCH  24  25
ATOM     25  C   UNL     1       6.727  25.826 112.349  1.00  0.00    -0.000 C 
BRANCH  25  26
ATOM     26  C   UNL     1       8.057  25.499 111.650  1.00  0.00    -0.000 C 
BRANCH  26  27
ATOM     27  C   UNL     1       8.185  26.197 110.284  1.00  0.00    -0.000 C 
BRANCH  27  28
ATOM     28  C   UNL     1       7.808  25.271 109.113  1.00  0.00    -0.000 C 
BRANCH  28  29
ATOM     29  C   UNL     1       8.328  25.758 107.746  1.00  0.00    -0.003 C 
ATOM     30  C   UNL     1       7.201  26.012 106.744  1.00  0.00     0.004 C 
ENDBRANCH  28  29
ENDBRANCH  27  28
ENDBRANCH  26  27
ENDBRANCH  25  26
ENDBRANCH  24  25
ENDBRANCH  23  24
ENDBRANCH  22  23
ENDBRANCH  21  22
ENDBRANCH  20  21
ENDBRANCH  19  20
ENDBRANCH  18  19
ENDBRANCH  17  18
ENDBRANCH   1  17
TORSDOF 26
ENDMDL
MODEL 2
REMARK VINA RESULT:    -4.001      2.881      5.746
REMARK INTER + INTRA:         -14.841
REMARK INTER:                  -9.392
REMARK INTRA:                  -5.449
REMARK UNBOUND:                -4.759
REMARK SMILES CCCCCCCCCCCCCCCCCCCCCCCCCCCC(=O)[O-]
REMARK SMILES IDX 15 1 16 2 17 3 18 4 19 5 20 6 21 7 22 8 23 9 24 10 25 11
REMARK SMILES IDX 26 12 27 13 28 14 29 15 30 16 14 17 13 18 12 19 11 20 10 21
REMARK SMILES IDX 9 22 8 23 7 24 6 25 5 26 4 27 3 28 2 29 1 30
REMARK H PARENT
REMARK Flexibility Score: inf
ROOT
ATOM      1  C   UNL     1       4.057  28.154 112.605  1.00  0.00     0.000 C 
ENDROOT
BRANCH   1   2
ATOM      2  C   UNL     1       3.429  28.356 114.000  1.00  0.00     0.000 C 
BRANCH   2   3
ATOM      3  C   UNL     1       2.740  27.098 114.565  1.00  0.00     0.000 C 
BRANCH   3   4
ATOM      4  C   UNL     1       1.249  27.295 114.919  1.00  0.00     0.000 C 
BRANCH   4   5
ATOM      5  C   UNL     1       0.280  26.297 114.250  1.00  0.00     0.000 C 
BRANCH   5   6
ATOM      6  C   UNL     1       0.943  25.214 113.377  1.00  0.00     0.000 C 
BRANCH   6   7
ATOM      7  C   UNL     1       0.486  23.789 113.733  1.00  0.00     0.000 C 
BRANCH   7   8
ATOM      8  C   UNL     1       1.649  22.783 113.736  1.00  0.00     0.000 C 
BRANCH   8   9
ATOM      9  C   UNL     1       2.941  23.379 114.317  1.00  0.00     0.000 C 
BRANCH   9  10
ATOM     10  C   UNL     1       4.112  23.203 113.339  1.00  0.00     0.000 C 
BRANCH  10  11
ATOM     11  C   UNL     1       4.890  24.507 113.100  1.00  0.00     0.000 C 
BRANCH  11  12
ATOM     12  C   UNL     1       5.388  24.644 111.651  1.00  0.00     0.006 C 
BRANCH  12  13
ATOM     13  C   UNL     1       6.782  25.283 111.575  1.00  0.00     0.053 C 
BRANCH  13  14
ATOM     14  C   UNL     1       6.765  26.566 110.802  1.00  0.00     0.041 C 
ATOM     15  O   UNL     1       7.487  27.532 111.162  1.00  0.00    -0.550 OA
ATOM     16  O   UNL     1       5.981  26.679 109.660  1.00  0.00    -0.550 OA
ENDBRANCH  13  14
ENDBRANCH  12  13
ENDBRANCH  11  12
ENDBRANCH  10  11
ENDBRANCH   9  10
ENDBRANCH   8   9
ENDBRANCH   7   8
ENDBRANCH   6   7
ENDBRANCH   5   6
ENDBRANCH   4   5
ENDBRANCH   3   4
ENDBRANCH   2   3
ENDBRANCH   1   2
BRANCH   1  17
ATOM     17  C   UNL     1       3.084  27.521 111.595  1.00  0.00     0.000 C 
BRANCH  17  18
ATOM     18  C   UNL     1       2.896  28.395 110.347  1.00  0.00     0.000 C 
BRANCH  18  19
ATOM     19  C   UNL     1       2.060  29.642 110.672  1.00  0.00     0.000 C 
BRANCH  19  20
ATOM     20  C   UNL     1       0.612  29.297 111.056  1.00  0.00     0.000 C 
BRANCH  20  21
ATOM     21  C   UNL     1       0.243  29.789 112.468  1.00  0.00     0.000 C 
BRANCH  21  22
ATOM     22  C   UNL     1       1.061  31.018 112.896  1.00  0.00    -0.000 C 
BRANCH  22  23
ATOM     23  C   UNL     1       1.181  31.151 114.424  1.00  0.00    -0.000 C 
BRANCH  23  24
ATOM     24  C   UNL     1       2.498  31.812 114.861  1.00  0.00    -0.000 C 
BRANCH  24  25
ATOM     25  C   UNL     1       3.417  32.150 113.674  1.00  0.00    -0.000 C 
BRANCH  25  26
ATOM     26  C   UNL     1       4.889  31.816 113.966  1.00  0.00    -0.000 C 
BRANCH  26  27
ATOM     27  C   UNL     1       5.455  32.644 115.133  1.00  0.00    -0.000 C 
BRANCH  27  28
ATOM     28  C   UNL     1       6.036  31.760 116.253  1.00  0.00    -0.000 C 
BRANCH  28  29
ATOM     29  C   UNL     1       5.916  30.249 115.975  1.00  0.00    -0.003 C 
ATOM     30  C   UNL     1       5.212  29.497 117.106  1.00  0.00     0.004 C 
ENDBRANCH  28  29
ENDBRANCH  27  28
ENDBRANCH  26  27
ENDBRANCH  25  26
ENDBRANCH  24  25
ENDBRANCH  23  24
ENDBRANCH  22  23
ENDBRANCH  21  22
ENDBRANCH  20  21
ENDBRANCH  19  20
ENDBRANCH  18  19
ENDBRANCH  17  18
ENDBRANCH   1  17
TORSDOF 26
ENDMDL
MODEL 3
REMARK VINA RESULT:    -3.916      3.062      5.817
REMARK INTER + INTRA:         -14.626
REMARK INTER:                 -10.027
REMARK INTRA:                  -4.599
REMARK UNBOUND:                -4.759
REMARK SMILES CCCCCCCCCCCCCCCCCCCCCCCCCCCC(=O)[O-]
REMARK SMILES IDX 15 1 16 2 17 3 18 4 19 5 20 6 21 7 22 8 23 9 24 10 25 11
REMARK SMILES IDX 26 12 27 13 28 14 29 15 30 16 14 17 13 18 12 19 11 20 10 21
REMARK SMILES IDX 9 22 8 23 7 24 6 25 5 26 4 27 3 28 2 29 1 30
REMARK H PARENT
REMARK Flexibility Score: inf
ROOT
ATOM      1  C   UNL     1       1.080  26.834 112.994  1.00  0.00     0.000 C 
ENDROOT
BRANCH   1   2
ATOM      2  C   UNL     1       1.503  25.357 112.844  1.00  0.00     0.000 C 
BRANCH   2   3
ATOM      3  C   UNL     1       0.510  24.356 113.466  1.00  0.00     0.000 C 
BRANCH   3   4
ATOM      4  C   UNL     1       1.138  22.999 113.857  1.00  0.00     0.000 C 
BRANCH   4   5
ATOM      5  C   UNL     1       2.487  23.092 114.602  1.00  0.00     0.000 C 
BRANCH   5   6
ATOM      6  C   UNL     1       3.717  22.613 113.807  1.00  0.00     0.000 C 
BRANCH   6   7
ATOM      7  C   UNL     1       4.861  23.642 113.788  1.00  0.00     0.000 C 
BRANCH   7   8
ATOM      8  C   UNL     1       4.872  24.485 112.503  1.00  0.00     0.000 C 
BRANCH   8   9
ATOM      9  C   UNL     1       5.916  23.995 111.488  1.00  0.00     0.000 C 
BRANCH   9  10
ATOM     10  C   UNL     1       7.295  24.602 111.786  1.00  0.00     0.000 C 
BRANCH  10  11
ATOM     11  C   UNL     1       7.406  26.073 111.354  1.00  0.00     0.000 C 
BRANCH  11  12
ATOM     12  C   UNL     1       6.712  26.349 110.008  1.00  0.00     0.006 C 
BRANCH  12  13
ATOM     13  C   UNL     1       7.569  25.906 108.813  1.00  0.00     0.053 C 
BRANCH  13  14
ATOM     14  C   UNL     1       6.920  26.248 107.507  1.00  0.00     0.041 C 
ATOM     15  O   UNL     1       7.418  25.837 106.426  1.00  0.00    -0.550 OA
ATOM     16  O   UNL     1       5.744  26.987 107.486  1.00  0.00    -0.550 OA
ENDBRANCH  13  14
ENDBRANCH  12  13
ENDBRANCH  11  12
ENDBRANCH  10  11
ENDBRANCH   9  10
ENDBRANCH   8   9
ENDBRANCH   7   8
ENDBRANCH   6   7
ENDBRANCH   5   6
ENDBRANCH   4   5
ENDBRANCH   3   4
ENDBRANCH   2   3
ENDBRANCH   1   2
BRANCH   1  17
ATOM     17  C   UNL     1       0.444  27.141 114.361  1.00  0.00     0.000 C 
BRANCH  17  18
ATOM     18  C   UNL     1       0.711  28.584 114.812  1.00  0.00     0.000 C 
BRANCH  18  19
ATOM     19  C   UNL     1       0.019  29.588 113.878  1.00  0.00     0.000 C 
BRANCH  19  20
ATOM     20  C   UNL     1       1.021  30.467 113.111  1.00  0.00     0.000 C 
BRANCH  20  21
ATOM     21  C   UNL     1       0.901  30.301 111.585  1.00  0.00     0.000 C 
BRANCH  21  22
ATOM     22  C   UNL     1       2.198  29.778 110.946  1.00  0.00    -0.000 C 
BRANCH  22  23
ATOM     23  C   UNL     1       3.369  29.715 111.940  1.00  0.00    -0.000 C 
BRANCH  23  24
ATOM     24  C   UNL     1       4.093  28.359 111.922  1.00  0.00    -0.000 C 
BRANCH  24  25
ATOM     25  C   UNL     1       5.054  28.181 113.110  1.00  0.00    -0.000 C 
BRANCH  25  26
ATOM     26  C   UNL     1       4.311  27.831 114.411  1.00  0.00    -0.000 C 
BRANCH  26  27
ATOM     27  C   UNL     1       5.027  28.381 115.657  1.00  0.00    -0.000 C 
BRANCH  27  28
ATOM     28  C   UNL     1       5.210  29.909 115.604  1.00  0.00    -0.000 C 
BRANCH  28  29
ATOM     29  C   UNL     1       3.882  30.691 115.581  1.00  0.00    -0.003 C 
ATOM     30  C   UNL     1       3.969  31.977 114.757  1.00  0.00     0.004 C 
ENDBRANCH  28  29
ENDBRANCH  27  28
ENDBRANCH  26  27
ENDBRANCH  25  26
ENDBRANCH  24  25
ENDBRANCH  23  24
ENDBRANCH  22  23
ENDBRANCH  21  22
ENDBRANCH  20  21
ENDBRANCH  19  20
ENDBRANCH  18  19
ENDBRANCH  17  18
ENDBRANCH   1  17
TORSDOF 26
ENDMDL
MODEL 4
REMARK VINA RESULT:    -3.904      2.314      6.041
REMARK INTER + INTRA:         -14.597
REMARK INTER:                  -9.328
REMARK INTRA:                  -5.269
REMARK UNBOUND:                -4.759
REMARK SMILES CCCCCCCCCCCCCCCCCCCCCCCCCCCC(=O)[O-]
REMARK SMILES IDX 15 1 16 2 17 3 18 4 19 5 20 6 21 7 22 8 23 9 24 10 25 11
REMARK SMILES IDX 26 12 27 13 28 14 29 15 30 16 14 17 13 18 12 19 11 20 10 21
REMARK SMILES IDX 9 22 8 23 7 24 6 25 5 26 4 27 3 28 2 29 1 30
REMARK H PARENT
REMARK Flexibility Score: inf
ROOT
ATOM      1  C   UNL     1       0.752  25.176 113.464  1.00  0.00     0.000 C 
ENDROOT
BRANCH   1   2
ATOM      2  C   UNL     1       1.384  26.540 113.813  1.00  0.00     0.000 C 
BRANCH   2   3
ATOM      3  C   UNL     1       0.357  27.671 114.018  1.00  0.00     0.000 C 
BRANCH   3   4
ATOM      4  C   UNL     1       0.782  29.030 113.417  1.00  0.00     0.000 C 
BRANCH   4   5
ATOM      5  C   UNL     1       0.387  29.245 111.940  1.00  0.00     0.000 C 
BRANCH   5   6
ATOM      6  C   UNL     1       1.515  29.749 111.020  1.00  0.00     0.000 C 
BRANCH   6   7
ATOM      7  C   UNL     1       1.963  28.703 109.984  1.00  0.00     0.000 C 
BRANCH   7   8
ATOM      8  C   UNL     1       3.123  27.832 110.491  1.00  0.00     0.000 C 
BRANCH   8   9
ATOM      9  C   UNL     1       2.720  26.360 110.666  1.00  0.00     0.000 C 
BRANCH   9  10
ATOM     10  C   UNL     1       3.913  25.519 111.143  1.00  0.00     0.000 C 
BRANCH  10  11
ATOM     11  C   UNL     1       4.815  26.271 112.135  1.00  0.00     0.000 C 
BRANCH  11  12
ATOM     12  C   UNL     1       6.119  25.514 112.443  1.00  0.00     0.006 C 
BRANCH  12  13
ATOM     13  C   UNL     1       7.033  25.411 111.213  1.00  0.00     0.053 C 
BRANCH  13  14
ATOM     14  C   UNL     1       7.149  26.721 110.495  1.00  0.00     0.041 C 
ATOM     15  O   UNL     1       7.697  27.705 111.057  1.00  0.00    -0.550 OA
ATOM     16  O   UNL     1       6.687  26.842 109.190  1.00  0.00    -0.550 OA
ENDBRANCH  13  14
ENDBRANCH  12  13
ENDBRANCH  11  12
ENDBRANCH  10  11
ENDBRANCH   9  10
ENDBRANCH   8   9
ENDBRANCH   7   8
ENDBRANCH   6   7
ENDBRANCH   5   6
ENDBRANCH   4   5
ENDBRANCH   3   4
ENDBRANCH   2   3
ENDBRANCH   1   2
BRANCH   1  17
ATOM     17  C   UNL     1      -0.115  24.607 114.601  1.00  0.00     0.000 C 
BRANCH  17  18
ATOM     18  C   UNL     1       0.048  23.086 114.746  1.00  0.00     0.000 C 
BRANCH  18  19
ATOM     19  C   UNL     1       1.056  22.542 113.723  1.00  0.00     0.000 C 
BRANCH  19  20
ATOM     20  C   UNL     1       1.829  21.321 114.248  1.00  0.00     0.000 C 
BRANCH  20  21
ATOM     21  C   UNL     1       3.346  21.442 114.019  1.00  0.00     0.000 C 
BRANCH  21  22
ATOM     22  C   UNL     1       3.786  22.886 113.732  1.00  0.00    -0.000 C 
BRANCH  22  23
ATOM     23  C   UNL     1       4.467  23.553 114.939  1.00  0.00    -0.000 C 
BRANCH  23  24
ATOM     24  C   UNL     1       3.460  24.168 115.925  1.00  0.00    -0.000 C 
BRANCH  24  25
ATOM     25  C   UNL     1       3.783  25.632 116.269  1.00  0.00    -0.000 C 
BRANCH  25  26
ATOM     26  C   UNL     1       5.283  25.943 116.135  1.00  0.00    -0.000 C 
BRANCH  26  27
ATOM     27  C   UNL     1       5.594  27.432 116.371  1.00  0.00    -0.000 C 
BRANCH  27  28
ATOM     28  C   UNL     1       5.680  28.229 115.057  1.00  0.00    -0.000 C 
BRANCH  28  29
ATOM     29  C   UNL     1       4.618  29.340 114.935  1.00  0.00    -0.003 C 
ATOM     30  C   UNL     1       4.309  29.703 113.482  1.00  0.00     0.004 C 
ENDBRANCH  28  29
ENDBRANCH  27  28
ENDBRANCH  26  27
ENDBRANCH  25  26
ENDBRANCH  24  25
ENDBRANCH  23  24
ENDBRANCH  22  23
ENDBRANCH  21  22
ENDBRANCH  20  21
ENDBRANCH  19  20
ENDBRANCH  18  19
ENDBRANCH  17  18
ENDBRANCH   1  17
TORSDOF 26
ENDMDL
MODEL 5
REMARK VINA RESULT:    -3.882      2.302      5.944
REMARK INTER + INTRA:         -14.540
REMARK INTER:                  -9.876
REMARK INTRA:                  -4.664
REMARK UNBOUND:                -4.759
REMARK SMILES CCCCCCCCCCCCCCCCCCCCCCCCCCCC(=O)[O-]
REMARK SMILES IDX 15 1 16 2 17 3 18 4 19 5 20 6 21 7 22 8 23 9 24 10 25 11
REMARK SMILES IDX 26 12 27 13 28 14 29 15 30 16 14 17 13 18 12 19 11 20 10 21
REMARK SMILES IDX 9 22 8 23 7 24 6 25 5 26 4 27 3 28 2 29 1 30
REMARK H PARENT
REMARK Flexibility Score: inf
ROOT
ATOM      1  C   UNL     1       1.789  21.964 113.721  1.00  0.00     0.000 C 
ENDROOT
BRANCH   1   2
ATOM      2  C   UNL     1       0.800  22.733 114.621  1.00  0.00     0.000 C 
BRANCH   2   3
ATOM      3  C   UNL     1       0.380  24.106 114.059  1.00  0.00     0.000 C 
BRANCH   3   4
ATOM      4  C   UNL     1       0.068  25.166 115.139  1.00  0.00     0.000 C 
BRANCH   4   5
ATOM      5  C   UNL     1      -0.052  26.614 114.619  1.00  0.00     0.000 C 
BRANCH   5   6
ATOM      6  C   UNL     1       1.201  27.172 113.917  1.00  0.00     0.000 C 
BRANCH   6   7
ATOM      7  C   UNL     1       0.877  28.261 112.879  1.00  0.00     0.000 C 
BRANCH   7   8
ATOM      8  C   UNL     1       1.554  28.001 111.524  1.00  0.00     0.000 C 
BRANCH   8   9
ATOM      9  C   UNL     1       2.341  26.682 111.503  1.00  0.00     0.000 C 
BRANCH   9  10
ATOM     10  C   UNL     1       3.580  26.798 110.604  1.00  0.00     0.000 C 
BRANCH  10  11
ATOM     11  C   UNL     1       4.681  25.791 110.973  1.00  0.00     0.000 C 
BRANCH  11  12
ATOM     12  C   UNL     1       6.097  26.364 110.788  1.00  0.00     0.006 C 
BRANCH  12  13
ATOM     13  C   UNL     1       6.934  26.265 112.071  1.00  0.00     0.053 C 
BRANCH  13  14
ATOM     14  C   UNL     1       7.842  25.074 112.052  1.00  0.00     0.041 C 
ATOM     15  O   UNL     1       9.077  25.216 112.249  1.00  0.00    -0.550 OA
ATOM     16  O   UNL     1       7.317  23.802 111.857  1.00  0.00    -0.550 OA
ENDBRANCH  13  14
ENDBRANCH  12  13
ENDBRANCH  11  12
ENDBRANCH  10  11
ENDBRANCH   9  10
ENDBRANCH   8   9
ENDBRANCH   7   8
ENDBRANCH   6   7
ENDBRANCH   5   6
ENDBRANCH   4   5
ENDBRANCH   3   4
ENDBRANCH   2   3
ENDBRANCH   1   2
BRANCH   1  17
ATOM     17  C   UNL     1       3.242  22.042 114.221  1.00  0.00     0.000 C 
BRANCH  17  18
ATOM     18  C   UNL     1       4.097  22.991 113.368  1.00  0.00     0.000 C 
BRANCH  18  19
ATOM     19  C   UNL     1       4.852  23.993 114.254  1.00  0.00     0.000 C 
BRANCH  19  20
ATOM     20  C   UNL     1       3.906  24.928 115.025  1.00  0.00     0.000 C 
BRANCH  20  21
ATOM     21  C   UNL     1       4.650  25.804 116.049  1.00  0.00     0.000 C 
BRANCH  21  22
ATOM     22  C   UNL     1       5.828  26.569 115.425  1.00  0.00    -0.000 C 
BRANCH  22  23
ATOM     23  C   UNL     1       5.629  28.094 115.452  1.00  0.00    -0.000 C 
BRANCH  23  24
ATOM     24  C   UNL     1       4.419  28.550 114.620  1.00  0.00    -0.000 C 
BRANCH  24  25
ATOM     25  C   UNL     1       4.817  29.076 113.230  1.00  0.00    -0.000 C 
BRANCH  25  26
ATOM     26  C   UNL     1       4.395  30.540 113.020  1.00  0.00    -0.000 C 
BRANCH  26  27
ATOM     27  C   UNL     1       5.379  31.529 113.668  1.00  0.00    -0.000 C 
BRANCH  27  28
ATOM     28  C   UNL     1       4.871  32.063 115.021  1.00  0.00    -0.000 C 
BRANCH  28  29
ATOM     29  C   UNL     1       5.969  32.167 116.098  1.00  0.00    -0.003 C 
ATOM     30  C   UNL     1       7.253  32.807 115.570  1.00  0.00     0.004 C 
ENDBRANCH  28  29
ENDBRANCH  27  28
ENDBRANCH  26  27
ENDBRANCH  25  26
ENDBRANCH  24  25
ENDBRANCH  23  24
ENDBRANCH  22  23
ENDBRANCH  21  22
ENDBRANCH  20  21
ENDBRANCH  19  20
ENDBRANCH  18  19
ENDBRANCH  17  18
ENDBRANCH   1  17
TORSDOF 26
ENDMDL
MODEL 6
REMARK VINA RESULT:    -3.862      2.994      6.435
REMARK INTER + INTRA:         -14.492
REMARK INTER:                  -9.388
REMARK INTRA:                  -5.104
REMARK UNBOUND:                -4.759
REMARK SMILES CCCCCCCCCCCCCCCCCCCCCCCCCCCC(=O)[O-]
REMARK SMILES IDX 15 1 16 2 17 3 18 4 19 5 20 6 21 7 22 8 23 9 24 10 25 11
REMARK SMILES IDX 26 12 27 13 28 14 29 15 30 16 14 17 13 18 12 19 11 20 10 21
REMARK SMILES IDX 9 22 8 23 7 24 6 25 5 26 4 27 3 28 2 29 1 30
REMARK H PARENT
REMARK Flexibility Score: inf
ROOT
ATOM      1  C   UNL     1      -0.133  25.604 115.246  1.00  0.00     0.000 C 
ENDROOT
BRANCH   1   2
ATOM      2  C   UNL     1       0.649  26.873 114.847  1.00  0.00     0.000 C 
BRANCH   2   3
ATOM      3  C   UNL     1       0.773  27.078 113.325  1.00  0.00     0.000 C 
BRANCH   3   4
ATOM      4  C   UNL     1       2.221  27.010 112.790  1.00  0.00     0.000 C 
BRANCH   4   5
ATOM      5  C   UNL     1       2.350  26.679 111.288  1.00  0.00     0.000 C 
BRANCH   5   6
ATOM      6  C   UNL     1       2.935  27.801 110.410  1.00  0.00     0.000 C 
BRANCH   6   7
ATOM      7  C   UNL     1       2.014  29.030 110.308  1.00  0.00     0.000 C 
BRANCH   7   8
ATOM      8  C   UNL     1       2.702  30.321 110.781  1.00  0.00     0.000 C 
BRANCH   8   9
ATOM      9  C   UNL     1       2.537  30.556 112.290  1.00  0.00     0.000 C 
BRANCH   9  10
ATOM     10  C   UNL     1       3.891  30.470 113.009  1.00  0.00     0.000 C 
BRANCH  10  11
ATOM     11  C   UNL     1       4.282  31.783 113.706  1.00  0.00     0.000 C 
BRANCH  11  12
ATOM     12  C   UNL     1       4.980  31.553 115.058  1.00  0.00     0.006 C 
BRANCH  12  13
ATOM     13  C   UNL     1       6.350  30.880 114.894  1.00  0.00     0.053 C 
BRANCH  13  14
ATOM     14  C   UNL     1       7.447  31.885 114.720  1.00  0.00     0.041 C 
ATOM     15  O   UNL     1       7.397  32.988 115.324  1.00  0.00    -0.550 OA
ATOM     16  O   UNL     1       8.544  31.586 113.921  1.00  0.00    -0.550 OA
ENDBRANCH  13  14
ENDBRANCH  12  13
ENDBRANCH  11  12
ENDBRANCH  10  11
ENDBRANCH   9  10
ENDBRANCH   8   9
ENDBRANCH   7   8
ENDBRANCH   6   7
ENDBRANCH   5   6
ENDBRANCH   4   5
ENDBRANCH   3   4
ENDBRANCH   2   3
ENDBRANCH   1   2
BRANCH   1  17
ATOM     17  C   UNL     1      -0.126  24.524 114.150  1.00  0.00     0.000 C 
BRANCH  17  18
ATOM     18  C   UNL     1       0.709  23.299 114.550  1.00  0.00     0.000 C 
BRANCH  18  19
ATOM     19  C   UNL     1       2.009  23.232 113.735  1.00  0.00     0.000 C 
BRANCH  19  20
ATOM     20  C   UNL     1       3.232  22.895 114.602  1.00  0.00     0.000 C 
BRANCH  20  21
ATOM     21  C   UNL     1       4.536  23.490 114.039  1.00  0.00     0.000 C 
BRANCH  21  22
ATOM     22  C   UNL     1       4.385  23.971 112.587  1.00  0.00    -0.000 C 
BRANCH  22  23
ATOM     23  C   UNL     1       5.736  24.114 111.864  1.00  0.00    -0.000 C 
BRANCH  23  24
ATOM     24  C   UNL     1       5.882  25.463 111.141  1.00  0.00    -0.000 C 
BRANCH  24  25
ATOM     25  C   UNL     1       6.684  26.491 111.957  1.00  0.00    -0.000 C 
BRANCH  25  26
ATOM     26  C   UNL     1       5.784  27.324 112.886  1.00  0.00    -0.000 C 
BRANCH  26  27
ATOM     27  C   UNL     1       5.992  26.970 114.369  1.00  0.00    -0.000 C 
BRANCH  27  28
ATOM     28  C   UNL     1       4.939  27.626 115.282  1.00  0.00    -0.000 C 
BRANCH  28  29
ATOM     29  C   UNL     1       3.992  26.616 115.961  1.00  0.00    -0.003 C 
ATOM     30  C   UNL     1       4.698  25.767 117.020  1.00  0.00     0.004 C 
ENDBRANCH  28  29
ENDBRANCH  27  28
ENDBRANCH  26  27
ENDBRANCH  25  26
ENDBRANCH  24  25
ENDBRANCH  23  24
ENDBRANCH  22  23
ENDBRANCH  21  22
ENDBRANCH  20  21
ENDBRANCH  19  20
ENDBRANCH  18  19
ENDBRANCH  17  18
ENDBRANCH   1  17
TORSDOF 26
ENDMDL
MODEL 7
REMARK VINA RESULT:    -3.861      2.988      7.188
REMARK INTER + INTRA:         -14.489
REMARK INTER:                  -9.109
REMARK INTRA:                  -5.379
REMARK UNBOUND:                -4.759
REMARK SMILES CCCCCCCCCCCCCCCCCCCCCCCCCCCC(=O)[O-]
REMARK SMILES IDX 15 1 16 2 17 3 18 4 19 5 20 6 21 7 22 8 23 9 24 10 25 11
REMARK SMILES IDX 26 12 27 13 28 14 29 15 30 16 14 17 13 18 12 19 11 20 10 21
REMARK SMILES IDX 9 22 8 23 7 24 6 25 5 26 4 27 3 28 2 29 1 30
REMARK H PARENT
REMARK Flexibility Score: inf
ROOT
ATOM      1  C   UNL     1       6.443  26.220 112.982  1.00  0.00     0.000 C 
ENDROOT
BRANCH   1   2
ATOM      2  C   UNL     1       6.485  26.957 111.626  1.00  0.00     0.000 C 
BRANCH   2   3
ATOM      3  C   UNL     1       5.979  26.114 110.440  1.00  0.00     0.000 C 
BRANCH   3   4
ATOM      4  C   UNL     1       4.589  26.532 109.911  1.00  0.00     0.000 C 
BRANCH   4   5
ATOM      5  C   UNL     1       3.390  25.912 110.661  1.00  0.00     0.000 C 
BRANCH   5   6
ATOM      6  C   UNL     1       2.399  26.920 111.273  1.00  0.00     0.000 C 
BRANCH   6   7
ATOM      7  C   UNL     1       2.071  28.093 110.332  1.00  0.00     0.000 C 
BRANCH   7   8
ATOM      8  C   UNL     1       2.349  29.460 110.977  1.00  0.00     0.000 C 
BRANCH   8   9
ATOM      9  C   UNL     1       3.459  29.394 112.038  1.00  0.00     0.000 C 
BRANCH   9  10
ATOM     10  C   UNL     1       3.485  30.677 112.882  1.00  0.00     0.000 C 
BRANCH  10  11
ATOM     11  C   UNL     1       4.254  30.506 114.202  1.00  0.00     0.000 C 
BRANCH  11  12
ATOM     12  C   UNL     1       5.761  30.278 113.986  1.00  0.00     0.006 C 
BRANCH  12  13
ATOM     13  C   UNL     1       6.562  31.585 114.072  1.00  0.00     0.053 C 
BRANCH  13  14
ATOM     14  C   UNL     1       6.469  32.207 115.431  1.00  0.00     0.041 C 
ATOM     15  O   UNL     1       6.438  31.480 116.459  1.00  0.00    -0.550 OA
ATOM     16  O   UNL     1       6.458  33.590 115.565  1.00  0.00    -0.550 OA
ENDBRANCH  13  14
ENDBRANCH  12  13
ENDBRANCH  11  12
ENDBRANCH  10  11
ENDBRANCH   9  10
ENDBRANCH   8   9
ENDBRANCH   7   8
ENDBRANCH   6   7
ENDBRANCH   5   6
ENDBRANCH   4   5
ENDBRANCH   3   4
ENDBRANCH   2   3
ENDBRANCH   1   2
BRANCH   1  17
ATOM     17  C   UNL     1       5.195  26.565 113.814  1.00  0.00     0.000 C 
BRANCH  17  18
ATOM     18  C   UNL     1       4.343  25.324 114.119  1.00  0.00     0.000 C 
BRANCH  18  19
ATOM     19  C   UNL     1       5.005  24.054 113.565  1.00  0.00     0.000 C 
BRANCH  19  20
ATOM     20  C   UNL     1       4.001  22.910 113.352  1.00  0.00     0.000 C 
BRANCH  20  21
ATOM     21  C   UNL     1       3.334  22.460 114.665  1.00  0.00     0.000 C 
BRANCH  21  22
ATOM     22  C   UNL     1       1.800  22.467 114.579  1.00  0.00    -0.000 C 
BRANCH  22  23
ATOM     23  C   UNL     1       1.277  23.146 113.302  1.00  0.00    -0.000 C 
BRANCH  23  24
ATOM     24  C   UNL     1       0.532  24.460 113.590  1.00  0.00    -0.000 C 
BRANCH  24  25
ATOM     25  C   UNL     1      -0.546  24.306 114.678  1.00  0.00    -0.000 C 
BRANCH  25  26
ATOM     26  C   UNL     1      -0.376  25.331 115.812  1.00  0.00    -0.000 C 
BRANCH  26  27
ATOM     27  C   UNL     1       1.084  25.788 115.971  1.00  0.00    -0.000 C 
BRANCH  27  28
ATOM     28  C   UNL     1       1.224  27.322 115.963  1.00  0.00    -0.000 C 
BRANCH  28  29
ATOM     29  C   UNL     1       1.413  27.920 114.555  1.00  0.00    -0.003 C 
ATOM     30  C   UNL     1       0.250  28.822 114.138  1.00  0.00     0.004 C 
ENDBRANCH  28  29
ENDBRANCH  27  28
ENDBRANCH  26  27
ENDBRANCH  25  26
ENDBRANCH  24  25
ENDBRANCH  23  24
ENDBRANCH  22  23
ENDBRANCH  21  22
ENDBRANCH  20  21
ENDBRANCH  19  20
ENDBRANCH  18  19
ENDBRANCH  17  18
ENDBRANCH   1  17
TORSDOF 26
ENDMDL
MODEL 8
REMARK VINA RESULT:    -3.853      2.137      5.128
REMARK INTER + INTRA:         -14.470
REMARK INTER:                  -9.128
REMARK INTRA:                  -5.341
REMARK UNBOUND:                -4.759
REMARK SMILES CCCCCCCCCCCCCCCCCCCCCCCCCCCC(=O)[O-]
REMARK SMILES IDX 15 1 16 2 17 3 18 4 19 5 20 6 21 7 22 8 23 9 24 10 25 11
REMARK SMILES IDX 26 12 27 13 28 14 29 15 30 16 14 17 13 18 12 19 11 20 10 21
REMARK SMILES IDX 9 22 8 23 7 24 6 25 5 26 4 27 3 28 2 29 1 30
REMARK H PARENT
REMARK Flexibility Score: inf
ROOT
ATOM      1  C   UNL     1       5.793  24.739 113.575  1.00  0.00     0.000 C 
ENDROOT
BRANCH   1   2
ATOM      2  C   UNL     1       4.805  23.656 113.092  1.00  0.00     0.000 C 
BRANCH   2   3
ATOM      3  C   UNL     1       4.063  22.932 114.233  1.00  0.00     0.000 C 
BRANCH   3   4
ATOM      4  C   UNL     1       3.299  21.665 113.790  1.00  0.00     0.000 C 
BRANCH   4   5
ATOM      5  C   UNL     1       1.763  21.811 113.739  1.00  0.00     0.000 C 
BRANCH   5   6
ATOM      6  C   UNL     1       1.198  23.096 114.375  1.00  0.00     0.000 C 
BRANCH   6   7
ATOM      7  C   UNL     1       0.685  24.108 113.336  1.00  0.00     0.000 C 
BRANCH   7   8
ATOM      8  C   UNL     1       0.939  25.564 113.759  1.00  0.00     0.000 C 
BRANCH   8   9
ATOM      9  C   UNL     1       1.641  25.666 115.122  1.00  0.00     0.000 C 
BRANCH   9  10
ATOM     10  C   UNL     1       2.986  26.395 114.992  1.00  0.00     0.000 C 
BRANCH  10  11
ATOM     11  C   UNL     1       3.772  26.437 116.312  1.00  0.00     0.000 C 
BRANCH  11  12
ATOM     12  C   UNL     1       3.956  27.868 116.848  1.00  0.00     0.006 C 
BRANCH  12  13
ATOM     13  C   UNL     1       5.423  28.178 117.180  1.00  0.00     0.053 C 
BRANCH  13  14
ATOM     14  C   UNL     1       6.344  27.751 116.078  1.00  0.00     0.041 C 
ATOM     15  O   UNL     1       6.407  28.417 115.011  1.00  0.00    -0.550 OA
ATOM     16  O   UNL     1       7.164  26.642 116.247  1.00  0.00    -0.550 OA
ENDBRANCH  13  14
ENDBRANCH  12  13
ENDBRANCH  11  12
ENDBRANCH  10  11
ENDBRANCH   9  10
ENDBRANCH   8   9
ENDBRANCH   7   8
ENDBRANCH   6   7
ENDBRANCH   5   6
ENDBRANCH   4   5
ENDBRANCH   3   4
ENDBRANCH   2   3
ENDBRANCH   1   2
BRANCH   1  17
ATOM     17  C   UNL     1       5.948  25.899 112.576  1.00  0.00     0.000 C 
BRANCH  17  18
ATOM     18  C   UNL     1       5.827  25.428 111.119  1.00  0.00     0.000 C 
BRANCH  18  19
ATOM     19  C   UNL     1       4.788  26.265 110.358  1.00  0.00     0.000 C 
BRANCH  19  20
ATOM     20  C   UNL     1       3.343  25.871 110.708  1.00  0.00     0.000 C 
BRANCH  20  21
ATOM     21  C   UNL     1       2.453  27.094 110.994  1.00  0.00     0.000 C 
BRANCH  21  22
ATOM     22  C   UNL     1       3.026  28.392 110.404  1.00  0.00    -0.000 C 
BRANCH  22  23
ATOM     23  C   UNL     1       1.940  29.440 110.105  1.00  0.00    -0.000 C 
BRANCH  23  24
ATOM     24  C   UNL     1       0.703  29.287 111.005  1.00  0.00    -0.000 C 
BRANCH  24  25
ATOM     25  C   UNL     1       0.759  30.188 112.251  1.00  0.00    -0.000 C 
BRANCH  25  26
ATOM     26  C   UNL     1       1.059  29.389 113.531  1.00  0.00    -0.000 C 
BRANCH  26  27
ATOM     27  C   UNL     1       2.229  29.989 114.331  1.00  0.00    -0.000 C 
BRANCH  27  28
ATOM     28  C   UNL     1       3.593  29.717 113.670  1.00  0.00    -0.000 C 
BRANCH  28  29
ATOM     29  C   UNL     1       4.327  30.994 113.215  1.00  0.00    -0.003 C 
ATOM     30  C   UNL     1       3.696  32.268 113.777  1.00  0.00     0.004 C 
ENDBRANCH  28  29
ENDBRANCH  27  28
ENDBRANCH  26  27
ENDBRANCH  25  26
ENDBRANCH  24  25
ENDBRANCH  23  24
ENDBRANCH  22  23
ENDBRANCH  21  22
ENDBRANCH  20  21
ENDBRANCH  19  20
ENDBRANCH  18  19
ENDBRANCH  17  18
ENDBRANCH   1  17
TORSDOF 26
ENDMDL
MODEL 9
REMARK VINA RESULT:    -3.786      3.383      6.643
REMARK INTER + INTRA:         -14.299
REMARK INTER:                  -9.389
REMARK INTRA:                  -4.910
REMARK UNBOUND:                -4.759
REMARK SMILES CCCCCCCCCCCCCCCCCCCCCCCCCCCC(=O)[O-]
REMARK SMILES IDX 15 1 16 2 17 3 18 4 19 5 20 6 21 7 22 8 23 9 24 10 25 11
REMARK SMILES IDX 26 12 27 13 28 14 29 15 30 16 14 17 13 18 12 19 11 20 10 21
REMARK SMILES IDX 9 22 8 23 7 24 6 25 5 26 4 27 3 28 2 29 1 30
REMARK H PARENT
REMARK Flexibility Score: inf
ROOT
ATOM      1  C   UNL     1       0.320  30.905 112.740  1.00  0.00     0.000 C 
ENDROOT
BRANCH   1   2
ATOM      2  C   UNL     1       0.723  30.062 111.512  1.00  0.00     0.000 C 
BRANCH   2   3
ATOM      3  C   UNL     1       2.148  30.346 110.998  1.00  0.00     0.000 C 
BRANCH   3   4
ATOM      4  C   UNL     1       3.022  29.084 110.820  1.00  0.00     0.000 C 
BRANCH   4   5
ATOM      5  C   UNL     1       2.251  27.747 110.837  1.00  0.00     0.000 C 
BRANCH   5   6
ATOM      6  C   UNL     1       3.117  26.482 110.680  1.00  0.00     0.000 C 
BRANCH   6   7
ATOM      7  C   UNL     1       2.813  25.406 111.737  1.00  0.00     0.000 C 
BRANCH   7   8
ATOM      8  C   UNL     1       3.957  25.237 112.750  1.00  0.00     0.000 C 
BRANCH   8   9
ATOM      9  C   UNL     1       4.856  24.035 112.425  1.00  0.00     0.000 C 
BRANCH   9  10
ATOM     10  C   UNL     1       6.335  24.449 112.396  1.00  0.00     0.000 C 
BRANCH  10  11
ATOM     11  C   UNL     1       6.528  25.973 112.450  1.00  0.00     0.000 C 
BRANCH  11  12
ATOM     12  C   UNL     1       6.894  26.573 111.081  1.00  0.00     0.006 C 
BRANCH  12  13
ATOM     13  C   UNL     1       7.401  25.508 110.099  1.00  0.00     0.053 C 
BRANCH  13  14
ATOM     14  C   UNL     1       7.373  25.999 108.683  1.00  0.00     0.041 C 
ATOM     15  O   UNL     1       6.556  26.893 108.339  1.00  0.00    -0.550 OA
ATOM     16  O   UNL     1       8.278  25.497 107.755  1.00  0.00    -0.550 OA
ENDBRANCH  13  14
ENDBRANCH  12  13
ENDBRANCH  11  12
ENDBRANCH  10  11
ENDBRANCH   9  10
ENDBRANCH   8   9
ENDBRANCH   7   8
ENDBRANCH   6   7
ENDBRANCH   5   6
ENDBRANCH   4   5
ENDBRANCH   3   4
ENDBRANCH   2   3
ENDBRANCH   1   2
BRANCH   1  17
ATOM     17  C   UNL     1       0.160  30.065 114.019  1.00  0.00     0.000 C 
BRANCH  17  18
ATOM     18  C   UNL     1       0.005  28.568 113.712  1.00  0.00     0.000 C 
BRANCH  18  19
ATOM     19  C   UNL     1       1.103  27.749 114.407  1.00  0.00     0.000 C 
BRANCH  19  20
ATOM     20  C   UNL     1       2.238  28.630 114.954  1.00  0.00     0.000 C 
BRANCH  20  21
ATOM     21  C   UNL     1       3.600  28.296 114.319  1.00  0.00     0.000 C 
BRANCH  21  22
ATOM     22  C   UNL     1       4.649  27.876 115.360  1.00  0.00    -0.000 C 
BRANCH  22  23
ATOM     23  C   UNL     1       5.902  28.769 115.338  1.00  0.00    -0.000 C 
BRANCH  23  24
ATOM     24  C   UNL     1       5.568  30.263 115.487  1.00  0.00    -0.000 C 
BRANCH  24  25
ATOM     25  C   UNL     1       5.993  31.092 114.263  1.00  0.00    -0.000 C 
BRANCH  25  26
ATOM     26  C   UNL     1       4.791  31.512 113.401  1.00  0.00    -0.000 C 
BRANCH  26  27
ATOM     27  C   UNL     1       3.618  32.034 114.250  1.00  0.00    -0.000 C 
BRANCH  27  28
ATOM     28  C   UNL     1       3.898  33.427 114.845  1.00  0.00    -0.000 C 
BRANCH  28  29
ATOM     29  C   UNL     1       2.958  34.527 114.315  1.00  0.00    -0.003 C 
ATOM     30  C   UNL     1       1.481  34.153 114.446  1.00  0.00     0.004 C 
ENDBRANCH  28  29
ENDBRANCH  27  28
ENDBRANCH  26  27
ENDBRANCH  25  26
ENDBRANCH  24  25
ENDBRANCH  23  24
ENDBRANCH  22  23
ENDBRANCH  21  22
ENDBRANCH  20  21
ENDBRANCH  19  20
ENDBRANCH  18  19
ENDBRANCH  17  18
ENDBRANCH   1  17
TORSDOF 26
ENDMDL
