MODEL 1
REMARK VINA RESULT:    -3.604      0.000      0.000
REMARK INTER + INTRA:          -8.074
REMARK INTER:                  -6.132
REMARK INTRA:                  -1.941
REMARK UNBOUND:                -1.941
REMARK SMILES CCCCCCCCCCCCCC(=O)[O-]
REMARK SMILES IDX 8 1 9 2 10 3 11 4 12 5 13 6 14 7 15 8 16 9 7 10 6 11 5 12
REMARK SMILES IDX 4 13 3 14 2 15 1 16
REMARK H PARENT
REMARK Flexibility Score: inf
ROOT
ATOM      1  C   UNL     1     -46.523 -54.212  38.880  1.00  0.00     0.000 C 
ENDROOT
BRANCH   1   2
ATOM      2  C   UNL     1     -47.814 -53.802  38.150  1.00  0.00     0.000 C 
BRANCH   2   3
ATOM      3  C   UNL     1     -47.605 -52.598  37.217  1.00  0.00     0.000 C 
BRANCH   3   4
ATOM      4  C   UNL     1     -46.150 -52.099  37.217  1.00  0.00     0.000 C 
BRANCH   4   5
ATOM      5  C   UNL     1     -46.030 -50.611  36.840  1.00  0.00     0.006 C 
BRANCH   5   6
ATOM      6  C   UNL     1     -44.771 -49.921  37.389  1.00  0.00     0.053 C 
BRANCH   6   7
ATOM      7  C   UNL     1     -45.073 -48.564  37.945  1.00  0.00     0.041 C 
ATOM      8  O   UNL     1     -46.103 -47.941  37.575  1.00  0.00    -0.550 OA
ATOM      9  O   UNL     1     -44.234 -48.001  38.899  1.00  0.00    -0.550 OA
ENDBRANCH   6   7
ENDBRANCH   5   6
ENDBRANCH   4   5
ENDBRANCH   3   4
ENDBRANCH   2   3
ENDBRANCH   1   2
BRANCH   1  10
ATOM     10  C   UNL     1     -46.767 -54.577  40.352  1.00  0.00     0.000 C 
BRANCH  10  11
ATOM     11  C   UNL     1     -48.233 -54.392  40.771  1.00  0.00    -0.000 C 
BRANCH  11  12
ATOM     12  C   UNL     1     -48.347 -53.425  41.956  1.00  0.00    -0.000 C 
BRANCH  12  13
ATOM     13  C   UNL     1     -48.918 -52.071  41.507  1.00  0.00    -0.000 C 
BRANCH  13  14
ATOM     14  C   UNL     1     -47.910 -50.921  41.669  1.00  0.00    -0.000 C 
BRANCH  14  15
ATOM     15  C   UNL     1     -46.917 -50.836  40.501  1.00  0.00    -0.003 C 
ATOM     16  C   UNL     1     -45.476 -50.848  41.003  1.00  0.00     0.004 C 
ENDBRANCH  14  15
ENDBRANCH  13  14
ENDBRANCH  12  13
ENDBRANCH  11  12
ENDBRANCH  10  11
ENDBRANCH   1  10
TORSDOF 12
ENDMDL
MODEL 2
REMARK VINA RESULT:    -3.563      1.090      1.627
REMARK INTER + INTRA:          -8.004
REMARK INTER:                  -6.393
REMARK INTRA:                  -1.611
REMARK UNBOUND:                -1.941
REMARK SMILES CCCCCCCCCCCCCC(=O)[O-]
REMARK SMILES IDX 8 1 9 2 10 3 11 4 12 5 13 6 14 7 15 8 16 9 7 10 6 11 5 12
REMARK SMILES IDX 4 13 3 14 2 15 1 16
REMARK H PARENT
REMARK Flexibility Score: inf
ROOT
ATOM      1  C   UNL     1     -48.151 -53.316  38.189  1.00  0.00     0.000 C 
ENDROOT
BRANCH   1   2
ATOM      2  C   UNL     1     -47.236 -52.688  37.124  1.00  0.00     0.000 C 
BRANCH   2   3
ATOM      3  C   UNL     1     -46.474 -51.462  37.651  1.00  0.00     0.000 C 
BRANCH   3   4
ATOM      4  C   UNL     1     -47.105 -50.135  37.195  1.00  0.00     0.000 C 
BRANCH   4   5
ATOM      5  C   UNL     1     -46.167 -48.930  37.393  1.00  0.00     0.006 C 
BRANCH   5   6
ATOM      6  C   UNL     1     -44.769 -49.112  36.781  1.00  0.00     0.053 C 
BRANCH   6   7
ATOM      7  C   UNL     1     -43.685 -48.951  37.801  1.00  0.00     0.041 C 
ATOM      8  O   UNL     1     -42.711 -49.750  37.823  1.00  0.00    -0.550 OA
ATOM      9  O   UNL     1     -43.732 -47.898  38.706  1.00  0.00    -0.550 OA
ENDBRANCH   6   7
ENDBRANCH   5   6
ENDBRANCH   4   5
ENDBRANCH   3   4
ENDBRANCH   2   3
ENDBRANCH   1   2
BRANCH   1  10
ATOM     10  C   UNL     1     -47.381 -54.195  39.186  1.00  0.00     0.000 C 
BRANCH  10  11
ATOM     11  C   UNL     1     -48.080 -54.293  40.550  1.00  0.00    -0.000 C 
BRANCH  11  12
ATOM     12  C   UNL     1     -49.053 -53.124  40.753  1.00  0.00    -0.000 C 
BRANCH  12  13
ATOM     13  C   UNL     1     -48.514 -52.136  41.800  1.00  0.00    -0.000 C 
BRANCH  13  14
ATOM     14  C   UNL     1     -47.567 -51.089  41.192  1.00  0.00    -0.000 C 
BRANCH  14  15
ATOM     15  C   UNL     1     -46.086 -51.435  41.407  1.00  0.00    -0.003 C 
ATOM     16  C   UNL     1     -45.181 -50.331  40.869  1.00  0.00     0.004 C 
ENDBRANCH  14  15
ENDBRANCH  13  14
ENDBRANCH  12  13
ENDBRANCH  11  12
ENDBRANCH  10  11
ENDBRANCH   1  10
TORSDOF 12
ENDMDL
MODEL 3
REMARK VINA RESULT:    -3.532      1.112      3.295
REMARK INTER + INTRA:          -7.951
REMARK INTER:                  -6.438
REMARK INTRA:                  -1.513
REMARK UNBOUND:                -1.941
REMARK SMILES CCCCCCCCCCCCCC(=O)[O-]
REMARK SMILES IDX 8 1 9 2 10 3 11 4 12 5 13 6 14 7 15 8 16 9 7 10 6 11 5 12
REMARK SMILES IDX 4 13 3 14 2 15 1 16
REMARK H PARENT
REMARK Flexibility Score: inf
ROOT
ATOM      1  C   UNL     1     -47.292 -51.757  42.011  1.00  0.00     0.000 C 
ENDROOT
BRANCH   1   2
ATOM      2  C   UNL     1     -46.744 -50.841  40.902  1.00  0.00     0.000 C 
BRANCH   2   3
ATOM      3  C   UNL     1     -45.237 -50.576  41.050  1.00  0.00     0.000 C 
BRANCH   3   4
ATOM      4  C   UNL     1     -44.510 -50.535  39.695  1.00  0.00     0.000 C 
BRANCH   4   5
ATOM      5  C   UNL     1     -43.827 -49.182  39.426  1.00  0.00     0.006 C 
BRANCH   5   6
ATOM      6  C   UNL     1     -44.781 -48.081  38.937  1.00  0.00     0.053 C 
BRANCH   6   7
ATOM      7  C   UNL     1     -45.331 -48.378  37.576  1.00  0.00     0.041 C 
ATOM      8  O   UNL     1     -46.561 -48.238  37.344  1.00  0.00    -0.550 OA
ATOM      9  O   UNL     1     -44.479 -48.777  36.555  1.00  0.00    -0.550 OA
ENDBRANCH   6   7
ENDBRANCH   5   6
ENDBRANCH   4   5
ENDBRANCH   3   4
ENDBRANCH   2   3
ENDBRANCH   1   2
BRANCH   1  10
ATOM     10  C   UNL     1     -48.808 -51.979  41.899  1.00  0.00     0.000 C 
BRANCH  10  11
ATOM     11  C   UNL     1     -49.166 -53.146  40.966  1.00  0.00    -0.000 C 
BRANCH  11  12
ATOM     12  C   UNL     1     -48.088 -54.235  41.010  1.00  0.00    -0.000 C 
BRANCH  12  13
ATOM     13  C   UNL     1     -47.797 -54.778  39.602  1.00  0.00    -0.000 C 
BRANCH  13  14
ATOM     14  C   UNL     1     -46.923 -53.826  38.769  1.00  0.00    -0.000 C 
BRANCH  14  15
ATOM     15  C   UNL     1     -47.724 -53.079  37.693  1.00  0.00    -0.003 C 
ATOM     16  C   UNL     1     -47.031 -51.777  37.299  1.00  0.00     0.004 C 
ENDBRANCH  14  15
ENDBRANCH  13  14
ENDBRANCH  12  13
ENDBRANCH  11  12
ENDBRANCH  10  11
ENDBRANCH   1  10
TORSDOF 12
ENDMDL
MODEL 4
REMARK VINA RESULT:    -3.521      2.836      5.171
REMARK INTER + INTRA:          -7.933
REMARK INTER:                  -6.104
REMARK INTRA:                  -1.830
REMARK UNBOUND:                -1.941
REMARK SMILES CCCCCCCCCCCCCC(=O)[O-]
REMARK SMILES IDX 8 1 9 2 10 3 11 4 12 5 13 6 14 7 15 8 16 9 7 10 6 11 5 12
REMARK SMILES IDX 4 13 3 14 2 15 1 16
REMARK H PARENT
REMARK Flexibility Score: inf
ROOT
ATOM      1  C   UNL     1     -45.518 -53.311  38.614  1.00  0.00     0.000 C 
ENDROOT
BRANCH   1   2
ATOM      2  C   UNL     1     -44.607 -52.345  39.391  1.00  0.00     0.000 C 
BRANCH   2   3
ATOM      3  C   UNL     1     -44.990 -52.241  40.875  1.00  0.00     0.000 C 
BRANCH   3   4
ATOM      4  C   UNL     1     -45.706 -50.921  41.208  1.00  0.00     0.000 C 
BRANCH   4   5
ATOM      5  C   UNL     1     -47.199 -50.943  40.834  1.00  0.00     0.006 C 
BRANCH   5   6
ATOM      6  C   UNL     1     -48.109 -51.561  41.908  1.00  0.00     0.053 C 
BRANCH   6   7
ATOM      7  C   UNL     1     -48.610 -52.914  41.508  1.00  0.00     0.041 C 
ATOM      8  O   UNL     1     -49.711 -53.032  40.909  1.00  0.00    -0.550 OA
ATOM      9  O   UNL     1     -47.842 -54.043  41.765  1.00  0.00    -0.550 OA
ENDBRANCH   6   7
ENDBRANCH   5   6
ENDBRANCH   4   5
ENDBRANCH   3   4
ENDBRANCH   2   3
ENDBRANCH   1   2
BRANCH   1  10
ATOM     10  C   UNL     1     -45.953 -52.748  37.252  1.00  0.00     0.000 C 
BRANCH  10  11
ATOM     11  C   UNL     1     -47.189 -51.842  37.355  1.00  0.00    -0.000 C 
BRANCH  11  12
ATOM     12  C   UNL     1     -46.816 -50.375  37.111  1.00  0.00    -0.000 C 
BRANCH  12  13
ATOM     13  C   UNL     1     -45.408 -50.260  36.504  1.00  0.00    -0.000 C 
BRANCH  13  14
ATOM     14  C   UNL     1     -44.613 -49.075  37.075  1.00  0.00    -0.000 C 
BRANCH  14  15
ATOM     15  C   UNL     1     -45.380 -48.321  38.171  1.00  0.00    -0.003 C 
ATOM     16  C   UNL     1     -44.453 -47.926  39.317  1.00  0.00     0.004 C 
ENDBRANCH  14  15
ENDBRANCH  13  14
ENDBRANCH  12  13
ENDBRANCH  11  12
ENDBRANCH  10  11
ENDBRANCH   1  10
TORSDOF 12
ENDMDL
MODEL 5
REMARK VINA RESULT:    -3.495      2.993      5.501
REMARK INTER + INTRA:          -7.888
REMARK INTER:                  -5.976
REMARK INTRA:                  -1.912
REMARK UNBOUND:                -1.941
REMARK SMILES CCCCCCCCCCCCCC(=O)[O-]
REMARK SMILES IDX 8 1 9 2 10 3 11 4 12 5 13 6 14 7 15 8 16 9 7 10 6 11 5 12
REMARK SMILES IDX 4 13 3 14 2 15 1 16
REMARK H PARENT
REMARK Flexibility Score: inf
ROOT
ATOM      1  C   UNL     1     -45.469 -51.406  40.455  1.00  0.00     0.000 C 
ENDROOT
BRANCH   1   2
ATOM      2  C   UNL     1     -46.764 -50.730  40.938  1.00  0.00     0.000 C 
BRANCH   2   3
ATOM      3  C   UNL     1     -47.493 -51.553  42.011  1.00  0.00     0.000 C 
BRANCH   3   4
ATOM      4  C   UNL     1     -48.940 -51.890  41.614  1.00  0.00     0.000 C 
BRANCH   4   5
ATOM      5  C   UNL     1     -49.073 -53.285  40.975  1.00  0.00     0.006 C 
BRANCH   5   6
ATOM      6  C   UNL     1     -47.940 -54.256  41.342  1.00  0.00     0.053 C 
BRANCH   6   7
ATOM      7  C   UNL     1     -47.473 -55.046  40.159  1.00  0.00     0.041 C 
ATOM      8  O   UNL     1     -47.909 -54.782  39.007  1.00  0.00    -0.550 OA
ATOM      9  O   UNL     1     -46.530 -56.053  40.323  1.00  0.00    -0.550 OA
ENDBRANCH   6   7
ENDBRANCH   5   6
ENDBRANCH   4   5
ENDBRANCH   3   4
ENDBRANCH   2   3
ENDBRANCH   1   2
BRANCH   1  10
ATOM     10  C   UNL     1     -45.607 -52.013  39.051  1.00  0.00     0.000 C 
BRANCH  10  11
ATOM     11  C   UNL     1     -46.863 -51.522  38.316  1.00  0.00    -0.000 C 
BRANCH  11  12
ATOM     12  C   UNL     1     -46.489 -50.617  37.135  1.00  0.00    -0.000 C 
BRANCH  12  13
ATOM     13  C   UNL     1     -46.652 -49.134  37.506  1.00  0.00    -0.000 C 
BRANCH  13  14
ATOM     14  C   UNL     1     -45.317 -48.372  37.499  1.00  0.00    -0.000 C 
BRANCH  14  15
ATOM     15  C   UNL     1     -44.829 -48.022  38.912  1.00  0.00    -0.003 C 
ATOM     16  C   UNL     1     -43.427 -48.570  39.161  1.00  0.00     0.004 C 
ENDBRANCH  14  15
ENDBRANCH  13  14
ENDBRANCH  12  13
ENDBRANCH  11  12
ENDBRANCH  10  11
ENDBRANCH   1  10
TORSDOF 12
ENDMDL
MODEL 6
REMARK VINA RESULT:    -3.476      1.051      1.648
REMARK INTER + INTRA:          -7.856
REMARK INTER:                  -5.937
REMARK INTRA:                  -1.919
REMARK UNBOUND:                -1.941
REMARK SMILES CCCCCCCCCCCCCC(=O)[O-]
REMARK SMILES IDX 8 1 9 2 10 3 11 4 12 5 13 6 14 7 15 8 16 9 7 10 6 11 5 12
REMARK SMILES IDX 4 13 3 14 2 15 1 16
REMARK H PARENT
REMARK Flexibility Score: inf
ROOT
ATOM      1  C   UNL     1     -48.188 -53.478  38.939  1.00  0.00     0.000 C 
ENDROOT
BRANCH   1   2
ATOM      2  C   UNL     1     -46.832 -53.816  38.297  1.00  0.00     0.000 C 
BRANCH   2   3
ATOM      3  C   UNL     1     -46.416 -52.794  37.227  1.00  0.00     0.000 C 
BRANCH   3   4
ATOM      4  C   UNL     1     -46.991 -51.393  37.496  1.00  0.00     0.000 C 
BRANCH   4   5
ATOM      5  C   UNL     1     -46.140 -50.271  36.873  1.00  0.00     0.006 C 
BRANCH   5   6
ATOM      6  C   UNL     1     -46.303 -48.904  37.556  1.00  0.00     0.053 C 
BRANCH   6   7
ATOM      7  C   UNL     1     -44.996 -48.362  38.046  1.00  0.00     0.041 C 
ATOM      8  O   UNL     1     -44.954 -47.646  39.082  1.00  0.00    -0.550 OA
ATOM      9  O   UNL     1     -43.820 -48.675  37.378  1.00  0.00    -0.550 OA
ENDBRANCH   6   7
ENDBRANCH   5   6
ENDBRANCH   4   5
ENDBRANCH   3   4
ENDBRANCH   2   3
ENDBRANCH   1   2
BRANCH   1  10
ATOM     10  C   UNL     1     -48.246 -53.847  40.429  1.00  0.00     0.000 C 
BRANCH  10  11
ATOM     11  C   UNL     1     -49.191 -52.936  41.227  1.00  0.00    -0.000 C 
BRANCH  11  12
ATOM     12  C   UNL     1     -48.605 -51.526  41.368  1.00  0.00    -0.000 C 
BRANCH  12  13
ATOM     13  C   UNL     1     -47.205 -51.573  42.001  1.00  0.00    -0.000 C 
BRANCH  13  14
ATOM     14  C   UNL     1     -46.130 -50.933  41.107  1.00  0.00    -0.000 C 
BRANCH  14  15
ATOM     15  C   UNL     1     -44.855 -51.785  41.014  1.00  0.00    -0.003 C 
ATOM     16  C   UNL     1     -44.053 -51.436  39.764  1.00  0.00     0.004 C 
ENDBRANCH  14  15
ENDBRANCH  13  14
ENDBRANCH  12  13
ENDBRANCH  11  12
ENDBRANCH  10  11
ENDBRANCH   1  10
TORSDOF 12
ENDMDL
MODEL 7
REMARK VINA RESULT:    -3.471      2.602      5.277
REMARK INTER + INTRA:          -7.848
REMARK INTER:                  -6.673
REMARK INTRA:                  -1.174
REMARK UNBOUND:                -1.941
REMARK SMILES CCCCCCCCCCCCCC(=O)[O-]
REMARK SMILES IDX 8 1 9 2 10 3 11 4 12 5 13 6 14 7 15 8 16 9 7 10 6 11 5 12
REMARK SMILES IDX 4 13 3 14 2 15 1 16
REMARK H PARENT
REMARK Flexibility Score: inf
ROOT
ATOM      1  C   UNL     1     -46.912 -51.300  38.277  1.00  0.00     0.000 C 
ENDROOT
BRANCH   1   2
ATOM      2  C   UNL     1     -47.355 -52.466  37.376  1.00  0.00     0.000 C 
BRANCH   2   3
ATOM      3  C   UNL     1     -48.108 -53.557  38.154  1.00  0.00     0.000 C 
BRANCH   3   4
ATOM      4  C   UNL     1     -47.328 -54.049  39.385  1.00  0.00     0.000 C 
BRANCH   4   5
ATOM      5  C   UNL     1     -48.222 -54.222  40.626  1.00  0.00     0.006 C 
BRANCH   5   6
ATOM      6  C   UNL     1     -49.163 -53.037  40.895  1.00  0.00     0.053 C 
BRANCH   6   7
ATOM      7  C   UNL     1     -48.584 -52.075  41.886  1.00  0.00     0.041 C 
ATOM      8  O   UNL     1     -48.398 -50.871  41.568  1.00  0.00    -0.550 OA
ATOM      9  O   UNL     1     -48.281 -52.501  43.173  1.00  0.00    -0.550 OA
ENDBRANCH   6   7
ENDBRANCH   5   6
ENDBRANCH   4   5
ENDBRANCH   3   4
ENDBRANCH   2   3
ENDBRANCH   1   2
BRANCH   1  10
ATOM     10  C   UNL     1     -46.699 -49.996  37.495  1.00  0.00     0.000 C 
BRANCH  10  11
ATOM     11  C   UNL     1     -45.371 -49.981  36.722  1.00  0.00    -0.000 C 
BRANCH  11  12
ATOM     12  C   UNL     1     -44.524 -48.763  37.111  1.00  0.00    -0.000 C 
BRANCH  12  13
ATOM     13  C   UNL     1     -44.964 -48.198  38.471  1.00  0.00    -0.000 C 
BRANCH  13  14
ATOM     14  C   UNL     1     -43.774 -47.837  39.375  1.00  0.00    -0.000 C 
BRANCH  14  15
ATOM     15  C   UNL     1     -43.254 -49.040  40.176  1.00  0.00    -0.003 C 
ATOM     16  C   UNL     1     -44.397 -49.964  40.583  1.00  0.00     0.004 C 
ENDBRANCH  14  15
ENDBRANCH  13  14
ENDBRANCH  12  13
ENDBRANCH  11  12
ENDBRANCH  10  11
ENDBRANCH   1  10
TORSDOF 12
ENDMDL
MODEL 8
REMARK VINA RESULT:    -3.381      2.517      5.704
REMARK INTER + INTRA:          -7.693
REMARK INTER:                  -5.981
REMARK INTRA:                  -1.712
REMARK UNBOUND:                -1.941
REMARK SMILES CCCCCCCCCCCCCC(=O)[O-]
REMARK SMILES IDX 8 1 9 2 10 3 11 4 12 5 13 6 14 7 15 8 16 9 7 10 6 11 5 12
REMARK SMILES IDX 4 13 3 14 2 15 1 16
REMARK H PARENT
REMARK Flexibility Score: inf
ROOT
ATOM      1  C   UNL     1     -44.428 -50.019  40.861  1.00  0.00     0.000 C 
ENDROOT
BRANCH   1   2
ATOM      2  C   UNL     1     -45.519 -51.075  40.613  1.00  0.00     0.000 C 
BRANCH   2   3
ATOM      3  C   UNL     1     -46.880 -50.663  41.194  1.00  0.00     0.000 C 
BRANCH   3   4
ATOM      4  C   UNL     1     -47.516 -51.771  42.051  1.00  0.00     0.000 C 
BRANCH   4   5
ATOM      5  C   UNL     1     -48.849 -52.280  41.474  1.00  0.00     0.006 C 
BRANCH   5   6
ATOM      6  C   UNL     1     -48.801 -53.726  40.957  1.00  0.00     0.053 C 
BRANCH   6   7
ATOM      7  C   UNL     1     -47.925 -53.861  39.750  1.00  0.00     0.041 C 
ATOM      8  O   UNL     1     -48.281 -53.365  38.648  1.00  0.00    -0.550 OA
ATOM      9  O   UNL     1     -46.698 -54.505  39.850  1.00  0.00    -0.550 OA
ENDBRANCH   6   7
ENDBRANCH   5   6
ENDBRANCH   4   5
ENDBRANCH   3   4
ENDBRANCH   2   3
ENDBRANCH   1   2
BRANCH   1  10
ATOM     10  C   UNL     1     -43.871 -49.426  39.558  1.00  0.00     0.000 C 
BRANCH  10  11
ATOM     11  C   UNL     1     -44.692 -48.229  39.056  1.00  0.00    -0.000 C 
BRANCH  11  12
ATOM     12  C   UNL     1     -45.131 -48.437  37.601  1.00  0.00    -0.000 C 
BRANCH  12  13
ATOM     13  C   UNL     1     -46.599 -48.886  37.529  1.00  0.00    -0.000 C 
BRANCH  13  14
ATOM     14  C   UNL     1     -46.746 -50.369  37.151  1.00  0.00    -0.000 C 
BRANCH  14  15
ATOM     15  C   UNL     1     -45.432 -50.984  36.648  1.00  0.00    -0.003 C 
ATOM     16  C   UNL     1     -45.251 -52.403  37.180  1.00  0.00     0.004 C 
ENDBRANCH  14  15
ENDBRANCH  13  14
ENDBRANCH  12  13
ENDBRANCH  11  12
ENDBRANCH  10  11
ENDBRANCH   1  10
TORSDOF 12
ENDMDL
MODEL 9
REMARK VINA RESULT:    -3.326      2.522      4.468
REMARK INTER + INTRA:          -7.600
REMARK INTER:                  -6.385
REMARK INTRA:                  -1.215
REMARK UNBOUND:                -1.941
REMARK SMILES CCCCCCCCCCCCCC(=O)[O-]
REMARK SMILES IDX 8 1 9 2 10 3 11 4 12 5 13 6 14 7 15 8 16 9 7 10 6 11 5 12
REMARK SMILES IDX 4 13 3 14 2 15 1 16
REMARK H PARENT
REMARK Flexibility Score: inf
ROOT
ATOM      1  C   UNL     1     -45.589 -49.814  37.042  1.00  0.00     0.000 C 
ENDROOT
BRANCH   1   2
ATOM      2  C   UNL     1     -45.748 -48.356  37.505  1.00  0.00     0.000 C 
BRANCH   2   3
ATOM      3  C   UNL     1     -45.009 -48.073  38.823  1.00  0.00     0.000 C 
BRANCH   3   4
ATOM      4  C   UNL     1     -43.536 -48.514  38.778  1.00  0.00     0.000 C 
BRANCH   4   5
ATOM      5  C   UNL     1     -42.630 -47.660  39.685  1.00  0.00     0.006 C 
BRANCH   5   6
ATOM      6  C   UNL     1     -43.289 -46.370  40.196  1.00  0.00     0.053 C 
BRANCH   6   7
ATOM      7  C   UNL     1     -42.453 -45.686  41.233  1.00  0.00     0.041 C 
ATOM      8  O   UNL     1     -41.952 -44.554  41.000  1.00  0.00    -0.550 OA
ATOM      9  O   UNL     1     -42.255 -46.283  42.471  1.00  0.00    -0.550 OA
ENDBRANCH   6   7
ENDBRANCH   5   6
ENDBRANCH   4   5
ENDBRANCH   3   4
ENDBRANCH   2   3
ENDBRANCH   1   2
BRANCH   1  10
ATOM     10  C   UNL     1     -46.874 -50.636  37.226  1.00  0.00     0.000 C 
BRANCH  10  11
ATOM     11  C   UNL     1     -46.604 -52.147  37.295  1.00  0.00    -0.000 C 
BRANCH  11  12
ATOM     12  C   UNL     1     -47.655 -52.853  38.161  1.00  0.00    -0.000 C 
BRANCH  12  13
ATOM     13  C   UNL     1     -47.082 -53.206  39.542  1.00  0.00    -0.000 C 
BRANCH  13  14
ATOM     14  C   UNL     1     -47.769 -52.437  40.682  1.00  0.00    -0.000 C 
BRANCH  14  15
ATOM     15  C   UNL     1     -47.259 -50.994  40.813  1.00  0.00    -0.003 C 
ATOM     16  C   UNL     1     -45.744 -50.962  40.996  1.00  0.00     0.004 C 
ENDBRANCH  14  15
ENDBRANCH  13  14
ENDBRANCH  12  13
ENDBRANCH  11  12
ENDBRANCH  10  11
ENDBRANCH   1  10
TORSDOF 12
ENDMDL
