MODEL 1
REMARK VINA RESULT:    -5.354      0.000      0.000
REMARK INTER + INTRA:          -6.594
REMARK INTER:                  -6.449
REMARK INTRA:                  -0.145
REMARK UNBOUND:                -0.145
REMARK SMILES O=c1c(O)c(-c2ccc(O)c(O)c2)oc2cc(O)cc(O)c12
REMARK SMILES IDX 5 1 3 2 2 3 1 4 22 5 20 6 19 7 17 8 16 9 15 10 14 11 6 12
REMARK SMILES IDX 7 13 8 14 9 15 13 16 11 17 10 18 12 20 4 22 21 24 18 26
REMARK H PARENT 10 19 12 21 4 23 21 25 18 27
REMARK Flexibility Score: inf
ROOT
ATOM      1  C   UNL     1     142.608 171.072 171.328  1.00  0.00     0.180 A 
ATOM      2  C   UNL     1     143.735 171.663 170.725  1.00  0.00     0.208 A 
ATOM      3  C   UNL     1     144.161 171.189 169.474  1.00  0.00     0.238 A 
ATOM      4  O   UNL     1     145.176 171.704 168.930  1.00  0.00    -0.285 OA
ATOM      5  C   UNL     1     143.445 170.153 168.841  1.00  0.00     0.111 A 
ATOM      6  C   UNL     1     143.806 169.623 167.579  1.00  0.00     0.134 A 
ATOM      7  C   UNL     1     143.037 168.597 167.010  1.00  0.00     0.093 A 
ATOM      8  C   UNL     1     141.915 168.094 167.678  1.00  0.00     0.123 A 
ATOM      9  C   UNL     1     141.555 168.614 168.922  1.00  0.00     0.094 A 
ATOM     10  C   UNL     1     142.310 169.635 169.507  1.00  0.00     0.146 A 
ATOM     11  O   UNL     1     141.949 170.107 170.694  1.00  0.00    -0.452 OA
ENDROOT
BRANCH   1  12
ATOM     12  C   UNL     1     142.108 171.504 172.654  1.00  0.00     0.025 A 
ATOM     13  C   UNL     1     142.929 171.360 173.781  1.00  0.00     0.016 A 
ATOM     14  C   UNL     1     142.485 171.779 175.037  1.00  0.00     0.051 A 
ATOM     15  C   UNL     1     141.223 172.361 175.190  1.00  0.00     0.157 A 
ATOM     16  C   UNL     1     140.847 172.108 172.800  1.00  0.00     0.062 A 
ATOM     17  C   UNL     1     140.394 172.534 174.055  1.00  0.00     0.158 A 
BRANCH  15  18
ATOM     18  O   UNL     1     140.835 172.751 176.473  1.00  0.00    -0.504 OA
ATOM     19  H   UNL     1     141.018 172.212 177.307  1.00  0.00     0.293 HD
ENDBRANCH  15  18
BRANCH  17  20
ATOM     20  O   UNL     1     139.131 173.125 174.127  1.00  0.00    -0.504 OA
ATOM     21  H   UNL     1     138.344 172.718 174.612  1.00  0.00     0.293 HD
ENDBRANCH  17  20
ENDBRANCH   1  12
BRANCH   2  22
ATOM     22  O   UNL     1     144.397 172.723 171.352  1.00  0.00    -0.502 OA
ATOM     23  H   UNL     1     144.195 173.691 171.138  1.00  0.00     0.293 HD
ENDBRANCH   2  22
BRANCH   6  24
ATOM     24  O   UNL     1     144.920 170.104 166.888  1.00  0.00    -0.507 OA
ATOM     25  H   UNL     1     144.826 170.703 166.077  1.00  0.00     0.293 HD
ENDBRANCH   6  24
BRANCH   8  26
ATOM     26  O   UNL     1     141.150 167.075 167.112  1.00  0.00    -0.508 OA
ATOM     27  H   UNL     1     141.527 166.146 166.969  1.00  0.00     0.293 HD
ENDBRANCH   8  26
TORSDOF 6
ENDMDL
MODEL 2
REMARK VINA RESULT:    -5.334      4.781      8.717
REMARK INTER + INTRA:          -6.570
REMARK INTER:                  -6.269
REMARK INTRA:                  -0.302
REMARK UNBOUND:                -0.145
REMARK SMILES O=c1c(O)c(-c2ccc(O)c(O)c2)oc2cc(O)cc(O)c12
REMARK SMILES IDX 5 1 3 2 2 3 1 4 22 5 20 6 19 7 17 8 16 9 15 10 14 11 6 12
REMARK SMILES IDX 7 13 8 14 9 15 13 16 11 17 10 18 12 20 4 22 21 24 18 26
REMARK H PARENT 10 19 12 21 4 23 21 25 18 27
REMARK Flexibility Score: inf
ROOT
ATOM      1  C   UNL     1     139.392 170.563 176.552  1.00  0.00     0.180 A 
ATOM      2  C   UNL     1     138.913 171.179 177.725  1.00  0.00     0.208 A 
ATOM      3  C   UNL     1     137.853 170.577 178.422  1.00  0.00     0.238 A 
ATOM      4  O   UNL     1     137.408 171.125 179.468  1.00  0.00    -0.285 OA
ATOM      5  C   UNL     1     137.306 169.367 177.949  1.00  0.00     0.111 A 
ATOM      6  C   UNL     1     136.240 168.695 178.595  1.00  0.00     0.134 A 
ATOM      7  C   UNL     1     135.757 167.489 178.067  1.00  0.00     0.093 A 
ATOM      8  C   UNL     1     136.319 166.943 176.908  1.00  0.00     0.123 A 
ATOM      9  C   UNL     1     137.370 167.602 176.268  1.00  0.00     0.094 A 
ATOM     10  C   UNL     1     137.864 168.806 176.778  1.00  0.00     0.146 A 
ATOM     11  O   UNL     1     138.861 169.414 176.145  1.00  0.00    -0.452 OA
ENDROOT
BRANCH   1  12
ATOM     12  C   UNL     1     140.494 171.146 175.752  1.00  0.00     0.025 A 
ATOM     13  C   UNL     1     141.822 170.915 176.136  1.00  0.00     0.016 A 
ATOM     14  C   UNL     1     142.875 171.437 175.384  1.00  0.00     0.051 A 
ATOM     15  C   UNL     1     142.626 172.186 174.230  1.00  0.00     0.157 A 
ATOM     16  C   UNL     1     140.239 171.879 174.580  1.00  0.00     0.062 A 
ATOM     17  C   UNL     1     141.290 172.405 173.818  1.00  0.00     0.158 A 
BRANCH  15  18
ATOM     18  O   UNL     1     143.724 172.687 173.527  1.00  0.00    -0.504 OA
ATOM     19  H   UNL     1     143.928 172.464 172.564  1.00  0.00     0.293 HD
ENDBRANCH  15  18
BRANCH  17  20
ATOM     20  O   UNL     1     140.964 173.125 172.667  1.00  0.00    -0.504 OA
ATOM     21  H   UNL     1     140.061 173.545 172.500  1.00  0.00     0.293 HD
ENDBRANCH  17  20
ENDBRANCH   1  12
BRANCH   2  22
ATOM     22  O   UNL     1     139.506 172.352 178.200  1.00  0.00    -0.502 OA
ATOM     23  H   UNL     1     139.047 172.960 178.867  1.00  0.00     0.293 HD
ENDBRANCH   2  22
BRANCH   6  24
ATOM     24  O   UNL     1     135.659 169.215 179.753  1.00  0.00    -0.507 OA
ATOM     25  H   UNL     1     136.214 169.658 180.475  1.00  0.00     0.293 HD
ENDBRANCH   6  24
BRANCH   8  26
ATOM     26  O   UNL     1     135.840 165.743 176.383  1.00  0.00    -0.508 OA
ATOM     27  H   UNL     1     136.064 165.451 175.440  1.00  0.00     0.293 HD
ENDBRANCH   8  26
TORSDOF 6
ENDMDL
MODEL 3
REMARK VINA RESULT:    -5.316      5.171      7.066
REMARK INTER + INTRA:          -6.548
REMARK INTER:                  -6.224
REMARK INTRA:                  -0.324
REMARK UNBOUND:                -0.145
REMARK SMILES O=c1c(O)c(-c2ccc(O)c(O)c2)oc2cc(O)cc(O)c12
REMARK SMILES IDX 5 1 3 2 2 3 1 4 22 5 20 6 19 7 17 8 16 9 15 10 14 11 6 12
REMARK SMILES IDX 7 13 8 14 9 15 13 16 11 17 10 18 12 20 4 22 21 24 18 26
REMARK H PARENT 10 19 12 21 4 23 21 25 18 27
REMARK Flexibility Score: inf
ROOT
ATOM      1  C   UNL     1     140.095 170.503 176.518  1.00  0.00     0.180 A 
ATOM      2  C   UNL     1     140.102 171.648 175.697  1.00  0.00     0.208 A 
ATOM      3  C   UNL     1     141.309 172.044 175.098  1.00  0.00     0.238 A 
ATOM      4  O   UNL     1     141.330 173.074 174.369  1.00  0.00    -0.285 OA
ATOM      5  C   UNL     1     142.476 171.283 175.310  1.00  0.00     0.111 A 
ATOM      6  C   UNL     1     143.729 171.611 174.740  1.00  0.00     0.134 A 
ATOM      7  C   UNL     1     144.843 170.798 174.992  1.00  0.00     0.093 A 
ATOM      8  C   UNL     1     144.728 169.663 175.802  1.00  0.00     0.123 A 
ATOM      9  C   UNL     1     143.494 169.335 176.367  1.00  0.00     0.094 A 
ATOM     10  C   UNL     1     142.372 170.134 176.129  1.00  0.00     0.146 A 
ATOM     11  O   UNL     1     141.213 169.802 176.684  1.00  0.00    -0.452 OA
ENDROOT
BRANCH   1  12
ATOM     12  C   UNL     1     138.868 170.033 177.201  1.00  0.00     0.025 A 
ATOM     13  C   UNL     1     138.134 168.975 176.647  1.00  0.00     0.016 A 
ATOM     14  C   UNL     1     136.985 168.502 177.285  1.00  0.00     0.051 A 
ATOM     15  C   UNL     1     136.556 169.064 178.491  1.00  0.00     0.157 A 
ATOM     16  C   UNL     1     138.452 170.586 178.424  1.00  0.00     0.062 A 
ATOM     17  C   UNL     1     137.304 170.116 179.073  1.00  0.00     0.158 A 
BRANCH  15  18
ATOM     18  O   UNL     1     135.395 168.551 179.074  1.00  0.00    -0.504 OA
ATOM     19  H   UNL     1     134.743 167.946 178.596  1.00  0.00     0.293 HD
ENDBRANCH  15  18
BRANCH  17  20
ATOM     20  O   UNL     1     136.948 170.713 180.284  1.00  0.00    -0.504 OA
ATOM     21  H   UNL     1     136.030 171.085 180.483  1.00  0.00     0.293 HD
ENDBRANCH  17  20
ENDBRANCH   1  12
BRANCH   2  22
ATOM     22  O   UNL     1     138.921 172.356 175.462  1.00  0.00    -0.502 OA
ATOM     23  H   UNL     1     138.485 172.933 176.171  1.00  0.00     0.293 HD
ENDBRANCH   2  22
BRANCH   6  24
ATOM     24  O   UNL     1     143.876 172.737 173.927  1.00  0.00    -0.507 OA
ATOM     25  H   UNL     1     144.053 173.655 174.315  1.00  0.00     0.293 HD
ENDBRANCH   6  24
BRANCH   8  26
ATOM     26  O   UNL     1     145.834 168.854 176.053  1.00  0.00    -0.508 OA
ATOM     27  H   UNL     1     145.772 168.044 176.658  1.00  0.00     0.293 HD
ENDBRANCH   8  26
TORSDOF 6
ENDMDL
MODEL 4
REMARK VINA RESULT:    -5.201      5.219      9.037
REMARK INTER + INTRA:          -6.409
REMARK INTER:                  -6.081
REMARK INTRA:                  -0.328
REMARK UNBOUND:                -0.145
REMARK SMILES O=c1c(O)c(-c2ccc(O)c(O)c2)oc2cc(O)cc(O)c12
REMARK SMILES IDX 5 1 3 2 2 3 1 4 22 5 20 6 19 7 17 8 16 9 15 10 14 11 6 12
REMARK SMILES IDX 7 13 8 14 9 15 13 16 11 17 10 18 12 20 4 22 21 24 18 26
REMARK H PARENT 10 19 12 21 4 23 21 25 18 27
REMARK Flexibility Score: inf
ROOT
ATOM      1  C   UNL     1     139.558 170.210 176.148  1.00  0.00     0.180 A 
ATOM      2  C   UNL     1     138.903 169.210 175.404  1.00  0.00     0.208 A 
ATOM      3  C   UNL     1     137.791 168.565 175.968  1.00  0.00     0.238 A 
ATOM      4  O   UNL     1     137.203 167.659 175.315  1.00  0.00    -0.285 OA
ATOM      5  C   UNL     1     137.341 168.942 177.249  1.00  0.00     0.111 A 
ATOM      6  C   UNL     1     136.226 168.345 177.885  1.00  0.00     0.134 A 
ATOM      7  C   UNL     1     135.835 168.783 179.159  1.00  0.00     0.093 A 
ATOM      8  C   UNL     1     136.536 169.806 179.807  1.00  0.00     0.123 A 
ATOM      9  C   UNL     1     137.636 170.398 179.183  1.00  0.00     0.094 A 
ATOM     10  C   UNL     1     138.043 169.974 177.915  1.00  0.00     0.146 A 
ATOM     11  O   UNL     1     139.096 170.550 177.348  1.00  0.00    -0.452 OA
ENDROOT
BRANCH   1  12
ATOM     12  C   UNL     1     140.748 170.923 175.631  1.00  0.00     0.025 A 
ATOM     13  C   UNL     1     140.595 172.188 175.046  1.00  0.00     0.016 A 
ATOM     14  C   UNL     1     141.707 172.885 174.570  1.00  0.00     0.051 A 
ATOM     15  C   UNL     1     142.991 172.344 174.682  1.00  0.00     0.157 A 
ATOM     16  C   UNL     1     142.040 170.384 175.765  1.00  0.00     0.062 A 
ATOM     17  C   UNL     1     143.161 171.078 175.294  1.00  0.00     0.158 A 
BRANCH  15  18
ATOM     18  O   UNL     1     144.060 173.088 174.179  1.00  0.00    -0.504 OA
ATOM     19  H   UNL     1     144.181 173.315 173.202  1.00  0.00     0.293 HD
ENDBRANCH  15  18
BRANCH  17  20
ATOM     20  O   UNL     1     144.414 170.483 175.458  1.00  0.00    -0.504 OA
ATOM     21  H   UNL     1     144.555 169.564 175.853  1.00  0.00     0.293 HD
ENDBRANCH  17  20
ENDBRANCH   1  12
BRANCH   2  22
ATOM     22  O   UNL     1     139.338 168.888 174.115  1.00  0.00    -0.502 OA
ATOM     23  H   UNL     1     139.162 167.986 173.693  1.00  0.00     0.293 HD
ENDBRANCH   2  22
BRANCH   6  24
ATOM     24  O   UNL     1     135.506 167.323 177.264  1.00  0.00    -0.507 OA
ATOM     25  H   UNL     1     135.353 166.429 177.715  1.00  0.00     0.293 HD
ENDBRANCH   6  24
BRANCH   8  26
ATOM     26  O   UNL     1     136.147 170.243 181.072  1.00  0.00    -0.508 OA
ATOM     27  H   UNL     1     135.176 170.422 181.295  1.00  0.00     0.293 HD
ENDBRANCH   8  26
TORSDOF 6
ENDMDL
MODEL 5
REMARK VINA RESULT:    -5.123      2.695      4.133
REMARK INTER + INTRA:          -6.316
REMARK INTER:                  -6.018
REMARK INTRA:                  -0.298
REMARK UNBOUND:                -0.145
REMARK SMILES O=c1c(O)c(-c2ccc(O)c(O)c2)oc2cc(O)cc(O)c12
REMARK SMILES IDX 5 1 3 2 2 3 1 4 22 5 20 6 19 7 17 8 16 9 15 10 14 11 6 12
REMARK SMILES IDX 7 13 8 14 9 15 13 16 11 17 10 18 12 20 4 22 21 24 18 26
REMARK H PARENT 10 19 12 21 4 23 21 25 18 27
REMARK Flexibility Score: inf
ROOT
ATOM      1  C   UNL     1     141.672 171.321 174.005  1.00  0.00     0.180 A 
ATOM      2  C   UNL     1     141.322 171.998 172.821  1.00  0.00     0.208 A 
ATOM      3  C   UNL     1     142.175 171.908 171.711  1.00  0.00     0.238 A 
ATOM      4  O   UNL     1     141.877 172.520 170.648  1.00  0.00    -0.285 OA
ATOM      5  C   UNL     1     143.348 171.129 171.794  1.00  0.00     0.111 A 
ATOM      6  C   UNL     1     144.258 170.983 170.720  1.00  0.00     0.134 A 
ATOM      7  C   UNL     1     145.399 170.183 170.878  1.00  0.00     0.093 A 
ATOM      8  C   UNL     1     145.646 169.527 172.089  1.00  0.00     0.123 A 
ATOM      9  C   UNL     1     144.751 169.668 173.151  1.00  0.00     0.094 A 
ATOM     10  C   UNL     1     143.609 170.463 173.013  1.00  0.00     0.146 A 
ATOM     11  O   UNL     1     142.779 170.584 174.042  1.00  0.00    -0.452 OA
ENDROOT
BRANCH   1  12
ATOM     12  C   UNL     1     140.834 171.383 175.225  1.00  0.00     0.025 A 
ATOM     13  C   UNL     1     139.719 170.541 175.339  1.00  0.00     0.016 A 
ATOM     14  C   UNL     1     138.927 170.569 176.488  1.00  0.00     0.051 A 
ATOM     15  C   UNL     1     139.240 171.424 177.550  1.00  0.00     0.157 A 
ATOM     16  C   UNL     1     141.165 172.228 176.298  1.00  0.00     0.062 A 
ATOM     17  C   UNL     1     140.379 172.260 177.457  1.00  0.00     0.158 A 
BRANCH  15  18
ATOM     18  O   UNL     1     138.404 171.409 178.668  1.00  0.00    -0.504 OA
ATOM     19  H   UNL     1     138.073 172.240 179.137  1.00  0.00     0.293 HD
ENDBRANCH  15  18
BRANCH  17  20
ATOM     20  O   UNL     1     140.765 173.125 178.484  1.00  0.00    -0.504 OA
ATOM     21  H   UNL     1     140.408 174.063 178.596  1.00  0.00     0.293 HD
ENDBRANCH  17  20
ENDBRANCH   1  12
BRANCH   2  22
ATOM     22  O   UNL     1     140.128 172.723 172.749  1.00  0.00    -0.502 OA
ATOM     23  H   UNL     1     139.323 172.500 173.320  1.00  0.00     0.293 HD
ENDBRANCH   2  22
BRANCH   6  24
ATOM     24  O   UNL     1     144.039 171.625 169.499  1.00  0.00    -0.507 OA
ATOM     25  H   UNL     1     144.663 172.345 169.156  1.00  0.00     0.293 HD
ENDBRANCH   6  24
BRANCH   8  26
ATOM     26  O   UNL     1     146.779 168.731 172.247  1.00  0.00    -0.508 OA
ATOM     27  H   UNL     1     146.783 167.755 171.975  1.00  0.00     0.293 HD
ENDBRANCH   8  26
TORSDOF 6
ENDMDL
MODEL 6
REMARK VINA RESULT:    -5.033      7.560     11.399
REMARK INTER + INTRA:          -6.207
REMARK INTER:                  -5.875
REMARK INTRA:                  -0.332
REMARK UNBOUND:                -0.145
REMARK SMILES O=c1c(O)c(-c2ccc(O)c(O)c2)oc2cc(O)cc(O)c12
REMARK SMILES IDX 5 1 3 2 2 3 1 4 22 5 20 6 19 7 17 8 16 9 15 10 14 11 6 12
REMARK SMILES IDX 7 13 8 14 9 15 13 16 11 17 10 18 12 20 4 22 21 24 18 26
REMARK H PARENT 10 19 12 21 4 23 21 25 18 27
REMARK Flexibility Score: inf
ROOT
ATOM      1  C   UNL     1     136.874 168.734 178.373  1.00  0.00     0.180 A 
ATOM      2  C   UNL     1     137.170 167.836 179.418  1.00  0.00     0.208 A 
ATOM      3  C   UNL     1     136.123 167.102 179.996  1.00  0.00     0.238 A 
ATOM      4  O   UNL     1     136.375 166.303 180.940  1.00  0.00    -0.285 OA
ATOM      5  C   UNL     1     134.809 167.259 179.511  1.00  0.00     0.111 A 
ATOM      6  C   UNL     1     133.700 166.553 180.036  1.00  0.00     0.134 A 
ATOM      7  C   UNL     1     132.424 166.759 179.493  1.00  0.00     0.093 A 
ATOM      8  C   UNL     1     132.236 167.655 178.435  1.00  0.00     0.123 A 
ATOM      9  C   UNL     1     133.327 168.353 177.914  1.00  0.00     0.094 A 
ATOM     10  C   UNL     1     134.606 168.164 178.443  1.00  0.00     0.146 A 
ATOM     11  O   UNL     1     135.625 168.845 177.932  1.00  0.00    -0.452 OA
ENDROOT
BRANCH   1  12
ATOM     12  C   UNL     1     137.920 169.559 177.725  1.00  0.00     0.025 A 
ATOM     13  C   UNL     1     138.503 169.117 176.529  1.00  0.00     0.016 A 
ATOM     14  C   UNL     1     139.476 169.888 175.891  1.00  0.00     0.051 A 
ATOM     15  C   UNL     1     139.874 171.119 176.422  1.00  0.00     0.157 A 
ATOM     16  C   UNL     1     138.300 170.805 178.251  1.00  0.00     0.062 A 
ATOM     17  C   UNL     1     139.273 171.588 177.616  1.00  0.00     0.158 A 
BRANCH  15  18
ATOM     18  O   UNL     1     140.857 171.838 175.740  1.00  0.00    -0.504 OA
ATOM     19  H   UNL     1     140.809 172.069 174.758  1.00  0.00     0.293 HD
ENDBRANCH  15  18
BRANCH  17  20
ATOM     20  O   UNL     1     139.604 172.815 178.195  1.00  0.00    -0.504 OA
ATOM     21  H   UNL     1     139.142 173.199 179.007  1.00  0.00     0.293 HD
ENDBRANCH  17  20
ENDBRANCH   1  12
BRANCH   2  22
ATOM     22  O   UNL     1     138.489 167.662 179.847  1.00  0.00    -0.502 OA
ATOM     23  H   UNL     1     138.721 167.154 180.691  1.00  0.00     0.293 HD
ENDBRANCH   2  22
BRANCH   6  24
ATOM     24  O   UNL     1     133.856 165.652 181.092  1.00  0.00    -0.507 OA
ATOM     25  H   UNL     1     133.124 165.502 181.776  1.00  0.00     0.293 HD
ENDBRANCH   6  24
BRANCH   8  26
ATOM     26  O   UNL     1     130.968 167.859 177.893  1.00  0.00    -0.508 OA
ATOM     27  H   UNL     1     130.312 167.095 177.777  1.00  0.00     0.293 HD
ENDBRANCH   8  26
TORSDOF 6
ENDMDL
MODEL 7
REMARK VINA RESULT:    -4.973      4.647      8.364
REMARK INTER + INTRA:          -6.135
REMARK INTER:                  -5.971
REMARK INTRA:                  -0.164
REMARK UNBOUND:                -0.145
REMARK SMILES O=c1c(O)c(-c2ccc(O)c(O)c2)oc2cc(O)cc(O)c12
REMARK SMILES IDX 5 1 3 2 2 3 1 4 22 5 20 6 19 7 17 8 16 9 15 10 14 11 6 12
REMARK SMILES IDX 7 13 8 14 9 15 13 16 11 17 10 18 12 20 4 22 21 24 18 26
REMARK H PARENT 10 19 12 21 4 23 21 25 18 27
REMARK Flexibility Score: inf
ROOT
ATOM      1  C   UNL     1     144.481 165.652 168.703  1.00  0.00     0.180 A 
ATOM      2  C   UNL     1     143.224 165.706 168.068  1.00  0.00     0.208 A 
ATOM      3  C   UNL     1     142.637 166.959 167.833  1.00  0.00     0.238 A 
ATOM      4  O   UNL     1     141.507 167.019 167.276  1.00  0.00    -0.285 OA
ATOM      5  C   UNL     1     143.321 168.132 168.214  1.00  0.00     0.111 A 
ATOM      6  C   UNL     1     142.801 169.432 168.008  1.00  0.00     0.134 A 
ATOM      7  C   UNL     1     143.546 170.551 168.407  1.00  0.00     0.093 A 
ATOM      8  C   UNL     1     144.801 170.393 169.006  1.00  0.00     0.123 A 
ATOM      9  C   UNL     1     145.318 169.113 169.211  1.00  0.00     0.094 A 
ATOM     10  C   UNL     1     144.589 167.985 168.822  1.00  0.00     0.146 A 
ATOM     11  O   UNL     1     145.102 166.780 169.034  1.00  0.00    -0.452 OA
ENDROOT
BRANCH   1  12
ATOM     12  C   UNL     1     145.156 164.368 169.002  1.00  0.00     0.025 A 
ATOM     13  C   UNL     1     145.327 163.973 170.336  1.00  0.00     0.016 A 
ATOM     14  C   UNL     1     145.943 162.758 170.640  1.00  0.00     0.051 A 
ATOM     15  C   UNL     1     146.385 161.908 169.622  1.00  0.00     0.157 A 
ATOM     16  C   UNL     1     145.580 163.507 167.976  1.00  0.00     0.062 A 
ATOM     17  C   UNL     1     146.196 162.284 168.271  1.00  0.00     0.158 A 
BRANCH  15  18
ATOM     18  O   UNL     1     147.000 160.710 169.993  1.00  0.00    -0.504 OA
ATOM     19  H   UNL     1     146.847 159.828 169.526  1.00  0.00     0.293 HD
ENDBRANCH  15  18
BRANCH  17  20
ATOM     20  O   UNL     1     146.594 161.479 167.201  1.00  0.00    -0.504 OA
ATOM     21  H   UNL     1     146.044 160.716 166.833  1.00  0.00     0.293 HD
ENDBRANCH  17  20
ENDBRANCH   1  12
BRANCH   2  22
ATOM     22  O   UNL     1     142.590 164.530 167.656  1.00  0.00    -0.502 OA
ATOM     23  H   UNL     1     143.057 163.633 167.660  1.00  0.00     0.293 HD
ENDBRANCH   2  22
BRANCH   6  24
ATOM     24  O   UNL     1     141.552 169.621 167.413  1.00  0.00    -0.507 OA
ATOM     25  H   UNL     1     141.218 170.543 167.156  1.00  0.00     0.293 HD
ENDBRANCH   6  24
BRANCH   8  26
ATOM     26  O   UNL     1     145.544 171.505 169.402  1.00  0.00    -0.508 OA
ATOM     27  H   UNL     1     146.128 171.484 170.229  1.00  0.00     0.293 HD
ENDBRANCH   8  26
TORSDOF 6
ENDMDL
MODEL 8
REMARK VINA RESULT:    -4.957      4.554      7.730
REMARK INTER + INTRA:          -6.116
REMARK INTER:                  -5.784
REMARK INTRA:                  -0.332
REMARK UNBOUND:                -0.145
REMARK SMILES O=c1c(O)c(-c2ccc(O)c(O)c2)oc2cc(O)cc(O)c12
REMARK SMILES IDX 5 1 3 2 2 3 1 4 22 5 20 6 19 7 17 8 16 9 15 10 14 11 6 12
REMARK SMILES IDX 7 13 8 14 9 15 13 16 11 17 10 18 12 20 4 22 21 24 18 26
REMARK H PARENT 10 19 12 21 4 23 21 25 18 27
REMARK Flexibility Score: inf
ROOT
ATOM      1  C   UNL     1     144.826 166.024 169.421  1.00  0.00     0.180 A 
ATOM      2  C   UNL     1     145.969 166.673 169.927  1.00  0.00     0.208 A 
ATOM      3  C   UNL     1     146.026 168.075 169.886  1.00  0.00     0.238 A 
ATOM      4  O   UNL     1     147.050 168.667 170.326  1.00  0.00    -0.285 OA
ATOM      5  C   UNL     1     144.938 168.802 169.363  1.00  0.00     0.111 A 
ATOM      6  C   UNL     1     144.915 170.215 169.290  1.00  0.00     0.134 A 
ATOM      7  C   UNL     1     143.790 170.867 168.763  1.00  0.00     0.093 A 
ATOM      8  C   UNL     1     142.689 170.132 168.310  1.00  0.00     0.123 A 
ATOM      9  C   UNL     1     142.707 168.738 168.380  1.00  0.00     0.094 A 
ATOM     10  C   UNL     1     143.820 168.070 168.900  1.00  0.00     0.146 A 
ATOM     11  O   UNL     1     143.813 166.744 168.949  1.00  0.00    -0.452 OA
ENDROOT
BRANCH   1  12
ATOM     12  C   UNL     1     144.699 164.548 169.412  1.00  0.00     0.025 A 
ATOM     13  C   UNL     1     144.039 163.906 170.469  1.00  0.00     0.016 A 
ATOM     14  C   UNL     1     143.890 162.518 170.470  1.00  0.00     0.051 A 
ATOM     15  C   UNL     1     144.381 161.747 169.412  1.00  0.00     0.157 A 
ATOM     16  C   UNL     1     145.175 163.779 168.336  1.00  0.00     0.062 A 
ATOM     17  C   UNL     1     145.027 162.387 168.326  1.00  0.00     0.158 A 
BRANCH  15  18
ATOM     18  O   UNL     1     144.207 160.363 169.477  1.00  0.00    -0.504 OA
ATOM     19  H   UNL     1     143.689 159.826 168.796  1.00  0.00     0.293 HD
ENDBRANCH  15  18
BRANCH  17  20
ATOM     20  O   UNL     1     145.526 161.685 167.226  1.00  0.00    -0.504 OA
ATOM     21  H   UNL     1     146.152 162.081 166.540  1.00  0.00     0.293 HD
ENDBRANCH  17  20
ENDBRANCH   1  12
BRANCH   2  22
ATOM     22  O   UNL     1     147.014 165.931 170.486  1.00  0.00    -0.502 OA
ATOM     23  H   UNL     1     147.011 165.636 171.454  1.00  0.00     0.293 HD
ENDBRANCH   2  22
BRANCH   6  24
ATOM     24  O   UNL     1     145.998 170.976 169.735  1.00  0.00    -0.507 OA
ATOM     25  H   UNL     1     146.955 170.711 169.532  1.00  0.00     0.293 HD
ENDBRANCH   6  24
BRANCH   8  26
ATOM     26  O   UNL     1     141.570 170.778 167.787  1.00  0.00    -0.508 OA
ATOM     27  H   UNL     1     140.851 170.271 167.286  1.00  0.00     0.293 HD
ENDBRANCH   8  26
TORSDOF 6
ENDMDL
