MODEL 1
REMARK VINA RESULT:    -2.993      0.000      0.000
REMARK INTER + INTRA:          -8.761
REMARK INTER:                  -5.617
REMARK INTRA:                  -3.144
REMARK UNBOUND:                -3.144
REMARK SMILES CCCCCCCCCCCCCC=CC=CC(=O)OC
REMARK SMILES IDX 9 1 8 2 7 3 6 4 5 5 4 6 3 7 2 8 1 9 10 10 11 11 12 12 13 13
REMARK SMILES IDX 14 14 15 15 16 16 17 17 18 18 19 19 20 20 21 21
REMARK H PARENT
REMARK Flexibility Score: inf
ROOT
ATOM      1  C   UNL     1     103.192  84.939  21.714  1.00  0.00     0.000 C 
ENDROOT
BRANCH   1   2
ATOM      2  C   UNL     1     103.783  83.969  22.754  1.00  0.00     0.000 C 
BRANCH   2   3
ATOM      3  C   UNL     1     105.246  83.604  22.458  1.00  0.00     0.000 C 
BRANCH   3   4
ATOM      4  C   UNL     1     105.437  82.100  22.200  1.00  0.00    -0.000 C 
BRANCH   4   5
ATOM      5  C   UNL     1     104.538  81.229  23.094  1.00  0.00    -0.000 C 
BRANCH   5   6
ATOM      6  C   UNL     1     105.344  80.314  24.033  1.00  0.00    -0.000 C 
BRANCH   6   7
ATOM      7  C   UNL     1     105.049  80.584  25.516  1.00  0.00    -0.000 C 
BRANCH   7   8
ATOM      8  C   UNL     1     104.114  81.785  25.723  1.00  0.00    -0.003 C 
ATOM      9  C   UNL     1     104.798  82.878  26.540  1.00  0.00     0.004 C 
ENDBRANCH   7   8
ENDBRANCH   6   7
ENDBRANCH   5   6
ENDBRANCH   4   5
ENDBRANCH   3   4
ENDBRANCH   2   3
ENDBRANCH   1   2
BRANCH   1  10
ATOM     10  C   UNL     1     102.209  84.254  20.748  1.00  0.00     0.000 C 
BRANCH  10  11
ATOM     11  C   UNL     1     101.697  82.877  21.210  1.00  0.00     0.000 C 
BRANCH  11  12
ATOM     12  C   UNL     1     102.131  81.733  20.279  1.00  0.00     0.004 C 
BRANCH  12  13
ATOM     13  C   UNL     1     102.652  82.248  18.931  1.00  0.00     0.027 C 
BRANCH  13  14
ATOM     14  C   UNL     1     104.034  81.723  18.633  1.00  0.00    -0.027 C 
ATOM     15  C   UNL     1     105.149  82.464  18.568  1.00  0.00    -0.004 C 
BRANCH  15  16
ATOM     16  C   UNL     1     105.181  83.935  18.729  1.00  0.00     0.007 C 
ATOM     17  C   UNL     1     105.116  84.812  17.716  1.00  0.00     0.093 C 
BRANCH  17  18
ATOM     18  C   UNL     1     105.175  84.487  16.277  1.00  0.00     0.330 C 
ATOM     19  O   UNL     1     106.252  84.581  15.628  1.00  0.00    -0.247 OA
BRANCH  18  20
ATOM     20  O   UNL     1     103.992  84.128  15.626  1.00  0.00    -0.466 OA
ATOM     21  C   UNL     1     102.714  84.588  16.048  1.00  0.00     0.282 C 
ENDBRANCH  18  20
ENDBRANCH  17  18
ENDBRANCH  15  16
ENDBRANCH  13  14
ENDBRANCH  12  13
ENDBRANCH  11  12
ENDBRANCH  10  11
ENDBRANCH   1  10
TORSDOF 15
ENDMDL
MODEL 2
REMARK VINA RESULT:    -2.988      1.568      2.681
REMARK INTER + INTRA:          -8.753
REMARK INTER:                  -5.091
REMARK INTRA:                  -3.661
REMARK UNBOUND:                -3.144
REMARK SMILES CCCCCCCCCCCCCC=CC=CC(=O)OC
REMARK SMILES IDX 9 1 8 2 7 3 6 4 5 5 4 6 3 7 2 8 1 9 10 10 11 11 12 12 13 13
REMARK SMILES IDX 14 14 15 15 16 16 17 17 18 18 19 19 20 20 21 21
REMARK H PARENT
REMARK Flexibility Score: inf
ROOT
ATOM      1  C   UNL     1     105.686  82.311  22.491  1.00  0.00     0.000 C 
ENDROOT
BRANCH   1   2
ATOM      2  C   UNL     1     105.234  83.619  21.816  1.00  0.00     0.000 C 
BRANCH   2   3
ATOM      3  C   UNL     1     104.070  84.297  22.557  1.00  0.00     0.000 C 
BRANCH   3   4
ATOM      4  C   UNL     1     102.702  83.948  21.946  1.00  0.00    -0.000 C 
BRANCH   4   5
ATOM      5  C   UNL     1     101.847  83.072  22.877  1.00  0.00    -0.000 C 
BRANCH   5   6
ATOM      6  C   UNL     1     102.358  83.073  24.328  1.00  0.00    -0.000 C 
BRANCH   6   7
ATOM      7  C   UNL     1     102.538  81.654  24.890  1.00  0.00    -0.000 C 
BRANCH   7   8
ATOM      8  C   UNL     1     103.926  81.434  25.507  1.00  0.00    -0.003 C 
ATOM      9  C   UNL     1     104.499  82.741  26.050  1.00  0.00     0.004 C 
ENDBRANCH   7   8
ENDBRANCH   6   7
ENDBRANCH   5   6
ENDBRANCH   4   5
ENDBRANCH   3   4
ENDBRANCH   2   3
ENDBRANCH   1   2
BRANCH   1  10
ATOM     10  C   UNL     1     105.516  81.080  21.582  1.00  0.00     0.000 C 
BRANCH  10  11
ATOM     11  C   UNL     1     104.466  80.061  22.060  1.00  0.00     0.000 C 
BRANCH  11  12
ATOM     12  C   UNL     1     103.139  80.162  21.290  1.00  0.00     0.004 C 
BRANCH  12  13
ATOM     13  C   UNL     1     103.354  80.271  19.774  1.00  0.00     0.027 C 
BRANCH  13  14
ATOM     14  C   UNL     1     102.634  81.463  19.196  1.00  0.00    -0.027 C 
ATOM     15  C   UNL     1     103.213  82.473  18.532  1.00  0.00    -0.004 C 
BRANCH  15  16
ATOM     16  C   UNL     1     104.671  82.597  18.311  1.00  0.00     0.007 C 
ATOM     17  C   UNL     1     105.330  83.762  18.214  1.00  0.00     0.093 C 
BRANCH  17  18
ATOM     18  C   UNL     1     104.719  85.104  18.138  1.00  0.00     0.330 C 
ATOM     19  O   UNL     1     104.590  85.824  19.166  1.00  0.00    -0.247 OA
BRANCH  18  20
ATOM     20  O   UNL     1     104.224  85.542  16.907  1.00  0.00    -0.466 OA
ATOM     21  C   UNL     1     103.035  86.313  16.788  1.00  0.00     0.282 C 
ENDBRANCH  18  20
ENDBRANCH  17  18
ENDBRANCH  15  16
ENDBRANCH  13  14
ENDBRANCH  12  13
ENDBRANCH  11  12
ENDBRANCH  10  11
ENDBRANCH   1  10
TORSDOF 15
ENDMDL
MODEL 3
REMARK VINA RESULT:    -2.943      3.788      7.154
REMARK INTER + INTRA:          -8.667
REMARK INTER:                  -5.761
REMARK INTRA:                  -2.906
REMARK UNBOUND:                -3.144
REMARK SMILES CCCCCCCCCCCCCC=CC=CC(=O)OC
REMARK SMILES IDX 9 1 8 2 7 3 6 4 5 5 4 6 3 7 2 8 1 9 10 10 11 11 12 12 13 13
REMARK SMILES IDX 14 14 15 15 16 16 17 17 18 18 19 19 20 20 21 21
REMARK H PARENT
REMARK Flexibility Score: inf
ROOT
ATOM      1  C   UNL     1     102.185  83.353  19.474  1.00  0.00     0.000 C 
ENDROOT
BRANCH   1   2
ATOM      2  C   UNL     1     101.359  82.931  20.703  1.00  0.00     0.000 C 
BRANCH   2   3
ATOM      3  C   UNL     1     101.030  84.112  21.630  1.00  0.00     0.000 C 
BRANCH   3   4
ATOM      4  C   UNL     1     101.558  85.450  21.086  1.00  0.00    -0.000 C 
BRANCH   4   5
ATOM      5  C   UNL     1     102.094  86.368  22.197  1.00  0.00    -0.000 C 
BRANCH   5   6
ATOM      6  C   UNL     1     103.225  87.291  21.709  1.00  0.00    -0.000 C 
BRANCH   6   7
ATOM      7  C   UNL     1     104.115  86.623  20.650  1.00  0.00    -0.000 C 
BRANCH   7   8
ATOM      8  C   UNL     1     104.168  87.417  19.337  1.00  0.00    -0.003 C 
ATOM      9  C   UNL     1     104.424  86.496  18.148  1.00  0.00     0.004 C 
ENDBRANCH   7   8
ENDBRANCH   6   7
ENDBRANCH   5   6
ENDBRANCH   4   5
ENDBRANCH   3   4
ENDBRANCH   2   3
ENDBRANCH   1   2
BRANCH   1  10
ATOM     10  C   UNL     1     102.863  82.162  18.772  1.00  0.00     0.000 C 
BRANCH  10  11
ATOM     11  C   UNL     1     104.385  82.063  18.987  1.00  0.00     0.000 C 
BRANCH  11  12
ATOM     12  C   UNL     1     104.939  83.191  19.874  1.00  0.00     0.004 C 
BRANCH  12  13
ATOM     13  C   UNL     1     105.343  82.688  21.267  1.00  0.00     0.027 C 
BRANCH  13  14
ATOM     14  C   UNL     1     104.989  83.686  22.340  1.00  0.00    -0.027 C 
ATOM     15  C   UNL     1     104.227  83.434  23.414  1.00  0.00    -0.004 C 
BRANCH  15  16
ATOM     16  C   UNL     1     103.567  82.136  23.680  1.00  0.00     0.007 C 
ATOM     17  C   UNL     1     103.194  81.708  24.896  1.00  0.00     0.093 C 
BRANCH  17  18
ATOM     18  C   UNL     1     103.517  82.354  26.184  1.00  0.00     0.330 C 
ATOM     19  O   UNL     1     102.613  82.852  26.910  1.00  0.00    -0.247 OA
BRANCH  18  20
ATOM     20  O   UNL     1     104.858  82.460  26.559  1.00  0.00    -0.466 OA
ATOM     21  C   UNL     1     105.280  83.195  27.701  1.00  0.00     0.282 C 
ENDBRANCH  18  20
ENDBRANCH  17  18
ENDBRANCH  15  16
ENDBRANCH  13  14
ENDBRANCH  12  13
ENDBRANCH  11  12
ENDBRANCH  10  11
ENDBRANCH   1  10
TORSDOF 15
ENDMDL
MODEL 4
REMARK VINA RESULT:    -2.929      2.314      4.806
REMARK INTER + INTRA:          -8.641
REMARK INTER:                  -5.548
REMARK INTRA:                  -3.093
REMARK UNBOUND:                -3.144
REMARK SMILES CCCCCCCCCCCCCC=CC=CC(=O)OC
REMARK SMILES IDX 9 1 8 2 7 3 6 4 5 5 4 6 3 7 2 8 1 9 10 10 11 11 12 12 13 13
REMARK SMILES IDX 14 14 15 15 16 16 17 17 18 18 19 19 20 20 21 21
REMARK H PARENT
REMARK Flexibility Score: inf
ROOT
ATOM      1  C   UNL     1     102.403  82.899  26.812  1.00  0.00     0.000 C 
ENDROOT
BRANCH   1   2
ATOM      2  C   UNL     1     101.341  82.509  25.767  1.00  0.00     0.000 C 
BRANCH   2   3
ATOM      3  C   UNL     1     101.106  83.612  24.722  1.00  0.00     0.000 C 
BRANCH   3   4
ATOM      4  C   UNL     1     100.968  83.051  23.297  1.00  0.00    -0.000 C 
BRANCH   4   5
ATOM      5  C   UNL     1     101.002  81.514  23.262  1.00  0.00    -0.000 C 
BRANCH   5   6
ATOM      6  C   UNL     1     100.811  80.949  21.843  1.00  0.00    -0.000 C 
BRANCH   6   7
ATOM      7  C   UNL     1     102.038  80.166  21.350  1.00  0.00    -0.000 C 
BRANCH   7   8
ATOM      8  C   UNL     1     103.015  81.042  20.553  1.00  0.00    -0.003 C 
ATOM      9  C   UNL     1     102.267  82.059  19.695  1.00  0.00     0.004 C 
ENDBRANCH   7   8
ENDBRANCH   6   7
ENDBRANCH   5   6
ENDBRANCH   4   5
ENDBRANCH   3   4
ENDBRANCH   2   3
ENDBRANCH   1   2
BRANCH   1  10
ATOM     10  C   UNL     1     103.831  82.518  26.384  1.00  0.00     0.000 C 
BRANCH  10  11
ATOM     11  C   UNL     1     103.928  81.277  25.477  1.00  0.00     0.000 C 
BRANCH  11  12
ATOM     12  C   UNL     1     104.639  81.562  24.144  1.00  0.00     0.004 C 
BRANCH  12  13
ATOM     13  C   UNL     1     104.712  83.063  23.835  1.00  0.00     0.027 C 
BRANCH  13  14
ATOM     14  C   UNL     1     105.227  83.318  22.441  1.00  0.00    -0.027 C 
ATOM     15  C   UNL     1     104.739  84.229  21.587  1.00  0.00    -0.004 C 
BRANCH  15  16
ATOM     16  C   UNL     1     103.571  85.093  21.870  1.00  0.00     0.007 C 
ATOM     17  C   UNL     1     103.170  86.108  21.089  1.00  0.00     0.093 C 
BRANCH  17  18
ATOM     18  C   UNL     1     103.898  86.651  19.924  1.00  0.00     0.330 C 
ATOM     19  O   UNL     1     104.797  87.526  20.064  1.00  0.00    -0.247 OA
BRANCH  18  20
ATOM     20  O   UNL     1     103.527  86.223  18.647  1.00  0.00    -0.466 OA
ATOM     21  C   UNL     1     102.290  85.572  18.385  1.00  0.00     0.282 C 
ENDBRANCH  18  20
ENDBRANCH  17  18
ENDBRANCH  15  16
ENDBRANCH  13  14
ENDBRANCH  12  13
ENDBRANCH  11  12
ENDBRANCH  10  11
ENDBRANCH   1  10
TORSDOF 15
ENDMDL
MODEL 5
REMARK VINA RESULT:    -2.885      1.928      3.356
REMARK INTER + INTRA:          -8.558
REMARK INTER:                  -5.353
REMARK INTRA:                  -3.206
REMARK UNBOUND:                -3.144
REMARK SMILES CCCCCCCCCCCCCC=CC=CC(=O)OC
REMARK SMILES IDX 9 1 8 2 7 3 6 4 5 5 4 6 3 7 2 8 1 9 10 10 11 11 12 12 13 13
REMARK SMILES IDX 14 14 15 15 16 16 17 17 18 18 19 19 20 20 21 21
REMARK H PARENT
REMARK Flexibility Score: inf
ROOT
ATOM      1  C   UNL     1     104.377  83.690  22.962  1.00  0.00     0.000 C 
ENDROOT
BRANCH   1   2
ATOM      2  C   UNL     1     103.546  84.672  22.116  1.00  0.00     0.000 C 
BRANCH   2   3
ATOM      3  C   UNL     1     102.043  84.596  22.426  1.00  0.00     0.000 C 
BRANCH   3   4
ATOM      4  C   UNL     1     101.662  83.311  23.179  1.00  0.00    -0.000 C 
BRANCH   4   5
ATOM      5  C   UNL     1     100.950  83.597  24.512  1.00  0.00    -0.000 C 
BRANCH   5   6
ATOM      6  C   UNL     1     101.160  82.478  25.548  1.00  0.00    -0.000 C 
BRANCH   6   7
ATOM      7  C   UNL     1     102.354  82.750  26.476  1.00  0.00    -0.000 C 
BRANCH   7   8
ATOM      8  C   UNL     1     103.615  81.982  26.055  1.00  0.00    -0.003 C 
ATOM      9  C   UNL     1     104.878  82.708  26.510  1.00  0.00     0.004 C 
ENDBRANCH   7   8
ENDBRANCH   6   7
ENDBRANCH   5   6
ENDBRANCH   4   5
ENDBRANCH   3   4
ENDBRANCH   2   3
ENDBRANCH   1   2
BRANCH   1  10
ATOM     10  C   UNL     1     105.600  83.138  22.208  1.00  0.00     0.000 C 
BRANCH  10  11
ATOM     11  C   UNL     1     105.721  81.602  22.204  1.00  0.00     0.000 C 
BRANCH  11  12
ATOM     12  C   UNL     1     104.376  80.895  22.442  1.00  0.00     0.004 C 
BRANCH  12  13
ATOM     13  C   UNL     1     103.864  80.184  21.183  1.00  0.00     0.027 C 
BRANCH  13  14
ATOM     14  C   UNL     1     102.579  80.796  20.683  1.00  0.00    -0.027 C 
ATOM     15  C   UNL     1     102.488  81.767  19.764  1.00  0.00    -0.004 C 
BRANCH  15  16
ATOM     16  C   UNL     1     103.653  82.428  19.132  1.00  0.00     0.007 C 
ATOM     17  C   UNL     1     103.592  83.573  18.436  1.00  0.00     0.093 C 
BRANCH  17  18
ATOM     18  C   UNL     1     102.362  84.282  18.031  1.00  0.00     0.330 C 
ATOM     19  O   UNL     1     101.849  84.102  16.892  1.00  0.00    -0.247 OA
BRANCH  18  20
ATOM     20  O   UNL     1     101.805  85.210  18.914  1.00  0.00    -0.466 OA
ATOM     21  C   UNL     1     100.408  85.281  19.173  1.00  0.00     0.282 C 
ENDBRANCH  18  20
ENDBRANCH  17  18
ENDBRANCH  15  16
ENDBRANCH  13  14
ENDBRANCH  12  13
ENDBRANCH  11  12
ENDBRANCH  10  11
ENDBRANCH   1  10
TORSDOF 15
ENDMDL
MODEL 6
REMARK VINA RESULT:    -2.869      1.718      3.311
REMARK INTER + INTRA:          -8.529
REMARK INTER:                  -5.726
REMARK INTRA:                  -2.803
REMARK UNBOUND:                -3.144
REMARK SMILES CCCCCCCCCCCCCC=CC=CC(=O)OC
REMARK SMILES IDX 9 1 8 2 7 3 6 4 5 5 4 6 3 7 2 8 1 9 10 10 11 11 12 12 13 13
REMARK SMILES IDX 14 14 15 15 16 16 17 17 18 18 19 19 20 20 21 21
REMARK H PARENT
REMARK Flexibility Score: inf
ROOT
ATOM      1  C   UNL     1     101.430  84.047  23.271  1.00  0.00     0.000 C 
ENDROOT
BRANCH   1   2
ATOM      2  C   UNL     1     101.133  83.590  24.711  1.00  0.00     0.000 C 
BRANCH   2   3
ATOM      3  C   UNL     1     101.841  82.274  25.072  1.00  0.00     0.000 C 
BRANCH   3   4
ATOM      4  C   UNL     1     102.761  82.417  26.295  1.00  0.00    -0.000 C 
BRANCH   4   5
ATOM      5  C   UNL     1     104.201  82.795  25.910  1.00  0.00    -0.000 C 
BRANCH   5   6
ATOM      6  C   UNL     1     105.200  81.649  26.152  1.00  0.00    -0.000 C 
BRANCH   6   7
ATOM      7  C   UNL     1     104.833  80.374  25.376  1.00  0.00    -0.000 C 
BRANCH   7   8
ATOM      8  C   UNL     1     105.092  80.506  23.868  1.00  0.00    -0.003 C 
ATOM      9  C   UNL     1     103.946  79.903  23.060  1.00  0.00     0.004 C 
ENDBRANCH   7   8
ENDBRANCH   6   7
ENDBRANCH   5   6
ENDBRANCH   4   5
ENDBRANCH   3   4
ENDBRANCH   2   3
ENDBRANCH   1   2
BRANCH   1  10
ATOM     10  C   UNL     1     102.691  83.389  22.683  1.00  0.00     0.000 C 
BRANCH  10  11
ATOM     11  C   UNL     1     103.904  84.327  22.537  1.00  0.00     0.000 C 
BRANCH  11  12
ATOM     12  C   UNL     1     105.155  83.609  22.004  1.00  0.00     0.004 C 
BRANCH  12  13
ATOM     13  C   UNL     1     105.100  83.400  20.484  1.00  0.00     0.027 C 
BRANCH  13  14
ATOM     14  C   UNL     1     105.612  82.036  20.094  1.00  0.00    -0.027 C 
ATOM     15  C   UNL     1     104.855  81.017  19.662  1.00  0.00    -0.004 C 
BRANCH  15  16
ATOM     16  C   UNL     1     103.379  81.064  19.555  1.00  0.00     0.007 C 
ATOM     17  C   UNL     1     102.707  81.278  18.414  1.00  0.00     0.093 C 
BRANCH  17  18
ATOM     18  C   UNL     1     103.294  81.670  17.117  1.00  0.00     0.330 C 
ATOM     19  O   UNL     1     103.370  80.852  16.160  1.00  0.00    -0.247 OA
BRANCH  18  20
ATOM     20  O   UNL     1     103.825  82.955  16.987  1.00  0.00    -0.466 OA
ATOM     21  C   UNL     1     105.158  83.194  16.553  1.00  0.00     0.282 C 
ENDBRANCH  18  20
ENDBRANCH  17  18
ENDBRANCH  15  16
ENDBRANCH  13  14
ENDBRANCH  12  13
ENDBRANCH  11  12
ENDBRANCH  10  11
ENDBRANCH   1  10
TORSDOF 15
ENDMDL
MODEL 7
REMARK VINA RESULT:    -2.854      1.784      3.725
REMARK INTER + INTRA:          -8.500
REMARK INTER:                  -5.316
REMARK INTRA:                  -3.184
REMARK UNBOUND:                -3.144
REMARK SMILES CCCCCCCCCCCCCC=CC=CC(=O)OC
REMARK SMILES IDX 9 1 8 2 7 3 6 4 5 5 4 6 3 7 2 8 1 9 10 10 11 11 12 12 13 13
REMARK SMILES IDX 14 14 15 15 16 16 17 17 18 18 19 19 20 20 21 21
REMARK H PARENT
REMARK Flexibility Score: inf
ROOT
ATOM      1  C   UNL     1     105.018  82.476  23.136  1.00  0.00     0.000 C 
ENDROOT
BRANCH   1   2
ATOM      2  C   UNL     1     104.064  82.859  24.282  1.00  0.00     0.000 C 
BRANCH   2   3
ATOM      3  C   UNL     1     102.797  81.989  24.313  1.00  0.00     0.000 C 
BRANCH   3   4
ATOM      4  C   UNL     1     102.761  80.960  23.171  1.00  0.00    -0.000 C 
BRANCH   4   5
ATOM      5  C   UNL     1     101.494  81.080  22.308  1.00  0.00    -0.000 C 
BRANCH   5   6
ATOM      6  C   UNL     1     100.846  82.473  22.396  1.00  0.00    -0.000 C 
BRANCH   6   7
ATOM      7  C   UNL     1     100.690  83.138  21.020  1.00  0.00    -0.000 C 
BRANCH   7   8
ATOM      8  C   UNL     1     101.407  84.493  20.934  1.00  0.00    -0.003 C 
ATOM      9  C   UNL     1     101.733  85.030  22.325  1.00  0.00     0.004 C 
ENDBRANCH   7   8
ENDBRANCH   6   7
ENDBRANCH   5   6
ENDBRANCH   4   5
ENDBRANCH   3   4
ENDBRANCH   2   3
ENDBRANCH   1   2
BRANCH   1  10
ATOM     10  C   UNL     1     105.211  83.611  22.114  1.00  0.00     0.000 C 
BRANCH  10  11
ATOM     11  C   UNL     1     104.843  83.248  20.663  1.00  0.00     0.000 C 
BRANCH  11  12
ATOM     12  C   UNL     1     105.528  81.961  20.175  1.00  0.00     0.004 C 
BRANCH  12  13
ATOM     13  C   UNL     1     104.517  80.866  19.811  1.00  0.00     0.027 C 
BRANCH  13  14
ATOM     14  C   UNL     1     103.260  81.450  19.216  1.00  0.00    -0.027 C 
ATOM     15  C   UNL     1     102.775  81.171  17.997  1.00  0.00    -0.004 C 
BRANCH  15  16
ATOM     16  C   UNL     1     103.440  80.278  17.022  1.00  0.00     0.007 C 
ATOM     17  C   UNL     1     104.392  80.669  16.160  1.00  0.00     0.093 C 
BRANCH  17  18
ATOM     18  C   UNL     1     104.822  82.059  15.908  1.00  0.00     0.330 C 
ATOM     19  O   UNL     1     105.759  82.584  16.571  1.00  0.00    -0.247 OA
BRANCH  18  20
ATOM     20  O   UNL     1     104.126  82.811  14.959  1.00  0.00    -0.466 OA
ATOM     21  C   UNL     1     103.374  83.970  15.298  1.00  0.00     0.282 C 
ENDBRANCH  18  20
ENDBRANCH  17  18
ENDBRANCH  15  16
ENDBRANCH  13  14
ENDBRANCH  12  13
ENDBRANCH  11  12
ENDBRANCH  10  11
ENDBRANCH   1  10
TORSDOF 15
ENDMDL
MODEL 8
REMARK VINA RESULT:    -2.832      1.452      2.185
REMARK INTER + INTRA:          -8.460
REMARK INTER:                  -5.673
REMARK INTRA:                  -2.786
REMARK UNBOUND:                -3.144
REMARK SMILES CCCCCCCCCCCCCC=CC=CC(=O)OC
REMARK SMILES IDX 9 1 8 2 7 3 6 4 5 5 4 6 3 7 2 8 1 9 10 10 11 11 12 12 13 13
REMARK SMILES IDX 14 14 15 15 16 16 17 17 18 18 19 19 20 20 21 21
REMARK H PARENT
REMARK Flexibility Score: inf
ROOT
ATOM      1  C   UNL     1     102.195  85.710  21.400  1.00  0.00     0.000 C 
ENDROOT
BRANCH   1   2
ATOM      2  C   UNL     1     103.686  85.327  21.373  1.00  0.00     0.000 C 
BRANCH   2   3
ATOM      3  C   UNL     1     104.077  84.388  22.526  1.00  0.00     0.000 C 
BRANCH   3   4
ATOM      4  C   UNL     1     105.236  83.450  22.153  1.00  0.00    -0.000 C 
BRANCH   4   5
ATOM      5  C   UNL     1     105.274  82.184  23.025  1.00  0.00    -0.000 C 
BRANCH   5   6
ATOM      6  C   UNL     1     104.074  82.087  23.983  1.00  0.00    -0.000 C 
BRANCH   6   7
ATOM      7  C   UNL     1     104.493  81.731  25.418  1.00  0.00    -0.000 C 
BRANCH   7   8
ATOM      8  C   UNL     1     104.229  82.872  26.411  1.00  0.00    -0.003 C 
ATOM      9  C   UNL     1     105.310  82.925  27.487  1.00  0.00     0.004 C 
ENDBRANCH   7   8
ENDBRANCH   6   7
ENDBRANCH   5   6
ENDBRANCH   4   5
ENDBRANCH   3   4
ENDBRANCH   2   3
ENDBRANCH   1   2
BRANCH   1  10
ATOM     10  C   UNL     1     101.348  84.757  22.262  1.00  0.00     0.000 C 
BRANCH  10  11
ATOM     11  C   UNL     1     100.420  83.817  21.470  1.00  0.00     0.000 C 
BRANCH  11  12
ATOM     12  C   UNL     1     100.584  82.340  21.866  1.00  0.00     0.004 C 
BRANCH  12  13
ATOM     13  C   UNL     1     101.787  81.684  21.176  1.00  0.00     0.027 C 
BRANCH  13  14
ATOM     14  C   UNL     1     101.893  82.102  19.731  1.00  0.00    -0.027 C 
ATOM     15  C   UNL     1     102.951  81.887  18.936  1.00  0.00    -0.004 C 
BRANCH  15  16
ATOM     16  C   UNL     1     104.210  81.248  19.380  1.00  0.00     0.007 C 
ATOM     17  C   UNL     1     105.438  81.685  19.060  1.00  0.00     0.093 C 
BRANCH  17  18
ATOM     18  C   UNL     1     105.758  82.750  18.090  1.00  0.00     0.330 C 
ATOM     19  O   UNL     1     106.186  82.476  16.935  1.00  0.00    -0.247 OA
BRANCH  18  20
ATOM     20  O   UNL     1     105.639  84.081  18.497  1.00  0.00    -0.466 OA
ATOM     21  C   UNL     1     104.809  85.019  17.823  1.00  0.00     0.282 C 
ENDBRANCH  18  20
ENDBRANCH  17  18
ENDBRANCH  15  16
ENDBRANCH  13  14
ENDBRANCH  12  13
ENDBRANCH  11  12
ENDBRANCH  10  11
ENDBRANCH   1  10
TORSDOF 15
ENDMDL
MODEL 9
REMARK VINA RESULT:    -2.789      1.220      2.307
REMARK INTER + INTRA:          -8.378
REMARK INTER:                  -5.622
REMARK INTRA:                  -2.756
REMARK UNBOUND:                -3.144
REMARK SMILES CCCCCCCCCCCCCC=CC=CC(=O)OC
REMARK SMILES IDX 9 1 8 2 7 3 6 4 5 5 4 6 3 7 2 8 1 9 10 10 11 11 12 12 13 13
REMARK SMILES IDX 14 14 15 15 16 16 17 17 18 18 19 19 20 20 21 21
REMARK H PARENT
REMARK Flexibility Score: inf
ROOT
ATOM      1  C   UNL     1     101.665  82.896  20.324  1.00  0.00     0.000 C 
ENDROOT
BRANCH   1   2
ATOM      2  C   UNL     1     102.239  83.137  21.732  1.00  0.00     0.000 C 
BRANCH   2   3
ATOM      3  C   UNL     1     102.928  84.505  21.865  1.00  0.00     0.000 C 
BRANCH   3   4
ATOM      4  C   UNL     1     104.451  84.418  21.674  1.00  0.00    -0.000 C 
BRANCH   4   5
ATOM      5  C   UNL     1     105.085  83.288  22.502  1.00  0.00    -0.000 C 
BRANCH   5   6
ATOM      6  C   UNL     1     104.868  83.467  24.015  1.00  0.00    -0.000 C 
BRANCH   6   7
ATOM      7  C   UNL     1     104.302  82.204  24.683  1.00  0.00    -0.000 C 
BRANCH   7   8
ATOM      8  C   UNL     1     103.817  82.462  26.116  1.00  0.00    -0.003 C 
ATOM      9  C   UNL     1     104.898  83.146  26.948  1.00  0.00     0.004 C 
ENDBRANCH   7   8
ENDBRANCH   6   7
ENDBRANCH   5   6
ENDBRANCH   4   5
ENDBRANCH   3   4
ENDBRANCH   2   3
ENDBRANCH   1   2
BRANCH   1  10
ATOM     10  C   UNL     1     102.246  81.641  19.648  1.00  0.00     0.000 C 
BRANCH  10  11
ATOM     11  C   UNL     1     103.287  80.876  20.486  1.00  0.00     0.000 C 
BRANCH  11  12
ATOM     12  C   UNL     1     104.647  80.746  19.780  1.00  0.00     0.004 C 
BRANCH  12  13
ATOM     13  C   UNL     1     104.682  81.503  18.446  1.00  0.00     0.027 C 
BRANCH  13  14
ATOM     14  C   UNL     1     105.662  82.649  18.484  1.00  0.00    -0.027 C 
ATOM     15  C   UNL     1     105.356  83.939  18.282  1.00  0.00    -0.004 C 
BRANCH  15  16
ATOM     16  C   UNL     1     104.003  84.428  17.934  1.00  0.00     0.007 C 
ATOM     17  C   UNL     1     103.468  84.372  16.705  1.00  0.00     0.093 C 
BRANCH  17  18
ATOM     18  C   UNL     1     104.170  83.982  15.466  1.00  0.00     0.330 C 
ATOM     19  O   UNL     1     104.180  82.784  15.069  1.00  0.00    -0.247 OA
BRANCH  18  20
ATOM     20  O   UNL     1     104.883  84.960  14.767  1.00  0.00    -0.466 OA
ATOM     21  C   UNL     1     106.299  85.069  14.831  1.00  0.00     0.282 C 
ENDBRANCH  18  20
ENDBRANCH  17  18
ENDBRANCH  15  16
ENDBRANCH  13  14
ENDBRANCH  12  13
ENDBRANCH  11  12
ENDBRANCH  10  11
ENDBRANCH   1  10
TORSDOF 15
ENDMDL
