MODEL 1
REMARK VINA RESULT:    -5.124      0.000      0.000
REMARK INTER + INTRA:          -5.274
REMARK INTER:                  -5.274
REMARK INTRA:                   0.000
REMARK UNBOUND:                 0.000
REMARK SMILES CC1(C)[C@@H]2CC[C@@](C)(C2)[C@H]1O
REMARK SMILES IDX 1 1 2 2 4 3 5 4 6 5 7 6 9 7 10 8 8 9 3 10 11 11
REMARK H PARENT 11 12
REMARK Flexibility Score: inf
ROOT
ATOM      1  C   UNL     1     117.944 120.436 119.597  1.00  0.00     0.014 C 
ATOM      2  C   UNL     1     119.262 119.840 119.046  1.00  0.00    -0.006 C 
ATOM      3  C   UNL     1     119.050 118.839 117.859  1.00  0.00    -0.002 C 
ATOM      4  C   UNL     1     117.953 117.803 118.187  1.00  0.00     0.005 C 
ATOM      5  C   UNL     1     118.601 116.963 119.298  1.00  0.00     0.010 C 
ATOM      6  C   UNL     1     120.026 117.555 119.387  1.00  0.00    -0.006 C 
ATOM      7  C   UNL     1     120.283 117.957 117.951  1.00  0.00     0.013 C 
ATOM      8  C   UNL     1     119.958 118.925 120.112  1.00  0.00     0.126 C 
ATOM      9  C   UNL     1     121.054 116.571 119.959  1.00  0.00     0.014 C 
ATOM     10  C   UNL     1     120.145 121.026 118.576  1.00  0.00     0.014 C 
ENDROOT
BRANCH   8  11
ATOM     11  O   UNL     1     121.250 119.377 120.439  1.00  0.00    -0.392 OA
ATOM     12  H   UNL     1     121.855 118.596 120.345  1.00  0.00     0.211 HD
ENDBRANCH   8  11
TORSDOF 1
ENDMDL
MODEL 2
REMARK VINA RESULT:    -5.090      1.615      2.697
REMARK INTER + INTRA:          -5.239
REMARK INTER:                  -5.239
REMARK INTRA:                   0.000
REMARK UNBOUND:                 0.000
REMARK SMILES CC1(C)[C@@H]2CC[C@@](C)(C2)[C@H]1O
REMARK SMILES IDX 1 1 2 2 4 3 5 4 6 5 7 6 9 7 10 8 8 9 3 10 11 11
REMARK H PARENT 11 12
REMARK Flexibility Score: inf
ROOT
ATOM      1  C   UNL     1     120.446 119.683 119.595  1.00  0.00     0.014 C 
ATOM      2  C   UNL     1     119.847 118.366 119.045  1.00  0.00    -0.006 C 
ATOM      3  C   UNL     1     118.832 118.583 117.871  1.00  0.00    -0.002 C 
ATOM      4  C   UNL     1     117.798 119.675 118.216  1.00  0.00     0.005 C 
ATOM      5  C   UNL     1     116.972 119.021 119.333  1.00  0.00     0.010 C 
ATOM      6  C   UNL     1     117.567 117.596 119.409  1.00  0.00    -0.006 C 
ATOM      7  C   UNL     1     117.954 117.347 117.968  1.00  0.00     0.013 C 
ATOM      8  C   UNL     1     118.946 117.664 120.119  1.00  0.00     0.126 C 
ATOM      9  C   UNL     1     116.592 116.563 119.988  1.00  0.00     0.014 C 
ATOM     10  C   UNL     1     121.030 117.489 118.557  1.00  0.00     0.014 C 
ENDROOT
BRANCH   8  11
ATOM     11  O   UNL     1     119.404 116.371 120.434  1.00  0.00    -0.392 OA
ATOM     12  H   UNL     1     120.288 116.268 119.994  1.00  0.00     0.211 HD
ENDBRANCH   8  11
TORSDOF 1
ENDMDL
MODEL 3
REMARK VINA RESULT:    -5.090      1.915      3.839
REMARK INTER + INTRA:          -5.239
REMARK INTER:                  -5.239
REMARK INTRA:                   0.000
REMARK UNBOUND:                 0.000
REMARK SMILES CC1(C)[C@@H]2CC[C@@](C)(C2)[C@H]1O
REMARK SMILES IDX 1 1 2 2 4 3 5 4 6 5 7 6 9 7 10 8 8 9 3 10 11 11
REMARK H PARENT 11 12
REMARK Flexibility Score: inf
ROOT
ATOM      1  C   UNL     1     119.668 117.204 119.590  1.00  0.00     0.014 C 
ATOM      2  C   UNL     1     118.336 117.786 119.057  1.00  0.00    -0.006 C 
ATOM      3  C   UNL     1     118.525 118.806 117.882  1.00  0.00    -0.002 C 
ATOM      4  C   UNL     1     119.606 119.855 118.217  1.00  0.00     0.005 C 
ATOM      5  C   UNL     1     118.953 120.670 119.343  1.00  0.00     0.010 C 
ATOM      6  C   UNL     1     117.538 120.054 119.434  1.00  0.00    -0.006 C 
ATOM      7  C   UNL     1     117.278 119.667 117.995  1.00  0.00     0.013 C 
ATOM      8  C   UNL     1     117.633 118.675 120.140  1.00  0.00     0.126 C 
ATOM      9  C   UNL     1     116.498 121.014 120.027  1.00  0.00     0.014 C 
ATOM     10  C   UNL     1     117.470 116.592 118.577  1.00  0.00     0.014 C 
ENDROOT
BRANCH   8  11
ATOM     11  O   UNL     1     116.351 118.198 120.469  1.00  0.00    -0.392 OA
ATOM     12  H   UNL     1     116.111 117.530 119.776  1.00  0.00     0.211 HD
ENDBRANCH   8  11
TORSDOF 1
ENDMDL
MODEL 4
REMARK VINA RESULT:    -5.090      1.640      2.743
REMARK INTER + INTRA:          -5.239
REMARK INTER:                  -5.239
REMARK INTRA:                   0.000
REMARK UNBOUND:                 0.000
REMARK SMILES CC1(C)[C@@H]2CC[C@@](C)(C2)[C@H]1O
REMARK SMILES IDX 1 1 2 2 4 3 5 4 6 5 7 6 9 7 10 8 8 9 3 10 11 11
REMARK H PARENT 11 12
REMARK Flexibility Score: inf
ROOT
ATOM      1  C   UNL     1     117.178 117.975 119.602  1.00  0.00     0.014 C 
ATOM      2  C   UNL     1     117.766 119.288 119.029  1.00  0.00    -0.006 C 
ATOM      3  C   UNL     1     118.787 119.060 117.862  1.00  0.00    -0.002 C 
ATOM      4  C   UNL     1     119.831 117.985 118.231  1.00  0.00     0.005 C 
ATOM      5  C   UNL     1     120.647 118.669 119.338  1.00  0.00     0.010 C 
ATOM      6  C   UNL     1     120.036 120.089 119.386  1.00  0.00    -0.006 C 
ATOM      7  C   UNL     1     119.652 120.306 117.939  1.00  0.00     0.013 C 
ATOM      8  C   UNL     1     118.656 120.020 120.092  1.00  0.00     0.126 C 
ATOM      9  C   UNL     1     120.999 121.142 119.948  1.00  0.00     0.014 C 
ATOM     10  C   UNL     1     116.576 120.144 118.521  1.00  0.00     0.014 C 
ENDROOT
BRANCH   8  11
ATOM     11  O   UNL     1     118.184 121.313 120.381  1.00  0.00    -0.392 OA
ATOM     12  H   UNL     1     117.572 121.564 119.641  1.00  0.00     0.211 HD
ENDBRANCH   8  11
TORSDOF 1
ENDMDL
MODEL 5
REMARK VINA RESULT:    -5.085      1.640      3.292
REMARK INTER + INTRA:          -5.234
REMARK INTER:                  -5.234
REMARK INTRA:                   0.000
REMARK UNBOUND:                 0.000
REMARK SMILES CC1(C)[C@@H]2CC[C@@](C)(C2)[C@H]1O
REMARK SMILES IDX 1 1 2 2 4 3 5 4 6 5 7 6 9 7 10 8 8 9 3 10 11 11
REMARK H PARENT 11 12
REMARK Flexibility Score: inf
ROOT
ATOM      1  C   UNL     1     118.547 116.380 119.716  1.00  0.00     0.014 C 
ATOM      2  C   UNL     1     117.845 117.750 119.551  1.00  0.00    -0.006 C 
ATOM      3  C   UNL     1     117.768 118.239 118.064  1.00  0.00    -0.002 C 
ATOM      4  C   UNL     1     119.137 118.120 117.362  1.00  0.00     0.005 C 
ATOM      5  C   UNL     1     119.982 119.182 118.081  1.00  0.00     0.010 C 
ATOM      6  C   UNL     1     118.958 119.850 119.028  1.00  0.00    -0.006 C 
ATOM      7  C   UNL     1     117.682 119.747 118.221  1.00  0.00     0.013 C 
ATOM      8  C   UNL     1     118.678 118.896 120.220  1.00  0.00     0.126 C 
ATOM      9  C   UNL     1     119.342 121.282 119.421  1.00  0.00     0.014 C 
ATOM     10  C   UNL     1     116.411 117.607 120.127  1.00  0.00     0.014 C 
ENDROOT
BRANCH   8  11
ATOM     11  O   UNL     1     117.954 119.562 121.226  1.00  0.00    -0.392 OA
ATOM     12  H   UNL     1     117.694 118.874 121.892  1.00  0.00     0.211 HD
ENDBRANCH   8  11
TORSDOF 1
ENDMDL
MODEL 6
REMARK VINA RESULT:    -5.062      1.853      2.992
REMARK INTER + INTRA:          -5.210
REMARK INTER:                  -5.210
REMARK INTRA:                   0.000
REMARK UNBOUND:                 0.000
REMARK SMILES CC1(C)[C@@H]2CC[C@@](C)(C2)[C@H]1O
REMARK SMILES IDX 1 1 2 2 4 3 5 4 6 5 7 6 9 7 10 8 8 9 3 10 11 11
REMARK H PARENT 11 12
REMARK Flexibility Score: inf
ROOT
ATOM      1  C   UNL     1     120.582 121.814 118.665  1.00  0.00     0.014 C 
ATOM      2  C   UNL     1     119.965 120.683 119.523  1.00  0.00    -0.006 C 
ATOM      3  C   UNL     1     119.969 119.286 118.813  1.00  0.00    -0.002 C 
ATOM      4  C   UNL     1     119.419 119.385 117.374  1.00  0.00     0.005 C 
ATOM      5  C   UNL     1     117.934 119.708 117.599  1.00  0.00     0.010 C 
ATOM      6  C   UNL     1     117.799 119.642 119.138  1.00  0.00    -0.006 C 
ATOM      7  C   UNL     1     118.810 118.573 119.489  1.00  0.00     0.013 C 
ATOM      8  C   UNL     1     118.433 120.919 119.754  1.00  0.00     0.126 C 
ATOM      9  C   UNL     1     116.371 119.339 119.607  1.00  0.00     0.014 C 
ATOM     10  C   UNL     1     120.785 120.601 120.838  1.00  0.00     0.014 C 
ENDROOT
BRANCH   8  11
ATOM     11  O   UNL     1     118.110 121.021 121.119  1.00  0.00    -0.392 OA
ATOM     12  H   UNL     1     118.874 120.635 121.621  1.00  0.00     0.211 HD
ENDBRANCH   8  11
TORSDOF 1
ENDMDL
MODEL 7
REMARK VINA RESULT:    -5.039      1.634      3.309
REMARK INTER + INTRA:          -5.186
REMARK INTER:                  -5.186
REMARK INTRA:                   0.000
REMARK UNBOUND:                 0.000
REMARK SMILES CC1(C)[C@@H]2CC[C@@](C)(C2)[C@H]1O
REMARK SMILES IDX 1 1 2 2 4 3 5 4 6 5 7 6 9 7 10 8 8 9 3 10 11 11
REMARK H PARENT 11 12
REMARK Flexibility Score: inf
ROOT
ATOM      1  C   UNL     1     121.117 118.336 119.356  1.00  0.00     0.014 C 
ATOM      2  C   UNL     1     119.629 117.930 119.484  1.00  0.00    -0.006 C 
ATOM      3  C   UNL     1     118.980 117.496 118.126  1.00  0.00    -0.002 C 
ATOM      4  C   UNL     1     119.282 118.516 117.007  1.00  0.00     0.005 C 
ATOM      5  C   UNL     1     118.483 119.752 117.448  1.00  0.00     0.010 C 
ATOM      6  C   UNL     1     117.737 119.246 118.704  1.00  0.00    -0.006 C 
ATOM      7  C   UNL     1     117.508 117.790 118.360  1.00  0.00     0.013 C 
ATOM      8  C   UNL     1     118.740 119.157 119.885  1.00  0.00     0.126 C 
ATOM      9  C   UNL     1     116.454 120.032 119.003  1.00  0.00     0.014 C 
ATOM     10  C   UNL     1     119.557 116.755 120.495  1.00  0.00     0.014 C 
ENDROOT
BRANCH   8  11
ATOM     11  O   UNL     1     118.059 118.947 121.098  1.00  0.00    -0.392 OA
ATOM     12  H   UNL     1     118.633 118.351 121.646  1.00  0.00     0.211 HD
ENDBRANCH   8  11
TORSDOF 1
ENDMDL
MODEL 8
REMARK VINA RESULT:    -5.029      1.107      3.194
REMARK INTER + INTRA:          -5.176
REMARK INTER:                  -5.176
REMARK INTRA:                   0.000
REMARK UNBOUND:                 0.000
REMARK SMILES CC1(C)[C@@H]2CC[C@@](C)(C2)[C@H]1O
REMARK SMILES IDX 1 1 2 2 4 3 5 4 6 5 7 6 9 7 10 8 8 9 3 10 11 11
REMARK H PARENT 11 12
REMARK Flexibility Score: inf
ROOT
ATOM      1  C   UNL     1     121.863 116.978 118.760  1.00  0.00     0.014 C 
ATOM      2  C   UNL     1     120.756 117.628 119.625  1.00  0.00    -0.006 C 
ATOM      3  C   UNL     1     119.334 117.572 118.969  1.00  0.00    -0.002 C 
ATOM      4  C   UNL     1     119.374 118.044 117.500  1.00  0.00     0.005 C 
ATOM      5  C   UNL     1     119.686 119.542 117.632  1.00  0.00     0.010 C 
ATOM      6  C   UNL     1     119.675 119.759 119.163  1.00  0.00    -0.006 C 
ATOM      7  C   UNL     1     118.633 118.757 119.608  1.00  0.00     0.013 C 
ATOM      8  C   UNL     1     120.981 119.173 119.764  1.00  0.00     0.126 C 
ATOM      9  C   UNL     1     119.371 121.207 119.567  1.00  0.00     0.014 C 
ATOM     10  C   UNL     1     120.733 116.879 120.984  1.00  0.00     0.014 C 
ENDROOT
BRANCH   8  11
ATOM     11  O   UNL     1     121.130 119.570 121.105  1.00  0.00    -0.392 OA
ATOM     12  H   UNL     1     120.430 120.252 121.279  1.00  0.00     0.211 HD
ENDBRANCH   8  11
TORSDOF 1
ENDMDL
MODEL 9
REMARK VINA RESULT:    -4.921      1.928      3.413
REMARK INTER + INTRA:          -5.065
REMARK INTER:                  -5.065
REMARK INTRA:                   0.000
REMARK UNBOUND:                 0.000
REMARK SMILES CC1(C)[C@@H]2CC[C@@](C)(C2)[C@H]1O
REMARK SMILES IDX 1 1 2 2 4 3 5 4 6 5 7 6 9 7 10 8 8 9 3 10 11 11
REMARK H PARENT 11 12
REMARK Flexibility Score: inf
ROOT
ATOM      1  C   UNL     1     118.146 118.702 120.969  1.00  0.00     0.014 C 
ATOM      2  C   UNL     1     118.736 117.903 119.782  1.00  0.00    -0.006 C 
ATOM      3  C   UNL     1     120.213 118.296 119.435  1.00  0.00    -0.002 C 
ATOM      4  C   UNL     1     120.379 119.827 119.336  1.00  0.00     0.005 C 
ATOM      5  C   UNL     1     119.574 120.176 118.075  1.00  0.00     0.010 C 
ATOM      6  C   UNL     1     119.142 118.787 117.551  1.00  0.00    -0.006 C 
ATOM      7  C   UNL     1     120.314 117.924 117.966  1.00  0.00     0.013 C 
ATOM      8  C   UNL     1     117.994 118.246 118.444  1.00  0.00     0.126 C 
ATOM      9  C   UNL     1     118.851 118.773 116.045  1.00  0.00     0.014 C 
ATOM     10  C   UNL     1     118.672 116.399 120.159  1.00  0.00     0.014 C 
ENDROOT
BRANCH   8  11
ATOM     11  O   UNL     1     117.404 117.111 117.858  1.00  0.00    -0.392 OA
ATOM     12  H   UNL     1     116.743 116.765 118.512  1.00  0.00     0.211 HD
ENDBRANCH   8  11
TORSDOF 1
ENDMDL
