MODEL 1
REMARK VINA RESULT:    -3.995      0.000      0.000
REMARK INTER + INTRA:          -6.626
REMARK INTER:                  -6.097
REMARK INTRA:                  -0.529
REMARK UNBOUND:                -0.529
REMARK SMILES O=C([O-])CCCCCCCCC(=O)[O-]
REMARK SMILES IDX 7 1 6 2 5 3 4 4 2 5 1 6 3 7 8 8 9 9 10 10 11 11 12 12 13 13
REMARK SMILES IDX 14 14
REMARK H PARENT
REMARK Flexibility Score: inf
ROOT
ATOM      1  C   UNL     1      45.313  26.240   3.621  1.00  0.00     0.000 C 
ENDROOT
BRANCH   1   2
ATOM      2  C   UNL     1      45.869  27.355   2.727  1.00  0.00     0.000 C 
BRANCH   2   3
ATOM      3  C   UNL     1      44.842  27.773   1.665  1.00  0.00     0.006 C 
BRANCH   3   4
ATOM      4  C   UNL     1      43.439  27.234   1.970  1.00  0.00     0.053 C 
BRANCH   4   5
ATOM      5  C   UNL     1      42.490  28.333   2.341  1.00  0.00     0.041 C 
ATOM      6  O   UNL     1      41.297  28.068   2.639  1.00  0.00    -0.550 OA
ATOM      7  O   UNL     1      42.919  29.655   2.325  1.00  0.00    -0.550 OA
ENDBRANCH   4   5
ENDBRANCH   3   4
ENDBRANCH   2   3
ENDBRANCH   1   2
BRANCH   1   8
ATOM      8  C   UNL     1      45.873  26.348   5.048  1.00  0.00     0.000 C 
BRANCH   8   9
ATOM      9  C   UNL     1      46.251  27.787   5.430  1.00  0.00     0.000 C 
BRANCH   9  10
ATOM     10  C   UNL     1      46.267  28.012   6.952  1.00  0.00     0.006 C 
BRANCH  10  11
ATOM     11  C   UNL     1      46.294  26.692   7.732  1.00  0.00     0.053 C 
BRANCH  11  12
ATOM     12  C   UNL     1      45.650  26.827   9.077  1.00  0.00     0.041 C 
ATOM     13  O   UNL     1      45.617  25.847   9.867  1.00  0.00    -0.550 OA
ATOM     14  O   UNL     1      45.059  28.029   9.447  1.00  0.00    -0.550 OA
ENDBRANCH  11  12
ENDBRANCH  10  11
ENDBRANCH   9  10
ENDBRANCH   8   9
ENDBRANCH   1   8
TORSDOF 9
ENDMDL
MODEL 2
REMARK VINA RESULT:    -3.940      1.528      7.017
REMARK INTER + INTRA:          -6.541
REMARK INTER:                  -6.123
REMARK INTRA:                  -0.418
REMARK UNBOUND:                -0.529
REMARK SMILES O=C([O-])CCCCCCCCC(=O)[O-]
REMARK SMILES IDX 7 1 6 2 5 3 4 4 2 5 1 6 3 7 8 8 9 9 10 10 11 11 12 12 13 13
REMARK SMILES IDX 14 14
REMARK H PARENT
REMARK Flexibility Score: inf
ROOT
ATOM      1  C   UNL     1      46.686  27.911   7.260  1.00  0.00     0.000 C 
ENDROOT
BRANCH   1   2
ATOM      2  C   UNL     1      45.671  28.848   7.926  1.00  0.00     0.000 C 
BRANCH   2   3
ATOM      3  C   UNL     1      45.230  28.301   9.292  1.00  0.00     0.006 C 
BRANCH   3   4
ATOM      4  C   UNL     1      45.414  26.782   9.396  1.00  0.00     0.053 C 
BRANCH   4   5
ATOM      5  C   UNL     1      46.361  26.411  10.496  1.00  0.00     0.041 C 
ATOM      6  O   UNL     1      47.044  27.299  11.072  1.00  0.00    -0.550 OA
ATOM      7  O   UNL     1      46.512  25.079  10.862  1.00  0.00    -0.550 OA
ENDBRANCH   4   5
ENDBRANCH   3   4
ENDBRANCH   2   3
ENDBRANCH   1   2
BRANCH   1   8
ATOM      8  C   UNL     1      46.424  27.799   5.750  1.00  0.00     0.000 C 
BRANCH   8   9
ATOM      9  C   UNL     1      46.410  26.344   5.257  1.00  0.00     0.000 C 
BRANCH   9  10
ATOM     10  C   UNL     1      45.490  26.139   4.041  1.00  0.00     0.006 C 
BRANCH  10  11
ATOM     11  C   UNL     1      45.443  27.376   3.135  1.00  0.00     0.053 C 
BRANCH  11  12
ATOM     12  C   UNL     1      44.308  27.308   2.160  1.00  0.00     0.041 C 
ATOM     13  O   UNL     1      43.121  27.442   2.557  1.00  0.00    -0.550 OA
ATOM     14  O   UNL     1      44.560  27.067   0.815  1.00  0.00    -0.550 OA
ENDBRANCH  11  12
ENDBRANCH  10  11
ENDBRANCH   9  10
ENDBRANCH   8   9
ENDBRANCH   1   8
TORSDOF 9
ENDMDL
MODEL 3
REMARK VINA RESULT:    -3.861      0.269      6.233
REMARK INTER + INTRA:          -6.421
REMARK INTER:                  -5.900
REMARK INTRA:                  -0.522
REMARK UNBOUND:                -0.529
REMARK SMILES O=C([O-])CCCCCCCCC(=O)[O-]
REMARK SMILES IDX 7 1 6 2 5 3 4 4 2 5 1 6 3 7 8 8 9 9 10 10 11 11 12 12 13 13
REMARK SMILES IDX 14 14
REMARK H PARENT
REMARK Flexibility Score: inf
ROOT
ATOM      1  C   UNL     1      45.834  26.108   5.048  1.00  0.00     0.000 C 
ENDROOT
BRANCH   1   2
ATOM      2  C   UNL     1      46.615  27.365   5.451  1.00  0.00     0.000 C 
BRANCH   2   3
ATOM      3  C   UNL     1      46.329  27.747   6.911  1.00  0.00     0.006 C 
BRANCH   3   4
ATOM      4  C   UNL     1      46.003  26.525   7.778  1.00  0.00     0.053 C 
BRANCH   4   5
ATOM      5  C   UNL     1      45.560  26.922   9.153  1.00  0.00     0.041 C 
ATOM      6  O   UNL     1      45.741  26.145  10.127  1.00  0.00    -0.550 OA
ATOM      7  O   UNL     1      44.917  28.137   9.352  1.00  0.00    -0.550 OA
ENDBRANCH   4   5
ENDBRANCH   3   4
ENDBRANCH   2   3
ENDBRANCH   1   2
BRANCH   1   8
ATOM      8  C   UNL     1      45.432  26.161   3.567  1.00  0.00     0.000 C 
BRANCH   8   9
ATOM      9  C   UNL     1      45.804  27.494   2.899  1.00  0.00     0.000 C 
BRANCH   9  10
ATOM     10  C   UNL     1      44.806  27.907   1.803  1.00  0.00     0.006 C 
BRANCH  10  11
ATOM     11  C   UNL     1      43.423  27.276   2.012  1.00  0.00     0.053 C 
BRANCH  11  12
ATOM     12  C   UNL     1      42.395  28.299   2.384  1.00  0.00     0.041 C 
ATOM     13  O   UNL     1      41.197  27.958   2.568  1.00  0.00    -0.550 OA
ATOM     14  O   UNL     1      42.755  29.636   2.497  1.00  0.00    -0.550 OA
ENDBRANCH  11  12
ENDBRANCH  10  11
ENDBRANCH   9  10
ENDBRANCH   8   9
ENDBRANCH   1   8
TORSDOF 9
ENDMDL
MODEL 4
REMARK VINA RESULT:    -3.857      1.686      2.415
REMARK INTER + INTRA:          -6.415
REMARK INTER:                  -5.971
REMARK INTRA:                  -0.444
REMARK UNBOUND:                -0.529
REMARK SMILES O=C([O-])CCCCCCCCC(=O)[O-]
REMARK SMILES IDX 7 1 6 2 5 3 4 4 2 5 1 6 3 7 8 8 9 9 10 10 11 11 12 12 13 13
REMARK SMILES IDX 14 14
REMARK H PARENT
REMARK Flexibility Score: inf
ROOT
ATOM      1  C   UNL     1      46.253  26.392   5.393  1.00  0.00     0.000 C 
ENDROOT
BRANCH   1   2
ATOM      2  C   UNL     1      45.560  26.547   4.034  1.00  0.00     0.000 C 
BRANCH   2   3
ATOM      3  C   UNL     1      45.865  27.917   3.412  1.00  0.00     0.006 C 
BRANCH   3   4
ATOM      4  C   UNL     1      44.738  28.402   2.491  1.00  0.00     0.053 C 
BRANCH   4   5
ATOM      5  C   UNL     1      44.534  27.479   1.329  1.00  0.00     0.041 C 
ATOM      6  O   UNL     1      45.350  27.477   0.370  1.00  0.00    -0.550 OA
ATOM      7  O   UNL     1      43.424  26.644   1.291  1.00  0.00    -0.550 OA
ENDBRANCH   4   5
ENDBRANCH   3   4
ENDBRANCH   2   3
ENDBRANCH   1   2
BRANCH   1   8
ATOM      8  C   UNL     1      46.660  27.760   5.962  1.00  0.00     0.000 C 
BRANCH   8   9
ATOM      9  C   UNL     1      46.242  27.941   7.429  1.00  0.00     0.000 C 
BRANCH   9  10
ATOM     10  C   UNL     1      45.892  26.608   8.114  1.00  0.00     0.006 C 
BRANCH  10  11
ATOM     11  C   UNL     1      45.430  26.805   9.563  1.00  0.00     0.053 C 
BRANCH  11  12
ATOM     12  C   UNL     1      46.397  26.210  10.540  1.00  0.00     0.041 C 
ATOM     13  O   UNL     1      46.759  25.010  10.425  1.00  0.00    -0.550 OA
ATOM     14  O   UNL     1      46.877  26.975  11.596  1.00  0.00    -0.550 OA
ENDBRANCH  11  12
ENDBRANCH  10  11
ENDBRANCH   9  10
ENDBRANCH   8   9
ENDBRANCH   1   8
TORSDOF 9
ENDMDL
MODEL 5
REMARK VINA RESULT:    -3.766      1.343      6.581
REMARK INTER + INTRA:          -6.277
REMARK INTER:                  -5.778
REMARK INTRA:                  -0.499
REMARK UNBOUND:                -0.529
REMARK SMILES O=C([O-])CCCCCCCCC(=O)[O-]
REMARK SMILES IDX 7 1 6 2 5 3 4 4 2 5 1 6 3 7 8 8 9 9 10 10 11 11 12 12 13 13
REMARK SMILES IDX 14 14
REMARK H PARENT
REMARK Flexibility Score: inf
ROOT
ATOM      1  C   UNL     1      47.063  27.869   6.387  1.00  0.00     0.000 C 
ENDROOT
BRANCH   1   2
ATOM      2  C   UNL     1      45.999  28.796   6.989  1.00  0.00     0.000 C 
BRANCH   2   3
ATOM      3  C   UNL     1      46.265  29.044   8.481  1.00  0.00     0.006 C 
BRANCH   3   4
ATOM      4  C   UNL     1      45.202  28.396   9.376  1.00  0.00     0.053 C 
BRANCH   4   5
ATOM      5  C   UNL     1      45.648  27.062   9.892  1.00  0.00     0.041 C 
ATOM      6  O   UNL     1      45.251  26.002   9.339  1.00  0.00    -0.550 OA
ATOM      7  O   UNL     1      46.476  26.990  11.006  1.00  0.00    -0.550 OA
ENDBRANCH   4   5
ENDBRANCH   3   4
ENDBRANCH   2   3
ENDBRANCH   1   2
BRANCH   1   8
ATOM      8  C   UNL     1      46.429  26.571   5.863  1.00  0.00     0.000 C 
BRANCH   8   9
ATOM      9  C   UNL     1      46.559  26.421   4.340  1.00  0.00     0.000 C 
BRANCH   9  10
ATOM     10  C   UNL     1      45.195  26.306   3.637  1.00  0.00     0.006 C 
BRANCH  10  11
ATOM     11  C   UNL     1      44.871  27.547   2.795  1.00  0.00     0.053 C 
BRANCH  11  12
ATOM     12  C   UNL     1      43.530  27.439   2.138  1.00  0.00     0.041 C 
ATOM     13  O   UNL     1      43.374  26.700   1.131  1.00  0.00    -0.550 OA
ATOM     14  O   UNL     1      42.458  28.178   2.622  1.00  0.00    -0.550 OA
ENDBRANCH  11  12
ENDBRANCH  10  11
ENDBRANCH   9  10
ENDBRANCH   8   9
ENDBRANCH   1   8
TORSDOF 9
ENDMDL
MODEL 6
REMARK VINA RESULT:    -3.740      1.522      2.409
REMARK INTER + INTRA:          -6.237
REMARK INTER:                  -5.712
REMARK INTRA:                  -0.525
REMARK UNBOUND:                -0.529
REMARK SMILES O=C([O-])CCCCCCCCC(=O)[O-]
REMARK SMILES IDX 7 1 6 2 5 3 4 4 2 5 1 6 3 7 8 8 9 9 10 10 11 11 12 12 13 13
REMARK SMILES IDX 14 14
REMARK H PARENT
REMARK Flexibility Score: inf
ROOT
ATOM      1  C   UNL     1      46.139  26.789   6.084  1.00  0.00     0.000 C 
ENDROOT
BRANCH   1   2
ATOM      2  C   UNL     1      47.001  26.146   4.990  1.00  0.00     0.000 C 
BRANCH   2   3
ATOM      3  C   UNL     1      46.388  26.374   3.601  1.00  0.00     0.006 C 
BRANCH   3   4
ATOM      4  C   UNL     1      44.855  26.399   3.639  1.00  0.00     0.053 C 
BRANCH   4   5
ATOM      5  C   UNL     1      44.281  27.106   2.449  1.00  0.00     0.041 C 
ATOM      6  O   UNL     1      43.122  27.593   2.498  1.00  0.00    -0.550 OA
ATOM      7  O   UNL     1      45.017  27.196   1.274  1.00  0.00    -0.550 OA
ENDBRANCH   4   5
ENDBRANCH   3   4
ENDBRANCH   2   3
ENDBRANCH   1   2
BRANCH   1   8
ATOM      8  C   UNL     1      46.906  27.912   6.799  1.00  0.00     0.000 C 
BRANCH   8   9
ATOM      9  C   UNL     1      45.978  29.004   7.353  1.00  0.00     0.000 C 
BRANCH   9  10
ATOM     10  C   UNL     1      45.276  28.581   8.655  1.00  0.00     0.006 C 
BRANCH  10  11
ATOM     11  C   UNL     1      46.272  28.121   9.727  1.00  0.00     0.053 C 
BRANCH  11  12
ATOM     12  C   UNL     1      46.033  26.700  10.135  1.00  0.00     0.041 C 
ATOM     13  O   UNL     1      45.263  25.967   9.461  1.00  0.00    -0.550 OA
ATOM     14  O   UNL     1      46.639  26.194  11.278  1.00  0.00    -0.550 OA
ENDBRANCH  11  12
ENDBRANCH  10  11
ENDBRANCH   9  10
ENDBRANCH   8   9
ENDBRANCH   1   8
TORSDOF 9
ENDMDL
MODEL 7
REMARK VINA RESULT:    -3.702      2.272      2.500
REMARK INTER + INTRA:          -6.178
REMARK INTER:                  -5.650
REMARK INTRA:                  -0.528
REMARK UNBOUND:                -0.529
REMARK SMILES O=C([O-])CCCCCCCCC(=O)[O-]
REMARK SMILES IDX 7 1 6 2 5 3 4 4 2 5 1 6 3 7 8 8 9 9 10 10 11 11 12 12 13 13
REMARK SMILES IDX 14 14
REMARK H PARENT
REMARK Flexibility Score: inf
ROOT
ATOM      1  C   UNL     1      45.252  25.932   3.849  1.00  0.00     0.000 C 
ENDROOT
BRANCH   1   2
ATOM      2  C   UNL     1      44.264  26.817   3.079  1.00  0.00     0.000 C 
BRANCH   2   3
ATOM      3  C   UNL     1      44.864  28.203   2.803  1.00  0.00     0.006 C 
BRANCH   3   4
ATOM      4  C   UNL     1      44.825  28.567   1.314  1.00  0.00     0.053 C 
BRANCH   4   5
ATOM      5  C   UNL     1      46.022  28.041   0.582  1.00  0.00     0.041 C 
ATOM      6  O   UNL     1      47.050  27.687   1.217  1.00  0.00    -0.550 OA
ATOM      7  O   UNL     1      46.012  27.972  -0.806  1.00  0.00    -0.550 OA
ENDBRANCH   4   5
ENDBRANCH   3   4
ENDBRANCH   2   3
ENDBRANCH   1   2
BRANCH   1   8
ATOM      8  C   UNL     1      46.298  26.785   4.583  1.00  0.00     0.000 C 
BRANCH   8   9
ATOM      9  C   UNL     1      46.276  26.572   6.104  1.00  0.00     0.000 C 
BRANCH   9  10
ATOM     10  C   UNL     1      46.370  27.892   6.889  1.00  0.00     0.006 C 
BRANCH  10  11
ATOM     11  C   UNL     1      46.721  27.665   8.365  1.00  0.00     0.053 C 
BRANCH  11  12
ATOM     12  C   UNL     1      45.495  27.489   9.207  1.00  0.00     0.041 C 
ATOM     13  O   UNL     1      45.112  26.336   9.538  1.00  0.00    -0.550 OA
ATOM     14  O   UNL     1      44.759  28.598   9.603  1.00  0.00    -0.550 OA
ENDBRANCH  11  12
ENDBRANCH  10  11
ENDBRANCH   9  10
ENDBRANCH   8   9
ENDBRANCH   1   8
TORSDOF 9
ENDMDL
MODEL 8
REMARK VINA RESULT:    -3.684      1.947      6.477
REMARK INTER + INTRA:          -6.151
REMARK INTER:                  -5.762
REMARK INTRA:                  -0.389
REMARK UNBOUND:                -0.529
REMARK SMILES O=C([O-])CCCCCCCCC(=O)[O-]
REMARK SMILES IDX 7 1 6 2 5 3 4 4 2 5 1 6 3 7 8 8 9 9 10 10 11 11 12 12 13 13
REMARK SMILES IDX 14 14
REMARK H PARENT
REMARK Flexibility Score: inf
ROOT
ATOM      1  C   UNL     1      46.935  26.996   6.391  1.00  0.00     0.000 C 
ENDROOT
BRANCH   1   2
ATOM      2  C   UNL     1      46.082  26.540   7.581  1.00  0.00     0.000 C 
BRANCH   2   3
ATOM      3  C   UNL     1      46.389  27.375   8.832  1.00  0.00     0.006 C 
BRANCH   3   4
ATOM      4  C   UNL     1      45.117  27.926   9.490  1.00  0.00     0.053 C 
BRANCH   4   5
ATOM      5  C   UNL     1      44.974  29.402   9.270  1.00  0.00     0.041 C 
ATOM      6  O   UNL     1      44.422  30.122  10.143  1.00  0.00    -0.550 OA
ATOM      7  O   UNL     1      45.421  29.974   8.086  1.00  0.00    -0.550 OA
ENDBRANCH   4   5
ENDBRANCH   3   4
ENDBRANCH   2   3
ENDBRANCH   1   2
BRANCH   1   8
ATOM      8  C   UNL     1      46.596  26.189   5.129  1.00  0.00     0.000 C 
BRANCH   8   9
ATOM      9  C   UNL     1      45.899  27.035   4.053  1.00  0.00     0.000 C 
BRANCH   9  10
ATOM     10  C   UNL     1      44.735  26.291   3.376  1.00  0.00     0.006 C 
BRANCH  10  11
ATOM     11  C   UNL     1      43.790  27.246   2.634  1.00  0.00     0.053 C 
BRANCH  11  12
ATOM     12  C   UNL     1      44.510  28.038   1.587  1.00  0.00     0.041 C 
ATOM     13  O   UNL     1      44.602  29.290   1.689  1.00  0.00    -0.550 OA
ATOM     14  O   UNL     1      45.054  27.396   0.482  1.00  0.00    -0.550 OA
ENDBRANCH  11  12
ENDBRANCH  10  11
ENDBRANCH   9  10
ENDBRANCH   8   9
ENDBRANCH   1   8
TORSDOF 9
ENDMDL
MODEL 9
REMARK VINA RESULT:    -3.421      5.582      7.864
REMARK INTER + INTRA:          -5.749
REMARK INTER:                  -5.189
REMARK INTRA:                  -0.560
REMARK UNBOUND:                -0.529
REMARK SMILES O=C([O-])CCCCCCCCC(=O)[O-]
REMARK SMILES IDX 7 1 6 2 5 3 4 4 2 5 1 6 3 7 8 8 9 9 10 10 11 11 12 12 13 13
REMARK SMILES IDX 14 14
REMARK H PARENT
REMARK Flexibility Score: inf
ROOT
ATOM      1  C   UNL     1      45.694  27.473  -3.384  1.00  0.00     0.000 C 
ENDROOT
BRANCH   1   2
ATOM      2  C   UNL     1      45.694  26.882  -4.799  1.00  0.00     0.000 C 
BRANCH   2   3
ATOM      3  C   UNL     1      44.860  27.745  -5.757  1.00  0.00     0.006 C 
BRANCH   3   4
ATOM      4  C   UNL     1      43.355  27.493  -5.605  1.00  0.00     0.053 C 
BRANCH   4   5
ATOM      5  C   UNL     1      42.590  28.772  -5.449  1.00  0.00     0.041 C 
ATOM      6  O   UNL     1      41.449  28.896  -5.967  1.00  0.00    -0.550 OA
ATOM      7  O   UNL     1      43.154  29.838  -4.760  1.00  0.00    -0.550 OA
ENDBRANCH   4   5
ENDBRANCH   3   4
ENDBRANCH   2   3
ENDBRANCH   1   2
BRANCH   1   8
ATOM      8  C   UNL     1      46.369  28.853  -3.364  1.00  0.00     0.000 C 
BRANCH   8   9
ATOM      9  C   UNL     1      46.079  29.636  -2.074  1.00  0.00     0.000 C 
BRANCH   9  10
ATOM     10  C   UNL     1      46.347  28.807  -0.806  1.00  0.00     0.006 C 
BRANCH  10  11
ATOM     11  C   UNL     1      45.629  29.380   0.423  1.00  0.00     0.053 C 
BRANCH  11  12
ATOM     12  C   UNL     1      44.915  28.315   1.197  1.00  0.00     0.041 C 
ATOM     13  O   UNL     1      44.890  27.130   0.772  1.00  0.00    -0.550 OA
ATOM     14  O   UNL     1      44.250  28.638   2.374  1.00  0.00    -0.550 OA
ENDBRANCH  11  12
ENDBRANCH  10  11
ENDBRANCH   9  10
ENDBRANCH   8   9
ENDBRANCH   1   8
TORSDOF 9
ENDMDL
