MODEL 1
REMARK VINA RESULT:    -2.758      0.000      0.000
REMARK INTER + INTRA:          -3.013
REMARK INTER:                  -3.000
REMARK INTRA:                  -0.012
REMARK UNBOUND:                -0.012
REMARK SMILES OCc1ccco1
REMARK SMILES IDX 2 1 3 2 5 3 6 4 4 5 7 6 1 7
REMARK H PARENT 1 8
REMARK Flexibility Score: inf
ROOT
ATOM      1  C   UNL     1     -21.472  28.378 -21.025  1.00  0.00     0.231 C 
ENDROOT
BRANCH   1   2
ATOM      2  C   UNL     1     -22.787  29.043 -20.777  1.00  0.00     0.129 A 
ATOM      3  C   UNL     1     -24.729  30.029 -21.063  1.00  0.00     0.042 A 
ATOM      4  C   UNL     1     -24.482  29.795 -19.725  1.00  0.00     0.195 A 
ATOM      5  C   UNL     1     -23.636  29.541 -21.746  1.00  0.00     0.048 A 
ATOM      6  O   UNL     1     -23.319  29.203 -19.586  1.00  0.00    -0.467 OA
ENDBRANCH   1   2
BRANCH   1   7
ATOM      7  O   UNL     1     -20.502  29.336 -21.349  1.00  0.00    -0.388 OA
ATOM      8  H   UNL     1     -19.629  28.862 -21.366  1.00  0.00     0.211 HD
ENDBRANCH   1   7
TORSDOF 2
ENDMDL
MODEL 2
REMARK VINA RESULT:    -2.749     15.327     16.335
REMARK INTER + INTRA:          -3.002
REMARK INTER:                  -2.989
REMARK INTRA:                  -0.013
REMARK UNBOUND:                -0.012
REMARK SMILES OCc1ccco1
REMARK SMILES IDX 2 1 3 2 5 3 6 4 4 5 7 6 1 7
REMARK H PARENT 1 8
REMARK Flexibility Score: inf
ROOT
ATOM      1  C   UNL     1     -21.322  14.554 -21.610  1.00  0.00     0.231 C 
ENDROOT
BRANCH   1   2
ATOM      2  C   UNL     1     -20.910  13.844 -22.859  1.00  0.00     0.129 A 
ATOM      3  C   UNL     1     -20.950  12.762 -24.770  1.00  0.00     0.042 A 
ATOM      4  C   UNL     1     -19.656  13.070 -24.399  1.00  0.00     0.195 A 
ATOM      5  C   UNL     1     -21.762  13.265 -23.778  1.00  0.00     0.048 A 
ATOM      6  O   UNL     1     -19.664  13.718 -23.257  1.00  0.00    -0.467 OA
ENDBRANCH   1   2
BRANCH   1   7
ATOM      7  O   UNL     1     -21.345  13.657 -20.533  1.00  0.00    -0.388 OA
ATOM      8  H   UNL     1     -22.177  13.847 -20.024  1.00  0.00     0.211 HD
ENDBRANCH   1   7
TORSDOF 2
ENDMDL
MODEL 3
REMARK VINA RESULT:    -2.660      1.323      3.025
REMARK INTER + INTRA:          -2.905
REMARK INTER:                  -2.892
REMARK INTRA:                  -0.014
REMARK UNBOUND:                -0.012
REMARK SMILES OCc1ccco1
REMARK SMILES IDX 2 1 3 2 5 3 6 4 4 5 7 6 1 7
REMARK H PARENT 1 8
REMARK Flexibility Score: inf
ROOT
ATOM      1  C   UNL     1     -24.479  29.746 -18.023  1.00  0.00     0.231 C 
ENDROOT
BRANCH   1   2
ATOM      2  C   UNL     1     -24.031  29.589 -19.440  1.00  0.00     0.129 A 
ATOM      3  C   UNL     1     -23.940  29.654 -21.633  1.00  0.00     0.042 A 
ATOM      4  C   UNL     1     -22.776  29.134 -21.103  1.00  0.00     0.195 A 
ATOM      5  C   UNL     1     -24.751  29.952 -20.560  1.00  0.00     0.048 A 
ATOM      6  O   UNL     1     -22.859  29.111 -19.793  1.00  0.00    -0.467 OA
ENDBRANCH   1   2
BRANCH   1   7
ATOM      7  O   UNL     1     -24.235  31.054 -17.584  1.00  0.00    -0.388 OA
ATOM      8  H   UNL     1     -24.262  31.030 -16.591  1.00  0.00     0.211 HD
ENDBRANCH   1   7
TORSDOF 2
ENDMDL
MODEL 4
REMARK VINA RESULT:    -2.634     15.329     16.237
REMARK INTER + INTRA:          -2.878
REMARK INTER:                  -2.863
REMARK INTRA:                  -0.015
REMARK UNBOUND:                -0.012
REMARK SMILES OCc1ccco1
REMARK SMILES IDX 2 1 3 2 5 3 6 4 4 5 7 6 1 7
REMARK H PARENT 1 8
REMARK Flexibility Score: inf
ROOT
ATOM      1  C   UNL     1     -22.439  14.032 -23.599  1.00  0.00     0.231 C 
ENDROOT
BRANCH   1   2
ATOM      2  C   UNL     1     -20.982  13.707 -23.679  1.00  0.00     0.129 A 
ATOM      3  C   UNL     1     -19.019  13.018 -24.384  1.00  0.00     0.042 A 
ATOM      4  C   UNL     1     -18.920  13.619 -23.144  1.00  0.00     0.195 A 
ATOM      5  C   UNL     1     -20.351  13.078 -24.733  1.00  0.00     0.048 A 
ATOM      6  O   UNL     1     -20.106  14.022 -22.751  1.00  0.00    -0.467 OA
ENDBRANCH   1   2
BRANCH   1   7
ATOM      7  O   UNL     1     -22.653  15.370 -23.958  1.00  0.00    -0.388 OA
ATOM      8  H   UNL     1     -22.022  15.569 -24.699  1.00  0.00     0.211 HD
ENDBRANCH   1   7
TORSDOF 2
ENDMDL
MODEL 5
REMARK VINA RESULT:    -2.634      1.651      2.252
REMARK INTER + INTRA:          -2.877
REMARK INTER:                  -2.862
REMARK INTRA:                  -0.015
REMARK UNBOUND:                -0.012
REMARK SMILES OCc1ccco1
REMARK SMILES IDX 2 1 3 2 5 3 6 4 4 5 7 6 1 7
REMARK H PARENT 1 8
REMARK Flexibility Score: inf
ROOT
ATOM      1  C   UNL     1     -23.606  28.777 -22.461  1.00  0.00     0.231 C 
ENDROOT
BRANCH   1   2
ATOM      2  C   UNL     1     -23.706  29.115 -21.009  1.00  0.00     0.129 A 
ATOM      3  C   UNL     1     -24.419  29.863 -19.071  1.00  0.00     0.042 A 
ATOM      4  C   UNL     1     -23.229  29.178 -18.932  1.00  0.00     0.195 A 
ATOM      5  C   UNL     1     -24.732  29.821 -20.413  1.00  0.00     0.048 A 
ATOM      6  O   UNL     1     -22.830  28.741 -20.104  1.00  0.00    -0.467 OA
ENDBRANCH   1   2
BRANCH   1   7
ATOM      7  O   UNL     1     -23.970  27.440 -22.670  1.00  0.00    -0.388 OA
ATOM      8  H   UNL     1     -23.530  27.154 -23.513  1.00  0.00     0.211 HD
ENDBRANCH   1   7
TORSDOF 2
ENDMDL
MODEL 6
REMARK VINA RESULT:    -2.584     15.960     16.333
REMARK INTER + INTRA:          -2.823
REMARK INTER:                  -2.805
REMARK INTRA:                  -0.018
REMARK UNBOUND:                -0.012
REMARK SMILES OCc1ccco1
REMARK SMILES IDX 2 1 3 2 5 3 6 4 4 5 7 6 1 7
REMARK H PARENT 1 8
REMARK Flexibility Score: inf
ROOT
ATOM      1  C   UNL     1     -18.704  14.198 -22.266  1.00  0.00     0.231 C 
ENDROOT
BRANCH   1   2
ATOM      2  C   UNL     1     -19.880  13.737 -23.067  1.00  0.00     0.129 A 
ATOM      3  C   UNL     1     -21.140  12.940 -24.679  1.00  0.00     0.042 A 
ATOM      4  C   UNL     1     -21.888  13.207 -23.549  1.00  0.00     0.195 A 
ATOM      5  C   UNL     1     -19.841  13.278 -24.368  1.00  0.00     0.048 A 
ATOM      6  O   UNL     1     -21.108  13.679 -22.604  1.00  0.00    -0.467 OA
ENDBRANCH   1   2
BRANCH   1   7
ATOM      7  O   UNL     1     -18.660  13.517 -21.043  1.00  0.00    -0.388 OA
ATOM      8  H   UNL     1     -19.205  12.694 -21.155  1.00  0.00     0.211 HD
ENDBRANCH   1   7
TORSDOF 2
ENDMDL
MODEL 7
REMARK VINA RESULT:    -2.523     15.866     16.690
REMARK INTER + INTRA:          -2.756
REMARK INTER:                  -2.742
REMARK INTRA:                  -0.014
REMARK UNBOUND:                -0.012
REMARK SMILES OCc1ccco1
REMARK SMILES IDX 2 1 3 2 5 3 6 4 4 5 7 6 1 7
REMARK H PARENT 1 8
REMARK Flexibility Score: inf
ROOT
ATOM      1  C   UNL     1     -18.048  13.285 -23.834  1.00  0.00     0.231 C 
ENDROOT
BRANCH   1   2
ATOM      2  C   UNL     1     -19.532  13.394 -23.683  1.00  0.00     0.129 A 
ATOM      3  C   UNL     1     -21.694  13.273 -24.048  1.00  0.00     0.042 A 
ATOM      4  C   UNL     1     -21.429  13.769 -22.787  1.00  0.00     0.195 A 
ATOM      5  C   UNL     1     -20.469  13.027 -24.628  1.00  0.00     0.048 A 
ATOM      6  O   UNL     1     -20.131  13.826 -22.597  1.00  0.00    -0.467 OA
ENDBRANCH   1   2
BRANCH   1   7
ATOM      7  O   UNL     1     -17.695  11.972 -24.172  1.00  0.00    -0.388 OA
ATOM      8  H   UNL     1     -17.970  11.398 -23.409  1.00  0.00     0.211 HD
ENDBRANCH   1   7
TORSDOF 2
ENDMDL
MODEL 8
REMARK VINA RESULT:    -2.496      1.586      2.275
REMARK INTER + INTRA:          -2.727
REMARK INTER:                  -2.710
REMARK INTRA:                  -0.017
REMARK UNBOUND:                -0.012
REMARK SMILES OCc1ccco1
REMARK SMILES IDX 2 1 3 2 5 3 6 4 4 5 7 6 1 7
REMARK H PARENT 1 8
REMARK Flexibility Score: inf
ROOT
ATOM      1  C   UNL     1     -22.919  27.689 -18.945  1.00  0.00     0.231 C 
ENDROOT
BRANCH   1   2
ATOM      2  C   UNL     1     -23.450  28.604 -20.001  1.00  0.00     0.129 A 
ATOM      3  C   UNL     1     -24.689  30.046 -21.101  1.00  0.00     0.042 A 
ATOM      4  C   UNL     1     -23.552  29.721 -21.814  1.00  0.00     0.195 A 
ATOM      5  C   UNL     1     -24.623  29.328 -19.927  1.00  0.00     0.048 A 
ATOM      6  O   UNL     1     -22.831  28.862 -21.131  1.00  0.00    -0.467 OA
ENDBRANCH   1   2
BRANCH   1   7
ATOM      7  O   UNL     1     -22.545  26.464 -19.515  1.00  0.00    -0.388 OA
ATOM      8  H   UNL     1     -22.358  26.643 -20.474  1.00  0.00     0.211 HD
ENDBRANCH   1   7
TORSDOF 2
ENDMDL
MODEL 9
REMARK VINA RESULT:    -2.330     16.431     17.391
REMARK INTER + INTRA:          -2.547
REMARK INTER:                  -2.533
REMARK INTRA:                  -0.014
REMARK UNBOUND:                -0.012
REMARK SMILES OCc1ccco1
REMARK SMILES IDX 2 1 3 2 5 3 6 4 4 5 7 6 1 7
REMARK H PARENT 1 8
REMARK Flexibility Score: inf
ROOT
ATOM      1  C   UNL     1     -23.989  13.638 -16.036  1.00  0.00     0.231 C 
ENDROOT
BRANCH   1   2
ATOM      2  C   UNL     1     -22.701  13.047 -16.512  1.00  0.00     0.129 A 
ATOM      3  C   UNL     1     -20.918  11.780 -16.708  1.00  0.00     0.042 A 
ATOM      4  C   UNL     1     -20.994  12.696 -17.739  1.00  0.00     0.195 A 
ATOM      5  C   UNL     1     -22.023  12.003 -15.915  1.00  0.00     0.048 A 
ATOM      6  O   UNL     1     -22.069  13.435 -17.597  1.00  0.00    -0.467 OA
ENDBRANCH   1   2
BRANCH   1   7
ATOM      7  O   UNL     1     -25.046  12.754 -16.290  1.00  0.00    -0.388 OA
ATOM      8  H   UNL     1     -25.292  12.872 -17.246  1.00  0.00     0.211 HD
ENDBRANCH   1   7
TORSDOF 2
ENDMDL
