MODEL 1
REMARK VINA RESULT:    -4.693      0.000      0.000
REMARK INTER + INTRA:          -5.463
REMARK INTER:                  -5.379
REMARK INTRA:                  -0.084
REMARK UNBOUND:                -0.084
REMARK SMILES COc1cc(C(=O)[O-])ccc1O
REMARK SMILES IDX 5 1 9 2 4 3 10 4 3 5 11 6 6 7 7 8 8 9 2 10 1 11 12 12
REMARK H PARENT 12 13
REMARK Flexibility Score: inf
ROOT
ATOM      1  C   UNL     1       4.181  -6.127   4.253  1.00  0.00     0.001 A 
ATOM      2  C   UNL     1       3.968  -4.774   4.566  1.00  0.00     0.014 A 
ATOM      3  C   UNL     1       3.085  -7.010   4.260  1.00  0.00     0.060 A 
ATOM      4  C   UNL     1       2.689  -4.314   4.882  1.00  0.00     0.051 A 
ATOM      5  C   UNL     1       1.792  -6.549   4.577  1.00  0.00     0.161 A 
ATOM      6  C   UNL     1       1.601  -5.196   4.888  1.00  0.00     0.157 A 
ENDROOT
BRANCH   1   7
ATOM      7  C   UNL     1       5.540  -6.610   3.919  1.00  0.00     0.072 C 
ATOM      8  O   UNL     1       6.259  -7.157   4.797  1.00  0.00    -0.545 OA
ATOM      9  O   UNL     1       6.041  -6.467   2.631  1.00  0.00    -0.545 OA
ENDBRANCH   1   7
BRANCH   5  10
ATOM     10  O   UNL     1       0.676  -7.402   4.594  1.00  0.00    -0.493 OA
ATOM     11  C   UNL     1       0.638  -8.669   5.244  1.00  0.00     0.278 C 
ENDBRANCH   5  10
BRANCH   6  12
ATOM     12  O   UNL     1       0.324  -4.734   5.202  1.00  0.00    -0.504 OA
ATOM     13  H   UNL     1      -0.401  -4.660   4.499  1.00  0.00     0.293 HD
ENDBRANCH   6  12
TORSDOF 3
ENDMDL
MODEL 2
REMARK VINA RESULT:    -4.548      1.901      5.164
REMARK INTER + INTRA:          -5.296
REMARK INTER:                  -5.229
REMARK INTRA:                  -0.067
REMARK UNBOUND:                -0.084
REMARK SMILES COc1cc(C(=O)[O-])ccc1O
REMARK SMILES IDX 5 1 9 2 4 3 10 4 3 5 11 6 6 7 7 8 8 9 2 10 1 11 12 12
REMARK H PARENT 12 13
REMARK Flexibility Score: inf
ROOT
ATOM      1  C   UNL     1       0.417  -6.193   5.017  1.00  0.00     0.001 A 
ATOM      2  C   UNL     1       0.573  -7.542   4.661  1.00  0.00     0.014 A 
ATOM      3  C   UNL     1       1.542  -5.348   5.001  1.00  0.00     0.060 A 
ATOM      4  C   UNL     1       1.825  -8.038   4.298  1.00  0.00     0.051 A 
ATOM      5  C   UNL     1       2.809  -5.844   4.634  1.00  0.00     0.161 A 
ATOM      6  C   UNL     1       2.943  -7.194   4.283  1.00  0.00     0.157 A 
ENDROOT
BRANCH   1   7
ATOM      7  C   UNL     1      -0.914  -5.672   5.402  1.00  0.00     0.072 C 
ATOM      8  O   UNL     1      -1.577  -4.954   4.607  1.00  0.00    -0.545 OA
ATOM      9  O   UNL     1      -1.452  -5.970   6.649  1.00  0.00    -0.545 OA
ENDBRANCH   1   7
BRANCH   5  10
ATOM     10  O   UNL     1       3.953  -5.030   4.607  1.00  0.00    -0.493 OA
ATOM     11  C   UNL     1       4.836  -4.841   5.709  1.00  0.00     0.278 C 
ENDBRANCH   5  10
BRANCH   6  12
ATOM     12  O   UNL     1       4.193  -7.691   3.919  1.00  0.00    -0.504 OA
ATOM     13  H   UNL     1       5.037  -7.412   4.405  1.00  0.00     0.293 HD
ENDBRANCH   6  12
TORSDOF 3
ENDMDL
MODEL 3
REMARK VINA RESULT:    -4.274      1.334      4.310
REMARK INTER + INTRA:          -4.983
REMARK INTER:                  -4.882
REMARK INTRA:                  -0.101
REMARK UNBOUND:                -0.084
REMARK SMILES COc1cc(C(=O)[O-])ccc1O
REMARK SMILES IDX 5 1 9 2 4 3 10 4 3 5 11 6 6 7 7 8 8 9 2 10 1 11 12 12
REMARK H PARENT 12 13
REMARK Flexibility Score: inf
ROOT
ATOM      1  C   UNL     1       2.631  -6.699   4.463  1.00  0.00     0.001 A 
ATOM      2  C   UNL     1       2.495  -5.324   4.713  1.00  0.00     0.014 A 
ATOM      3  C   UNL     1       3.899  -7.211   4.131  1.00  0.00     0.060 A 
ATOM      4  C   UNL     1       3.601  -4.477   4.632  1.00  0.00     0.051 A 
ATOM      5  C   UNL     1       5.018  -6.360   4.049  1.00  0.00     0.161 A 
ATOM      6  C   UNL     1       4.861  -4.990   4.302  1.00  0.00     0.157 A 
ENDROOT
BRANCH   1   7
ATOM      7  C   UNL     1       1.454  -7.592   4.550  1.00  0.00     0.072 C 
ATOM      8  O   UNL     1       0.286  -7.118   4.548  1.00  0.00    -0.545 OA
ATOM      9  O   UNL     1       1.621  -8.970   4.633  1.00  0.00    -0.545 OA
ENDBRANCH   1   7
BRANCH   5  10
ATOM     10  O   UNL     1       6.299  -6.835   3.721  1.00  0.00    -0.493 OA
ATOM     11  C   UNL     1       7.193  -7.448   4.646  1.00  0.00     0.278 C 
ENDBRANCH   5  10
BRANCH   6  12
ATOM     12  O   UNL     1       5.966  -4.143   4.222  1.00  0.00    -0.504 OA
ATOM     13  H   UNL     1       6.899  -4.465   4.450  1.00  0.00     0.293 HD
ENDBRANCH   6  12
TORSDOF 3
ENDMDL
MODEL 4
REMARK VINA RESULT:    -4.202      2.264      3.326
REMARK INTER + INTRA:          -4.900
REMARK INTER:                  -4.806
REMARK INTRA:                  -0.094
REMARK UNBOUND:                -0.084
REMARK SMILES COc1cc(C(=O)[O-])ccc1O
REMARK SMILES IDX 5 1 9 2 4 3 10 4 3 5 11 6 6 7 7 8 8 9 2 10 1 11 12 12
REMARK H PARENT 12 13
REMARK Flexibility Score: inf
ROOT
ATOM      1  C   UNL     1       2.085  -5.885   4.872  1.00  0.00     0.001 A 
ATOM      2  C   UNL     1       2.417  -7.202   4.515  1.00  0.00     0.014 A 
ATOM      3  C   UNL     1       0.737  -5.562   5.111  1.00  0.00     0.060 A 
ATOM      4  C   UNL     1       1.424  -8.175   4.397  1.00  0.00     0.051 A 
ATOM      5  C   UNL     1      -0.269  -6.541   4.994  1.00  0.00     0.161 A 
ATOM      6  C   UNL     1       0.083  -7.849   4.636  1.00  0.00     0.157 A 
ENDROOT
BRANCH   1   7
ATOM      7  C   UNL     1       3.143  -4.857   4.995  1.00  0.00     0.072 C 
ATOM      8  O   UNL     1       3.599  -4.537   6.125  1.00  0.00    -0.545 OA
ATOM      9  O   UNL     1       3.650  -4.230   3.862  1.00  0.00    -0.545 OA
ENDBRANCH   1   7
BRANCH   5  10
ATOM     10  O   UNL     1      -1.625  -6.254   5.226  1.00  0.00    -0.493 OA
ATOM     11  C   UNL     1      -2.173  -5.917   6.497  1.00  0.00     0.278 C 
ENDBRANCH   5  10
BRANCH   6  12
ATOM     12  O   UNL     1      -0.908  -8.822   4.519  1.00  0.00    -0.504 OA
ATOM     13  H   UNL     1      -0.819  -9.596   3.871  1.00  0.00     0.293 HD
ENDBRANCH   6  12
TORSDOF 3
ENDMDL
MODEL 5
REMARK VINA RESULT:    -4.194      1.966      4.604
REMARK INTER + INTRA:          -4.891
REMARK INTER:                  -4.812
REMARK INTRA:                  -0.079
REMARK UNBOUND:                -0.084
REMARK SMILES COc1cc(C(=O)[O-])ccc1O
REMARK SMILES IDX 5 1 9 2 4 3 10 4 3 5 11 6 6 7 7 8 8 9 2 10 1 11 12 12
REMARK H PARENT 12 13
REMARK Flexibility Score: inf
ROOT
ATOM      1  C   UNL     1      -0.015  -7.729   4.837  1.00  0.00     0.001 A 
ATOM      2  C   UNL     1      -0.828  -6.623   5.137  1.00  0.00     0.014 A 
ATOM      3  C   UNL     1       1.355  -7.523   4.592  1.00  0.00     0.060 A 
ATOM      4  C   UNL     1      -0.284  -5.340   5.191  1.00  0.00     0.051 A 
ATOM      5  C   UNL     1       1.908  -6.229   4.646  1.00  0.00     0.161 A 
ATOM      6  C   UNL     1       1.081  -5.139   4.947  1.00  0.00     0.157 A 
ENDROOT
BRANCH   1   7
ATOM      7  C   UNL     1      -0.598  -9.089   4.781  1.00  0.00     0.072 C 
ATOM      8  O   UNL     1       0.040 -10.079   5.228  1.00  0.00    -0.545 OA
ATOM      9  O   UNL     1      -1.860  -9.291   4.235  1.00  0.00    -0.545 OA
ENDBRANCH   1   7
BRANCH   5  10
ATOM     10  O   UNL     1       3.271  -5.986   4.408  1.00  0.00    -0.493 OA
ATOM     11  C   UNL     1       4.208  -6.978   3.999  1.00  0.00     0.278 C 
ENDBRANCH   5  10
BRANCH   6  12
ATOM     12  O   UNL     1       1.623  -3.856   5.002  1.00  0.00    -0.504 OA
ATOM     13  H   UNL     1       2.451  -3.607   4.474  1.00  0.00     0.293 HD
ENDBRANCH   6  12
TORSDOF 3
ENDMDL
MODEL 6
REMARK VINA RESULT:    -4.108      2.632      3.999
REMARK INTER + INTRA:          -4.792
REMARK INTER:                  -4.717
REMARK INTRA:                  -0.076
REMARK UNBOUND:                -0.084
REMARK SMILES COc1cc(C(=O)[O-])ccc1O
REMARK SMILES IDX 5 1 9 2 4 3 10 4 3 5 11 6 6 7 7 8 8 9 2 10 1 11 12 12
REMARK H PARENT 12 13
REMARK Flexibility Score: inf
ROOT
ATOM      1  C   UNL     1       1.136  -6.035   5.018  1.00  0.00     0.001 A 
ATOM      2  C   UNL     1       1.170  -7.421   4.797  1.00  0.00     0.014 A 
ATOM      3  C   UNL     1      -0.110  -5.392   5.133  1.00  0.00     0.060 A 
ATOM      4  C   UNL     1      -0.015  -8.150   4.692  1.00  0.00     0.051 A 
ATOM      5  C   UNL     1      -1.309  -6.123   5.028  1.00  0.00     0.161 A 
ATOM      6  C   UNL     1      -1.254  -7.506   4.807  1.00  0.00     0.157 A 
ENDROOT
BRANCH   1   7
ATOM      7  C   UNL     1       2.397  -5.266   5.128  1.00  0.00     0.072 C 
ATOM      8  O   UNL     1       3.306  -5.636   5.918  1.00  0.00    -0.545 OA
ATOM      9  O   UNL     1       2.594  -4.126   4.359  1.00  0.00    -0.545 OA
ENDBRANCH   1   7
BRANCH   5  10
ATOM     10  O   UNL     1      -2.571  -5.515   5.139  1.00  0.00    -0.493 OA
ATOM     11  C   UNL     1      -3.277  -5.339   6.363  1.00  0.00     0.278 C 
ENDBRANCH   5  10
BRANCH   6  12
ATOM     12  O   UNL     1      -2.437  -8.236   4.703  1.00  0.00    -0.504 OA
ATOM     13  H   UNL     1      -3.153  -8.191   5.418  1.00  0.00     0.293 HD
ENDBRANCH   6  12
TORSDOF 3
ENDMDL
MODEL 7
REMARK VINA RESULT:    -4.091      1.920      4.001
REMARK INTER + INTRA:          -4.773
REMARK INTER:                  -4.675
REMARK INTRA:                  -0.098
REMARK UNBOUND:                -0.084
REMARK SMILES COc1cc(C(=O)[O-])ccc1O
REMARK SMILES IDX 5 1 9 2 4 3 10 4 3 5 11 6 6 7 7 8 8 9 2 10 1 11 12 12
REMARK H PARENT 12 13
REMARK Flexibility Score: inf
ROOT
ATOM      1  C   UNL     1       1.671  -7.471   5.650  1.00  0.00     0.001 A 
ATOM      2  C   UNL     1       0.588  -6.625   5.945  1.00  0.00     0.014 A 
ATOM      3  C   UNL     1       2.781  -6.945   4.965  1.00  0.00     0.060 A 
ATOM      4  C   UNL     1       0.614  -5.284   5.563  1.00  0.00     0.051 A 
ATOM      5  C   UNL     1       2.812  -5.590   4.577  1.00  0.00     0.161 A 
ATOM      6  C   UNL     1       1.721  -4.764   4.881  1.00  0.00     0.157 A 
ENDROOT
BRANCH   1   7
ATOM      7  C   UNL     1       1.638  -8.894   6.057  1.00  0.00     0.072 C 
ATOM      8  O   UNL     1       0.585  -9.574   5.926  1.00  0.00    -0.545 OA
ATOM      9  O   UNL     1       2.770  -9.499   6.589  1.00  0.00    -0.545 OA
ENDBRANCH   1   7
BRANCH   5  10
ATOM     10  O   UNL     1       3.903  -5.031   3.893  1.00  0.00    -0.493 OA
ATOM     11  C   UNL     1       5.188  -4.808   4.468  1.00  0.00     0.278 C 
ENDBRANCH   5  10
BRANCH   6  12
ATOM     12  O   UNL     1       1.746  -3.423   4.501  1.00  0.00    -0.504 OA
ATOM     13  H   UNL     1       1.533  -2.681   5.157  1.00  0.00     0.293 HD
ENDBRANCH   6  12
TORSDOF 3
ENDMDL
MODEL 8
REMARK VINA RESULT:    -4.047      1.766      2.246
REMARK INTER + INTRA:          -4.723
REMARK INTER:                  -4.640
REMARK INTRA:                  -0.083
REMARK UNBOUND:                -0.084
REMARK SMILES COc1cc(C(=O)[O-])ccc1O
REMARK SMILES IDX 5 1 9 2 4 3 10 4 3 5 11 6 6 7 7 8 8 9 2 10 1 11 12 12
REMARK H PARENT 12 13
REMARK Flexibility Score: inf
ROOT
ATOM      1  C   UNL     1       3.671  -6.915   5.454  1.00  0.00     0.001 A 
ATOM      2  C   UNL     1       4.433  -5.785   5.115  1.00  0.00     0.014 A 
ATOM      3  C   UNL     1       2.267  -6.825   5.431  1.00  0.00     0.060 A 
ATOM      4  C   UNL     1       3.806  -4.590   4.761  1.00  0.00     0.051 A 
ATOM      5  C   UNL     1       1.630  -5.621   5.074  1.00  0.00     0.161 A 
ATOM      6  C   UNL     1       2.408  -4.504   4.739  1.00  0.00     0.157 A 
ENDROOT
BRANCH   1   7
ATOM      7  C   UNL     1       4.342  -8.181   5.830  1.00  0.00     0.072 C 
ATOM      8  O   UNL     1       5.585  -8.212   6.033  1.00  0.00    -0.545 OA
ATOM      9  O   UNL     1       3.607  -9.353   5.964  1.00  0.00    -0.545 OA
ENDBRANCH   1   7
BRANCH   5  10
ATOM     10  O   UNL     1       0.231  -5.495   5.040  1.00  0.00    -0.493 OA
ATOM     11  C   UNL     1      -0.678  -6.591   5.044  1.00  0.00     0.278 C 
ENDBRANCH   5  10
BRANCH   6  12
ATOM     12  O   UNL     1       1.783  -3.310   4.385  1.00  0.00    -0.504 OA
ATOM     13  H   UNL     1       1.452  -3.143   3.442  1.00  0.00     0.293 HD
ENDBRANCH   6  12
TORSDOF 3
ENDMDL
MODEL 9
REMARK VINA RESULT:    -3.981      1.754      4.431
REMARK INTER + INTRA:          -4.647
REMARK INTER:                  -4.545
REMARK INTRA:                  -0.101
REMARK UNBOUND:                -0.084
REMARK SMILES COc1cc(C(=O)[O-])ccc1O
REMARK SMILES IDX 5 1 9 2 4 3 10 4 3 5 11 6 6 7 7 8 8 9 2 10 1 11 12 12
REMARK H PARENT 12 13
REMARK Flexibility Score: inf
ROOT
ATOM      1  C   UNL     1       0.727  -5.759   5.001  1.00  0.00     0.001 A 
ATOM      2  C   UNL     1       1.361  -4.506   4.945  1.00  0.00     0.014 A 
ATOM      3  C   UNL     1       1.512  -6.925   4.934  1.00  0.00     0.060 A 
ATOM      4  C   UNL     1       2.748  -4.420   4.822  1.00  0.00     0.051 A 
ATOM      5  C   UNL     1       2.913  -6.842   4.810  1.00  0.00     0.161 A 
ATOM      6  C   UNL     1       3.526  -5.583   4.755  1.00  0.00     0.157 A 
ENDROOT
BRANCH   1   7
ATOM      7  C   UNL     1      -0.745  -5.844   5.131  1.00  0.00     0.072 C 
ATOM      8  O   UNL     1      -1.282  -6.832   5.699  1.00  0.00    -0.545 OA
ATOM      9  O   UNL     1      -1.555  -4.834   4.628  1.00  0.00    -0.545 OA
ENDBRANCH   1   7
BRANCH   5  10
ATOM     10  O   UNL     1       3.728  -7.984   4.741  1.00  0.00    -0.493 OA
ATOM     11  C   UNL     1       4.104  -8.777   5.863  1.00  0.00     0.278 C 
ENDBRANCH   5  10
BRANCH   6  12
ATOM     12  O   UNL     1       4.912  -5.495   4.633  1.00  0.00    -0.504 OA
ATOM     13  H   UNL     1       5.406  -5.935   3.867  1.00  0.00     0.293 HD
ENDBRANCH   6  12
TORSDOF 3
ENDMDL
