MODEL 1
REMARK VINA RESULT:    -3.697      0.000      0.000
REMARK INTER + INTRA:          -4.665
REMARK INTER:                  -4.453
REMARK INTRA:                  -0.212
REMARK UNBOUND:                -0.212
REMARK SMILES OCC(O)CO
REMARK SMILES IDX 3 1 5 2 6 3 2 5 1 6 4 8
REMARK H PARENT 6 4 1 7 4 9
REMARK Flexibility Score: inf
ROOT
ATOM      1  C   UNL     1      83.756 107.712 102.613  1.00  0.00     0.165 C 
ENDROOT
BRANCH   1   2
ATOM      2  C   UNL     1      83.371 108.089 104.056  1.00  0.00     0.190 C 
BRANCH   2   3
ATOM      3  O   UNL     1      82.058 107.694 104.349  1.00  0.00    -0.394 OA
ATOM      4  H   UNL     1      82.082 106.712 104.489  1.00  0.00     0.210 HD
ENDBRANCH   2   3
ENDBRANCH   1   2
BRANCH   1   5
ATOM      5  C   UNL     1      82.624 106.971 101.879  1.00  0.00     0.190 C 
BRANCH   5   6
ATOM      6  O   UNL     1      82.648 105.607 102.199  1.00  0.00    -0.394 OA
ATOM      7  H   UNL     1      81.852 105.444 102.769  1.00  0.00     0.210 HD
ENDBRANCH   5   6
ENDBRANCH   1   5
BRANCH   1   8
ATOM      8  O   UNL     1      84.125 108.862 101.895  1.00  0.00    -0.388 OA
ATOM      9  H   UNL     1      84.594 109.471 102.524  1.00  0.00     0.211 HD
ENDBRANCH   1   8
TORSDOF 5
ENDMDL
MODEL 2
REMARK VINA RESULT:    -3.013      0.844      2.381
REMARK INTER + INTRA:          -3.841
REMARK INTER:                  -3.625
REMARK INTRA:                  -0.217
REMARK UNBOUND:                -0.212
REMARK SMILES OCC(O)CO
REMARK SMILES IDX 3 1 5 2 6 3 2 5 1 6 4 8
REMARK H PARENT 6 4 1 7 4 9
REMARK Flexibility Score: inf
ROOT
ATOM      1  C   UNL     1      82.646 106.977 102.026  1.00  0.00     0.165 C 
ENDROOT
BRANCH   1   2
ATOM      2  C   UNL     1      81.877 107.731 103.128  1.00  0.00     0.190 C 
BRANCH   2   3
ATOM      3  O   UNL     1      82.599 107.746 104.329  1.00  0.00    -0.394 OA
ATOM      4  H   UNL     1      82.872 106.808 104.509  1.00  0.00     0.210 HD
ENDBRANCH   2   3
ENDBRANCH   1   2
BRANCH   1   5
ATOM      5  C   UNL     1      84.094 107.477 101.875  1.00  0.00     0.190 C 
BRANCH   5   6
ATOM      6  O   UNL     1      84.138 108.874 101.979  1.00  0.00    -0.394 OA
ATOM      7  H   UNL     1      83.901 109.088 102.918  1.00  0.00     0.210 HD
ENDBRANCH   5   6
ENDBRANCH   1   5
BRANCH   1   8
ATOM      8  O   UNL     1      82.637 105.597 102.289  1.00  0.00    -0.388 OA
ATOM      9  H   UNL     1      83.516 105.362 102.691  1.00  0.00     0.211 HD
ENDBRANCH   1   8
TORSDOF 5
ENDMDL
MODEL 3
REMARK VINA RESULT:    -3.005      1.145      2.852
REMARK INTER + INTRA:          -3.832
REMARK INTER:                  -3.609
REMARK INTRA:                  -0.222
REMARK UNBOUND:                -0.212
REMARK SMILES OCC(O)CO
REMARK SMILES IDX 3 1 5 2 6 3 2 5 1 6 4 8
REMARK H PARENT 6 4 1 7 4 9
REMARK Flexibility Score: inf
ROOT
ATOM      1  C   UNL     1      83.070 106.932 102.870  1.00  0.00     0.165 C 
ENDROOT
BRANCH   1   2
ATOM      2  C   UNL     1      84.107 107.488 101.875  1.00  0.00     0.190 C 
BRANCH   2   3
ATOM      3  O   UNL     1      84.231 108.879 101.999  1.00  0.00    -0.394 OA
ATOM      4  H   UNL     1      83.887 109.271 101.154  1.00  0.00     0.210 HD
ENDBRANCH   2   3
ENDBRANCH   1   2
BRANCH   1   5
ATOM      5  C   UNL     1      82.787 107.906 104.027  1.00  0.00     0.190 C 
BRANCH   5   6
ATOM      6  O   UNL     1      83.951 108.122 104.776  1.00  0.00    -0.394 OA
ATOM      7  H   UNL     1      84.628 108.470 104.139  1.00  0.00     0.210 HD
ENDBRANCH   5   6
ENDBRANCH   1   5
BRANCH   1   8
ATOM      8  O   UNL     1      81.875 106.620 102.198  1.00  0.00    -0.388 OA
ATOM      9  H   UNL     1      81.135 106.681 102.859  1.00  0.00     0.211 HD
ENDBRANCH   1   8
TORSDOF 5
ENDMDL
MODEL 4
REMARK VINA RESULT:    -2.877      0.734      2.876
REMARK INTER + INTRA:          -3.678
REMARK INTER:                  -3.664
REMARK INTRA:                  -0.014
REMARK UNBOUND:                -0.212
REMARK SMILES OCC(O)CO
REMARK SMILES IDX 3 1 5 2 6 3 2 5 1 6 4 8
REMARK H PARENT 6 4 1 7 4 9
REMARK Flexibility Score: inf
ROOT
ATOM      1  C   UNL     1      82.964 107.200 103.219  1.00  0.00     0.165 C 
ENDROOT
BRANCH   1   2
ATOM      2  C   UNL     1      82.592 106.544 101.875  1.00  0.00     0.190 C 
BRANCH   2   3
ATOM      3  O   UNL     1      82.890 105.174 101.882  1.00  0.00    -0.394 OA
ATOM      4  H   UNL     1      82.039 104.699 102.068  1.00  0.00     0.210 HD
ENDBRANCH   2   3
ENDBRANCH   1   2
BRANCH   1   5
ATOM      5  C   UNL     1      84.207 108.100 103.108  1.00  0.00     0.190 C 
BRANCH   5   6
ATOM      6  O   UNL     1      84.144 108.874 101.942  1.00  0.00    -0.394 OA
ATOM      7  H   UNL     1      85.080 108.976 101.628  1.00  0.00     0.210 HD
ENDBRANCH   5   6
ENDBRANCH   1   5
BRANCH   1   8
ATOM      8  O   UNL     1      81.875 107.940 103.712  1.00  0.00    -0.388 OA
ATOM      9  H   UNL     1      82.230 108.590 104.375  1.00  0.00     0.211 HD
ENDBRANCH   1   8
TORSDOF 5
ENDMDL
MODEL 5
REMARK VINA RESULT:    -2.700      0.713      2.187
REMARK INTER + INTRA:          -3.465
REMARK INTER:                  -3.337
REMARK INTRA:                  -0.128
REMARK UNBOUND:                -0.212
REMARK SMILES OCC(O)CO
REMARK SMILES IDX 3 1 5 2 6 3 2 5 1 6 4 8
REMARK H PARENT 6 4 1 7 4 9
REMARK Flexibility Score: inf
ROOT
ATOM      1  C   UNL     1      82.518 107.816 102.860  1.00  0.00     0.165 C 
ENDROOT
BRANCH   1   2
ATOM      2  C   UNL     1      84.023 108.120 102.996  1.00  0.00     0.190 C 
BRANCH   2   3
ATOM      3  O   UNL     1      84.501 108.815 101.875  1.00  0.00    -0.394 OA
ATOM      4  H   UNL     1      84.287 109.773 102.022  1.00  0.00     0.210 HD
ENDBRANCH   2   3
ENDBRANCH   1   2
BRANCH   1   5
ATOM      5  C   UNL     1      82.240 106.652 101.892  1.00  0.00     0.190 C 
BRANCH   5   6
ATOM      6  O   UNL     1      83.323 105.764 101.878  1.00  0.00    -0.394 OA
ATOM      7  H   UNL     1      84.141 106.326 101.842  1.00  0.00     0.210 HD
ENDBRANCH   5   6
ENDBRANCH   1   5
BRANCH   1   8
ATOM      8  O   UNL     1      81.967 107.535 104.123  1.00  0.00    -0.388 OA
ATOM      9  H   UNL     1      82.718 107.478 104.771  1.00  0.00     0.211 HD
ENDBRANCH   1   8
TORSDOF 5
ENDMDL
MODEL 6
REMARK VINA RESULT:    -2.699     21.314     22.313
REMARK INTER + INTRA:          -3.463
REMARK INTER:                  -3.428
REMARK INTRA:                  -0.035
REMARK UNBOUND:                -0.212
REMARK SMILES OCC(O)CO
REMARK SMILES IDX 3 1 5 2 6 3 2 5 1 6 4 8
REMARK H PARENT 6 4 1 7 4 9
REMARK Flexibility Score: inf
ROOT
ATOM      1  C   UNL     1      86.393 122.295 118.724  1.00  0.00     0.165 C 
ENDROOT
BRANCH   1   2
ATOM      2  C   UNL     1      85.693 123.125 117.630  1.00  0.00     0.190 C 
BRANCH   2   3
ATOM      3  O   UNL     1      86.318 122.952 116.387  1.00  0.00    -0.394 OA
ATOM      4  H   UNL     1      86.255 123.822 115.913  1.00  0.00     0.210 HD
ENDBRANCH   2   3
ENDBRANCH   1   2
BRANCH   1   5
ATOM      5  C   UNL     1      87.408 123.125 119.529  1.00  0.00     0.190 C 
BRANCH   5   6
ATOM      6  O   UNL     1      88.677 123.045 118.941  1.00  0.00    -0.394 OA
ATOM      7  H   UNL     1      88.850 123.935 118.538  1.00  0.00     0.210 HD
ENDBRANCH   5   6
ENDBRANCH   1   5
BRANCH   1   8
ATOM      8  O   UNL     1      85.438 121.731 119.586  1.00  0.00    -0.388 OA
ATOM      9  H   UNL     1      85.152 122.439 120.222  1.00  0.00     0.211 HD
ENDBRANCH   1   8
TORSDOF 5
ENDMDL
MODEL 7
REMARK VINA RESULT:    -2.470      1.509      2.023
REMARK INTER + INTRA:          -3.187
REMARK INTER:                  -3.185
REMARK INTRA:                  -0.003
REMARK UNBOUND:                -0.212
REMARK SMILES OCC(O)CO
REMARK SMILES IDX 3 1 5 2 6 3 2 5 1 6 4 8
REMARK H PARENT 6 4 1 7 4 9
REMARK Flexibility Score: inf
ROOT
ATOM      1  C   UNL     1      83.075 108.049 103.733  1.00  0.00     0.165 C 
ENDROOT
BRANCH   1   2
ATOM      2  C   UNL     1      84.392 107.871 104.512  1.00  0.00     0.190 C 
BRANCH   2   3
ATOM      3  O   UNL     1      84.198 108.068 105.886  1.00  0.00    -0.394 OA
ATOM      4  H   UNL     1      83.489 107.433 106.167  1.00  0.00     0.210 HD
ENDBRANCH   2   3
ENDBRANCH   1   2
BRANCH   1   5
ATOM      5  C   UNL     1      83.059 107.252 102.417  1.00  0.00     0.190 C 
BRANCH   5   6
ATOM      6  O   UNL     1      82.078 106.253 102.465  1.00  0.00    -0.394 OA
ATOM      7  H   UNL     1      81.435 106.463 101.739  1.00  0.00     0.210 HD
ENDBRANCH   5   6
ENDBRANCH   1   5
BRANCH   1   8
ATOM      8  O   UNL     1      81.985 107.674 104.537  1.00  0.00    -0.388 OA
ATOM      9  H   UNL     1      81.377 108.457 104.602  1.00  0.00     0.211 HD
ENDBRANCH   1   8
TORSDOF 5
ENDMDL
MODEL 8
REMARK VINA RESULT:    -2.433     21.512     22.285
REMARK INTER + INTRA:          -3.143
REMARK INTER:                  -3.140
REMARK INTRA:                  -0.003
REMARK UNBOUND:                -0.212
REMARK SMILES OCC(O)CO
REMARK SMILES IDX 3 1 5 2 6 3 2 5 1 6 4 8
REMARK H PARENT 6 4 1 7 4 9
REMARK Flexibility Score: inf
ROOT
ATOM      1  C   UNL     1      86.115 122.774 118.732  1.00  0.00     0.165 C 
ENDROOT
BRANCH   1   2
ATOM      2  C   UNL     1      85.731 121.284 118.822  1.00  0.00     0.190 C 
BRANCH   2   3
ATOM      3  O   UNL     1      84.787 121.066 119.836  1.00  0.00    -0.394 OA
ATOM      4  H   UNL     1      84.143 120.396 119.486  1.00  0.00     0.210 HD
ENDBRANCH   2   3
ENDBRANCH   1   2
BRANCH   1   5
ATOM      5  C   UNL     1      87.320 123.124 119.622  1.00  0.00     0.190 C 
BRANCH   5   6
ATOM      6  O   UNL     1      88.506 123.063 118.879  1.00  0.00    -0.394 OA
ATOM      7  H   UNL     1      88.498 122.183 118.419  1.00  0.00     0.210 HD
ENDBRANCH   5   6
ENDBRANCH   1   5
BRANCH   1   8
ATOM      8  O   UNL     1      86.383 123.123 117.397  1.00  0.00    -0.388 OA
ATOM      9  H   UNL     1      86.812 122.338 116.963  1.00  0.00     0.211 HD
ENDBRANCH   1   8
TORSDOF 5
ENDMDL
