MODEL 1
REMARK VINA RESULT:    -6.227      0.000      0.000
REMARK INTER + INTRA:          -9.802
REMARK INTER:                  -8.958
REMARK INTRA:                  -0.844
REMARK UNBOUND:                -0.844
REMARK SMILES CC(C)=CCCC(C)=CCCC(C)=CCO
REMARK SMILES IDX 10 1 9 2 7 3 8 4 6 5 5 6 4 7 1 8 2 9 3 10 11 11 12 12 14 13
REMARK SMILES IDX 13 14 15 15 16 16
REMARK H PARENT 16 17
REMARK Flexibility Score: inf
ROOT
ATOM      1  C   UNL     1      11.867  22.889  23.050  1.00  0.00     0.032 C 
ENDROOT
BRANCH   1   2
ATOM      2  C   UNL     1      11.477  22.795  21.594  1.00  0.00    -0.028 C 
ATOM      3  C   UNL     1      10.593  21.905  21.093  1.00  0.00    -0.077 C 
ATOM      4  C   UNL     1       9.931  20.860  21.961  1.00  0.00     0.039 C 
BRANCH   3   5
ATOM      5  C   UNL     1      10.254  21.957  19.619  1.00  0.00     0.034 C 
BRANCH   5   6
ATOM      6  C   UNL     1       9.669  20.622  19.145  1.00  0.00     0.032 C 
BRANCH   6   7
ATOM      7  C   UNL     1       8.543  20.849  18.167  1.00  0.00    -0.028 C 
ATOM      8  C   UNL     1       6.760  20.535  19.898  1.00  0.00     0.039 C 
ATOM      9  C   UNL     1       7.232  20.839  18.496  1.00  0.00    -0.080 C 
ATOM     10  C   UNL     1       6.220  21.123  17.416  1.00  0.00     0.039 C 
ENDBRANCH   6   7
ENDBRANCH   5   6
ENDBRANCH   3   5
ENDBRANCH   1   2
BRANCH   1  11
ATOM     11  C   UNL     1      13.241  23.550  23.237  1.00  0.00     0.034 C 
BRANCH  11  12
ATOM     12  C   UNL     1      14.353  22.523  23.369  1.00  0.00    -0.075 C 
ATOM     13  C   UNL     1      15.238  22.260  22.381  1.00  0.00    -0.000 C 
ATOM     14  C   UNL     1      14.450  21.726  24.644  1.00  0.00     0.039 C 
BRANCH  13  15
ATOM     15  C   UNL     1      15.279  22.971  21.056  1.00  0.00     0.183 C 
BRANCH  15  16
ATOM     16  O   UNL     1      16.341  22.478  20.288  1.00  0.00    -0.392 OA
ATOM     17  H   UNL     1      15.928  21.987  19.530  1.00  0.00     0.210 HD
ENDBRANCH  15  16
ENDBRANCH  13  15
ENDBRANCH  11  12
ENDBRANCH   1  11
TORSDOF 8
ENDMDL
MODEL 2
REMARK VINA RESULT:    -6.193      2.897      7.554
REMARK INTER + INTRA:          -9.753
REMARK INTER:                  -8.837
REMARK INTRA:                  -0.916
REMARK UNBOUND:                -0.844
REMARK SMILES CC(C)=CCCC(C)=CCCC(C)=CCO
REMARK SMILES IDX 10 1 9 2 7 3 8 4 6 5 5 6 4 7 1 8 2 9 3 10 11 11 12 12 14 13
REMARK SMILES IDX 13 14 15 15 16 16
REMARK H PARENT 16 17
REMARK Flexibility Score: inf
ROOT
ATOM      1  C   UNL     1      12.145  22.897  21.465  1.00  0.00     0.032 C 
ENDROOT
BRANCH   1   2
ATOM      2  C   UNL     1      12.859  22.335  22.670  1.00  0.00    -0.028 C 
ATOM      3  C   UNL     1      14.201  22.331  22.836  1.00  0.00    -0.077 C 
ATOM      4  C   UNL     1      15.138  22.862  21.777  1.00  0.00     0.039 C 
BRANCH   3   5
ATOM      5  C   UNL     1      14.780  21.782  24.121  1.00  0.00     0.034 C 
BRANCH   5   6
ATOM      6  C   UNL     1      13.736  21.802  25.243  1.00  0.00     0.032 C 
BRANCH   6   7
ATOM      7  C   UNL     1      14.235  22.596  26.424  1.00  0.00    -0.028 C 
ATOM      8  C   UNL     1      13.405  24.777  25.513  1.00  0.00     0.039 C 
ATOM      9  C   UNL     1      14.072  23.930  26.571  1.00  0.00    -0.080 C 
ATOM     10  C   UNL     1      14.590  24.582  27.828  1.00  0.00     0.039 C 
ENDBRANCH   6   7
ENDBRANCH   5   6
ENDBRANCH   3   5
ENDBRANCH   1   2
BRANCH   1  11
ATOM     11  C   UNL     1      10.620  22.892  21.644  1.00  0.00     0.034 C 
BRANCH  11  12
ATOM     12  C   UNL     1       9.918  22.156  20.514  1.00  0.00    -0.075 C 
ATOM     13  C   UNL     1       9.352  20.937  20.665  1.00  0.00    -0.000 C 
ATOM     14  C   UNL     1       9.887  22.793  19.149  1.00  0.00     0.039 C 
BRANCH  13  15
ATOM     15  C   UNL     1       9.293  20.174  21.959  1.00  0.00     0.183 C 
BRANCH  15  16
ATOM     16  O   UNL     1       7.958  19.948  22.314  1.00  0.00    -0.392 OA
ATOM     17  H   UNL     1       7.463  20.771  22.065  1.00  0.00     0.210 HD
ENDBRANCH  15  16
ENDBRANCH  13  15
ENDBRANCH  11  12
ENDBRANCH   1  11
TORSDOF 8
ENDMDL
MODEL 3
REMARK VINA RESULT:    -6.179      1.686      2.199
REMARK INTER + INTRA:          -9.733
REMARK INTER:                  -9.070
REMARK INTRA:                  -0.663
REMARK UNBOUND:                -0.844
REMARK SMILES CC(C)=CCCC(C)=CCCC(C)=CCO
REMARK SMILES IDX 10 1 9 2 7 3 8 4 6 5 5 6 4 7 1 8 2 9 3 10 11 11 12 12 14 13
REMARK SMILES IDX 13 14 15 15 16 16
REMARK H PARENT 16 17
REMARK Flexibility Score: inf
ROOT
ATOM      1  C   UNL     1      11.722  22.162  22.816  1.00  0.00     0.032 C 
ENDROOT
BRANCH   1   2
ATOM      2  C   UNL     1      11.189  22.076  21.406  1.00  0.00    -0.028 C 
ATOM      3  C   UNL     1      10.208  21.237  21.006  1.00  0.00    -0.077 C 
ATOM      4  C   UNL     1       9.571  20.245  21.950  1.00  0.00     0.039 C 
BRANCH   3   5
ATOM      5  C   UNL     1       9.734  21.294  19.570  1.00  0.00     0.034 C 
BRANCH   5   6
ATOM      6  C   UNL     1       8.482  22.170  19.444  1.00  0.00     0.032 C 
BRANCH   6   7
ATOM      7  C   UNL     1       8.847  23.561  18.991  1.00  0.00    -0.028 C 
ATOM      8  C   UNL     1       8.767  22.966  16.560  1.00  0.00     0.039 C 
ATOM      9  C   UNL     1       8.954  23.941  17.699  1.00  0.00    -0.080 C 
ATOM     10  C   UNL     1       9.286  25.380  17.399  1.00  0.00     0.039 C 
ENDBRANCH   6   7
ENDBRANCH   5   6
ENDBRANCH   3   5
ENDBRANCH   1   2
BRANCH   1  11
ATOM     11  C   UNL     1      12.890  23.152  22.932  1.00  0.00     0.034 C 
BRANCH  11  12
ATOM     12  C   UNL     1      14.198  22.453  23.262  1.00  0.00    -0.075 C 
ATOM     13  C   UNL     1      15.229  22.365  22.391  1.00  0.00    -0.000 C 
ATOM     14  C   UNL     1      14.340  21.785  24.605  1.00  0.00     0.039 C 
BRANCH  13  15
ATOM     15  C   UNL     1      15.248  22.980  21.020  1.00  0.00     0.183 C 
BRANCH  15  16
ATOM     16  O   UNL     1      16.319  22.463  20.283  1.00  0.00    -0.392 OA
ATOM     17  H   UNL     1      16.659  23.212  19.727  1.00  0.00     0.210 HD
ENDBRANCH  15  16
ENDBRANCH  13  15
ENDBRANCH  11  12
ENDBRANCH   1  11
TORSDOF 8
ENDMDL
MODEL 4
REMARK VINA RESULT:    -6.094      0.994      1.444
REMARK INTER + INTRA:          -9.610
REMARK INTER:                  -8.777
REMARK INTRA:                  -0.833
REMARK UNBOUND:                -0.844
REMARK SMILES CC(C)=CCCC(C)=CCCC(C)=CCO
REMARK SMILES IDX 10 1 9 2 7 3 8 4 6 5 5 6 4 7 1 8 2 9 3 10 11 11 12 12 14 13
REMARK SMILES IDX 13 14 15 15 16 16
REMARK H PARENT 16 17
REMARK Flexibility Score: inf
ROOT
ATOM      1  C   UNL     1      11.983  22.504  23.324  1.00  0.00     0.032 C 
ENDROOT
BRANCH   1   2
ATOM      2  C   UNL     1      11.193  21.366  22.724  1.00  0.00    -0.028 C 
ATOM      3  C   UNL     1      10.125  21.519  21.908  1.00  0.00    -0.077 C 
ATOM      4  C   UNL     1       9.581  22.883  21.552  1.00  0.00     0.039 C 
BRANCH   3   5
ATOM      5  C   UNL     1       9.458  20.289  21.334  1.00  0.00     0.034 C 
BRANCH   5   6
ATOM      6  C   UNL     1       9.595  20.256  19.808  1.00  0.00     0.032 C 
BRANCH   6   7
ATOM      7  C   UNL     1       8.252  20.441  19.147  1.00  0.00    -0.028 C 
ATOM      8  C   UNL     1       8.984  22.459  17.857  1.00  0.00     0.039 C 
ATOM      9  C   UNL     1       7.970  21.410  18.248  1.00  0.00    -0.080 C 
ATOM     10  C   UNL     1       6.591  21.445  17.640  1.00  0.00     0.039 C 
ENDBRANCH   6   7
ENDBRANCH   5   6
ENDBRANCH   3   5
ENDBRANCH   1   2
BRANCH   1  11
ATOM     11  C   UNL     1      13.147  22.937  22.419  1.00  0.00     0.034 C 
BRANCH  11  12
ATOM     12  C   UNL     1      14.478  22.386  22.904  1.00  0.00    -0.075 C 
ATOM     13  C   UNL     1      15.603  22.404  22.152  1.00  0.00    -0.000 C 
ATOM     14  C   UNL     1      14.541  21.747  24.267  1.00  0.00     0.039 C 
BRANCH  13  15
ATOM     15  C   UNL     1      15.707  23.009  20.780  1.00  0.00     0.183 C 
BRANCH  15  16
ATOM     16  O   UNL     1      16.616  22.276  20.007  1.00  0.00    -0.392 OA
ATOM     17  H   UNL     1      16.862  21.482  20.550  1.00  0.00     0.210 HD
ENDBRANCH  15  16
ENDBRANCH  13  15
ENDBRANCH  11  12
ENDBRANCH   1  11
TORSDOF 8
ENDMDL
MODEL 5
REMARK VINA RESULT:    -6.076      2.670      6.698
REMARK INTER + INTRA:          -9.584
REMARK INTER:                  -8.402
REMARK INTRA:                  -1.182
REMARK UNBOUND:                -0.844
REMARK SMILES CC(C)=CCCC(C)=CCCC(C)=CCO
REMARK SMILES IDX 10 1 9 2 7 3 8 4 6 5 5 6 4 7 1 8 2 9 3 10 11 11 12 12 14 13
REMARK SMILES IDX 13 14 15 15 16 16
REMARK H PARENT 16 17
REMARK Flexibility Score: inf
ROOT
ATOM      1  C   UNL     1       9.469  22.855  20.659  1.00  0.00     0.032 C 
ENDROOT
BRANCH   1   2
ATOM      2  C   UNL     1      10.416  22.769  21.831  1.00  0.00    -0.028 C 
ATOM      3  C   UNL     1      10.680  21.638  22.524  1.00  0.00    -0.077 C 
ATOM      4  C   UNL     1       9.994  20.329  22.207  1.00  0.00     0.039 C 
BRANCH   3   5
ATOM      5  C   UNL     1      11.693  21.684  23.646  1.00  0.00     0.034 C 
BRANCH   5   6
ATOM      6  C   UNL     1      12.596  22.917  23.516  1.00  0.00     0.032 C 
BRANCH   6   7
ATOM      7  C   UNL     1      14.003  22.513  23.156  1.00  0.00    -0.028 C 
ATOM      8  C   UNL     1      13.766  23.223  20.765  1.00  0.00     0.039 C 
ATOM      9  C   UNL     1      14.552  22.668  21.930  1.00  0.00    -0.080 C 
ATOM     10  C   UNL     1      15.987  22.254  21.730  1.00  0.00     0.039 C 
ENDBRANCH   6   7
ENDBRANCH   5   6
ENDBRANCH   3   5
ENDBRANCH   1   2
BRANCH   1  11
ATOM     11  C   UNL     1      10.181  22.593  19.323  1.00  0.00     0.034 C 
BRANCH  11  12
ATOM     12  C   UNL     1       9.353  21.713  18.401  1.00  0.00    -0.075 C 
ATOM     13  C   UNL     1       8.682  22.192  17.329  1.00  0.00    -0.000 C 
ATOM     14  C   UNL     1       9.236  20.245  18.718  1.00  0.00     0.039 C 
BRANCH  13  15
ATOM     15  C   UNL     1       8.701  23.626  16.876  1.00  0.00     0.183 C 
BRANCH  15  16
ATOM     16  O   UNL     1       7.838  24.386  17.673  1.00  0.00    -0.392 OA
ATOM     17  H   UNL     1       7.428  23.753  18.317  1.00  0.00     0.210 HD
ENDBRANCH  15  16
ENDBRANCH  13  15
ENDBRANCH  11  12
ENDBRANCH   1  11
TORSDOF 8
ENDMDL
MODEL 6
REMARK VINA RESULT:    -6.008      2.631      7.533
REMARK INTER + INTRA:          -9.487
REMARK INTER:                  -8.411
REMARK INTRA:                  -1.076
REMARK UNBOUND:                -0.844
REMARK SMILES CC(C)=CCCC(C)=CCCC(C)=CCO
REMARK SMILES IDX 10 1 9 2 7 3 8 4 6 5 5 6 4 7 1 8 2 9 3 10 11 11 12 12 14 13
REMARK SMILES IDX 13 14 15 15 16 16
REMARK H PARENT 16 17
REMARK Flexibility Score: inf
ROOT
ATOM      1  C   UNL     1       9.443  19.936  18.896  1.00  0.00     0.032 C 
ENDROOT
BRANCH   1   2
ATOM      2  C   UNL     1       9.840  20.288  20.309  1.00  0.00    -0.028 C 
ATOM      3  C   UNL     1      10.143  21.535  20.733  1.00  0.00    -0.077 C 
ATOM      4  C   UNL     1      10.158  22.718  19.793  1.00  0.00     0.039 C 
BRANCH   3   5
ATOM      5  C   UNL     1      10.473  21.754  22.193  1.00  0.00     0.034 C 
BRANCH   5   6
ATOM      6  C   UNL     1      11.684  22.681  22.346  1.00  0.00     0.032 C 
BRANCH   6   7
ATOM      7  C   UNL     1      12.546  22.248  23.505  1.00  0.00    -0.028 C 
ATOM      8  C   UNL     1      14.682  22.513  22.224  1.00  0.00     0.039 C 
ATOM      9  C   UNL     1      13.896  22.192  23.474  1.00  0.00    -0.080 C 
ATOM     10  C   UNL     1      14.626  21.778  24.726  1.00  0.00     0.039 C 
ENDBRANCH   6   7
ENDBRANCH   5   6
ENDBRANCH   3   5
ENDBRANCH   1   2
BRANCH   1  11
ATOM     11  C   UNL     1       7.988  19.452  18.810  1.00  0.00     0.034 C 
BRANCH  11  12
ATOM     12  C   UNL     1       7.001  20.554  19.157  1.00  0.00    -0.075 C 
ATOM     13  C   UNL     1       6.223  20.528  20.263  1.00  0.00    -0.000 C 
ATOM     14  C   UNL     1       6.845  21.709  18.203  1.00  0.00     0.039 C 
BRANCH  13  15
ATOM     15  C   UNL     1       6.262  19.453  21.314  1.00  0.00     0.183 C 
BRANCH  15  16
ATOM     16  O   UNL     1       7.132  19.830  22.344  1.00  0.00    -0.392 OA
ATOM     17  H   UNL     1       6.966  20.795  22.506  1.00  0.00     0.210 HD
ENDBRANCH  15  16
ENDBRANCH  13  15
ENDBRANCH  11  12
ENDBRANCH   1  11
TORSDOF 8
ENDMDL
MODEL 7
REMARK VINA RESULT:    -5.944      2.881      6.924
REMARK INTER + INTRA:          -9.394
REMARK INTER:                  -8.340
REMARK INTRA:                  -1.054
REMARK UNBOUND:                -0.844
REMARK SMILES CC(C)=CCCC(C)=CCCC(C)=CCO
REMARK SMILES IDX 10 1 9 2 7 3 8 4 6 5 5 6 4 7 1 8 2 9 3 10 11 11 12 12 14 13
REMARK SMILES IDX 13 14 15 15 16 16
REMARK H PARENT 16 17
REMARK Flexibility Score: inf
ROOT
ATOM      1  C   UNL     1       9.161  22.899  20.411  1.00  0.00     0.032 C 
ENDROOT
BRANCH   1   2
ATOM      2  C   UNL     1      10.114  22.809  21.578  1.00  0.00    -0.028 C 
ATOM      3  C   UNL     1      10.434  21.663  22.221  1.00  0.00    -0.077 C 
ATOM      4  C   UNL     1       9.812  20.337  21.848  1.00  0.00     0.039 C 
BRANCH   3   5
ATOM      5  C   UNL     1      11.447  21.710  23.343  1.00  0.00     0.034 C 
BRANCH   5   6
ATOM      6  C   UNL     1      12.314  22.970  23.245  1.00  0.00     0.032 C 
BRANCH   6   7
ATOM      7  C   UNL     1      13.758  22.608  23.006  1.00  0.00    -0.028 C 
ATOM      8  C   UNL     1      13.689  23.256  20.587  1.00  0.00     0.039 C 
ATOM      9  C   UNL     1      14.397  22.755  21.824  1.00  0.00    -0.080 C 
ATOM     10  C   UNL     1      15.857  22.387  21.747  1.00  0.00     0.039 C 
ENDBRANCH   6   7
ENDBRANCH   5   6
ENDBRANCH   3   5
ENDBRANCH   1   2
BRANCH   1  11
ATOM     11  C   UNL     1       9.892  22.813  19.063  1.00  0.00     0.034 C 
BRANCH  11  12
ATOM     12  C   UNL     1       9.038  23.335  17.919  1.00  0.00    -0.075 C 
ATOM     13  C   UNL     1       8.241  22.540  17.170  1.00  0.00    -0.000 C 
ATOM     14  C   UNL     1       9.116  24.799  17.571  1.00  0.00     0.039 C 
BRANCH  13  15
ATOM     15  C   UNL     1       8.048  21.065  17.392  1.00  0.00     0.183 C 
BRANCH  15  16
ATOM     16  O   UNL     1       6.974  20.854  18.265  1.00  0.00    -0.392 OA
ATOM     17  H   UNL     1       6.700  19.908  18.140  1.00  0.00     0.210 HD
ENDBRANCH  15  16
ENDBRANCH  13  15
ENDBRANCH  11  12
ENDBRANCH   1  11
TORSDOF 8
ENDMDL
MODEL 8
REMARK VINA RESULT:    -5.942      2.523      6.641
REMARK INTER + INTRA:          -9.391
REMARK INTER:                  -8.158
REMARK INTRA:                  -1.233
REMARK UNBOUND:                -0.844
REMARK SMILES CC(C)=CCCC(C)=CCCC(C)=CCO
REMARK SMILES IDX 10 1 9 2 7 3 8 4 6 5 5 6 4 7 1 8 2 9 3 10 11 11 12 12 14 13
REMARK SMILES IDX 13 14 15 15 16 16
REMARK H PARENT 16 17
REMARK Flexibility Score: inf
ROOT
ATOM      1  C   UNL     1      11.857  21.561  23.427  1.00  0.00     0.032 C 
ENDROOT
BRANCH   1   2
ATOM      2  C   UNL     1      12.334  21.882  24.823  1.00  0.00    -0.028 C 
ATOM      3  C   UNL     1      13.633  21.974  25.188  1.00  0.00    -0.077 C 
ATOM      4  C   UNL     1      14.757  21.708  24.214  1.00  0.00     0.039 C 
BRANCH   3   5
ATOM      5  C   UNL     1      13.969  22.356  26.612  1.00  0.00     0.034 C 
BRANCH   5   6
ATOM      6  C   UNL     1      14.166  23.871  26.739  1.00  0.00     0.032 C 
BRANCH   6   7
ATOM      7  C   UNL     1      12.854  24.559  27.019  1.00  0.00    -0.028 C 
ATOM      8  C   UNL     1      12.693  25.542  24.721  1.00  0.00     0.039 C 
ATOM      9  C   UNL     1      12.167  25.292  26.115  1.00  0.00    -0.080 C 
ATOM     10  C   UNL     1      10.845  25.886  26.529  1.00  0.00     0.039 C 
ENDBRANCH   6   7
ENDBRANCH   5   6
ENDBRANCH   3   5
ENDBRANCH   1   2
BRANCH   1  11
ATOM     11  C   UNL     1      11.458  22.825  22.650  1.00  0.00     0.034 C 
BRANCH  11  12
ATOM     12  C   UNL     1      11.786  22.709  21.170  1.00  0.00    -0.075 C 
ATOM     13  C   UNL     1      12.976  23.082  20.646  1.00  0.00    -0.000 C 
ATOM     14  C   UNL     1      10.722  22.199  20.234  1.00  0.00     0.039 C 
BRANCH  13  15
ATOM     15  C   UNL     1      14.139  23.602  21.444  1.00  0.00     0.183 C 
BRANCH  15  16
ATOM     16  O   UNL     1      15.326  23.420  20.725  1.00  0.00    -0.392 OA
ATOM     17  H   UNL     1      15.352  22.460  20.475  1.00  0.00     0.210 HD
ENDBRANCH  15  16
ENDBRANCH  13  15
ENDBRANCH  11  12
ENDBRANCH   1  11
TORSDOF 8
ENDMDL
MODEL 9
REMARK VINA RESULT:    -5.909      2.358      4.025
REMARK INTER + INTRA:          -9.343
REMARK INTER:                  -8.463
REMARK INTRA:                  -0.880
REMARK UNBOUND:                -0.844
REMARK SMILES CC(C)=CCCC(C)=CCCC(C)=CCO
REMARK SMILES IDX 10 1 9 2 7 3 8 4 6 5 5 6 4 7 1 8 2 9 3 10 11 11 12 12 14 13
REMARK SMILES IDX 13 14 15 15 16 16
REMARK H PARENT 16 17
REMARK Flexibility Score: inf
ROOT
ATOM      1  C   UNL     1      13.762  21.716  24.769  1.00  0.00     0.032 C 
ENDROOT
BRANCH   1   2
ATOM      2  C   UNL     1      13.062  22.194  23.520  1.00  0.00    -0.028 C 
ATOM      3  C   UNL     1      13.692  22.566  22.383  1.00  0.00    -0.077 C 
ATOM      4  C   UNL     1      15.198  22.582  22.272  1.00  0.00     0.039 C 
BRANCH   3   5
ATOM      5  C   UNL     1      12.862  22.975  21.185  1.00  0.00     0.034 C 
BRANCH   5   6
ATOM      6  C   UNL     1      11.368  22.777  21.463  1.00  0.00     0.032 C 
BRANCH   6   7
ATOM      7  C   UNL     1      10.708  22.030  20.332  1.00  0.00    -0.028 C 
ATOM      8  C   UNL     1       9.752  20.271  21.837  1.00  0.00     0.039 C 
ATOM      9  C   UNL     1       9.958  20.916  20.486  1.00  0.00    -0.080 C 
ATOM     10  C   UNL     1       9.327  20.301  19.264  1.00  0.00     0.039 C 
ENDBRANCH   6   7
ENDBRANCH   5   6
ENDBRANCH   3   5
ENDBRANCH   1   2
BRANCH   1  11
ATOM     11  C   UNL     1      12.928  21.976  26.032  1.00  0.00     0.034 C 
BRANCH  11  12
ATOM     12  C   UNL     1      13.612  22.953  26.974  1.00  0.00    -0.075 C 
ATOM     13  C   UNL     1      13.564  24.295  26.810  1.00  0.00    -0.000 C 
ATOM     14  C   UNL     1      14.422  22.403  28.120  1.00  0.00     0.039 C 
BRANCH  13  15
ATOM     15  C   UNL     1      12.797  24.998  25.725  1.00  0.00     0.183 C 
BRANCH  15  16
ATOM     16  O   UNL     1      13.669  25.379  24.699  1.00  0.00    -0.392 OA
ATOM     17  H   UNL     1      14.556  25.004  24.938  1.00  0.00     0.210 HD
ENDBRANCH  15  16
ENDBRANCH  13  15
ENDBRANCH  11  12
ENDBRANCH   1  11
TORSDOF 8
ENDMDL
