MODEL 1
REMARK VINA RESULT:    -3.620      0.000      0.000
REMARK INTER + INTRA:          -6.042
REMARK INTER:                  -5.313
REMARK INTRA:                  -0.729
REMARK UNBOUND:                -0.729
REMARK SMILES O=C([O-])CCCCCCCC(=O)[O-]
REMARK SMILES IDX 7 1 6 2 5 3 4 4 2 5 1 6 3 7 8 8 9 9 10 10 11 11 12 12 13 13
REMARK H PARENT
REMARK Flexibility Score: inf
ROOT
ATOM      1  C   UNL     1     105.642  95.205  90.082  1.00  0.00     0.000 C 
ENDROOT
BRANCH   1   2
ATOM      2  C   UNL     1     105.754  96.617  89.493  1.00  0.00     0.000 C 
BRANCH   2   3
ATOM      3  C   UNL     1     106.230  97.619  90.552  1.00  0.00     0.006 C 
BRANCH   3   4
ATOM      4  C   UNL     1     106.835  96.897  91.760  1.00  0.00     0.053 C 
BRANCH   4   5
ATOM      5  C   UNL     1     107.899  97.736  92.392  1.00  0.00     0.041 C 
ATOM      6  O   UNL     1     107.801  98.991  92.390  1.00  0.00    -0.550 OA
ATOM      7  O   UNL     1     108.975  97.130  93.029  1.00  0.00    -0.550 OA
ENDBRANCH   4   5
ENDBRANCH   3   4
ENDBRANCH   2   3
ENDBRANCH   1   2
BRANCH   1   8
ATOM      8  C   UNL     1     104.296  94.562  89.717  1.00  0.00     0.000 C 
BRANCH   8   9
ATOM      9  C   UNL     1     103.489  94.136  90.954  1.00  0.00     0.006 C 
BRANCH   9  10
ATOM     10  C   UNL     1     103.405  95.241  92.015  1.00  0.00     0.053 C 
BRANCH  10  11
ATOM     11  C   UNL     1     102.471  96.321  91.570  1.00  0.00     0.041 C 
ATOM     12  O   UNL     1     101.294  96.037  91.223  1.00  0.00    -0.550 OA
ATOM     13  O   UNL     1     102.884  97.647  91.585  1.00  0.00    -0.550 OA
ENDBRANCH  10  11
ENDBRANCH   9  10
ENDBRANCH   8   9
ENDBRANCH   1   8
TORSDOF 8
ENDMDL
MODEL 2
REMARK VINA RESULT:    -3.592     11.076     14.361
REMARK INTER + INTRA:          -6.001
REMARK INTER:                  -5.303
REMARK INTRA:                  -0.698
REMARK UNBOUND:                -0.729
REMARK SMILES O=C([O-])CCCCCCCC(=O)[O-]
REMARK SMILES IDX 7 1 6 2 5 3 4 4 2 5 1 6 3 7 8 8 9 9 10 10 11 11 12 12 13 13
REMARK H PARENT
REMARK Flexibility Score: inf
ROOT
ATOM      1  C   UNL     1      92.352 102.754  90.229  1.00  0.00     0.000 C 
ENDROOT
BRANCH   1   2
ATOM      2  C   UNL     1      92.296 101.434  89.451  1.00  0.00     0.000 C 
BRANCH   2   3
ATOM      3  C   UNL     1      91.762 100.297  90.330  1.00  0.00     0.006 C 
BRANCH   3   4
ATOM      4  C   UNL     1      91.265 100.831  91.677  1.00  0.00     0.053 C 
BRANCH   4   5
ATOM      5  C   UNL     1      89.974 100.179  92.056  1.00  0.00     0.041 C 
ATOM      6  O   UNL     1      89.610 100.146  93.261  1.00  0.00    -0.550 OA
ATOM      7  O   UNL     1      89.146  99.651  91.073  1.00  0.00    -0.550 OA
ENDBRANCH   4   5
ENDBRANCH   3   4
ENDBRANCH   2   3
ENDBRANCH   1   2
BRANCH   1   8
ATOM      8  C   UNL     1      93.579 103.582  89.820  1.00  0.00     0.000 C 
BRANCH   8   9
ATOM      9  C   UNL     1      94.550 103.818  90.988  1.00  0.00     0.006 C 
BRANCH   9  10
ATOM     10  C   UNL     1      94.519 102.684  92.021  1.00  0.00     0.053 C 
BRANCH  10  11
ATOM     11  C   UNL     1      95.465 101.594  91.627  1.00  0.00     0.041 C 
ATOM     12  O   UNL     1      96.646 101.872  91.291  1.00  0.00    -0.550 OA
ATOM     13  O   UNL     1      95.057 100.267  91.679  1.00  0.00    -0.550 OA
ENDBRANCH  10  11
ENDBRANCH   9  10
ENDBRANCH   8   9
ENDBRANCH   1   8
TORSDOF 8
ENDMDL
MODEL 3
REMARK VINA RESULT:    -3.572     12.690     14.158
REMARK INTER + INTRA:          -5.972
REMARK INTER:                  -5.296
REMARK INTRA:                  -0.675
REMARK UNBOUND:                -0.729
REMARK SMILES O=C([O-])CCCCCCCC(=O)[O-]
REMARK SMILES IDX 7 1 6 2 5 3 4 4 2 5 1 6 3 7 8 8 9 9 10 10 11 11 12 12 13 13
REMARK H PARENT
REMARK Flexibility Score: inf
ROOT
ATOM      1  C   UNL     1      93.221  99.610  89.571  1.00  0.00     0.000 C 
ENDROOT
BRANCH   1   2
ATOM      2  C   UNL     1      93.008  98.823  90.870  1.00  0.00     0.000 C 
BRANCH   2   3
ATOM      3  C   UNL     1      93.128  99.738  92.095  1.00  0.00     0.006 C 
BRANCH   3   4
ATOM      4  C   UNL     1      92.109  99.352  93.171  1.00  0.00     0.053 C 
BRANCH   4   5
ATOM      5  C   UNL     1      90.732  99.771  92.763  1.00  0.00     0.041 C 
ATOM      6  O   UNL     1      90.438 100.994  92.692  1.00  0.00    -0.550 OA
ATOM      7  O   UNL     1      89.788  98.814  92.414  1.00  0.00    -0.550 OA
ENDBRANCH   4   5
ENDBRANCH   3   4
ENDBRANCH   2   3
ENDBRANCH   1   2
BRANCH   1   8
ATOM      8  C   UNL     1      92.233 100.781  89.470  1.00  0.00     0.000 C 
BRANCH   8   9
ATOM      9  C   UNL     1      92.936 102.132  89.262  1.00  0.00     0.006 C 
BRANCH   9  10
ATOM     10  C   UNL     1      92.665 103.120  90.405  1.00  0.00     0.053 C 
BRANCH  10  11
ATOM     11  C   UNL     1      93.948 103.518  91.064  1.00  0.00     0.041 C 
ATOM     12  O   UNL     1      94.791 104.217  90.441  1.00  0.00    -0.550 OA
ATOM     13  O   UNL     1      94.192 103.159  92.383  1.00  0.00    -0.550 OA
ENDBRANCH  10  11
ENDBRANCH   9  10
ENDBRANCH   8   9
ENDBRANCH   1   8
TORSDOF 8
ENDMDL
MODEL 4
REMARK VINA RESULT:    -3.563     11.122     13.134
REMARK INTER + INTRA:          -5.959
REMARK INTER:                  -5.187
REMARK INTRA:                  -0.772
REMARK UNBOUND:                -0.729
REMARK SMILES O=C([O-])CCCCCCCC(=O)[O-]
REMARK SMILES IDX 7 1 6 2 5 3 4 4 2 5 1 6 3 7 8 8 9 9 10 10 11 11 12 12 13 13
REMARK H PARENT
REMARK Flexibility Score: inf
ROOT
ATOM      1  C   UNL     1      92.498 102.657  89.815  1.00  0.00     0.000 C 
ENDROOT
BRANCH   1   2
ATOM      2  C   UNL     1      93.902 103.183  89.495  1.00  0.00     0.000 C 
BRANCH   2   3
ATOM      3  C   UNL     1      94.523 103.875  90.715  1.00  0.00     0.006 C 
BRANCH   3   4
ATOM      4  C   UNL     1      94.578 102.927  91.916  1.00  0.00     0.053 C 
BRANCH   4   5
ATOM      5  C   UNL     1      95.472 101.764  91.625  1.00  0.00     0.041 C 
ATOM      6  O   UNL     1      96.685 101.952  91.345  1.00  0.00    -0.550 OA
ATOM      7  O   UNL     1      94.979 100.468  91.712  1.00  0.00    -0.550 OA
ENDBRANCH   4   5
ENDBRANCH   3   4
ENDBRANCH   2   3
ENDBRANCH   1   2
BRANCH   1   8
ATOM      8  C   UNL     1      92.330 101.208  89.336  1.00  0.00     0.000 C 
BRANCH   8   9
ATOM      9  C   UNL     1      91.671 100.308  90.393  1.00  0.00     0.006 C 
BRANCH   9  10
ATOM     10  C   UNL     1      91.409 101.042  91.715  1.00  0.00     0.053 C 
BRANCH  10  11
ATOM     11  C   UNL     1      91.143 100.061  92.813  1.00  0.00     0.041 C 
ATOM     12  O   UNL     1      89.969  99.883  93.233  1.00  0.00    -0.550 OA
ATOM     13  O   UNL     1      92.185  99.308  93.338  1.00  0.00    -0.550 OA
ENDBRANCH  10  11
ENDBRANCH   9  10
ENDBRANCH   8   9
ENDBRANCH   1   8
TORSDOF 8
ENDMDL
MODEL 5
REMARK VINA RESULT:    -3.559      1.798      4.814
REMARK INTER + INTRA:          -5.953
REMARK INTER:                  -5.283
REMARK INTRA:                  -0.670
REMARK UNBOUND:                -0.729
REMARK SMILES O=C([O-])CCCCCCCC(=O)[O-]
REMARK SMILES IDX 7 1 6 2 5 3 4 4 2 5 1 6 3 7 8 8 9 9 10 10 11 11 12 12 13 13
REMARK H PARENT
REMARK Flexibility Score: inf
ROOT
ATOM      1  C   UNL     1     104.803  98.396  89.561  1.00  0.00     0.000 C 
ENDROOT
BRANCH   1   2
ATOM      2  C   UNL     1     105.764  97.204  89.475  1.00  0.00     0.000 C 
BRANCH   2   3
ATOM      3  C   UNL     1     105.003  95.899  89.213  1.00  0.00     0.006 C 
BRANCH   3   4
ATOM      4  C   UNL     1     105.318  94.854  90.287  1.00  0.00     0.053 C 
BRANCH   4   5
ATOM      5  C   UNL     1     104.072  94.454  91.012  1.00  0.00     0.041 C 
ATOM      6  O   UNL     1     103.196  93.761  90.430  1.00  0.00    -0.550 OA
ATOM      7  O   UNL     1     103.899  94.803  92.345  1.00  0.00    -0.550 OA
ENDBRANCH   4   5
ENDBRANCH   3   4
ENDBRANCH   2   3
ENDBRANCH   1   2
BRANCH   1   8
ATOM      8  C   UNL     1     104.985  99.154  90.884  1.00  0.00     0.000 C 
BRANCH   8   9
ATOM      9  C   UNL     1     104.876  98.238  92.112  1.00  0.00     0.006 C 
BRANCH   9  10
ATOM     10  C   UNL     1     105.896  98.588  93.204  1.00  0.00     0.053 C 
BRANCH  10  11
ATOM     11  C   UNL     1     107.272  98.178  92.782  1.00  0.00     0.041 C 
ATOM     12  O   UNL     1     107.559  96.959  92.655  1.00  0.00    -0.550 OA
ATOM     13  O   UNL     1     108.223  99.145  92.481  1.00  0.00    -0.550 OA
ENDBRANCH  10  11
ENDBRANCH   9  10
ENDBRANCH   8   9
ENDBRANCH   1   8
TORSDOF 8
ENDMDL
MODEL 6
REMARK VINA RESULT:    -3.544     12.637     13.811
REMARK INTER + INTRA:          -5.930
REMARK INTER:                  -5.590
REMARK INTRA:                  -0.339
REMARK UNBOUND:                -0.729
REMARK SMILES O=C([O-])CCCCCCCC(=O)[O-]
REMARK SMILES IDX 7 1 6 2 5 3 4 4 2 5 1 6 3 7 8 8 9 9 10 10 11 11 12 12 13 13
REMARK H PARENT
REMARK Flexibility Score: inf
ROOT
ATOM      1  C   UNL     1      92.627 103.131  90.298  1.00  0.00     0.000 C 
ENDROOT
BRANCH   1   2
ATOM      2  C   UNL     1      93.589 102.493  89.289  1.00  0.00     0.000 C 
BRANCH   2   3
ATOM      3  C   UNL     1      94.906 103.275  89.213  1.00  0.00     0.006 C 
BRANCH   3   4
ATOM      4  C   UNL     1      94.759 104.662  89.845  1.00  0.00     0.053 C 
BRANCH   4   5
ATOM      5  C   UNL     1      95.822 105.584  89.339  1.00  0.00     0.041 C 
ATOM      6  O   UNL     1      96.994 105.161  89.158  1.00  0.00    -0.550 OA
ATOM      7  O   UNL     1      95.509 106.899  89.019  1.00  0.00    -0.550 OA
ENDBRANCH   4   5
ENDBRANCH   3   4
ENDBRANCH   2   3
ENDBRANCH   1   2
BRANCH   1   8
ATOM      8  C   UNL     1      92.264 102.141  91.414  1.00  0.00     0.000 C 
BRANCH   8   9
ATOM      9  C   UNL     1      91.743 100.801  90.870  1.00  0.00     0.006 C 
BRANCH   9  10
ATOM     10  C   UNL     1      91.823  99.671  91.906  1.00  0.00     0.053 C 
BRANCH  10  11
ATOM     11  C   UNL     1      90.464  99.368  92.452  1.00  0.00     0.041 C 
ATOM     12  O   UNL     1      89.881 100.197  93.199  1.00  0.00    -0.550 OA
ATOM     13  O   UNL     1      89.820  98.189  92.097  1.00  0.00    -0.550 OA
ENDBRANCH  10  11
ENDBRANCH   9  10
ENDBRANCH   8   9
ENDBRANCH   1   8
TORSDOF 8
ENDMDL
MODEL 7
REMARK VINA RESULT:    -3.543      0.505      5.037
REMARK INTER + INTRA:          -5.929
REMARK INTER:                  -5.229
REMARK INTRA:                  -0.701
REMARK UNBOUND:                -0.729
REMARK SMILES O=C([O-])CCCCCCCC(=O)[O-]
REMARK SMILES IDX 7 1 6 2 5 3 4 4 2 5 1 6 3 7 8 8 9 9 10 10 11 11 12 12 13 13
REMARK H PARENT
REMARK Flexibility Score: inf
ROOT
ATOM      1  C   UNL     1     105.594  95.252  90.142  1.00  0.00     0.000 C 
ENDROOT
BRANCH   1   2
ATOM      2  C   UNL     1     104.315  94.504  89.747  1.00  0.00     0.000 C 
BRANCH   2   3
ATOM      3  C   UNL     1     103.493  94.125  90.984  1.00  0.00     0.006 C 
BRANCH   3   4
ATOM      4  C   UNL     1     103.500  95.257  92.016  1.00  0.00     0.053 C 
BRANCH   4   5
ATOM      5  C   UNL     1     102.538  96.332  91.622  1.00  0.00     0.041 C 
ATOM      6  O   UNL     1     102.906  97.536  91.607  1.00  0.00    -0.550 OA
ATOM      7  O   UNL     1     101.249  96.001  91.223  1.00  0.00    -0.550 OA
ENDBRANCH   4   5
ENDBRANCH   3   4
ENDBRANCH   2   3
ENDBRANCH   1   2
BRANCH   1   8
ATOM      8  C   UNL     1     105.675  96.614  89.437  1.00  0.00     0.000 C 
BRANCH   8   9
ATOM      9  C   UNL     1     106.238  97.719  90.345  1.00  0.00     0.006 C 
BRANCH   9  10
ATOM     10  C   UNL     1     106.708  97.184  91.705  1.00  0.00     0.053 C 
BRANCH  10  11
ATOM     11  C   UNL     1     107.921  97.927  92.167  1.00  0.00     0.041 C 
ATOM     12  O   UNL     1     108.575  98.638  91.358  1.00  0.00    -0.550 OA
ATOM     13  O   UNL     1     108.301  97.875  93.502  1.00  0.00    -0.550 OA
ENDBRANCH  10  11
ENDBRANCH   9  10
ENDBRANCH   8   9
ENDBRANCH   1   8
TORSDOF 8
ENDMDL
MODEL 8
REMARK VINA RESULT:    -3.528     12.306     14.695
REMARK INTER + INTRA:          -5.907
REMARK INTER:                  -5.314
REMARK INTRA:                  -0.593
REMARK UNBOUND:                -0.729
REMARK SMILES O=C([O-])CCCCCCCC(=O)[O-]
REMARK SMILES IDX 7 1 6 2 5 3 4 4 2 5 1 6 3 7 8 8 9 9 10 10 11 11 12 12 13 13
REMARK H PARENT
REMARK Flexibility Score: inf
ROOT
ATOM      1  C   UNL     1      93.436 100.038  92.680  1.00  0.00     0.000 C 
ENDROOT
BRANCH   1   2
ATOM      2  C   UNL     1      92.170  99.462  92.035  1.00  0.00     0.000 C 
BRANCH   2   3
ATOM      3  C   UNL     1      90.914 100.167  92.560  1.00  0.00     0.006 C 
BRANCH   3   4
ATOM      4  C   UNL     1      89.720  99.930  91.629  1.00  0.00     0.053 C 
BRANCH   4   5
ATOM      5  C   UNL     1      89.430  98.467  91.513  1.00  0.00     0.041 C 
ATOM      6  O   UNL     1      88.954  97.836  92.494  1.00  0.00    -0.550 OA
ATOM      7  O   UNL     1      89.636  97.811  90.307  1.00  0.00    -0.550 OA
ENDBRANCH   4   5
ENDBRANCH   3   4
ENDBRANCH   2   3
ENDBRANCH   1   2
BRANCH   1   8
ATOM      8  C   UNL     1      94.537 100.256  91.632  1.00  0.00     0.000 C 
BRANCH   8   9
ATOM      9  C   UNL     1      95.072 101.697  91.625  1.00  0.00     0.006 C 
BRANCH   9  10
ATOM     10  C   UNL     1      93.993 102.728  91.983  1.00  0.00     0.053 C 
BRANCH  10  11
ATOM     11  C   UNL     1      93.361 103.273  90.742  1.00  0.00     0.041 C 
ATOM     12  O   UNL     1      93.924 104.196  90.096  1.00  0.00    -0.550 OA
ATOM     13  O   UNL     1      92.173 102.728  90.271  1.00  0.00    -0.550 OA
ENDBRANCH  10  11
ENDBRANCH   9  10
ENDBRANCH   8   9
ENDBRANCH   1   8
TORSDOF 8
ENDMDL
MODEL 9
REMARK VINA RESULT:    -3.516      2.380      3.683
REMARK INTER + INTRA:          -5.889
REMARK INTER:                  -5.249
REMARK INTRA:                  -0.640
REMARK UNBOUND:                -0.729
REMARK SMILES O=C([O-])CCCCCCCC(=O)[O-]
REMARK SMILES IDX 7 1 6 2 5 3 4 4 2 5 1 6 3 7 8 8 9 9 10 10 11 11 12 12 13 13
REMARK H PARENT
REMARK Flexibility Score: inf
ROOT
ATOM      1  C   UNL     1     106.115  98.628  92.959  1.00  0.00     0.000 C 
ENDROOT
BRANCH   1   2
ATOM      2  C   UNL     1     107.591  98.222  92.869  1.00  0.00     0.000 C 
BRANCH   2   3
ATOM      3  C   UNL     1     108.436  99.345  92.255  1.00  0.00     0.006 C 
BRANCH   3   4
ATOM      4  C   UNL     1     108.991  98.931  90.889  1.00  0.00     0.053 C 
BRANCH   4   5
ATOM      5  C   UNL     1     108.128  99.462  89.789  1.00  0.00     0.041 C 
ATOM      6  O   UNL     1     107.186  98.763  89.330  1.00  0.00    -0.550 OA
ATOM      7  O   UNL     1     108.330 100.748  89.305  1.00  0.00    -0.550 OA
ENDBRANCH   4   5
ENDBRANCH   3   4
ENDBRANCH   2   3
ENDBRANCH   1   2
BRANCH   1   8
ATOM      8  C   UNL     1     105.238  97.706  92.100  1.00  0.00     0.000 C 
BRANCH   8   9
ATOM      9  C   UNL     1     105.933  96.378  91.756  1.00  0.00     0.006 C 
BRANCH   9  10
ATOM     10  C   UNL     1     105.374  95.732  90.481  1.00  0.00     0.053 C 
BRANCH  10  11
ATOM     11  C   UNL     1     104.430  94.626  90.828  1.00  0.00     0.041 C 
ATOM     12  O   UNL     1     103.971  94.527  91.997  1.00  0.00    -0.550 OA
ATOM     13  O   UNL     1     104.017  93.731  89.849  1.00  0.00    -0.550 OA
ENDBRANCH  10  11
ENDBRANCH   9  10
ENDBRANCH   8   9
ENDBRANCH   1   8
TORSDOF 8
ENDMDL
