MODEL 1
REMARK VINA RESULT:    -2.786      0.000      0.000
REMARK INTER + INTRA:          -5.761
REMARK INTER:                  -5.230
REMARK INTRA:                  -0.531
REMARK UNBOUND:                -0.531
REMARK SMILES O=C([O-])CCCCCCCCCCCCCCC(=O)[O-]
REMARK SMILES IDX 10 1 9 2 8 3 7 4 6 5 5 6 4 7 2 8 1 9 3 10 11 11 12 12 13 13
REMARK SMILES IDX 14 14 15 15 16 16 17 17 18 18 19 19 20 20
REMARK H PARENT
REMARK Flexibility Score: inf
ROOT
ATOM      1  C   UNL     1      23.666   2.580  -2.668  1.00  0.00     0.000 C 
ENDROOT
BRANCH   1   2
ATOM      2  C   UNL     1      23.909   1.112  -3.051  1.00  0.00     0.000 C 
BRANCH   2   3
ATOM      3  C   UNL     1      22.784   0.213  -2.525  1.00  0.00     0.000 C 
BRANCH   3   4
ATOM      4  C   UNL     1      23.273  -1.229  -2.339  1.00  0.00     0.000 C 
BRANCH   4   5
ATOM      5  C   UNL     1      24.412  -1.554  -3.318  1.00  0.00     0.000 C 
BRANCH   5   6
ATOM      6  C   UNL     1      25.551  -2.346  -2.657  1.00  0.00     0.006 C 
BRANCH   6   7
ATOM      7  C   UNL     1      25.855  -3.663  -3.383  1.00  0.00     0.053 C 
BRANCH   7   8
ATOM      8  C   UNL     1      26.580  -4.604  -2.474  1.00  0.00     0.041 C 
ATOM      9  O   UNL     1      26.929  -5.741  -2.886  1.00  0.00    -0.550 OA
ATOM     10  O   UNL     1      26.919  -4.204  -1.188  1.00  0.00    -0.550 OA
ENDBRANCH   7   8
ENDBRANCH   6   7
ENDBRANCH   5   6
ENDBRANCH   4   5
ENDBRANCH   3   4
ENDBRANCH   2   3
ENDBRANCH   1   2
BRANCH   1  11
ATOM     11  C   UNL     1      24.946   3.287  -2.194  1.00  0.00     0.000 C 
BRANCH  11  12
ATOM     12  C   UNL     1      24.828   4.818  -2.241  1.00  0.00     0.000 C 
BRANCH  12  13
ATOM     13  C   UNL     1      25.972   5.479  -1.461  1.00  0.00     0.000 C 
BRANCH  13  14
ATOM     14  C   UNL     1      26.165   6.937  -1.895  1.00  0.00     0.000 C 
BRANCH  14  15
ATOM     15  C   UNL     1      27.132   7.668  -0.955  1.00  0.00     0.000 C 
BRANCH  15  16
ATOM     16  C   UNL     1      28.384   8.136  -1.707  1.00  0.00     0.006 C 
BRANCH  16  17
ATOM     17  C   UNL     1      28.510   9.662  -1.669  1.00  0.00     0.053 C 
BRANCH  17  18
ATOM     18  C   UNL     1      28.166  10.249  -3.000  1.00  0.00     0.041 C 
ATOM     19  O   UNL     1      27.608   9.542  -3.881  1.00  0.00    -0.550 OA
ATOM     20  O   UNL     1      28.421  11.591  -3.255  1.00  0.00    -0.550 OA
ENDBRANCH  17  18
ENDBRANCH  16  17
ENDBRANCH  15  16
ENDBRANCH  14  15
ENDBRANCH  13  14
ENDBRANCH  12  13
ENDBRANCH  11  12
ENDBRANCH   1  11
TORSDOF 15
ENDMDL
MODEL 2
REMARK VINA RESULT:    -2.769      1.244      2.328
REMARK INTER + INTRA:          -5.728
REMARK INTER:                  -5.148
REMARK INTRA:                  -0.579
REMARK UNBOUND:                -0.531
REMARK SMILES O=C([O-])CCCCCCCCCCCCCCC(=O)[O-]
REMARK SMILES IDX 10 1 9 2 8 3 7 4 6 5 5 6 4 7 2 8 1 9 3 10 11 11 12 12 13 13
REMARK SMILES IDX 14 14 15 15 16 16 17 17 18 18 19 19 20 20
REMARK H PARENT
REMARK Flexibility Score: inf
ROOT
ATOM      1  C   UNL     1      22.714   0.473  -2.500  1.00  0.00     0.000 C 
ENDROOT
BRANCH   1   2
ATOM      2  C   UNL     1      23.119  -0.999  -2.331  1.00  0.00     0.000 C 
BRANCH   2   3
ATOM      3  C   UNL     1      24.271  -1.364  -3.274  1.00  0.00     0.000 C 
BRANCH   3   4
ATOM      4  C   UNL     1      25.129  -2.491  -2.686  1.00  0.00     0.000 C 
BRANCH   4   5
ATOM      5  C   UNL     1      26.156  -2.994  -3.713  1.00  0.00     0.000 C 
BRANCH   5   6
ATOM      6  C   UNL     1      26.064  -4.509  -3.948  1.00  0.00     0.006 C 
BRANCH   6   7
ATOM      7  C   UNL     1      26.185  -5.319  -2.651  1.00  0.00     0.053 C 
BRANCH   7   8
ATOM      8  C   UNL     1      27.588  -5.273  -2.136  1.00  0.00     0.041 C 
ATOM      9  O   UNL     1      28.544  -5.645  -2.866  1.00  0.00    -0.550 OA
ATOM     10  O   UNL     1      27.847  -4.764  -0.869  1.00  0.00    -0.550 OA
ENDBRANCH   7   8
ENDBRANCH   6   7
ENDBRANCH   5   6
ENDBRANCH   4   5
ENDBRANCH   3   4
ENDBRANCH   2   3
ENDBRANCH   1   2
BRANCH   1  11
ATOM     11  C   UNL     1      23.858   1.343  -3.042  1.00  0.00     0.000 C 
BRANCH  11  12
ATOM     12  C   UNL     1      23.699   2.827  -2.674  1.00  0.00     0.000 C 
BRANCH  12  13
ATOM     13  C   UNL     1      24.984   3.375  -2.041  1.00  0.00     0.000 C 
BRANCH  13  14
ATOM     14  C   UNL     1      25.016   4.907  -2.094  1.00  0.00     0.000 C 
BRANCH  14  15
ATOM     15  C   UNL     1      26.142   5.465  -1.215  1.00  0.00     0.000 C 
BRANCH  15  16
ATOM     16  C   UNL     1      26.467   6.916  -1.590  1.00  0.00     0.006 C 
BRANCH  16  17
ATOM     17  C   UNL     1      27.760   7.382  -0.914  1.00  0.00     0.053 C 
BRANCH  17  18
ATOM     18  C   UNL     1      27.854   8.874  -0.934  1.00  0.00     0.041 C 
ATOM     19  O   UNL     1      27.936   9.490  -2.029  1.00  0.00    -0.550 OA
ATOM     20  O   UNL     1      27.806   9.590   0.256  1.00  0.00    -0.550 OA
ENDBRANCH  17  18
ENDBRANCH  16  17
ENDBRANCH  15  16
ENDBRANCH  14  15
ENDBRANCH  13  14
ENDBRANCH  12  13
ENDBRANCH  11  12
ENDBRANCH   1  11
TORSDOF 15
ENDMDL
MODEL 3
REMARK VINA RESULT:    -2.676      0.762     11.084
REMARK INTER + INTRA:          -5.554
REMARK INTER:                  -5.105
REMARK INTRA:                  -0.449
REMARK UNBOUND:                -0.531
REMARK SMILES O=C([O-])CCCCCCCCCCCCCCC(=O)[O-]
REMARK SMILES IDX 10 1 9 2 8 3 7 4 6 5 5 6 4 7 2 8 1 9 3 10 11 11 12 12 13 13
REMARK SMILES IDX 14 14 15 15 16 16 17 17 18 18 19 19 20 20
REMARK H PARENT
REMARK Flexibility Score: inf
ROOT
ATOM      1  C   UNL     1      23.858   3.177  -2.585  1.00  0.00     0.000 C 
ENDROOT
BRANCH   1   2
ATOM      2  C   UNL     1      25.135   3.639  -1.867  1.00  0.00     0.000 C 
BRANCH   2   3
ATOM      3  C   UNL     1      25.360   5.143  -2.058  1.00  0.00     0.000 C 
BRANCH   3   4
ATOM      4  C   UNL     1      26.429   5.668  -1.092  1.00  0.00     0.000 C 
BRANCH   4   5
ATOM      5  C   UNL     1      26.624   7.183  -1.257  1.00  0.00     0.000 C 
BRANCH   5   6
ATOM      6  C   UNL     1      28.059   7.634  -0.938  1.00  0.00     0.006 C 
BRANCH   6   7
ATOM      7  C   UNL     1      28.195   9.159  -0.854  1.00  0.00     0.053 C 
BRANCH   7   8
ATOM      8  C   UNL     1      28.546   9.725  -2.193  1.00  0.00     0.041 C 
ATOM      9  O   UNL     1      28.411  10.956  -2.416  1.00  0.00    -0.550 OA
ATOM     10  O   UNL     1      29.076   8.901  -3.179  1.00  0.00    -0.550 OA
ENDBRANCH   7   8
ENDBRANCH   6   7
ENDBRANCH   5   6
ENDBRANCH   4   5
ENDBRANCH   3   4
ENDBRANCH   2   3
ENDBRANCH   1   2
BRANCH   1  11
ATOM     11  C   UNL     1      23.889   1.684  -2.945  1.00  0.00     0.000 C 
BRANCH  11  12
ATOM     12  C   UNL     1      22.581   0.960  -2.586  1.00  0.00     0.000 C 
BRANCH  12  13
ATOM     13  C   UNL     1      22.633  -0.511  -3.016  1.00  0.00     0.000 C 
BRANCH  13  14
ATOM     14  C   UNL     1      23.752  -1.260  -2.283  1.00  0.00     0.000 C 
BRANCH  14  15
ATOM     15  C   UNL     1      24.769  -1.839  -3.275  1.00  0.00     0.000 C 
BRANCH  15  16
ATOM     16  C   UNL     1      25.818  -2.694  -2.553  1.00  0.00     0.006 C 
BRANCH  16  17
ATOM     17  C   UNL     1      26.167  -3.941  -3.371  1.00  0.00     0.053 C 
BRANCH  17  18
ATOM     18  C   UNL     1      26.823  -4.969  -2.506  1.00  0.00     0.041 C 
ATOM     19  O   UNL     1      27.051  -6.124  -2.955  1.00  0.00    -0.550 OA
ATOM     20  O   UNL     1      27.225  -4.640  -1.218  1.00  0.00    -0.550 OA
ENDBRANCH  17  18
ENDBRANCH  16  17
ENDBRANCH  15  16
ENDBRANCH  14  15
ENDBRANCH  13  14
ENDBRANCH  12  13
ENDBRANCH  11  12
ENDBRANCH   1  11
TORSDOF 15
ENDMDL
MODEL 4
REMARK VINA RESULT:    -2.669      0.719     11.246
REMARK INTER + INTRA:          -5.540
REMARK INTER:                  -5.038
REMARK INTRA:                  -0.502
REMARK UNBOUND:                -0.531
REMARK SMILES O=C([O-])CCCCCCCCCCCCCCC(=O)[O-]
REMARK SMILES IDX 10 1 9 2 8 3 7 4 6 5 5 6 4 7 2 8 1 9 3 10 11 11 12 12 13 13
REMARK SMILES IDX 14 14 15 15 16 16 17 17 18 18 19 19 20 20
REMARK H PARENT
REMARK Flexibility Score: inf
ROOT
ATOM      1  C   UNL     1      24.915   3.225  -2.154  1.00  0.00     0.000 C 
ENDROOT
BRANCH   1   2
ATOM      2  C   UNL     1      24.827   4.757  -2.229  1.00  0.00     0.000 C 
BRANCH   2   3
ATOM      3  C   UNL     1      25.937   5.413  -1.401  1.00  0.00     0.000 C 
BRANCH   3   4
ATOM      4  C   UNL     1      26.135   6.879  -1.807  1.00  0.00     0.000 C 
BRANCH   4   5
ATOM      5  C   UNL     1      27.218   7.547  -0.947  1.00  0.00     0.000 C 
BRANCH   5   6
ATOM      6  C   UNL     1      28.361   8.138  -1.787  1.00  0.00     0.006 C 
BRANCH   6   7
ATOM      7  C   UNL     1      27.872   9.185  -2.797  1.00  0.00     0.053 C 
BRANCH   7   8
ATOM      8  C   UNL     1      28.388  10.541  -2.434  1.00  0.00     0.041 C 
ATOM      9  O   UNL     1      28.858  10.753  -1.286  1.00  0.00    -0.550 OA
ATOM     10  O   UNL     1      28.401  11.556  -3.383  1.00  0.00    -0.550 OA
ENDBRANCH   7   8
ENDBRANCH   6   7
ENDBRANCH   5   6
ENDBRANCH   4   5
ENDBRANCH   3   4
ENDBRANCH   2   3
ENDBRANCH   1   2
BRANCH   1  11
ATOM     11  C   UNL     1      23.638   2.533  -2.655  1.00  0.00     0.000 C 
BRANCH  11  12
ATOM     12  C   UNL     1      23.889   1.090  -3.120  1.00  0.00     0.000 C 
BRANCH  12  13
ATOM     13  C   UNL     1      22.796   0.149  -2.599  1.00  0.00     0.000 C 
BRANCH  13  14
ATOM     14  C   UNL     1      23.360  -1.249  -2.320  1.00  0.00     0.000 C 
BRANCH  14  15
ATOM     15  C   UNL     1      24.630  -1.504  -3.141  1.00  0.00     0.000 C 
BRANCH  15  16
ATOM     16  C   UNL     1      25.076  -2.968  -3.027  1.00  0.00     0.006 C 
BRANCH  16  17
ATOM     17  C   UNL     1      26.503  -3.066  -2.481  1.00  0.00     0.053 C 
BRANCH  17  18
ATOM     18  C   UNL     1      26.819  -4.474  -2.088  1.00  0.00     0.041 C 
ATOM     19  O   UNL     1      26.398  -5.436  -2.783  1.00  0.00    -0.550 OA
ATOM     20  O   UNL     1      27.615  -4.724  -0.977  1.00  0.00    -0.550 OA
ENDBRANCH  17  18
ENDBRANCH  16  17
ENDBRANCH  15  16
ENDBRANCH  14  15
ENDBRANCH  13  14
ENDBRANCH  12  13
ENDBRANCH  11  12
ENDBRANCH   1  11
TORSDOF 15
ENDMDL
MODEL 5
REMARK VINA RESULT:    -2.250      1.574     10.677
REMARK INTER + INTRA:          -4.755
REMARK INTER:                  -4.203
REMARK INTRA:                  -0.552
REMARK UNBOUND:                -0.531
REMARK SMILES O=C([O-])CCCCCCCCCCCCCCC(=O)[O-]
REMARK SMILES IDX 10 1 9 2 8 3 7 4 6 5 5 6 4 7 2 8 1 9 3 10 11 11 12 12 13 13
REMARK SMILES IDX 14 14 15 15 16 16 17 17 18 18 19 19 20 20
REMARK H PARENT
REMARK Flexibility Score: inf
ROOT
ATOM      1  C   UNL     1      22.669   0.595  -2.469  1.00  0.00     0.000 C 
ENDROOT
BRANCH   1   2
ATOM      2  C   UNL     1      23.855   1.432  -2.972  1.00  0.00     0.000 C 
BRANCH   2   3
ATOM      3  C   UNL     1      23.690   2.907  -2.587  1.00  0.00     0.000 C 
BRANCH   3   4
ATOM      4  C   UNL     1      25.000   3.481  -2.034  1.00  0.00     0.000 C 
BRANCH   4   5
ATOM      5  C   UNL     1      25.007   5.015  -2.118  1.00  0.00     0.000 C 
BRANCH   5   6
ATOM      6  C   UNL     1      26.219   5.642  -1.411  1.00  0.00     0.006 C 
BRANCH   6   7
ATOM      7  C   UNL     1      26.378   7.136  -1.720  1.00  0.00     0.053 C 
BRANCH   7   8
ATOM      8  C   UNL     1      27.624   7.669  -1.088  1.00  0.00     0.041 C 
ATOM      9  O   UNL     1      28.363   6.912  -0.405  1.00  0.00    -0.550 OA
ATOM     10  O   UNL     1      28.001   8.990  -1.301  1.00  0.00    -0.550 OA
ENDBRANCH   7   8
ENDBRANCH   6   7
ENDBRANCH   5   6
ENDBRANCH   4   5
ENDBRANCH   3   4
ENDBRANCH   2   3
ENDBRANCH   1   2
BRANCH   1  11
ATOM     11  C   UNL     1      23.006  -0.900  -2.356  1.00  0.00     0.000 C 
BRANCH  11  12
ATOM     12  C   UNL     1      24.217  -1.301  -3.214  1.00  0.00     0.000 C 
BRANCH  12  13
ATOM     13  C   UNL     1      24.945  -2.505  -2.603  1.00  0.00     0.000 C 
BRANCH  13  14
ATOM     14  C   UNL     1      26.077  -2.987  -3.519  1.00  0.00     0.000 C 
BRANCH  14  15
ATOM     15  C   UNL     1      25.933  -4.482  -3.830  1.00  0.00     0.000 C 
BRANCH  15  16
ATOM     16  C   UNL     1      26.433  -5.339  -2.661  1.00  0.00     0.006 C 
BRANCH  16  17
ATOM     17  C   UNL     1      27.670  -4.713  -2.009  1.00  0.00     0.053 C 
BRANCH  17  18
ATOM     18  C   UNL     1      27.584  -4.810  -0.520  1.00  0.00     0.041 C 
ATOM     19  O   UNL     1      26.808  -5.643   0.018  1.00  0.00    -0.550 OA
ATOM     20  O   UNL     1      28.395  -4.011   0.277  1.00  0.00    -0.550 OA
ENDBRANCH  17  18
ENDBRANCH  16  17
ENDBRANCH  15  16
ENDBRANCH  14  15
ENDBRANCH  13  14
ENDBRANCH  12  13
ENDBRANCH  11  12
ENDBRANCH   1  11
TORSDOF 15
ENDMDL
MODEL 6
REMARK VINA RESULT:    -1.619      1.740      3.432
REMARK INTER + INTRA:          -3.571
REMARK INTER:                  -2.978
REMARK INTRA:                  -0.593
REMARK UNBOUND:                -0.531
REMARK SMILES O=C([O-])CCCCCCCCCCCCCCC(=O)[O-]
REMARK SMILES IDX 10 1 9 2 8 3 7 4 6 5 5 6 4 7 2 8 1 9 3 10 11 11 12 12 13 13
REMARK SMILES IDX 14 14 15 15 16 16 17 17 18 18 19 19 20 20
REMARK H PARENT
REMARK Flexibility Score: inf
ROOT
ATOM      1  C   UNL     1      23.392  -0.919  -2.215  1.00  0.00     0.000 C 
ENDROOT
BRANCH   1   2
ATOM      2  C   UNL     1      23.915  -1.475  -3.548  1.00  0.00     0.000 C 
BRANCH   2   3
ATOM      3  C   UNL     1      25.382  -1.901  -3.429  1.00  0.00     0.000 C 
BRANCH   3   4
ATOM      4  C   UNL     1      25.514  -3.213  -2.647  1.00  0.00     0.000 C 
BRANCH   4   5
ATOM      5  C   UNL     1      26.035  -4.342  -3.549  1.00  0.00     0.000 C 
BRANCH   5   6
ATOM      6  C   UNL     1      26.710  -5.471  -2.754  1.00  0.00     0.006 C 
BRANCH   6   7
ATOM      7  C   UNL     1      27.947  -4.995  -1.982  1.00  0.00     0.053 C 
BRANCH   7   8
ATOM      8  C   UNL     1      27.658  -4.946  -0.515  1.00  0.00     0.041 C 
ATOM      9  O   UNL     1      26.790  -5.707  -0.014  1.00  0.00    -0.550 OA
ATOM     10  O   UNL     1      28.390  -4.099   0.309  1.00  0.00    -0.550 OA
ENDBRANCH   7   8
ENDBRANCH   6   7
ENDBRANCH   5   6
ENDBRANCH   4   5
ENDBRANCH   3   4
ENDBRANCH   2   3
ENDBRANCH   1   2
BRANCH   1  11
ATOM     11  C   UNL     1      22.435   0.268  -2.402  1.00  0.00     0.000 C 
BRANCH  11  12
ATOM     12  C   UNL     1      23.063   1.413  -3.214  1.00  0.00     0.000 C 
BRANCH  12  13
ATOM     13  C   UNL     1      24.296   1.979  -2.498  1.00  0.00     0.000 C 
BRANCH  13  14
ATOM     14  C   UNL     1      24.208   3.505  -2.373  1.00  0.00     0.000 C 
BRANCH  14  15
ATOM     15  C   UNL     1      25.458   4.073  -1.691  1.00  0.00     0.000 C 
BRANCH  15  16
ATOM     16  C   UNL     1      25.656   5.553  -2.046  1.00  0.00     0.006 C 
BRANCH  16  17
ATOM     17  C   UNL     1      26.453   6.277  -0.957  1.00  0.00     0.053 C 
BRANCH  17  18
ATOM     18  C   UNL     1      27.066   7.528  -1.501  1.00  0.00     0.041 C 
ATOM     19  O   UNL     1      28.133   7.979  -1.005  1.00  0.00    -0.550 OA
ATOM     20  O   UNL     1      26.484   8.174  -2.585  1.00  0.00    -0.550 OA
ENDBRANCH  17  18
ENDBRANCH  16  17
ENDBRANCH  15  16
ENDBRANCH  14  15
ENDBRANCH  13  14
ENDBRANCH  12  13
ENDBRANCH  11  12
ENDBRANCH   1  11
TORSDOF 15
ENDMDL
MODEL 7
REMARK VINA RESULT:    -1.041      2.936      4.802
REMARK INTER + INTRA:          -2.485
REMARK INTER:                  -1.711
REMARK INTRA:                  -0.774
REMARK UNBOUND:                -0.531
REMARK SMILES O=C([O-])CCCCCCCCCCCCCCC(=O)[O-]
REMARK SMILES IDX 10 1 9 2 8 3 7 4 6 5 5 6 4 7 2 8 1 9 3 10 11 11 12 12 13 13
REMARK SMILES IDX 14 14 15 15 16 16 17 17 18 18 19 19 20 20
REMARK H PARENT
REMARK Flexibility Score: inf
ROOT
ATOM      1  C   UNL     1      23.901  -1.476  -3.363  1.00  0.00     0.000 C 
ENDROOT
BRANCH   1   2
ATOM      2  C   UNL     1      25.392  -1.661  -3.041  1.00  0.00     0.000 C 
BRANCH   2   3
ATOM      3  C   UNL     1      25.720  -3.136  -2.786  1.00  0.00     0.000 C 
BRANCH   3   4
ATOM      4  C   UNL     1      25.964  -3.882  -4.103  1.00  0.00     0.000 C 
BRANCH   4   5
ATOM      5  C   UNL     1      27.196  -4.794  -3.999  1.00  0.00     0.000 C 
BRANCH   5   6
ATOM      6  C   UNL     1      27.089  -5.806  -2.848  1.00  0.00     0.006 C 
BRANCH   6   7
ATOM      7  C   UNL     1      28.204  -5.639  -1.807  1.00  0.00     0.053 C 
BRANCH   7   8
ATOM      8  C   UNL     1      27.654  -5.057  -0.544  1.00  0.00     0.041 C 
ATOM      9  O   UNL     1      27.897  -3.861  -0.239  1.00  0.00    -0.550 OA
ATOM     10  O   UNL     1      26.825  -5.821   0.269  1.00  0.00    -0.550 OA
ENDBRANCH   7   8
ENDBRANCH   6   7
ENDBRANCH   5   6
ENDBRANCH   4   5
ENDBRANCH   3   4
ENDBRANCH   2   3
ENDBRANCH   1   2
BRANCH   1  11
ATOM     11  C   UNL     1      23.054  -1.207  -2.109  1.00  0.00     0.000 C 
BRANCH  11  12
ATOM     12  C   UNL     1      22.464   0.212  -2.086  1.00  0.00     0.000 C 
BRANCH  12  13
ATOM     13  C   UNL     1      23.147   1.106  -3.128  1.00  0.00     0.000 C 
BRANCH  13  14
ATOM     14  C   UNL     1      24.033   2.160  -2.454  1.00  0.00     0.000 C 
BRANCH  14  15
ATOM     15  C   UNL     1      23.686   3.570  -2.949  1.00  0.00     0.000 C 
BRANCH  15  16
ATOM     16  C   UNL     1      24.636   4.614  -2.350  1.00  0.00     0.006 C 
BRANCH  16  17
ATOM     17  C   UNL     1      25.349   4.063  -1.112  1.00  0.00     0.053 C 
BRANCH  17  18
ATOM     18  C   UNL     1      26.604   4.830  -0.843  1.00  0.00     0.041 C 
ATOM     19  O   UNL     1      26.643   6.073  -1.043  1.00  0.00    -0.550 OA
ATOM     20  O   UNL     1      27.720   4.180  -0.330  1.00  0.00    -0.550 OA
ENDBRANCH  17  18
ENDBRANCH  16  17
ENDBRANCH  15  16
ENDBRANCH  14  15
ENDBRANCH  13  14
ENDBRANCH  12  13
ENDBRANCH  11  12
ENDBRANCH   1  11
TORSDOF 15
ENDMDL
