MODEL 1
REMARK VINA RESULT:    -3.175      0.000      0.000
REMARK INTER + INTRA:          -4.110
REMARK INTER:                  -3.825
REMARK INTRA:                  -0.286
REMARK UNBOUND:                -0.286
REMARK SMILES NC(=O)C[C@H]([NH3+])C(=O)[O-]
REMARK SMILES IDX 4 1 5 2 6 3 7 7 8 8 9 9 2 10 3 11 1 12
REMARK H PARENT 6 4 6 5 6 6 1 13 1 14
REMARK Flexibility Score: inf
ROOT
ATOM      1  C   UNL     1     128.857 113.310 110.528  1.00  0.00     0.171 C 
ENDROOT
BRANCH   1   2
ATOM      2  C   UNL     1     129.258 113.821 111.927  1.00  0.00     0.237 C 
BRANCH   2   3
ATOM      3  N   UNL     1     128.663 115.134 112.212  1.00  0.00    -0.350 N 
ATOM      4  H   UNL     1     127.691 115.178 111.830  1.00  0.00     0.345 HD
ATOM      5  H   UNL     1     129.235 115.901 111.788  1.00  0.00     0.345 HD
ATOM      6  H   UNL     1     128.607 115.280 113.247  1.00  0.00     0.345 HD
ENDBRANCH   2   3
BRANCH   2   7
ATOM      7  C   UNL     1     130.758 113.894 112.031  1.00  0.00     0.100 C 
ATOM      8  O   UNL     1     131.327 114.982 112.317  1.00  0.00    -0.544 OA
ATOM      9  O   UNL     1     131.527 112.761 111.795  1.00  0.00    -0.544 OA
ENDBRANCH   2   7
ENDBRANCH   1   2
BRANCH   1  10
ATOM     10  C   UNL     1     127.404 113.561 110.241  1.00  0.00     0.223 C 
ATOM     11  O   UNL     1     126.535 113.247 111.099  1.00  0.00    -0.275 OA
ATOM     12  N   UNL     1     127.002 114.183 109.021  1.00  0.00    -0.369 N 
ATOM     13  H   UNL     1     127.711 114.470 108.310  1.00  0.00     0.159 HD
ATOM     14  H   UNL     1     125.992 114.364 108.831  1.00  0.00     0.159 HD
ENDBRANCH   1  10
TORSDOF 4
ENDMDL
MODEL 2
REMARK VINA RESULT:    -3.170      1.968      2.440
REMARK INTER + INTRA:          -4.104
REMARK INTER:                  -3.638
REMARK INTRA:                  -0.466
REMARK UNBOUND:                -0.286
REMARK SMILES NC(=O)C[C@H]([NH3+])C(=O)[O-]
REMARK SMILES IDX 4 1 5 2 6 3 7 7 8 8 9 9 2 10 3 11 1 12
REMARK H PARENT 6 4 6 5 6 6 1 13 1 14
REMARK Flexibility Score: inf
ROOT
ATOM      1  C   UNL     1     127.109 113.788 109.702  1.00  0.00     0.171 C 
ENDROOT
BRANCH   1   2
ATOM      2  C   UNL     1     127.703 113.008 110.892  1.00  0.00     0.237 C 
BRANCH   2   3
ATOM      3  N   UNL     1     126.696 112.775 111.938  1.00  0.00    -0.350 N 
ATOM      4  H   UNL     1     126.633 111.754 112.154  1.00  0.00     0.345 HD
ATOM      5  H   UNL     1     125.757 113.122 111.634  1.00  0.00     0.345 HD
ATOM      6  H   UNL     1     126.977 113.271 112.816  1.00  0.00     0.345 HD
ENDBRANCH   2   3
BRANCH   2   7
ATOM      7  C   UNL     1     128.878 113.758 111.458  1.00  0.00     0.100 C 
ATOM      8  O   UNL     1     130.055 113.362 111.240  1.00  0.00    -0.544 OA
ATOM      9  O   UNL     1     128.670 114.887 112.242  1.00  0.00    -0.544 OA
ENDBRANCH   2   7
ENDBRANCH   1   2
BRANCH   1  10
ATOM     10  C   UNL     1     126.074 114.780 110.149  1.00  0.00     0.223 C 
ATOM     11  O   UNL     1     124.893 114.396 110.365  1.00  0.00    -0.275 OA
ATOM     12  N   UNL     1     126.424 116.147 110.364  1.00  0.00    -0.369 N 
ATOM     13  H   UNL     1     127.403 116.478 110.211  1.00  0.00     0.159 HD
ATOM     14  H   UNL     1     125.703 116.831 110.684  1.00  0.00     0.159 HD
ENDBRANCH   1  10
TORSDOF 4
ENDMDL
MODEL 3
REMARK VINA RESULT:    -3.112      2.928      4.598
REMARK INTER + INTRA:          -4.034
REMARK INTER:                  -3.816
REMARK INTRA:                  -0.218
REMARK UNBOUND:                -0.286
REMARK SMILES NC(=O)C[C@H]([NH3+])C(=O)[O-]
REMARK SMILES IDX 4 1 5 2 6 3 7 7 8 8 9 9 2 10 3 11 1 12
REMARK H PARENT 6 4 6 5 6 6 1 13 1 14
REMARK Flexibility Score: inf
ROOT
ATOM      1  C   UNL     1     132.110 115.749 112.218  1.00  0.00     0.171 C 
ENDROOT
BRANCH   1   2
ATOM      2  C   UNL     1     130.732 115.099 112.454  1.00  0.00     0.237 C 
BRANCH   2   3
ATOM      3  N   UNL     1     130.428 114.986 113.888  1.00  0.00    -0.350 N 
ATOM      4  H   UNL     1     131.254 115.285 114.454  1.00  0.00     0.345 HD
ATOM      5  H   UNL     1     130.176 114.002 114.138  1.00  0.00     0.345 HD
ATOM      6  H   UNL     1     129.628 115.616 114.131  1.00  0.00     0.345 HD
ENDBRANCH   2   3
BRANCH   2   7
ATOM      7  C   UNL     1     130.690 113.742 111.804  1.00  0.00     0.100 C 
ATOM      8  O   UNL     1     129.647 113.344 111.221  1.00  0.00    -0.544 OA
ATOM      9  O   UNL     1     131.803 112.911 111.860  1.00  0.00    -0.544 OA
ENDBRANCH   2   7
ENDBRANCH   1   2
BRANCH   1  10
ATOM     10  C   UNL     1     132.107 117.205 112.584  1.00  0.00     0.223 C 
ATOM     11  O   UNL     1     131.051 117.881 112.452  1.00  0.00    -0.275 OA
ATOM     12  N   UNL     1     133.280 117.822 113.115  1.00  0.00    -0.369 N 
ATOM     13  H   UNL     1     134.157 117.272 113.253  1.00  0.00     0.159 HD
ATOM     14  H   UNL     1     133.269 118.833 113.378  1.00  0.00     0.159 HD
ENDBRANCH   1  10
TORSDOF 4
ENDMDL
MODEL 4
REMARK VINA RESULT:    -3.069      4.846      5.931
REMARK INTER + INTRA:          -3.982
REMARK INTER:                  -3.909
REMARK INTRA:                  -0.073
REMARK UNBOUND:                -0.286
REMARK SMILES NC(=O)C[C@H]([NH3+])C(=O)[O-]
REMARK SMILES IDX 4 1 5 2 6 3 7 7 8 8 9 9 2 10 3 11 1 12
REMARK H PARENT 6 4 6 5 6 6 1 13 1 14
REMARK Flexibility Score: inf
ROOT
ATOM      1  C   UNL     1     131.024 116.830 114.577  1.00  0.00     0.171 C 
ENDROOT
BRANCH   1   2
ATOM      2  C   UNL     1     132.250 117.137 113.693  1.00  0.00     0.237 C 
BRANCH   2   3
ATOM      3  N   UNL     1     132.358 118.574 113.401  1.00  0.00    -0.350 N 
ATOM      4  H   UNL     1     132.751 119.079 114.227  1.00  0.00     0.345 HD
ATOM      5  H   UNL     1     131.420 118.975 113.166  1.00  0.00     0.345 HD
ATOM      6  H   UNL     1     133.007 118.723 112.594  1.00  0.00     0.345 HD
ENDBRANCH   2   3
BRANCH   2   7
ATOM      7  C   UNL     1     132.166 116.349 112.414  1.00  0.00     0.100 C 
ATOM      8  O   UNL     1     132.812 116.714 111.395  1.00  0.00    -0.544 OA
ATOM      9  O   UNL     1     131.358 115.221 112.345  1.00  0.00    -0.544 OA
ENDBRANCH   2   7
ENDBRANCH   1   2
BRANCH   1  10
ATOM     10  C   UNL     1     131.412 116.616 116.011  1.00  0.00     0.223 C 
ATOM     11  O   UNL     1     131.149 115.518 116.573  1.00  0.00    -0.275 OA
ATOM     12  N   UNL     1     132.109 117.631 116.734  1.00  0.00    -0.369 N 
ATOM     13  H   UNL     1     132.356 118.537 116.277  1.00  0.00     0.159 HD
ATOM     14  H   UNL     1     132.386 117.473 117.728  1.00  0.00     0.159 HD
ENDBRANCH   1  10
TORSDOF 4
ENDMDL
MODEL 5
REMARK VINA RESULT:    -3.025      4.170      4.905
REMARK INTER + INTRA:          -3.930
REMARK INTER:                  -3.567
REMARK INTRA:                  -0.363
REMARK UNBOUND:                -0.286
REMARK SMILES NC(=O)C[C@H]([NH3+])C(=O)[O-]
REMARK SMILES IDX 4 1 5 2 6 3 7 7 8 8 9 9 2 10 3 11 1 12
REMARK H PARENT 6 4 6 5 6 6 1 13 1 14
REMARK Flexibility Score: inf
ROOT
ATOM      1  C   UNL     1     130.274 117.241 113.730  1.00  0.00     0.171 C 
ENDROOT
BRANCH   1   2
ATOM      2  C   UNL     1     131.810 117.169 113.605  1.00  0.00     0.237 C 
BRANCH   2   3
ATOM      3  N   UNL     1     132.409 118.510 113.545  1.00  0.00    -0.350 N 
ATOM      4  H   UNL     1     131.901 119.098 112.846  1.00  0.00     0.345 HD
ATOM      5  H   UNL     1     133.419 118.454 113.280  1.00  0.00     0.345 HD
ATOM      6  H   UNL     1     132.325 118.977 114.478  1.00  0.00     0.345 HD
ENDBRANCH   2   3
BRANCH   2   7
ATOM      7  C   UNL     1     132.185 116.375 112.383  1.00  0.00     0.100 C 
ATOM      8  O   UNL     1     132.999 116.842 111.542  1.00  0.00    -0.544 OA
ATOM      9  O   UNL     1     131.619 115.124 112.167  1.00  0.00    -0.544 OA
ENDBRANCH   2   7
ENDBRANCH   1   2
BRANCH   1  10
ATOM     10  C   UNL     1     129.710 118.409 112.975  1.00  0.00     0.223 C 
ATOM     11  O   UNL     1     129.694 119.551 113.510  1.00  0.00    -0.275 OA
ATOM     12  N   UNL     1     129.224 118.245 111.643  1.00  0.00    -0.369 N 
ATOM     13  H   UNL     1     129.251 117.312 111.176  1.00  0.00     0.159 HD
ATOM     14  H   UNL     1     128.842 119.063 111.118  1.00  0.00     0.159 HD
ENDBRANCH   1  10
TORSDOF 4
ENDMDL
MODEL 6
REMARK VINA RESULT:    -3.008      2.686      3.695
REMARK INTER + INTRA:          -3.909
REMARK INTER:                  -3.840
REMARK INTRA:                  -0.069
REMARK UNBOUND:                -0.286
REMARK SMILES NC(=O)C[C@H]([NH3+])C(=O)[O-]
REMARK SMILES IDX 4 1 5 2 6 3 7 7 8 8 9 9 2 10 3 11 1 12
REMARK H PARENT 6 4 6 5 6 6 1 13 1 14
REMARK Flexibility Score: inf
ROOT
ATOM      1  C   UNL     1     127.089 115.603 111.415  1.00  0.00     0.171 C 
ENDROOT
BRANCH   1   2
ATOM      2  C   UNL     1     127.183 114.674 110.187  1.00  0.00     0.237 C 
BRANCH   2   3
ATOM      3  N   UNL     1     125.854 114.223 109.750  1.00  0.00    -0.350 N 
ATOM      4  H   UNL     1     125.947 113.537 108.967  1.00  0.00     0.345 HD
ATOM      5  H   UNL     1     125.273 115.034 109.432  1.00  0.00     0.345 HD
ATOM      6  H   UNL     1     125.366 113.742 110.541  1.00  0.00     0.345 HD
ENDBRANCH   2   3
BRANCH   2   7
ATOM      7  C   UNL     1     128.056 113.491 110.508  1.00  0.00     0.100 C 
ATOM      8  O   UNL     1     127.813 112.361 110.006  1.00  0.00    -0.544 OA
ATOM      9  O   UNL     1     129.129 113.636 111.380  1.00  0.00    -0.544 OA
ENDBRANCH   2   7
ENDBRANCH   1   2
BRANCH   1  10
ATOM     10  C   UNL     1     127.176 117.050 111.025  1.00  0.00     0.223 C 
ATOM     11  O   UNL     1     128.161 117.741 111.402  1.00  0.00    -0.275 OA
ATOM     12  N   UNL     1     126.171 117.641 110.201  1.00  0.00    -0.369 N 
ATOM     13  H   UNL     1     125.361 117.078 109.861  1.00  0.00     0.159 HD
ATOM     14  H   UNL     1     126.242 118.645 109.924  1.00  0.00     0.159 HD
ENDBRANCH   1  10
TORSDOF 4
ENDMDL
MODEL 7
REMARK VINA RESULT:    -2.970     15.696     16.665
REMARK INTER + INTRA:          -3.863
REMARK INTER:                  -3.388
REMARK INTRA:                  -0.475
REMARK UNBOUND:                -0.286
REMARK SMILES NC(=O)C[C@H]([NH3+])C(=O)[O-]
REMARK SMILES IDX 4 1 5 2 6 3 7 7 8 8 9 9 2 10 3 11 1 12
REMARK H PARENT 6 4 6 5 6 6 1 13 1 14
REMARK Flexibility Score: inf
ROOT
ATOM      1  C   UNL     1     141.175 102.615 107.715  1.00  0.00     0.171 C 
ENDROOT
BRANCH   1   2
ATOM      2  C   UNL     1     139.858 103.417 107.709  1.00  0.00     0.237 C 
BRANCH   2   3
ATOM      3  N   UNL     1     138.762 102.657 108.330  1.00  0.00    -0.350 N 
ATOM      4  H   UNL     1     137.890 102.757 107.763  1.00  0.00     0.345 HD
ATOM      5  H   UNL     1     138.582 102.995 109.304  1.00  0.00     0.345 HD
ATOM      6  H   UNL     1     139.010 101.641 108.361  1.00  0.00     0.345 HD
ENDBRANCH   2   3
BRANCH   2   7
ATOM      7  C   UNL     1     139.496 103.794 106.298  1.00  0.00     0.100 C 
ATOM      8  O   UNL     1     139.152 104.973 106.019  1.00  0.00    -0.544 OA
ATOM      9  O   UNL     1     139.524 102.833 105.294  1.00  0.00    -0.544 OA
ENDBRANCH   2   7
ENDBRANCH   1   2
BRANCH   1  10
ATOM     10  C   UNL     1     140.930 101.147 107.912  1.00  0.00     0.223 C 
ATOM     11  O   UNL     1     140.746 100.695 109.075  1.00  0.00    -0.275 OA
ATOM     12  N   UNL     1     140.870 100.264 106.792  1.00  0.00    -0.369 N 
ATOM     13  H   UNL     1     140.997 100.625 105.821  1.00  0.00     0.159 HD
ATOM     14  H   UNL     1     140.689  99.246 106.934  1.00  0.00     0.159 HD
ENDBRANCH   1  10
TORSDOF 4
ENDMDL
MODEL 8
REMARK VINA RESULT:    -2.958      5.555      6.348
REMARK INTER + INTRA:          -3.849
REMARK INTER:                  -3.570
REMARK INTRA:                  -0.279
REMARK UNBOUND:                -0.286
REMARK SMILES NC(=O)C[C@H]([NH3+])C(=O)[O-]
REMARK SMILES IDX 4 1 5 2 6 3 7 7 8 8 9 9 2 10 3 11 1 12
REMARK H PARENT 6 4 6 5 6 6 1 13 1 14
REMARK Flexibility Score: inf
ROOT
ATOM      1  C   UNL     1     131.236 116.640 114.354  1.00  0.00     0.171 C 
ENDROOT
BRANCH   1   2
ATOM      2  C   UNL     1     131.095 116.914 115.865  1.00  0.00     0.237 C 
BRANCH   2   3
ATOM      3  N   UNL     1     132.164 117.796 116.354  1.00  0.00    -0.350 N 
ATOM      4  H   UNL     1     132.277 118.613 115.713  1.00  0.00     0.345 HD
ATOM      5  H   UNL     1     133.072 117.279 116.417  1.00  0.00     0.345 HD
ATOM      6  H   UNL     1     131.913 118.164 117.301  1.00  0.00     0.345 HD
ENDBRANCH   2   3
BRANCH   2   7
ATOM      7  C   UNL     1     131.105 115.613 116.622  1.00  0.00     0.100 C 
ATOM      8  O   UNL     1     130.684 114.555 116.081  1.00  0.00    -0.544 OA
ATOM      9  O   UNL     1     131.564 115.576 117.933  1.00  0.00    -0.544 OA
ENDBRANCH   2   7
ENDBRANCH   1   2
BRANCH   1  10
ATOM     10  C   UNL     1     132.073 117.686 113.676  1.00  0.00     0.223 C 
ATOM     11  O   UNL     1     131.687 118.887 113.668  1.00  0.00    -0.275 OA
ATOM     12  N   UNL     1     133.318 117.339 113.070  1.00  0.00    -0.369 N 
ATOM     13  H   UNL     1     133.664 116.354 113.087  1.00  0.00     0.159 HD
ATOM     14  H   UNL     1     133.901 118.073 112.609  1.00  0.00     0.159 HD
ENDBRANCH   1  10
TORSDOF 4
ENDMDL
MODEL 9
REMARK VINA RESULT:    -2.948      4.461      6.299
REMARK INTER + INTRA:          -3.836
REMARK INTER:                  -3.566
REMARK INTRA:                  -0.270
REMARK UNBOUND:                -0.286
REMARK SMILES NC(=O)C[C@H]([NH3+])C(=O)[O-]
REMARK SMILES IDX 4 1 5 2 6 3 7 7 8 8 9 9 2 10 3 11 1 12
REMARK H PARENT 6 4 6 5 6 6 1 13 1 14
REMARK Flexibility Score: inf
ROOT
ATOM      1  C   UNL     1     130.863 117.813 114.364  1.00  0.00     0.171 C 
ENDROOT
BRANCH   1   2
ATOM      2  C   UNL     1     131.936 116.881 113.766  1.00  0.00     0.237 C 
BRANCH   2   3
ATOM      3  N   UNL     1     133.024 117.645 113.137  1.00  0.00    -0.350 N 
ATOM      4  H   UNL     1     132.745 118.647 113.035  1.00  0.00     0.345 HD
ATOM      5  H   UNL     1     133.256 117.253 112.195  1.00  0.00     0.345 HD
ATOM      6  H   UNL     1     133.877 117.610 113.742  1.00  0.00     0.345 HD
ENDBRANCH   2   3
BRANCH   2   7
ATOM      7  C   UNL     1     131.304 115.952 112.764  1.00  0.00     0.100 C 
ATOM      8  O   UNL     1     132.020 115.249 112.003  1.00  0.00    -0.544 OA
ATOM      9  O   UNL     1     129.920 115.880 112.662  1.00  0.00    -0.544 OA
ENDBRANCH   2   7
ENDBRANCH   1   2
BRANCH   1  10
ATOM     10  C   UNL     1     131.477 119.014 115.024  1.00  0.00     0.223 C 
ATOM     11  O   UNL     1     131.475 120.125 114.426  1.00  0.00    -0.275 OA
ATOM     12  N   UNL     1     132.030 118.918 116.336  1.00  0.00    -0.369 N 
ATOM     13  H   UNL     1     132.019 118.011 116.855  1.00  0.00     0.159 HD
ATOM     14  H   UNL     1     132.446 119.758 116.794  1.00  0.00     0.159 HD
ENDBRANCH   1  10
TORSDOF 4
ENDMDL
