MODEL 1
REMARK VINA RESULT:    -2.278      0.000      0.000
REMARK INTER + INTRA:          -6.505
REMARK INTER:                  -5.208
REMARK INTRA:                  -1.297
REMARK UNBOUND:                -1.297
REMARK SMILES CCCCCCCCCCCCCCCCCCCCCCCC(=O)[O-]
REMARK SMILES IDX 13 1 14 2 15 3 16 4 17 5 18 6 19 7 20 8 21 9 22 10 23 11
REMARK SMILES IDX 24 12 25 13 26 14 12 15 11 16 10 17 9 18 8 19 7 20 6 21 5 22
REMARK SMILES IDX 4 23 3 24 2 25 1 26
REMARK H PARENT
REMARK Flexibility Score: inf
ROOT
ATOM      1  C   UNL     1     -21.761   4.573   8.628  1.00  0.00     0.000 C 
ENDROOT
BRANCH   1   2
ATOM      2  C   UNL     1     -22.362   3.254   9.144  1.00  0.00     0.000 C 
BRANCH   2   3
ATOM      3  C   UNL     1     -21.338   2.105   9.160  1.00  0.00     0.000 C 
BRANCH   3   4
ATOM      4  C   UNL     1     -20.416   2.114   7.922  1.00  0.00     0.000 C 
BRANCH   4   5
ATOM      5  C   UNL     1     -20.772   1.049   6.866  1.00  0.00     0.000 C 
BRANCH   5   6
ATOM      6  C   UNL     1     -19.915  -0.230   6.908  1.00  0.00     0.000 C 
BRANCH   6   7
ATOM      7  C   UNL     1     -20.516  -1.401   7.716  1.00  0.00     0.000 C 
BRANCH   7   8
ATOM      8  C   UNL     1     -19.574  -2.028   8.760  1.00  0.00     0.000 C 
BRANCH   8   9
ATOM      9  C   UNL     1     -20.281  -2.362  10.080  1.00  0.00     0.000 C 
BRANCH   9  10
ATOM     10  C   UNL     1     -20.141  -1.206  11.082  1.00  0.00     0.006 C 
BRANCH  10  11
ATOM     11  C   UNL     1     -20.360  -1.662  12.531  1.00  0.00     0.053 C 
BRANCH  11  12
ATOM     12  C   UNL     1     -20.881  -0.551  13.391  1.00  0.00     0.041 C 
ATOM     13  O   UNL     1     -21.375   0.481  12.862  1.00  0.00    -0.550 OA
ATOM     14  O   UNL     1     -20.863  -0.674  14.775  1.00  0.00    -0.550 OA
ENDBRANCH  11  12
ENDBRANCH  10  11
ENDBRANCH   9  10
ENDBRANCH   8   9
ENDBRANCH   7   8
ENDBRANCH   6   7
ENDBRANCH   5   6
ENDBRANCH   4   5
ENDBRANCH   3   4
ENDBRANCH   2   3
ENDBRANCH   1   2
BRANCH   1  15
ATOM     15  C   UNL     1     -21.015   5.346   9.731  1.00  0.00     0.000 C 
BRANCH  15  16
ATOM     16  C   UNL     1     -19.937   6.289   9.172  1.00  0.00     0.000 C 
BRANCH  16  17
ATOM     17  C   UNL     1     -18.877   6.665  10.222  1.00  0.00     0.000 C 
BRANCH  17  18
ATOM     18  C   UNL     1     -18.150   7.992   9.897  1.00  0.00    -0.000 C 
BRANCH  18  19
ATOM     19  C   UNL     1     -16.641   7.965  10.205  1.00  0.00    -0.000 C 
BRANCH  19  20
ATOM     20  C   UNL     1     -15.805   8.937   9.352  1.00  0.00    -0.000 C 
BRANCH  20  21
ATOM     21  C   UNL     1     -15.136  10.056  10.182  1.00  0.00    -0.000 C 
BRANCH  21  22
ATOM     22  C   UNL     1     -15.227   9.797  11.695  1.00  0.00    -0.000 C 
BRANCH  22  23
ATOM     23  C   UNL     1     -14.525  10.897  12.520  1.00  0.00    -0.000 C 
BRANCH  23  24
ATOM     24  C   UNL     1     -14.009  10.412  13.886  1.00  0.00    -0.000 C 
BRANCH  24  25
ATOM     25  C   UNL     1     -12.720  11.119  14.326  1.00  0.00    -0.003 C 
ATOM     26  C   UNL     1     -11.484  10.361  13.846  1.00  0.00     0.004 C 
ENDBRANCH  24  25
ENDBRANCH  23  24
ENDBRANCH  22  23
ENDBRANCH  21  22
ENDBRANCH  20  21
ENDBRANCH  19  20
ENDBRANCH  18  19
ENDBRANCH  17  18
ENDBRANCH  16  17
ENDBRANCH  15  16
ENDBRANCH   1  15
TORSDOF 22
ENDMDL
MODEL 2
REMARK VINA RESULT:    -2.043      2.188      3.763
REMARK INTER + INTRA:          -5.968
REMARK INTER:                  -4.599
REMARK INTRA:                  -1.369
REMARK UNBOUND:                -1.297
REMARK SMILES CCCCCCCCCCCCCCCCCCCCCCCC(=O)[O-]
REMARK SMILES IDX 13 1 14 2 15 3 16 4 17 5 18 6 19 7 20 8 21 9 22 10 23 11
REMARK SMILES IDX 24 12 25 13 26 14 12 15 11 16 10 17 9 18 8 19 7 20 6 21 5 22
REMARK SMILES IDX 4 23 3 24 2 25 1 26
REMARK H PARENT
REMARK Flexibility Score: inf
ROOT
ATOM      1  C   UNL     1     -22.150   3.000   9.579  1.00  0.00     0.000 C 
ENDROOT
BRANCH   1   2
ATOM      2  C   UNL     1     -21.155   2.186  10.425  1.00  0.00     0.000 C 
BRANCH   2   3
ATOM      3  C   UNL     1     -21.857   1.242  11.418  1.00  0.00     0.000 C 
BRANCH   3   4
ATOM      4  C   UNL     1     -21.195   1.249  12.812  1.00  0.00     0.000 C 
BRANCH   4   5
ATOM      5  C   UNL     1     -21.355  -0.073  13.589  1.00  0.00     0.000 C 
BRANCH   5   6
ATOM      6  C   UNL     1     -20.276  -1.135  13.306  1.00  0.00     0.000 C 
BRANCH   6   7
ATOM      7  C   UNL     1     -20.523  -2.011  12.059  1.00  0.00     0.000 C 
BRANCH   7   8
ATOM      8  C   UNL     1     -19.902  -1.483  10.754  1.00  0.00     0.000 C 
BRANCH   8   9
ATOM      9  C   UNL     1     -19.717  -2.576   9.693  1.00  0.00     0.000 C 
BRANCH   9  10
ATOM     10  C   UNL     1     -19.917  -2.005   8.281  1.00  0.00     0.006 C 
BRANCH  10  11
ATOM     11  C   UNL     1     -20.545  -0.605   8.303  1.00  0.00     0.053 C 
BRANCH  11  12
ATOM     12  C   UNL     1     -20.243   0.160   7.051  1.00  0.00     0.041 C 
ATOM     13  O   UNL     1     -20.728   1.311   6.879  1.00  0.00    -0.550 OA
ATOM     14  O   UNL     1     -19.390  -0.377   6.094  1.00  0.00    -0.550 OA
ENDBRANCH  11  12
ENDBRANCH  10  11
ENDBRANCH   9  10
ENDBRANCH   8   9
ENDBRANCH   7   8
ENDBRANCH   6   7
ENDBRANCH   5   6
ENDBRANCH   4   5
ENDBRANCH   3   4
ENDBRANCH   2   3
ENDBRANCH   1   2
BRANCH   1  15
ATOM     15  C   UNL     1     -21.448   4.040   8.690  1.00  0.00     0.000 C 
BRANCH  15  16
ATOM     16  C   UNL     1     -21.571   5.472   9.238  1.00  0.00     0.000 C 
BRANCH  16  17
ATOM     17  C   UNL     1     -20.400   5.855  10.160  1.00  0.00     0.000 C 
BRANCH  17  18
ATOM     18  C   UNL     1     -19.323   6.706   9.446  1.00  0.00    -0.000 C 
BRANCH  18  19
ATOM     19  C   UNL     1     -18.163   7.138  10.363  1.00  0.00    -0.000 C 
BRANCH  19  20
ATOM     20  C   UNL     1     -17.458   8.434   9.923  1.00  0.00    -0.000 C 
BRANCH  20  21
ATOM     21  C   UNL     1     -16.130   8.690  10.672  1.00  0.00    -0.000 C 
BRANCH  21  22
ATOM     22  C   UNL     1     -15.319   9.838  10.049  1.00  0.00    -0.000 C 
BRANCH  22  23
ATOM     23  C   UNL     1     -14.809  10.838  11.110  1.00  0.00    -0.000 C 
BRANCH  23  24
ATOM     24  C   UNL     1     -14.835  10.283  12.545  1.00  0.00    -0.000 C 
BRANCH  24  25
ATOM     25  C   UNL     1     -13.997  11.116  13.525  1.00  0.00    -0.003 C 
ATOM     26  C   UNL     1     -12.507  10.824  13.360  1.00  0.00     0.004 C 
ENDBRANCH  24  25
ENDBRANCH  23  24
ENDBRANCH  22  23
ENDBRANCH  21  22
ENDBRANCH  20  21
ENDBRANCH  19  20
ENDBRANCH  18  19
ENDBRANCH  17  18
ENDBRANCH  16  17
ENDBRANCH  15  16
ENDBRANCH   1  15
TORSDOF 22
ENDMDL
MODEL 3
REMARK VINA RESULT:    -1.923      4.234     10.804
REMARK INTER + INTRA:          -5.693
REMARK INTER:                  -3.991
REMARK INTRA:                  -1.702
REMARK UNBOUND:                -1.297
REMARK SMILES CCCCCCCCCCCCCCCCCCCCCCCC(=O)[O-]
REMARK SMILES IDX 13 1 14 2 15 3 16 4 17 5 18 6 19 7 20 8 21 9 22 10 23 11
REMARK SMILES IDX 24 12 25 13 26 14 12 15 11 16 10 17 9 18 8 19 7 20 6 21 5 22
REMARK SMILES IDX 4 23 3 24 2 25 1 26
REMARK H PARENT
REMARK Flexibility Score: inf
ROOT
ATOM      1  C   UNL     1     -21.890   1.748  10.060  1.00  0.00     0.000 C 
ENDROOT
BRANCH   1   2
ATOM      2  C   UNL     1     -21.126   3.051   9.762  1.00  0.00     0.000 C 
BRANCH   2   3
ATOM      3  C   UNL     1     -21.885   3.971   8.789  1.00  0.00     0.000 C 
BRANCH   3   4
ATOM      4  C   UNL     1     -21.760   5.463   9.163  1.00  0.00     0.000 C 
BRANCH   4   5
ATOM      5  C   UNL     1     -20.538   5.790  10.045  1.00  0.00     0.000 C 
BRANCH   5   6
ATOM      6  C   UNL     1     -19.450   6.645   9.368  1.00  0.00     0.000 C 
BRANCH   6   7
ATOM      7  C   UNL     1     -18.269   7.048  10.276  1.00  0.00     0.000 C 
BRANCH   7   8
ATOM      8  C   UNL     1     -17.771   8.494  10.100  1.00  0.00     0.000 C 
BRANCH   8   9
ATOM      9  C   UNL     1     -16.266   8.578   9.809  1.00  0.00     0.000 C 
BRANCH   9  10
ATOM     10  C   UNL     1     -15.521   9.234  10.981  1.00  0.00     0.006 C 
BRANCH  10  11
ATOM     11  C   UNL     1     -15.124  10.686  10.679  1.00  0.00     0.053 C 
BRANCH  11  12
ATOM     12  C   UNL     1     -13.895  10.760   9.825  1.00  0.00     0.041 C 
ATOM     13  O   UNL     1     -12.755  10.613  10.342  1.00  0.00    -0.550 OA
ATOM     14  O   UNL     1     -14.010  10.946   8.452  1.00  0.00    -0.550 OA
ENDBRANCH  11  12
ENDBRANCH  10  11
ENDBRANCH   9  10
ENDBRANCH   8   9
ENDBRANCH   7   8
ENDBRANCH   6   7
ENDBRANCH   5   6
ENDBRANCH   4   5
ENDBRANCH   3   4
ENDBRANCH   2   3
ENDBRANCH   1   2
BRANCH   1  15
ATOM     15  C   UNL     1     -22.282   1.627  11.542  1.00  0.00     0.000 C 
BRANCH  15  16
ATOM     16  C   UNL     1     -21.067   1.656  12.485  1.00  0.00     0.000 C 
BRANCH  16  17
ATOM     17  C   UNL     1     -21.297   0.845  13.773  1.00  0.00     0.000 C 
BRANCH  17  18
ATOM     18  C   UNL     1     -20.385  -0.400  13.872  1.00  0.00    -0.000 C 
BRANCH  18  19
ATOM     19  C   UNL     1     -21.117  -1.730  13.608  1.00  0.00    -0.000 C 
BRANCH  19  20
ATOM     20  C   UNL     1     -20.776  -2.382  12.256  1.00  0.00    -0.000 C 
BRANCH  20  21
ATOM     21  C   UNL     1     -19.794  -1.543  11.405  1.00  0.00    -0.000 C 
BRANCH  21  22
ATOM     22  C   UNL     1     -19.730  -2.021   9.945  1.00  0.00    -0.000 C 
BRANCH  22  23
ATOM     23  C   UNL     1     -20.379  -1.012   8.971  1.00  0.00    -0.000 C 
BRANCH  23  24
ATOM     24  C   UNL     1     -20.348  -1.465   7.501  1.00  0.00    -0.000 C 
BRANCH  24  25
ATOM     25  C   UNL     1     -19.878  -0.360   6.544  1.00  0.00    -0.003 C 
ATOM     26  C   UNL     1     -20.496   0.987   6.914  1.00  0.00     0.004 C 
ENDBRANCH  24  25
ENDBRANCH  23  24
ENDBRANCH  22  23
ENDBRANCH  21  22
ENDBRANCH  20  21
ENDBRANCH  19  20
ENDBRANCH  18  19
ENDBRANCH  17  18
ENDBRANCH  16  17
ENDBRANCH  15  16
ENDBRANCH   1  15
TORSDOF 22
ENDMDL
MODEL 4
REMARK VINA RESULT:    -1.832      3.894     11.053
REMARK INTER + INTRA:          -5.485
REMARK INTER:                  -4.478
REMARK INTRA:                  -1.007
REMARK UNBOUND:                -1.297
REMARK SMILES CCCCCCCCCCCCCCCCCCCCCCCC(=O)[O-]
REMARK SMILES IDX 13 1 14 2 15 3 16 4 17 5 18 6 19 7 20 8 21 9 22 10 23 11
REMARK SMILES IDX 24 12 25 13 26 14 12 15 11 16 10 17 9 18 8 19 7 20 6 21 5 22
REMARK SMILES IDX 4 23 3 24 2 25 1 26
REMARK H PARENT
REMARK Flexibility Score: inf
ROOT
ATOM      1  C   UNL     1     -21.548   4.095   8.700  1.00  0.00     0.000 C 
ENDROOT
BRANCH   1   2
ATOM      2  C   UNL     1     -21.435   5.420   9.474  1.00  0.00     0.000 C 
BRANCH   2   3
ATOM      3  C   UNL     1     -20.234   6.269   9.020  1.00  0.00     0.000 C 
BRANCH   3   4
ATOM      4  C   UNL     1     -19.241   6.554  10.167  1.00  0.00     0.000 C 
BRANCH   4   5
ATOM      5  C   UNL     1     -18.358   7.797   9.939  1.00  0.00     0.000 C 
BRANCH   5   6
ATOM      6  C   UNL     1     -16.878   7.633  10.333  1.00  0.00     0.000 C 
BRANCH   6   7
ATOM      7  C   UNL     1     -15.882   8.497   9.531  1.00  0.00     0.000 C 
BRANCH   7   8
ATOM      8  C   UNL     1     -15.467   9.816  10.208  1.00  0.00     0.000 C 
BRANCH   8   9
ATOM      9  C   UNL     1     -15.130   9.645  11.696  1.00  0.00     0.000 C 
BRANCH   9  10
ATOM     10  C   UNL     1     -14.685  10.980  12.311  1.00  0.00     0.006 C 
BRANCH  10  11
ATOM     11  C   UNL     1     -13.158  11.124  12.348  1.00  0.00     0.053 C 
BRANCH  11  12
ATOM     12  C   UNL     1     -12.617  10.964  13.736  1.00  0.00     0.041 C 
ATOM     13  O   UNL     1     -11.373  10.953  13.933  1.00  0.00    -0.550 OA
ATOM     14  O   UNL     1     -13.487  10.873  14.817  1.00  0.00    -0.550 OA
ENDBRANCH  11  12
ENDBRANCH  10  11
ENDBRANCH   9  10
ENDBRANCH   8   9
ENDBRANCH   7   8
ENDBRANCH   6   7
ENDBRANCH   5   6
ENDBRANCH   4   5
ENDBRANCH   3   4
ENDBRANCH   2   3
ENDBRANCH   1   2
BRANCH   1  15
ATOM     15  C   UNL     1     -21.966   2.923   9.604  1.00  0.00     0.000 C 
BRANCH  15  16
ATOM     16  C   UNL     1     -21.252   1.609   9.245  1.00  0.00     0.000 C 
BRANCH  16  17
ATOM     17  C   UNL     1     -20.650   1.630   7.829  1.00  0.00     0.000 C 
BRANCH  17  18
ATOM     18  C   UNL     1     -21.106   0.433   6.962  1.00  0.00    -0.000 C 
BRANCH  18  19
ATOM     19  C   UNL     1     -20.140  -0.767   7.002  1.00  0.00    -0.000 C 
BRANCH  19  20
ATOM     20  C   UNL     1     -19.686  -1.166   8.418  1.00  0.00    -0.000 C 
BRANCH  20  21
ATOM     21  C   UNL     1     -19.952  -2.654   8.747  1.00  0.00    -0.000 C 
BRANCH  21  22
ATOM     22  C   UNL     1     -20.388  -2.861  10.206  1.00  0.00    -0.000 C 
BRANCH  22  23
ATOM     23  C   UNL     1     -20.071  -1.635  11.091  1.00  0.00    -0.000 C 
BRANCH  23  24
ATOM     24  C   UNL     1     -20.277  -1.887  12.594  1.00  0.00    -0.000 C 
BRANCH  24  25
ATOM     25  C   UNL     1     -21.289  -0.924  13.231  1.00  0.00    -0.003 C 
ATOM     26  C   UNL     1     -20.710  -0.266  14.481  1.00  0.00     0.004 C 
ENDBRANCH  24  25
ENDBRANCH  23  24
ENDBRANCH  22  23
ENDBRANCH  21  22
ENDBRANCH  20  21
ENDBRANCH  19  20
ENDBRANCH  18  19
ENDBRANCH  17  18
ENDBRANCH  16  17
ENDBRANCH  15  16
ENDBRANCH   1  15
TORSDOF 22
ENDMDL
MODEL 5
REMARK VINA RESULT:    -1.725      1.067      2.332
REMARK INTER + INTRA:          -5.241
REMARK INTER:                  -4.385
REMARK INTRA:                  -0.857
REMARK UNBOUND:                -1.297
REMARK SMILES CCCCCCCCCCCCCCCCCCCCCCCC(=O)[O-]
REMARK SMILES IDX 13 1 14 2 15 3 16 4 17 5 18 6 19 7 20 8 21 9 22 10 23 11
REMARK SMILES IDX 24 12 25 13 26 14 12 15 11 16 10 17 9 18 8 19 7 20 6 21 5 22
REMARK SMILES IDX 4 23 3 24 2 25 1 26
REMARK H PARENT
REMARK Flexibility Score: inf
ROOT
ATOM      1  C   UNL     1     -21.050   3.287   8.074  1.00  0.00     0.000 C 
ENDROOT
BRANCH   1   2
ATOM      2  C   UNL     1     -21.128   1.752   8.141  1.00  0.00     0.000 C 
BRANCH   2   3
ATOM      3  C   UNL     1     -19.934   1.069   7.448  1.00  0.00     0.000 C 
BRANCH   3   4
ATOM      4  C   UNL     1     -20.286  -0.330   6.900  1.00  0.00     0.000 C 
BRANCH   4   5
ATOM      5  C   UNL     1     -20.050  -1.476   7.904  1.00  0.00     0.000 C 
BRANCH   5   6
ATOM      6  C   UNL     1     -20.359  -1.135   9.374  1.00  0.00     0.000 C 
BRANCH   6   7
ATOM      7  C   UNL     1     -20.059  -2.259  10.389  1.00  0.00     0.000 C 
BRANCH   7   8
ATOM      8  C   UNL     1     -19.876  -1.794  11.845  1.00  0.00     0.000 C 
BRANCH   8   9
ATOM      9  C   UNL     1     -20.986  -2.297  12.778  1.00  0.00     0.000 C 
BRANCH   9  10
ATOM     10  C   UNL     1     -21.491  -1.165  13.685  1.00  0.00     0.006 C 
BRANCH  10  11
ATOM     11  C   UNL     1     -20.508   0.013  13.748  1.00  0.00     0.053 C 
BRANCH  11  12
ATOM     12  C   UNL     1     -21.054   1.230  13.067  1.00  0.00     0.041 C 
ATOM     13  O   UNL     1     -21.697   1.118  11.989  1.00  0.00    -0.550 OA
ATOM     14  O   UNL     1     -20.893   2.484  13.646  1.00  0.00    -0.550 OA
ENDBRANCH  11  12
ENDBRANCH  10  11
ENDBRANCH   9  10
ENDBRANCH   8   9
ENDBRANCH   7   8
ENDBRANCH   6   7
ENDBRANCH   5   6
ENDBRANCH   4   5
ENDBRANCH   3   4
ENDBRANCH   2   3
ENDBRANCH   1   2
BRANCH   1  15
ATOM     15  C   UNL     1     -22.016   3.965   9.062  1.00  0.00     0.000 C 
BRANCH  15  16
ATOM     16  C   UNL     1     -21.833   5.490   9.122  1.00  0.00     0.000 C 
BRANCH  16  17
ATOM     17  C   UNL     1     -20.354   5.913   9.050  1.00  0.00     0.000 C 
BRANCH  17  18
ATOM     18  C   UNL     1     -19.793   6.378  10.414  1.00  0.00    -0.000 C 
BRANCH  18  19
ATOM     19  C   UNL     1     -18.264   6.574  10.423  1.00  0.00    -0.000 C 
BRANCH  19  20
ATOM     20  C   UNL     1     -17.811   8.023  10.171  1.00  0.00    -0.000 C 
BRANCH  20  21
ATOM     21  C   UNL     1     -16.373   8.122   9.610  1.00  0.00    -0.000 C 
BRANCH  21  22
ATOM     22  C   UNL     1     -15.701   9.461   9.956  1.00  0.00    -0.000 C 
BRANCH  22  23
ATOM     23  C   UNL     1     -15.483   9.629  11.476  1.00  0.00    -0.000 C 
BRANCH  23  24
ATOM     24  C   UNL     1     -14.593  10.830  11.844  1.00  0.00    -0.000 C 
BRANCH  24  25
ATOM     25  C   UNL     1     -14.503  11.067  13.358  1.00  0.00    -0.003 C 
ATOM     26  C   UNL     1     -13.188  10.534  13.921  1.00  0.00     0.004 C 
ENDBRANCH  24  25
ENDBRANCH  23  24
ENDBRANCH  22  23
ENDBRANCH  21  22
ENDBRANCH  20  21
ENDBRANCH  19  20
ENDBRANCH  18  19
ENDBRANCH  17  18
ENDBRANCH  16  17
ENDBRANCH  15  16
ENDBRANCH   1  15
TORSDOF 22
ENDMDL
MODEL 6
REMARK VINA RESULT:    -1.712      3.827     10.942
REMARK INTER + INTRA:          -5.211
REMARK INTER:                  -4.094
REMARK INTRA:                  -1.117
REMARK UNBOUND:                -1.297
REMARK SMILES CCCCCCCCCCCCCCCCCCCCCCCC(=O)[O-]
REMARK SMILES IDX 13 1 14 2 15 3 16 4 17 5 18 6 19 7 20 8 21 9 22 10 23 11
REMARK SMILES IDX 24 12 25 13 26 14 12 15 11 16 10 17 9 18 8 19 7 20 6 21 5 22
REMARK SMILES IDX 4 23 3 24 2 25 1 26
REMARK H PARENT
REMARK Flexibility Score: inf
ROOT
ATOM      1  C   UNL     1     -21.128   3.299   9.278  1.00  0.00     0.000 C 
ENDROOT
BRANCH   1   2
ATOM      2  C   UNL     1     -22.079   4.492   9.073  1.00  0.00     0.000 C 
BRANCH   2   3
ATOM      3  C   UNL     1     -21.338   5.841   9.054  1.00  0.00     0.000 C 
BRANCH   3   4
ATOM      4  C   UNL     1     -20.073   5.837   9.939  1.00  0.00     0.000 C 
BRANCH   4   5
ATOM      5  C   UNL     1     -19.239   7.130   9.848  1.00  0.00     0.000 C 
BRANCH   5   6
ATOM      6  C   UNL     1     -17.781   7.007  10.328  1.00  0.00     0.000 C 
BRANCH   6   7
ATOM      7  C   UNL     1     -16.814   8.078   9.782  1.00  0.00     0.000 C 
BRANCH   7   8
ATOM      8  C   UNL     1     -15.976   8.808  10.848  1.00  0.00     0.000 C 
BRANCH   8   9
ATOM      9  C   UNL     1     -15.090   9.914  10.260  1.00  0.00     0.000 C 
BRANCH   9  10
ATOM     10  C   UNL     1     -14.824  11.012  11.301  1.00  0.00     0.006 C 
BRANCH  10  11
ATOM     11  C   UNL     1     -13.360  11.036  11.760  1.00  0.00     0.053 C 
BRANCH  11  12
ATOM     12  C   UNL     1     -13.239  10.888  13.246  1.00  0.00     0.041 C 
ATOM     13  O   UNL     1     -12.109  10.714  13.775  1.00  0.00    -0.550 OA
ATOM     14  O   UNL     1     -14.369  10.987  14.050  1.00  0.00    -0.550 OA
ENDBRANCH  11  12
ENDBRANCH  10  11
ENDBRANCH   9  10
ENDBRANCH   8   9
ENDBRANCH   7   8
ENDBRANCH   6   7
ENDBRANCH   5   6
ENDBRANCH   4   5
ENDBRANCH   3   4
ENDBRANCH   2   3
ENDBRANCH   1   2
BRANCH   1  15
ATOM     15  C   UNL     1     -21.795   2.145  10.045  1.00  0.00     0.000 C 
BRANCH  15  16
ATOM     16  C   UNL     1     -21.092   1.827  11.375  1.00  0.00     0.000 C 
BRANCH  16  17
ATOM     17  C   UNL     1     -21.923   0.898  12.278  1.00  0.00     0.000 C 
BRANCH  17  18
ATOM     18  C   UNL     1     -21.127   0.369  13.494  1.00  0.00    -0.000 C 
BRANCH  18  19
ATOM     19  C   UNL     1     -20.343  -0.927  13.210  1.00  0.00    -0.000 C 
BRANCH  19  20
ATOM     20  C   UNL     1     -20.642  -1.558  11.838  1.00  0.00    -0.000 C 
BRANCH  20  21
ATOM     21  C   UNL     1     -19.373  -2.055  11.106  1.00  0.00    -0.000 C 
BRANCH  21  22
ATOM     22  C   UNL     1     -19.628  -2.328   9.615  1.00  0.00    -0.000 C 
BRANCH  22  23
ATOM     23  C   UNL     1     -20.162  -1.081   8.875  1.00  0.00    -0.000 C 
BRANCH  23  24
ATOM     24  C   UNL     1     -20.415  -1.314   7.376  1.00  0.00    -0.000 C 
BRANCH  24  25
ATOM     25  C   UNL     1     -19.922  -0.155   6.498  1.00  0.00    -0.003 C 
ATOM     26  C   UNL     1     -20.005   1.174   7.244  1.00  0.00     0.004 C 
ENDBRANCH  24  25
ENDBRANCH  23  24
ENDBRANCH  22  23
ENDBRANCH  21  22
ENDBRANCH  20  21
ENDBRANCH  19  20
ENDBRANCH  18  19
ENDBRANCH  17  18
ENDBRANCH  16  17
ENDBRANCH  15  16
ENDBRANCH   1  15
TORSDOF 22
ENDMDL
MODEL 7
REMARK VINA RESULT:    -1.493      1.442      3.665
REMARK INTER + INTRA:          -4.711
REMARK INTER:                  -3.638
REMARK INTRA:                  -1.073
REMARK UNBOUND:                -1.297
REMARK SMILES CCCCCCCCCCCCCCCCCCCCCCCC(=O)[O-]
REMARK SMILES IDX 13 1 14 2 15 3 16 4 17 5 18 6 19 7 20 8 21 9 22 10 23 11
REMARK SMILES IDX 24 12 25 13 26 14 12 15 11 16 10 17 9 18 8 19 7 20 6 21 5 22
REMARK SMILES IDX 4 23 3 24 2 25 1 26
REMARK H PARENT
REMARK Flexibility Score: inf
ROOT
ATOM      1  C   UNL     1     -20.403   1.863   7.655  1.00  0.00     0.000 C 
ENDROOT
BRANCH   1   2
ATOM      2  C   UNL     1     -20.797   0.839   6.575  1.00  0.00     0.000 C 
BRANCH   2   3
ATOM      3  C   UNL     1     -19.819  -0.348   6.503  1.00  0.00     0.000 C 
BRANCH   3   4
ATOM      4  C   UNL     1     -20.297  -1.562   7.328  1.00  0.00     0.000 C 
BRANCH   4   5
ATOM      5  C   UNL     1     -20.382  -1.296   8.845  1.00  0.00     0.000 C 
BRANCH   5   6
ATOM      6  C   UNL     1     -19.630  -2.306   9.732  1.00  0.00     0.000 C 
BRANCH   6   7
ATOM      7  C   UNL     1     -19.621  -1.980  11.240  1.00  0.00     0.000 C 
BRANCH   7   8
ATOM      8  C   UNL     1     -20.900  -2.371  12.002  1.00  0.00     0.000 C 
BRANCH   8   9
ATOM      9  C   UNL     1     -20.761  -2.221  13.523  1.00  0.00     0.000 C 
BRANCH   9  10
ATOM     10  C   UNL     1     -21.568  -1.016  14.028  1.00  0.00     0.006 C 
BRANCH  10  11
ATOM     11  C   UNL     1     -20.690   0.226  14.236  1.00  0.00     0.053 C 
BRANCH  11  12
ATOM     12  C   UNL     1     -21.047   1.326  13.283  1.00  0.00     0.041 C 
ATOM     13  O   UNL     1     -20.858   2.529  13.606  1.00  0.00    -0.550 OA
ATOM     14  O   UNL     1     -21.546   1.021  12.022  1.00  0.00    -0.550 OA
ENDBRANCH  11  12
ENDBRANCH  10  11
ENDBRANCH   9  10
ENDBRANCH   8   9
ENDBRANCH   7   8
ENDBRANCH   6   7
ENDBRANCH   5   6
ENDBRANCH   4   5
ENDBRANCH   3   4
ENDBRANCH   2   3
ENDBRANCH   1   2
BRANCH   1  15
ATOM     15  C   UNL     1     -21.385   1.870   8.839  1.00  0.00     0.000 C 
BRANCH  15  16
ATOM     16  C   UNL     1     -21.443   3.229   9.557  1.00  0.00     0.000 C 
BRANCH  16  17
ATOM     17  C   UNL     1     -22.313   4.256   8.810  1.00  0.00     0.000 C 
BRANCH  17  18
ATOM     18  C   UNL     1     -21.807   5.708   8.976  1.00  0.00    -0.000 C 
BRANCH  18  19
ATOM     19  C   UNL     1     -20.575   5.837   9.893  1.00  0.00    -0.000 C 
BRANCH  19  20
ATOM     20  C   UNL     1     -19.411   6.635   9.279  1.00  0.00    -0.000 C 
BRANCH  20  21
ATOM     21  C   UNL     1     -18.357   7.075  10.322  1.00  0.00    -0.000 C 
BRANCH  21  22
ATOM     22  C   UNL     1     -17.727   8.435   9.979  1.00  0.00    -0.000 C 
BRANCH  22  23
ATOM     23  C   UNL     1     -16.207   8.461  10.253  1.00  0.00    -0.000 C 
BRANCH  23  24
ATOM     24  C   UNL     1     -15.511   9.740   9.756  1.00  0.00    -0.000 C 
BRANCH  24  25
ATOM     25  C   UNL     1     -14.555  10.344  10.794  1.00  0.00    -0.003 C 
ATOM     26  C   UNL     1     -15.042  10.071  12.215  1.00  0.00     0.004 C 
ENDBRANCH  24  25
ENDBRANCH  23  24
ENDBRANCH  22  23
ENDBRANCH  21  22
ENDBRANCH  20  21
ENDBRANCH  19  20
ENDBRANCH  18  19
ENDBRANCH  17  18
ENDBRANCH  16  17
ENDBRANCH  15  16
ENDBRANCH   1  15
TORSDOF 22
ENDMDL
MODEL 8
REMARK VINA RESULT:    -1.465      2.540      4.748
REMARK INTER + INTRA:          -4.648
REMARK INTER:                  -3.054
REMARK INTRA:                  -1.594
REMARK UNBOUND:                -1.297
REMARK SMILES CCCCCCCCCCCCCCCCCCCCCCCC(=O)[O-]
REMARK SMILES IDX 13 1 14 2 15 3 16 4 17 5 18 6 19 7 20 8 21 9 22 10 23 11
REMARK SMILES IDX 24 12 25 13 26 14 12 15 11 16 10 17 9 18 8 19 7 20 6 21 5 22
REMARK SMILES IDX 4 23 3 24 2 25 1 26
REMARK H PARENT
REMARK Flexibility Score: inf
ROOT
ATOM      1  C   UNL     1     -21.853   1.653  10.978  1.00  0.00     0.000 C 
ENDROOT
BRANCH   1   2
ATOM      2  C   UNL     1     -21.041   1.617  12.284  1.00  0.00     0.000 C 
BRANCH   2   3
ATOM      3  C   UNL     1     -21.721   0.777  13.380  1.00  0.00     0.000 C 
BRANCH   3   4
ATOM      4  C   UNL     1     -20.714  -0.054  14.203  1.00  0.00     0.000 C 
BRANCH   4   5
ATOM      5  C   UNL     1     -21.152  -1.512  14.444  1.00  0.00     0.000 C 
BRANCH   5   6
ATOM      6  C   UNL     1     -21.017  -2.448  13.228  1.00  0.00     0.000 C 
BRANCH   6   7
ATOM      7  C   UNL     1     -19.988  -2.005  12.166  1.00  0.00     0.000 C 
BRANCH   7   8
ATOM      8  C   UNL     1     -20.540  -1.871  10.735  1.00  0.00     0.000 C 
BRANCH   8   9
ATOM      9  C   UNL     1     -19.523  -2.278   9.660  1.00  0.00     0.000 C 
BRANCH   9  10
ATOM     10  C   UNL     1     -19.980  -1.809   8.271  1.00  0.00     0.006 C 
BRANCH  10  11
ATOM     11  C   UNL     1     -20.383  -0.328   8.261  1.00  0.00     0.053 C 
BRANCH  11  12
ATOM     12  C   UNL     1     -20.250   0.276   6.896  1.00  0.00     0.041 C 
ATOM     13  O   UNL     1     -19.542  -0.290   6.020  1.00  0.00    -0.550 OA
ATOM     14  O   UNL     1     -20.942   1.439   6.578  1.00  0.00    -0.550 OA
ENDBRANCH  11  12
ENDBRANCH  10  11
ENDBRANCH   9  10
ENDBRANCH   8   9
ENDBRANCH   7   8
ENDBRANCH   6   7
ENDBRANCH   5   6
ENDBRANCH   4   5
ENDBRANCH   3   4
ENDBRANCH   2   3
ENDBRANCH   1   2
BRANCH   1  15
ATOM     15  C   UNL     1     -21.209   2.558   9.913  1.00  0.00     0.000 C 
BRANCH  15  16
ATOM     16  C   UNL     1     -22.247   3.276   9.035  1.00  0.00     0.000 C 
BRANCH  16  17
ATOM     17  C   UNL     1     -21.868   4.740   8.748  1.00  0.00     0.000 C 
BRANCH  17  18
ATOM     18  C   UNL     1     -20.964   5.355   9.842  1.00  0.00    -0.000 C 
BRANCH  18  19
ATOM     19  C   UNL     1     -20.028   6.464   9.325  1.00  0.00    -0.000 C 
BRANCH  19  20
ATOM     20  C   UNL     1     -18.766   6.676  10.180  1.00  0.00    -0.000 C 
BRANCH  20  21
ATOM     21  C   UNL     1     -18.050   8.015   9.888  1.00  0.00    -0.000 C 
BRANCH  21  22
ATOM     22  C   UNL     1     -16.584   8.008  10.353  1.00  0.00    -0.000 C 
BRANCH  22  23
ATOM     23  C   UNL     1     -15.836   9.298   9.950  1.00  0.00    -0.000 C 
BRANCH  23  24
ATOM     24  C   UNL     1     -15.113   9.985  11.121  1.00  0.00    -0.000 C 
BRANCH  24  25
ATOM     25  C   UNL     1     -13.891  10.800  10.675  1.00  0.00    -0.003 C 
ATOM     26  C   UNL     1     -13.899  11.022   9.164  1.00  0.00     0.004 C 
ENDBRANCH  24  25
ENDBRANCH  23  24
ENDBRANCH  22  23
ENDBRANCH  21  22
ENDBRANCH  20  21
ENDBRANCH  19  20
ENDBRANCH  18  19
ENDBRANCH  17  18
ENDBRANCH  16  17
ENDBRANCH  15  16
ENDBRANCH   1  15
TORSDOF 22
ENDMDL
MODEL 9
REMARK VINA RESULT:    -1.174      6.878      9.535
REMARK INTER + INTRA:          -3.981
REMARK INTER:                  -2.474
REMARK INTRA:                  -1.507
REMARK UNBOUND:                -1.297
REMARK SMILES CCCCCCCCCCCCCCCCCCCCCCCC(=O)[O-]
REMARK SMILES IDX 13 1 14 2 15 3 16 4 17 5 18 6 19 7 20 8 21 9 22 10 23 11
REMARK SMILES IDX 24 12 25 13 26 14 12 15 11 16 10 17 9 18 8 19 7 20 6 21 5 22
REMARK SMILES IDX 4 23 3 24 2 25 1 26
REMARK H PARENT
REMARK Flexibility Score: inf
ROOT
ATOM      1  C   UNL     1     -19.264  -2.766   9.471  1.00  0.00     0.000 C 
ENDROOT
BRANCH   1   2
ATOM      2  C   UNL     1     -19.296  -3.922   8.456  1.00  0.00     0.000 C 
BRANCH   2   3
ATOM      3  C   UNL     1     -19.613  -5.277   9.114  1.00  0.00     0.000 C 
BRANCH   3   4
ATOM      4  C   UNL     1     -20.610  -6.119   8.291  1.00  0.00     0.000 C 
BRANCH   4   5
ATOM      5  C   UNL     1     -21.889  -6.508   9.059  1.00  0.00     0.000 C 
BRANCH   5   6
ATOM      6  C   UNL     1     -22.606  -7.770   8.545  1.00  0.00     0.000 C 
BRANCH   6   7
ATOM      7  C   UNL     1     -24.125  -7.618   8.315  1.00  0.00     0.000 C 
BRANCH   7   8
ATOM      8  C   UNL     1     -24.895  -8.939   8.137  1.00  0.00     0.000 C 
BRANCH   8   9
ATOM      9  C   UNL     1     -26.098  -9.063   9.082  1.00  0.00     0.000 C 
BRANCH   9  10
ATOM     10  C   UNL     1     -26.079  -7.949  10.138  1.00  0.00     0.006 C 
BRANCH  10  11
ATOM     11  C   UNL     1     -27.139  -8.162  11.228  1.00  0.00     0.053 C 
BRANCH  11  12
ATOM     12  C   UNL     1     -27.545  -6.870  11.869  1.00  0.00     0.041 C 
ATOM     13  O   UNL     1     -28.220  -6.876  12.933  1.00  0.00    -0.550 OA
ATOM     14  O   UNL     1     -27.139  -5.660  11.318  1.00  0.00    -0.550 OA
ENDBRANCH  11  12
ENDBRANCH  10  11
ENDBRANCH   9  10
ENDBRANCH   8   9
ENDBRANCH   7   8
ENDBRANCH   6   7
ENDBRANCH   5   6
ENDBRANCH   4   5
ENDBRANCH   3   4
ENDBRANCH   2   3
ENDBRANCH   1   2
BRANCH   1  15
ATOM     15  C   UNL     1     -20.001  -1.517   8.958  1.00  0.00     0.000 C 
BRANCH  15  16
ATOM     16  C   UNL     1     -20.386  -1.621   7.472  1.00  0.00     0.000 C 
BRANCH  16  17
ATOM     17  C   UNL     1     -20.350  -0.260   6.755  1.00  0.00     0.000 C 
BRANCH  17  18
ATOM     18  C   UNL     1     -19.885   0.894   7.674  1.00  0.00    -0.000 C 
BRANCH  18  19
ATOM     19  C   UNL     1     -20.808   2.128   7.639  1.00  0.00    -0.000 C 
BRANCH  19  20
ATOM     20  C   UNL     1     -21.522   2.421   8.971  1.00  0.00    -0.000 C 
BRANCH  20  21
ATOM     21  C   UNL     1     -21.095   1.469  10.113  1.00  0.00    -0.000 C 
BRANCH  21  22
ATOM     22  C   UNL     1     -21.963   1.639  11.371  1.00  0.00    -0.000 C 
BRANCH  22  23
ATOM     23  C   UNL     1     -21.277   1.076  12.635  1.00  0.00    -0.000 C 
BRANCH  23  24
ATOM     24  C   UNL     1     -20.812  -0.383  12.488  1.00  0.00    -0.000 C 
BRANCH  24  25
ATOM     25  C   UNL     1     -20.885  -1.172  13.803  1.00  0.00    -0.003 C 
ATOM     26  C   UNL     1     -21.897  -0.549  14.762  1.00  0.00     0.004 C 
ENDBRANCH  24  25
ENDBRANCH  23  24
ENDBRANCH  22  23
ENDBRANCH  21  22
ENDBRANCH  20  21
ENDBRANCH  19  20
ENDBRANCH  18  19
ENDBRANCH  17  18
ENDBRANCH  16  17
ENDBRANCH  15  16
ENDBRANCH   1  15
TORSDOF 22
ENDMDL
