MODEL 1
REMARK VINA RESULT:    -5.003      0.000      0.000
REMARK INTER + INTRA:          -6.545
REMARK INTER:                  -7.050
REMARK INTRA:                   0.505
REMARK UNBOUND:                 0.505
REMARK SMILES CC1=CCC(=C(C)C)C(=O)CC(C)=CCC1
REMARK SMILES IDX 12 1 14 2 13 3 15 4 16 5 2 6 1 7 3 8 11 10 9 11 10 12 5 13
REMARK SMILES IDX 6 14 7 15 8 16 4 17
REMARK H PARENT
REMARK Flexibility Score: 60.00
ROOT
ATOM      1  C   UNL     1     -13.921 -15.715  32.017  1.00  0.00    -0.070 C 
ATOM      2  C   UNL     1     -13.040 -15.746  33.045  1.00  0.00    -0.027 C 
ATOM      3  C   UNL     1     -15.129 -14.823  32.165  1.00  0.00     0.039 C 
ENDROOT
BRANCH   2   4
ATOM      4  C   UNL     1     -11.827 -16.639  33.156  1.00  0.00     0.032 C 
BRANCH   4   5
ATOM      5  C   UNL     1     -10.698 -16.226  32.192  1.00  0.00     0.034 C 
BRANCH   5   6
ATOM      6  C   UNL     1     -10.336 -17.336  31.224  1.00  0.00    -0.077 C 
ATOM      7  C   UNL     1      -9.899 -18.664  31.789  1.00  0.00     0.039 C 
ATOM      8  C   UNL     1     -10.409 -17.212  29.881  1.00  0.00    -0.023 CG0
ATOM      9  G   UNL     1     -10.856 -15.981  29.130  1.00  0.00     0.000 G0
ENDBRANCH   5   6
ENDBRANCH   4   5
ENDBRANCH   2   4
BRANCH   1  10
ATOM     10  C   UNL     1     -13.792 -16.570  30.768  1.00  0.00     0.111 C 
BRANCH  10  11
ATOM     11  C   UNL     1     -13.398 -15.743  29.568  1.00  0.00     0.163 C 
ATOM     12  O   UNL     1     -13.984 -14.642  29.388  1.00  0.00    -0.294 OA
BRANCH  11  13
ATOM     13  C   UNL     1     -12.309 -16.172  28.634  1.00  0.00    -0.002 C 
ATOM     14  C   UNL     1     -12.584 -16.776  27.439  1.00  0.00    -0.069 C 
ATOM     15  C   UNL     1     -14.000 -17.108  27.026  1.00  0.00     0.039 C 
ATOM     16  C   UNL     1     -11.480 -17.171  26.483  1.00  0.00     0.039 C 
BRANCH  13  17
ATOM     17  C   UNL     1     -10.880 -15.978  29.106  1.00  0.00     0.066 CG0
ATOM     18  G   UNL     1     -10.422 -17.196  29.871  1.00  0.00     0.000 G0
ENDBRANCH  13  17
ENDBRANCH  11  13
ENDBRANCH  10  11
ENDBRANCH   1  10
TORSDOF 0
ENDMDL
MODEL 2
REMARK VINA RESULT:    -4.955      2.248      3.441
REMARK INTER + INTRA:          -6.477
REMARK INTER:                  -7.088
REMARK INTRA:                   0.610
REMARK UNBOUND:                 0.505
REMARK SMILES CC1=CCC(=C(C)C)C(=O)CC(C)=CCC1
REMARK SMILES IDX 12 1 14 2 13 3 15 4 16 5 2 6 1 7 3 8 11 10 9 11 10 12 5 13
REMARK SMILES IDX 6 14 7 15 8 16 4 17
REMARK H PARENT
REMARK Flexibility Score: 60.00
ROOT
ATOM      1  C   UNL     1     -13.258 -19.262  29.512  1.00  0.00    -0.070 C 
ATOM      2  C   UNL     1     -13.628 -19.477  30.797  1.00  0.00    -0.027 C 
ATOM      3  C   UNL     1     -14.297 -19.498  28.443  1.00  0.00     0.039 C 
ENDROOT
BRANCH   2   4
ATOM      4  C   UNL     1     -12.730 -19.406  32.009  1.00  0.00     0.032 C 
BRANCH   4   5
ATOM      5  C   UNL     1     -12.145 -17.998  32.231  1.00  0.00     0.034 C 
BRANCH   5   6
ATOM      6  C   UNL     1     -13.201 -16.915  32.122  1.00  0.00    -0.077 C 
ATOM      7  C   UNL     1     -14.322 -16.904  33.130  1.00  0.00     0.039 C 
ATOM      8  C   UNL     1     -13.180 -15.939  31.187  1.00  0.00    -0.023 CG0
ATOM      9  G   UNL     1     -12.127 -15.761  30.119  1.00  0.00     0.000 G0
ENDBRANCH   5   6
ENDBRANCH   4   5
ENDBRANCH   2   4
BRANCH   1  10
ATOM     10  C   UNL     1     -11.853 -18.866  29.092  1.00  0.00     0.111 C 
BRANCH  10  11
ATOM     11  C   UNL     1     -11.850 -17.571  28.317  1.00  0.00     0.163 C 
ATOM     12  O   UNL     1     -11.245 -17.543  27.211  1.00  0.00    -0.294 OA
BRANCH  11  13
ATOM     13  C   UNL     1     -12.581 -16.357  28.799  1.00  0.00    -0.002 C 
ATOM     14  C   UNL     1     -13.574 -15.776  28.061  1.00  0.00    -0.069 C 
ATOM     15  C   UNL     1     -13.940 -16.285  26.685  1.00  0.00     0.039 C 
ATOM     16  C   UNL     1     -14.335 -14.572  28.573  1.00  0.00     0.039 C 
BRANCH  13  17
ATOM     17  C   UNL     1     -12.120 -15.750  30.112  1.00  0.00     0.066 CG0
ATOM     18  G   UNL     1     -13.179 -15.950  31.170  1.00  0.00     0.000 G0
ENDBRANCH  13  17
ENDBRANCH  11  13
ENDBRANCH  10  11
ENDBRANCH   1  10
TORSDOF 0
ENDMDL
MODEL 3
REMARK VINA RESULT:    -4.868      2.286      3.111
REMARK INTER + INTRA:          -6.355
REMARK INTER:                  -6.814
REMARK INTRA:                   0.459
REMARK UNBOUND:                 0.505
REMARK SMILES CC1=CCC(=C(C)C)C(=O)CC(C)=CCC1
REMARK SMILES IDX 12 1 14 2 13 3 15 4 16 5 2 6 1 7 3 8 11 10 9 11 10 12 5 13
REMARK SMILES IDX 6 14 7 15 8 16 4 17
REMARK H PARENT
REMARK Flexibility Score: 60.00
ROOT
ATOM      1  C   UNL     1     -11.609 -16.826  32.298  1.00  0.00    -0.070 C 
ATOM      2  C   UNL     1     -11.594 -18.163  32.512  1.00  0.00    -0.027 C 
ATOM      3  C   UNL     1     -10.762 -15.968  33.207  1.00  0.00     0.039 C 
ENDROOT
BRANCH   2   4
ATOM      4  C   UNL     1     -12.438 -19.192  31.799  1.00  0.00     0.032 C 
BRANCH   4   5
ATOM      5  C   UNL     1     -11.842 -19.609  30.441  1.00  0.00     0.034 C 
BRANCH   5   6
ATOM      6  C   UNL     1     -12.890 -19.663  29.347  1.00  0.00    -0.077 C 
ATOM      7  C   UNL     1     -13.991 -20.686  29.460  1.00  0.00     0.039 C 
ATOM      8  C   UNL     1     -12.910 -18.826  28.286  1.00  0.00    -0.023 CG0
ATOM      9  G   UNL     1     -11.920 -17.718  28.016  1.00  0.00     0.000 G0
ENDBRANCH   5   6
ENDBRANCH   4   5
ENDBRANCH   2   4
BRANCH   1  10
ATOM     10  C   UNL     1     -12.474 -16.148  31.250  1.00  0.00     0.111 C 
BRANCH  10  11
ATOM     11  C   UNL     1     -11.752 -16.024  29.930  1.00  0.00     0.163 C 
ATOM     12  O   UNL     1     -10.559 -15.617  29.943  1.00  0.00    -0.294 OA
BRANCH  11  13
ATOM     13  C   UNL     1     -12.394 -16.418  28.637  1.00  0.00    -0.002 C 
ATOM     14  C   UNL     1     -13.409 -15.686  28.086  1.00  0.00    -0.069 C 
ATOM     15  C   UNL     1     -13.988 -14.479  28.789  1.00  0.00     0.039 C 
ATOM     16  C   UNL     1     -14.027 -16.069  26.759  1.00  0.00     0.039 C 
BRANCH  13  17
ATOM     17  C   UNL     1     -11.922 -17.711  27.998  1.00  0.00     0.066 CG0
ATOM     18  G   UNL     1     -12.903 -18.819  28.295  1.00  0.00     0.000 G0
ENDBRANCH  13  17
ENDBRANCH  11  13
ENDBRANCH  10  11
ENDBRANCH   1  10
TORSDOF 0
ENDMDL
MODEL 4
REMARK VINA RESULT:    -4.760      1.792      4.037
REMARK INTER + INTRA:          -6.202
REMARK INTER:                  -7.120
REMARK INTRA:                   0.918
REMARK UNBOUND:                 0.505
REMARK SMILES CC1=CCC(=C(C)C)C(=O)CC(C)=CCC1
REMARK SMILES IDX 12 1 14 2 13 3 15 4 16 5 2 6 1 7 3 8 11 10 9 11 10 12 5 13
REMARK SMILES IDX 6 14 7 15 8 16 4 17
REMARK H PARENT
REMARK Flexibility Score: 60.00
ROOT
ATOM      1  C   UNL     1     -11.197 -17.063  28.846  1.00  0.00    -0.070 C 
ATOM      2  C   UNL     1     -10.527 -17.955  29.614  1.00  0.00    -0.027 C 
ATOM      3  C   UNL     1     -11.393 -17.410  27.390  1.00  0.00     0.039 C 
ENDROOT
BRANCH   2   4
ATOM      4  C   UNL     1     -10.128 -17.768  31.059  1.00  0.00     0.032 C 
BRANCH   4   5
ATOM      5  C   UNL     1     -10.796 -18.794  31.994  1.00  0.00     0.034 C 
BRANCH   5   6
ATOM      6  C   UNL     1     -12.242 -19.056  31.620  1.00  0.00    -0.077 C 
ATOM      7  C   UNL     1     -12.638 -20.457  31.231  1.00  0.00     0.039 C 
ATOM      8  C   UNL     1     -13.205 -18.108  31.641  1.00  0.00    -0.023 CG0
ATOM      9  G   UNL     1     -13.014 -16.663  32.035  1.00  0.00     0.000 G0
ENDBRANCH   5   6
ENDBRANCH   4   5
ENDBRANCH   2   4
BRANCH   1  10
ATOM     10  C   UNL     1     -11.696 -15.720  29.351  1.00  0.00     0.111 C 
BRANCH  10  11
ATOM     11  C   UNL     1     -13.178 -15.749  29.633  1.00  0.00     0.163 C 
ATOM     12  O   UNL     1     -13.967 -15.822  28.652  1.00  0.00    -0.294 OA
BRANCH  11  13
ATOM     13  C   UNL     1     -13.719 -15.746  31.029  1.00  0.00    -0.002 C 
ATOM     14  C   UNL     1     -14.743 -14.921  31.401  1.00  0.00    -0.069 C 
ATOM     15  C   UNL     1     -15.339 -13.915  30.442  1.00  0.00     0.039 C 
ATOM     16  C   UNL     1     -15.310 -14.951  32.804  1.00  0.00     0.039 C 
BRANCH  13  17
ATOM     17  C   UNL     1     -13.028 -16.645  32.038  1.00  0.00     0.066 CG0
ATOM     18  G   UNL     1     -13.208 -18.092  31.643  1.00  0.00     0.000 G0
ENDBRANCH  13  17
ENDBRANCH  11  13
ENDBRANCH  10  11
ENDBRANCH   1  10
TORSDOF 0
ENDMDL
MODEL 5
REMARK VINA RESULT:    -4.638      2.294      3.850
REMARK INTER + INTRA:          -6.030
REMARK INTER:                  -7.263
REMARK INTRA:                   1.233
REMARK UNBOUND:                 0.505
REMARK SMILES CC1=CCC(=C(C)C)C(=O)CC(C)=CCC1
REMARK SMILES IDX 12 1 14 2 13 3 15 4 16 5 2 6 1 7 3 8 11 10 9 11 10 12 5 13
REMARK SMILES IDX 6 14 7 15 8 16 4 17
REMARK H PARENT
REMARK Flexibility Score: 60.00
ROOT
ATOM      1  C   UNL     1     -13.315 -16.065  31.589  1.00  0.00    -0.070 C 
ATOM      2  C   UNL     1     -14.153 -15.490  30.694  1.00  0.00    -0.027 C 
ATOM      3  C   UNL     1     -13.924 -16.617  32.855  1.00  0.00     0.039 C 
ENDROOT
BRANCH   2   4
ATOM      4  C   UNL     1     -13.753 -14.785  29.421  1.00  0.00     0.032 C 
BRANCH   4   5
ATOM      5  C   UNL     1     -12.542 -15.444  28.735  1.00  0.00     0.034 C 
BRANCH   5   6
ATOM      6  C   UNL     1     -12.952 -16.566  27.801  1.00  0.00    -0.077 C 
ATOM      7  C   UNL     1     -14.002 -16.282  26.757  1.00  0.00     0.039 C 
ATOM      8  C   UNL     1     -12.409 -17.803  27.832  1.00  0.00    -0.023 CG0
ATOM      9  G   UNL     1     -11.325 -18.269  28.775  1.00  0.00     0.000 G0
ENDBRANCH   5   6
ENDBRANCH   4   5
ENDBRANCH   2   4
BRANCH   1  10
ATOM     10  C   UNL     1     -11.807 -16.122  31.418  1.00  0.00     0.111 C 
BRANCH  10  11
ATOM     11  C   UNL     1     -11.322 -17.540  31.239  1.00  0.00     0.163 C 
ATOM     12  O   UNL     1     -10.454 -17.976  32.043  1.00  0.00    -0.294 OA
BRANCH  11  13
ATOM     13  C   UNL     1     -11.878 -18.439  30.179  1.00  0.00    -0.002 C 
ATOM     14  C   UNL     1     -12.793 -19.412  30.470  1.00  0.00    -0.069 C 
ATOM     15  C   UNL     1     -13.242 -19.680  31.889  1.00  0.00     0.039 C 
ATOM     16  C   UNL     1     -13.379 -20.292  29.387  1.00  0.00     0.039 C 
BRANCH  13  17
ATOM     17  C   UNL     1     -11.323 -18.277  28.776  1.00  0.00     0.066 CG0
ATOM     18  G   UNL     1     -12.412 -17.800  27.845  1.00  0.00     0.000 G0
ENDBRANCH  13  17
ENDBRANCH  11  13
ENDBRANCH  10  11
ENDBRANCH   1  10
TORSDOF 0
ENDMDL
MODEL 6
REMARK VINA RESULT:    -4.396      2.158      4.840
REMARK INTER + INTRA:          -5.689
REMARK INTER:                  -6.435
REMARK INTRA:                   0.745
REMARK UNBOUND:                 0.505
REMARK SMILES CC1=CCC(=C(C)C)C(=O)CC(C)=CCC1
REMARK SMILES IDX 12 1 14 2 13 3 15 4 16 5 2 6 1 7 3 8 11 10 9 11 10 12 5 13
REMARK SMILES IDX 6 14 7 15 8 16 4 17
REMARK H PARENT
REMARK Flexibility Score: 60.00
ROOT
ATOM      1  C   UNL     1     -12.250 -19.622  30.903  1.00  0.00    -0.070 C 
ATOM      2  C   UNL     1     -13.251 -19.846  30.019  1.00  0.00    -0.027 C 
ATOM      3  C   UNL     1     -12.500 -19.994  32.344  1.00  0.00     0.039 C 
ENDROOT
BRANCH   2   4
ATOM      4  C   UNL     1     -13.259 -19.458  28.560  1.00  0.00     0.032 C 
BRANCH   4   5
ATOM      5  C   UNL     1     -14.254 -18.322  28.255  1.00  0.00     0.034 C 
BRANCH   5   6
ATOM      6  C   UNL     1     -13.561 -16.984  28.080  1.00  0.00    -0.077 C 
ATOM      7  C   UNL     1     -13.281 -16.501  26.680  1.00  0.00     0.039 C 
ATOM      8  C   UNL     1     -13.203 -16.185  29.110  1.00  0.00    -0.023 CG0
ATOM      9  G   UNL     1     -13.430 -16.476  30.574  1.00  0.00     0.000 G0
ENDBRANCH   5   6
ENDBRANCH   4   5
ENDBRANCH   2   4
BRANCH   1  10
ATOM     10  C   UNL     1     -10.932 -18.964  30.536  1.00  0.00     0.111 C 
BRANCH  10  11
ATOM     11  C   UNL     1     -11.051 -17.459  30.510  1.00  0.00     0.163 C 
ATOM     12  O   UNL     1     -10.258 -16.814  29.772  1.00  0.00    -0.294 OA
BRANCH  11  13
ATOM     13  C   UNL     1     -12.105 -16.735  31.287  1.00  0.00    -0.002 C 
ATOM     14  C   UNL     1     -11.919 -16.381  32.594  1.00  0.00    -0.069 C 
ATOM     15  C   UNL     1     -10.665 -16.764  33.348  1.00  0.00     0.039 C 
ATOM     16  C   UNL     1     -12.974 -15.615  33.362  1.00  0.00     0.039 C 
BRANCH  13  17
ATOM     17  C   UNL     1     -13.426 -16.478  30.584  1.00  0.00     0.066 CG0
ATOM     18  G   UNL     1     -13.181 -16.180  29.125  1.00  0.00     0.000 G0
ENDBRANCH  13  17
ENDBRANCH  11  13
ENDBRANCH  10  11
ENDBRANCH   1  10
TORSDOF 0
ENDMDL
MODEL 7
REMARK VINA RESULT:    -4.242      2.022      3.746
REMARK INTER + INTRA:          -5.473
REMARK INTER:                  -6.486
REMARK INTRA:                   1.013
REMARK UNBOUND:                 0.505
REMARK SMILES CC1=CCC(=C(C)C)C(=O)CC(C)=CCC1
REMARK SMILES IDX 12 1 14 2 13 3 15 4 16 5 2 6 1 7 3 8 11 10 9 11 10 12 5 13
REMARK SMILES IDX 6 14 7 15 8 16 4 17
REMARK H PARENT
REMARK Flexibility Score: 60.00
ROOT
ATOM      1  C   UNL     1     -10.483 -16.558  29.541  1.00  0.00    -0.070 C 
ATOM      2  C   UNL     1      -9.878 -17.276  30.517  1.00  0.00    -0.027 C 
ATOM      3  C   UNL     1     -10.045 -15.125  29.362  1.00  0.00     0.039 C 
ENDROOT
BRANCH   2   4
ATOM      4  C   UNL     1     -10.229 -18.683  30.939  1.00  0.00     0.032 C 
BRANCH   4   5
ATOM      5  C   UNL     1     -10.757 -18.752  32.385  1.00  0.00     0.034 C 
BRANCH   5   6
ATOM      6  C   UNL     1     -11.096 -17.381  32.938  1.00  0.00    -0.077 C 
ATOM      7  C   UNL     1     -10.040 -16.645  33.723  1.00  0.00     0.039 C 
ATOM      8  C   UNL     1     -12.284 -16.768  32.744  1.00  0.00    -0.023 CG0
ATOM      9  G   UNL     1     -13.448 -17.324  31.960  1.00  0.00     0.000 G0
ENDBRANCH   5   6
ENDBRANCH   4   5
ENDBRANCH   2   4
BRANCH   1  10
ATOM     10  C   UNL     1     -11.611 -17.092  28.675  1.00  0.00     0.111 C 
BRANCH  10  11
ATOM     11  C   UNL     1     -12.750 -17.621  29.512  1.00  0.00     0.163 C 
ATOM     12  O   UNL     1     -13.087 -18.827  29.361  1.00  0.00    -0.294 OA
BRANCH  11  13
ATOM     13  C   UNL     1     -13.441 -16.776  30.536  1.00  0.00    -0.002 C 
ATOM     14  C   UNL     1     -13.963 -15.552  30.223  1.00  0.00    -0.069 C 
ATOM     15  C   UNL     1     -13.809 -14.953  28.843  1.00  0.00     0.039 C 
ATOM     16  C   UNL     1     -14.693 -14.720  31.255  1.00  0.00     0.039 C 
BRANCH  13  17
ATOM     17  C   UNL     1     -13.469 -17.302  31.959  1.00  0.00     0.066 CG0
ATOM     18  G   UNL     1     -12.284 -16.768  32.728  1.00  0.00     0.000 G0
ENDBRANCH  13  17
ENDBRANCH  11  13
ENDBRANCH  10  11
ENDBRANCH   1  10
TORSDOF 0
ENDMDL
MODEL 8
REMARK VINA RESULT:    -4.134      1.980      3.173
REMARK INTER + INTRA:          -5.320
REMARK INTER:                  -7.266
REMARK INTRA:                   1.946
REMARK UNBOUND:                 0.505
REMARK SMILES CC1=CCC(=C(C)C)C(=O)CC(C)=CCC1
REMARK SMILES IDX 12 1 14 2 13 3 15 4 16 5 2 6 1 7 3 8 11 10 9 11 10 12 5 13
REMARK SMILES IDX 6 14 7 15 8 16 4 17
REMARK H PARENT
REMARK Flexibility Score: 60.00
ROOT
ATOM      1  C   UNL     1     -13.209 -15.531  29.671  1.00  0.00    -0.070 C 
ATOM      2  C   UNL     1     -14.053 -15.507  30.730  1.00  0.00    -0.027 C 
ATOM      3  C   UNL     1     -13.813 -15.369  28.298  1.00  0.00     0.039 C 
ENDROOT
BRANCH   2   4
ATOM      4  C   UNL     1     -13.684 -15.753  32.173  1.00  0.00     0.032 C 
BRANCH   4   5
ATOM      5  C   UNL     1     -12.910 -17.070  32.370  1.00  0.00     0.034 C 
BRANCH   5   6
ATOM      6  C   UNL     1     -11.456 -16.833  32.729  1.00  0.00    -0.077 C 
ATOM      7  C   UNL     1     -11.133 -15.759  33.737  1.00  0.00     0.039 C 
ATOM      8  C   UNL     1     -10.431 -17.549  32.217  1.00  0.00    -0.023 CG0
ATOM      9  G   UNL     1     -10.553 -18.683  31.227  1.00  0.00     0.000 G0
ENDBRANCH   5   6
ENDBRANCH   4   5
ENDBRANCH   2   4
BRANCH   1  10
ATOM     10  C   UNL     1     -11.714 -15.775  29.789  1.00  0.00     0.111 C 
BRANCH  10  11
ATOM     11  C   UNL     1     -11.338 -17.156  29.311  1.00  0.00     0.163 C 
ATOM     12  O   UNL     1     -10.765 -17.261  28.192  1.00  0.00    -0.294 OA
BRANCH  11  13
ATOM     13  C   UNL     1     -11.578 -18.375  30.145  1.00  0.00    -0.002 C 
ATOM     14  C   UNL     1     -12.704 -19.135  29.999  1.00  0.00    -0.069 C 
ATOM     15  C   UNL     1     -13.804 -18.746  29.036  1.00  0.00     0.039 C 
ATOM     16  C   UNL     1     -12.922 -20.388  30.819  1.00  0.00     0.039 C 
BRANCH  13  17
ATOM     17  C   UNL     1     -10.551 -18.690  31.217  1.00  0.00     0.066 CG0
ATOM     18  G   UNL     1     -10.456 -17.540  32.191  1.00  0.00     0.000 G0
ENDBRANCH  13  17
ENDBRANCH  11  13
ENDBRANCH  10  11
ENDBRANCH   1  10
TORSDOF 0
ENDMDL
MODEL 9
REMARK VINA RESULT:    -3.909      1.849      4.263
REMARK INTER + INTRA:          -5.003
REMARK INTER:                  -5.793
REMARK INTRA:                   0.790
REMARK UNBOUND:                 0.505
REMARK SMILES CC1=CCC(=C(C)C)C(=O)CC(C)=CCC1
REMARK SMILES IDX 12 1 14 2 13 3 15 4 16 5 2 6 1 7 3 8 11 10 9 11 10 12 5 13
REMARK SMILES IDX 6 14 7 15 8 16 4 17
REMARK H PARENT
REMARK Flexibility Score: 60.00
ROOT
ATOM      1  C   UNL     1     -10.541 -17.196  32.166  1.00  0.00    -0.070 C 
ATOM      2  C   UNL     1     -10.044 -17.113  30.909  1.00  0.00    -0.027 C 
ATOM      3  C   UNL     1     -10.078 -18.350  33.021  1.00  0.00     0.039 C 
ENDROOT
BRANCH   2   4
ATOM      4  C   UNL     1     -10.445 -16.112  29.853  1.00  0.00     0.032 C 
BRANCH   4   5
ATOM      5  C   UNL     1     -11.017 -16.781  28.588  1.00  0.00     0.034 C 
BRANCH   5   6
ATOM      6  C   UNL     1     -12.253 -17.608  28.887  1.00  0.00    -0.077 C 
ATOM      7  C   UNL     1     -12.236 -19.074  28.534  1.00  0.00     0.039 C 
ATOM      8  C   UNL     1     -13.362 -17.112  29.478  1.00  0.00    -0.023 CG0
ATOM      9  G   UNL     1     -13.557 -15.686  29.935  1.00  0.00     0.000 G0
ENDBRANCH   5   6
ENDBRANCH   4   5
ENDBRANCH   2   4
BRANCH   1  10
ATOM     10  C   UNL     1     -11.577 -16.238  32.728  1.00  0.00     0.111 C 
BRANCH  10  11
ATOM     11  C   UNL     1     -12.971 -16.600  32.275  1.00  0.00     0.163 C 
ATOM     12  O   UNL     1     -13.451 -17.702  32.653  1.00  0.00    -0.294 OA
BRANCH  11  13
ATOM     13  C   UNL     1     -13.799 -15.670  31.445  1.00  0.00    -0.002 C 
ATOM     14  C   UNL     1     -14.768 -14.881  31.999  1.00  0.00    -0.069 C 
ATOM     15  C   UNL     1     -15.105 -14.956  33.472  1.00  0.00     0.039 C 
ATOM     16  C   UNL     1     -15.575 -13.915  31.159  1.00  0.00     0.039 C 
BRANCH  13  17
ATOM     17  C   UNL     1     -13.571 -15.696  29.944  1.00  0.00     0.066 CG0
ATOM     18  G   UNL     1     -13.368 -17.118  29.480  1.00  0.00     0.000 G0
ENDBRANCH  13  17
ENDBRANCH  11  13
ENDBRANCH  10  11
ENDBRANCH   1  10
TORSDOF 0
ENDMDL
