MODEL 1
REMARK VINA RESULT:    -4.754      0.000      0.000
REMARK INTER + INTRA:          -6.542
REMARK INTER:                  -6.422
REMARK INTRA:                  -0.120
REMARK UNBOUND:                -0.120
REMARK SMILES [NH3+]CCCC[C@@H]([NH3+])C(=O)[O-]
REMARK SMILES IDX 4 1 3 2 2 3 1 4 5 8 6 9 7 10 8 14 9 15 10 16
REMARK H PARENT 1 5 1 6 1 7 7 11 7 12 7 13
REMARK Flexibility Score: inf
ROOT
ATOM      1  C   UNL     1      12.073  -3.750  20.957  1.00  0.00     0.012 C 
ENDROOT
BRANCH   1   2
ATOM      2  C   UNL     1      12.161  -3.166  19.542  1.00  0.00     0.061 C 
BRANCH   2   3
ATOM      3  C   UNL     1      13.619  -2.890  19.149  1.00  0.00     0.258 C 
BRANCH   3   4
ATOM      4  N   UNL     1      13.717  -1.696  18.311  1.00  0.00    -0.358 N 
ATOM      5  H   UNL     1      14.642  -1.675  17.822  1.00  0.00     0.344 HD
ATOM      6  H   UNL     1      12.956  -1.717  17.595  1.00  0.00     0.344 HD
ATOM      7  H   UNL     1      13.608  -0.836  18.896  1.00  0.00     0.344 HD
ENDBRANCH   3   4
ENDBRANCH   2   3
ENDBRANCH   1   2
BRANCH   1   8
ATOM      8  C   UNL     1      13.264  -3.298  21.816  1.00  0.00     0.072 C 
BRANCH   8   9
ATOM      9  C   UNL     1      13.163  -3.787  23.278  1.00  0.00     0.227 C 
BRANCH   9  10
ATOM     10  N   UNL     1      12.292  -4.964  23.400  1.00  0.00    -0.350 N 
ATOM     11  H   UNL     1      12.430  -5.419  24.331  1.00  0.00     0.345 HD
ATOM     12  H   UNL     1      12.541  -5.668  22.667  1.00  0.00     0.345 HD
ATOM     13  H   UNL     1      11.287  -4.696  23.289  1.00  0.00     0.345 HD
ENDBRANCH   9  10
BRANCH   9  14
ATOM     14  C   UNL     1      14.540  -4.110  23.794  1.00  0.00     0.099 C 
ATOM     15  O   UNL     1      14.994  -3.512  24.806  1.00  0.00    -0.544 OA
ATOM     16  O   UNL     1      15.328  -5.055  23.147  1.00  0.00    -0.544 OA
ENDBRANCH   9  14
ENDBRANCH   8   9
ENDBRANCH   1   8
TORSDOF 7
ENDMDL
MODEL 2
REMARK VINA RESULT:    -4.732     17.518     19.087
REMARK INTER + INTRA:          -6.511
REMARK INTER:                  -6.379
REMARK INTRA:                  -0.132
REMARK UNBOUND:                -0.120
REMARK SMILES [NH3+]CCCC[C@@H]([NH3+])C(=O)[O-]
REMARK SMILES IDX 4 1 3 2 2 3 1 4 5 8 6 9 7 10 8 14 9 15 10 16
REMARK H PARENT 1 5 1 6 1 7 7 11 7 12 7 13
REMARK Flexibility Score: inf
ROOT
ATOM      1  C   UNL     1      17.138  12.736  13.258  1.00  0.00     0.012 C 
ENDROOT
BRANCH   1   2
ATOM      2  C   UNL     1      16.309  12.445  14.515  1.00  0.00     0.061 C 
BRANCH   2   3
ATOM      3  C   UNL     1      17.163  11.770  15.596  1.00  0.00     0.258 C 
BRANCH   3   4
ATOM      4  N   UNL     1      16.431  10.677  16.233  1.00  0.00    -0.358 N 
ATOM      5  H   UNL     1      15.539  10.494  15.719  1.00  0.00     0.344 HD
ATOM      6  H   UNL     1      17.018   9.811  16.210  1.00  0.00     0.344 HD
ATOM      7  H   UNL     1      16.221  10.916  17.230  1.00  0.00     0.344 HD
ENDBRANCH   3   4
ENDBRANCH   2   3
ENDBRANCH   1   2
BRANCH   1   8
ATOM      8  C   UNL     1      18.404  11.865  13.220  1.00  0.00     0.072 C 
BRANCH   8   9
ATOM      9  C   UNL     1      19.360  12.255  12.070  1.00  0.00     0.227 C 
BRANCH   9  10
ATOM     10  N   UNL     1      19.053  13.589  11.536  1.00  0.00    -0.350 N 
ATOM     11  H   UNL     1      19.202  14.315  12.272  1.00  0.00     0.345 HD
ATOM     12  H   UNL     1      18.048  13.635  11.249  1.00  0.00     0.345 HD
ATOM     13  H   UNL     1      19.654  13.805  10.708  1.00  0.00     0.345 HD
ENDBRANCH   9  10
BRANCH   9  14
ATOM     14  C   UNL     1      20.781  12.213  12.566  1.00  0.00     0.099 C 
ATOM     15  O   UNL     1      21.621  11.452  12.016  1.00  0.00    -0.544 OA
ATOM     16  O   UNL     1      21.171  12.999  13.644  1.00  0.00    -0.544 OA
ENDBRANCH   9  14
ENDBRANCH   8   9
ENDBRANCH   1   8
TORSDOF 7
ENDMDL
MODEL 3
REMARK VINA RESULT:    -4.642      1.205      1.707
REMARK INTER + INTRA:          -6.390
REMARK INTER:                  -6.227
REMARK INTRA:                  -0.163
REMARK UNBOUND:                -0.120
REMARK SMILES [NH3+]CCCC[C@@H]([NH3+])C(=O)[O-]
REMARK SMILES IDX 4 1 3 2 2 3 1 4 5 8 6 9 7 10 8 14 9 15 10 16
REMARK H PARENT 1 5 1 6 1 7 7 11 7 12 7 13
REMARK Flexibility Score: inf
ROOT
ATOM      1  C   UNL     1      12.058  -4.561  21.629  1.00  0.00     0.012 C 
ENDROOT
BRANCH   1   2
ATOM      2  C   UNL     1      12.585  -3.267  20.999  1.00  0.00     0.061 C 
BRANCH   2   3
ATOM      3  C   UNL     1      12.887  -3.462  19.507  1.00  0.00     0.258 C 
BRANCH   3   4
ATOM      4  N   UNL     1      14.192  -2.900  19.160  1.00  0.00    -0.358 N 
ATOM      5  H   UNL     1      14.467  -3.199  18.196  1.00  0.00     0.344 HD
ATOM      6  H   UNL     1      14.133  -1.856  19.187  1.00  0.00     0.344 HD
ATOM      7  H   UNL     1      14.914  -3.216  19.847  1.00  0.00     0.344 HD
ENDBRANCH   3   4
ENDBRANCH   2   3
ENDBRANCH   1   2
BRANCH   1   8
ATOM      8  C   UNL     1      12.895  -4.957  22.856  1.00  0.00     0.072 C 
BRANCH   8   9
ATOM      9  C   UNL     1      13.875  -3.844  23.293  1.00  0.00     0.227 C 
BRANCH   9  10
ATOM     10  N   UNL     1      13.365  -3.094  24.449  1.00  0.00    -0.350 N 
ATOM     11  H   UNL     1      12.495  -3.543  24.815  1.00  0.00     0.345 HD
ATOM     12  H   UNL     1      13.118  -2.120  24.160  1.00  0.00     0.345 HD
ATOM     13  H   UNL     1      14.081  -3.052  25.210  1.00  0.00     0.345 HD
ENDBRANCH   9  10
BRANCH   9  14
ATOM     14  C   UNL     1      15.210  -4.455  23.623  1.00  0.00     0.099 C 
ATOM     15  O   UNL     1      15.693  -5.357  22.888  1.00  0.00    -0.544 OA
ATOM     16  O   UNL     1      15.911  -4.043  24.751  1.00  0.00    -0.544 OA
ENDBRANCH   9  14
ENDBRANCH   8   9
ENDBRANCH   1   8
TORSDOF 7
ENDMDL
MODEL 4
REMARK VINA RESULT:    -4.619      3.325      4.527
REMARK INTER + INTRA:          -6.359
REMARK INTER:                  -6.252
REMARK INTRA:                  -0.107
REMARK UNBOUND:                -0.120
REMARK SMILES [NH3+]CCCC[C@@H]([NH3+])C(=O)[O-]
REMARK SMILES IDX 4 1 3 2 2 3 1 4 5 8 6 9 7 10 8 14 9 15 10 16
REMARK H PARENT 1 5 1 6 1 7 7 11 7 12 7 13
REMARK Flexibility Score: inf
ROOT
ATOM      1  C   UNL     1      13.151  -4.897  23.153  1.00  0.00     0.012 C 
ENDROOT
BRANCH   1   2
ATOM      2  C   UNL     1      14.445  -4.095  22.964  1.00  0.00     0.061 C 
BRANCH   2   3
ATOM      3  C   UNL     1      15.641  -4.822  23.594  1.00  0.00     0.258 C 
BRANCH   3   4
ATOM      4  N   UNL     1      15.925  -6.070  22.888  1.00  0.00    -0.358 N 
ATOM      5  H   UNL     1      15.902  -6.874  23.557  1.00  0.00     0.344 HD
ATOM      6  H   UNL     1      15.196  -6.222  22.153  1.00  0.00     0.344 HD
ATOM      7  H   UNL     1      16.863  -6.019  22.428  1.00  0.00     0.344 HD
ENDBRANCH   3   4
ENDBRANCH   2   3
ENDBRANCH   1   2
BRANCH   1   8
ATOM      8  C   UNL     1      11.979  -4.232  22.415  1.00  0.00     0.072 C 
BRANCH   8   9
ATOM      9  C   UNL     1      11.882  -4.669  20.936  1.00  0.00     0.227 C 
BRANCH   9  10
ATOM     10  N   UNL     1      10.682  -5.482  20.686  1.00  0.00    -0.350 N 
ATOM     11  H   UNL     1       9.955  -4.911  20.201  1.00  0.00     0.345 HD
ATOM     12  H   UNL     1      10.275  -5.802  21.595  1.00  0.00     0.345 HD
ATOM     13  H   UNL     1      10.915  -6.318  20.103  1.00  0.00     0.345 HD
ENDBRANCH   9  10
BRANCH   9  14
ATOM     14  C   UNL     1      11.869  -3.450  20.053  1.00  0.00     0.099 C 
ATOM     15  O   UNL     1      10.891  -2.656  20.084  1.00  0.00    -0.544 OA
ATOM     16  O   UNL     1      12.926  -3.200  19.186  1.00  0.00    -0.544 OA
ENDBRANCH   9  14
ENDBRANCH   8   9
ENDBRANCH   1   8
TORSDOF 7
ENDMDL
MODEL 5
REMARK VINA RESULT:    -4.615     18.698     19.493
REMARK INTER + INTRA:          -6.354
REMARK INTER:                  -6.229
REMARK INTRA:                  -0.126
REMARK UNBOUND:                -0.120
REMARK SMILES [NH3+]CCCC[C@@H]([NH3+])C(=O)[O-]
REMARK SMILES IDX 4 1 3 2 2 3 1 4 5 8 6 9 7 10 8 14 9 15 10 16
REMARK H PARENT 1 5 1 6 1 7 7 11 7 12 7 13
REMARK Flexibility Score: inf
ROOT
ATOM      1  C   UNL     1      19.133  13.037  11.203  1.00  0.00     0.012 C 
ENDROOT
BRANCH   1   2
ATOM      2  C   UNL     1      19.963  11.753  11.313  1.00  0.00     0.061 C 
BRANCH   2   3
ATOM      3  C   UNL     1      21.033  11.881  12.406  1.00  0.00     0.258 C 
BRANCH   3   4
ATOM      4  N   UNL     1      22.228  11.113  12.059  1.00  0.00    -0.358 N 
ATOM      5  H   UNL     1      22.080  10.100  12.275  1.00  0.00     0.344 HD
ATOM      6  H   UNL     1      22.416  11.216  11.035  1.00  0.00     0.344 HD
ATOM      7  H   UNL     1      23.054  11.471  12.592  1.00  0.00     0.344 HD
ENDBRANCH   3   4
ENDBRANCH   2   3
ENDBRANCH   1   2
BRANCH   1   8
ATOM      8  C   UNL     1      18.561  13.444  12.570  1.00  0.00     0.072 C 
BRANCH   8   9
ATOM      9  C   UNL     1      17.570  12.401  13.135  1.00  0.00     0.227 C 
BRANCH   9  10
ATOM     10  N   UNL     1      18.000  11.898  14.448  1.00  0.00    -0.350 N 
ATOM     11  H   UNL     1      17.188  11.868  15.105  1.00  0.00     0.345 HD
ATOM     12  H   UNL     1      18.713  12.544  14.860  1.00  0.00     0.345 HD
ATOM     13  H   UNL     1      18.414  10.942  14.363  1.00  0.00     0.345 HD
ENDBRANCH   9  10
BRANCH   9  14
ATOM     14  C   UNL     1      16.202  13.019  13.243  1.00  0.00     0.099 C 
ATOM     15  O   UNL     1      16.051  14.125  13.827  1.00  0.00    -0.544 OA
ATOM     16  O   UNL     1      15.094  12.366  12.717  1.00  0.00    -0.544 OA
ENDBRANCH   9  14
ENDBRANCH   8   9
ENDBRANCH   1   8
TORSDOF 7
ENDMDL
MODEL 6
REMARK VINA RESULT:    -4.551     18.621     19.682
REMARK INTER + INTRA:          -6.267
REMARK INTER:                  -6.160
REMARK INTRA:                  -0.107
REMARK UNBOUND:                -0.120
REMARK SMILES [NH3+]CCCC[C@@H]([NH3+])C(=O)[O-]
REMARK SMILES IDX 4 1 3 2 2 3 1 4 5 8 6 9 7 10 8 14 9 15 10 16
REMARK H PARENT 1 5 1 6 1 7 7 11 7 12 7 13
REMARK Flexibility Score: inf
ROOT
ATOM      1  C   UNL     1      17.866  13.253  12.110  1.00  0.00     0.012 C 
ENDROOT
BRANCH   1   2
ATOM      2  C   UNL     1      16.992  13.771  13.259  1.00  0.00     0.061 C 
BRANCH   2   3
ATOM      3  C   UNL     1      16.371  12.610  14.048  1.00  0.00     0.258 C 
BRANCH   3   4
ATOM      4  N   UNL     1      16.714  12.700  15.466  1.00  0.00    -0.358 N 
ATOM      5  H   UNL     1      15.967  13.217  15.984  1.00  0.00     0.344 HD
ATOM      6  H   UNL     1      16.794  11.735  15.861  1.00  0.00     0.344 HD
ATOM      7  H   UNL     1      17.631  13.191  15.584  1.00  0.00     0.344 HD
ENDBRANCH   3   4
ENDBRANCH   2   3
ENDBRANCH   1   2
BRANCH   1   8
ATOM      8  C   UNL     1      19.358  13.454  12.419  1.00  0.00     0.072 C 
BRANCH   8   9
ATOM      9  C   UNL     1      20.125  12.118  12.548  1.00  0.00     0.227 C 
BRANCH   9  10
ATOM     10  N   UNL     1      20.199  11.407  11.263  1.00  0.00    -0.350 N 
ATOM     11  H   UNL     1      21.012  10.751  11.261  1.00  0.00     0.345 HD
ATOM     12  H   UNL     1      20.347  12.092  10.486  1.00  0.00     0.345 HD
ATOM     13  H   UNL     1      19.319  10.872  11.083  1.00  0.00     0.345 HD
ENDBRANCH   9  10
BRANCH   9  14
ATOM     14  C   UNL     1      21.511  12.386  13.069  1.00  0.00     0.099 C 
ATOM     15  O   UNL     1      21.704  13.300  13.914  1.00  0.00    -0.544 OA
ATOM     16  O   UNL     1      22.590  11.641  12.607  1.00  0.00    -0.544 OA
ENDBRANCH   9  14
ENDBRANCH   8   9
ENDBRANCH   1   8
TORSDOF 7
ENDMDL
MODEL 7
REMARK VINA RESULT:    -4.539     17.052     18.399
REMARK INTER + INTRA:          -6.252
REMARK INTER:                  -6.140
REMARK INTRA:                  -0.111
REMARK UNBOUND:                -0.120
REMARK SMILES [NH3+]CCCC[C@@H]([NH3+])C(=O)[O-]
REMARK SMILES IDX 4 1 3 2 2 3 1 4 5 8 6 9 7 10 8 14 9 15 10 16
REMARK H PARENT 1 5 1 6 1 7 7 11 7 12 7 13
REMARK Flexibility Score: inf
ROOT
ATOM      1  C   UNL     1      18.161  13.045  12.195  1.00  0.00     0.012 C 
ENDROOT
BRANCH   1   2
ATOM      2  C   UNL     1      19.551  12.834  11.584  1.00  0.00     0.061 C 
BRANCH   2   3
ATOM      3  C   UNL     1      20.522  12.239  12.613  1.00  0.00     0.258 C 
BRANCH   3   4
ATOM      4  N   UNL     1      21.370  11.218  12.001  1.00  0.00    -0.358 N 
ATOM      5  H   UNL     1      21.425  10.378  12.622  1.00  0.00     0.344 HD
ATOM      6  H   UNL     1      20.956  10.933  11.084  1.00  0.00     0.344 HD
ATOM      7  H   UNL     1      22.330  11.598  11.835  1.00  0.00     0.344 HD
ENDBRANCH   3   4
ENDBRANCH   2   3
ENDBRANCH   1   2
BRANCH   1   8
ATOM      8  C   UNL     1      17.942  12.117  13.400  1.00  0.00     0.072 C 
BRANCH   8   9
ATOM      9  C   UNL     1      16.594  12.372  14.112  1.00  0.00     0.227 C 
BRANCH   9  10
ATOM     10  N   UNL     1      15.453  11.975  13.275  1.00  0.00    -0.350 N 
ATOM     11  H   UNL     1      14.692  11.576  13.869  1.00  0.00     0.345 HD
ATOM     12  H   UNL     1      15.748  11.231  12.601  1.00  0.00     0.345 HD
ATOM     13  H   UNL     1      15.082  12.793  12.738  1.00  0.00     0.345 HD
ENDBRANCH   9  10
BRANCH   9  14
ATOM     14  C   UNL     1      16.565  11.617  15.413  1.00  0.00     0.099 C 
ATOM     15  O   UNL     1      15.479  11.148  15.849  1.00  0.00    -0.544 OA
ATOM     16  O   UNL     1      17.729  11.448  16.153  1.00  0.00    -0.544 OA
ENDBRANCH   9  14
ENDBRANCH   8   9
ENDBRANCH   1   8
TORSDOF 7
ENDMDL
MODEL 8
REMARK VINA RESULT:    -4.525      3.171      4.741
REMARK INTER + INTRA:          -6.232
REMARK INTER:                  -6.114
REMARK INTRA:                  -0.118
REMARK UNBOUND:                -0.120
REMARK SMILES [NH3+]CCCC[C@@H]([NH3+])C(=O)[O-]
REMARK SMILES IDX 4 1 3 2 2 3 1 4 5 8 6 9 7 10 8 14 9 15 10 16
REMARK H PARENT 1 5 1 6 1 7 7 11 7 12 7 13
REMARK Flexibility Score: inf
ROOT
ATOM      1  C   UNL     1      12.357  -4.226  23.816  1.00  0.00     0.012 C 
ENDROOT
BRANCH   1   2
ATOM      2  C   UNL     1      13.562  -3.464  24.382  1.00  0.00     0.061 C 
BRANCH   2   3
ATOM      3  C   UNL     1      14.882  -4.071  23.886  1.00  0.00     0.258 C 
BRANCH   3   4
ATOM      4  N   UNL     1      15.954  -3.851  24.855  1.00  0.00    -0.358 N 
ATOM      5  H   UNL     1      16.680  -3.217  24.450  1.00  0.00     0.344 HD
ATOM      6  H   UNL     1      15.555  -3.404  25.712  1.00  0.00     0.344 HD
ATOM      7  H   UNL     1      16.391  -4.763  25.123  1.00  0.00     0.344 HD
ENDBRANCH   3   4
ENDBRANCH   2   3
ENDBRANCH   1   2
BRANCH   1   8
ATOM      8  C   UNL     1      12.607  -4.646  22.359  1.00  0.00     0.072 C 
BRANCH   8   9
ATOM      9  C   UNL     1      12.439  -3.476  21.364  1.00  0.00     0.227 C 
BRANCH   9  10
ATOM     10  N   UNL     1      13.661  -3.249  20.580  1.00  0.00    -0.350 N 
ATOM     11  H   UNL     1      13.568  -2.378  20.011  1.00  0.00     0.345 HD
ATOM     12  H   UNL     1      13.809  -4.044  19.915  1.00  0.00     0.345 HD
ATOM     13  H   UNL     1      14.495  -3.168  21.205  1.00  0.00     0.345 HD
ENDBRANCH   9  10
BRANCH   9  14
ATOM     14  C   UNL     1      11.283  -3.763  20.444  1.00  0.00     0.099 C 
ATOM     15  O   UNL     1      10.582  -2.817  19.994  1.00  0.00    -0.544 OA
ATOM     16  O   UNL     1      10.968  -5.072  20.100  1.00  0.00    -0.544 OA
ENDBRANCH   9  14
ENDBRANCH   8   9
ENDBRANCH   1   8
TORSDOF 7
ENDMDL
MODEL 9
REMARK VINA RESULT:    -4.358      3.031      4.622
REMARK INTER + INTRA:          -6.007
REMARK INTER:                  -5.890
REMARK INTRA:                  -0.117
REMARK UNBOUND:                -0.120
REMARK SMILES [NH3+]CCCC[C@@H]([NH3+])C(=O)[O-]
REMARK SMILES IDX 4 1 3 2 2 3 1 4 5 8 6 9 7 10 8 14 9 15 10 16
REMARK H PARENT 1 5 1 6 1 7 7 11 7 12 7 13
REMARK Flexibility Score: inf
ROOT
ATOM      1  C   UNL     1      12.126  -4.520  22.119  1.00  0.00     0.012 C 
ENDROOT
BRANCH   1   2
ATOM      2  C   UNL     1      13.017  -4.952  23.290  1.00  0.00     0.061 C 
BRANCH   2   3
ATOM      3  C   UNL     1      14.411  -4.319  23.186  1.00  0.00     0.258 C 
BRANCH   3   4
ATOM      4  N   UNL     1      15.420  -5.328  22.865  1.00  0.00    -0.358 N 
ATOM      5  H   UNL     1      15.102  -6.270  23.190  1.00  0.00     0.344 HD
ATOM      6  H   UNL     1      15.557  -5.357  21.828  1.00  0.00     0.344 HD
ATOM      7  H   UNL     1      16.330  -5.086  23.319  1.00  0.00     0.344 HD
ENDBRANCH   3   4
ENDBRANCH   2   3
ENDBRANCH   1   2
BRANCH   1   8
ATOM      8  C   UNL     1      12.782  -3.385  21.318  1.00  0.00     0.072 C 
BRANCH   8   9
ATOM      9  C   UNL     1      12.168  -3.218  19.909  1.00  0.00     0.227 C 
BRANCH   9  10
ATOM     10  N   UNL     1      10.944  -2.405  19.943  1.00  0.00    -0.350 N 
ATOM     11  H   UNL     1      10.491  -2.397  19.002  1.00  0.00     0.345 HD
ATOM     12  H   UNL     1      11.181  -1.415  20.185  1.00  0.00     0.345 HD
ATOM     13  H   UNL     1      10.270  -2.777  20.650  1.00  0.00     0.345 HD
ENDBRANCH   9  10
BRANCH   9  14
ATOM     14  C   UNL     1      13.181  -2.584  18.994  1.00  0.00     0.099 C 
ATOM     15  O   UNL     1      14.407  -2.845  19.129  1.00  0.00    -0.544 OA
ATOM     16  O   UNL     1      12.775  -1.694  18.006  1.00  0.00    -0.544 OA
ENDBRANCH   9  14
ENDBRANCH   8   9
ENDBRANCH   1   8
TORSDOF 7
ENDMDL
