MODEL 1
REMARK VINA RESULT:    -4.815      0.000      0.000
REMARK INTER + INTRA:          -7.184
REMARK INTER:                  -7.349
REMARK INTRA:                   0.165
REMARK UNBOUND:                 0.165
REMARK SMILES CC1=CCC[C@H](C)C(=O)C[C@H](C(C)C)C(=O)C1
REMARK SMILES IDX 8 1 9 2 6 3 7 4 5 5 4 6 3 7 2 8 1 9 10 11 11 12 15 13 16 14
REMARK SMILES IDX 17 15 12 17 13 18 14 19
REMARK H PARENT
REMARK Flexibility Score: 70.00
ROOT
ATOM      1  C   UNL     1     -13.498 -15.547  28.455  1.00  0.00     0.136 C 
ATOM      2  O   UNL     1     -14.359 -14.711  28.221  1.00  0.00    -0.299 OA
ENDROOT
BRANCH   1   3
ATOM      3  C   UNL     1     -13.318 -16.701  27.486  1.00  0.00     0.053 C 
ATOM      4  C   UNL     1     -11.833 -16.955  27.200  1.00  0.00     0.016 C 
BRANCH   3   5
ATOM      5  C   UNL     1     -14.012 -17.978  27.996  1.00  0.00     0.015 C 
BRANCH   5   6
ATOM      6  C   UNL     1     -13.002 -19.106  28.279  1.00  0.00     0.028 C 
BRANCH   6   7
ATOM      7  C   UNL     1     -13.221 -19.702  29.645  1.00  0.00    -0.028 C 
ATOM      8  C   UNL     1     -12.448 -19.449  30.727  1.00  0.00    -0.070 CG0
ATOM      9  C   UNL     1     -12.776 -20.161  32.014  1.00  0.00     0.039 C 
ATOM     10  G   UNL     1     -11.277 -18.478  30.700  1.00  0.00     0.000 G0
ENDBRANCH   6   7
ENDBRANCH   5   6
ENDBRANCH   3   5
ENDBRANCH   1   3
BRANCH   1  11
ATOM     11  C   UNL     1     -12.632 -15.370  29.684  1.00  0.00     0.087 C 
BRANCH  11  12
ATOM     12  C   UNL     1     -12.942 -16.427  30.780  1.00  0.00     0.066 C 
BRANCH  12  13
ATOM     13  C   UNL     1     -11.647 -17.098  31.210  1.00  0.00     0.140 C 
ATOM     14  O   UNL     1     -10.939 -16.558  32.049  1.00  0.00    -0.299 OA
BRANCH  13  15
ATOM     15  C   UNL     1     -11.281 -18.472  30.705  1.00  0.00     0.106 CG0
ATOM     16  G   UNL     1     -12.459 -19.434  30.747  1.00  0.00     0.000 G0
ENDBRANCH  13  15
ENDBRANCH  12  13
BRANCH  12  17
ATOM     17  C   UNL     1     -13.677 -15.811  32.017  1.00  0.00    -0.006 C 
ATOM     18  C   UNL     1     -14.268 -16.909  32.925  1.00  0.00     0.008 C 
ATOM     19  C   UNL     1     -14.815 -14.856  31.604  1.00  0.00     0.008 C 
ENDBRANCH  12  17
ENDBRANCH  11  12
ENDBRANCH   1  11
TORSDOF 1
ENDMDL
MODEL 2
REMARK VINA RESULT:    -4.447      1.835      4.088
REMARK INTER + INTRA:          -6.622
REMARK INTER:                  -6.817
REMARK INTRA:                   0.195
REMARK UNBOUND:                 0.165
REMARK SMILES CC1=CCC[C@H](C)C(=O)C[C@H](C(C)C)C(=O)C1
REMARK SMILES IDX 8 1 9 2 6 3 7 4 5 5 4 6 3 7 2 8 1 9 10 11 11 12 15 13 16 14
REMARK SMILES IDX 17 15 12 17 13 18 14 19
REMARK H PARENT
REMARK Flexibility Score: 70.00
ROOT
ATOM      1  C   UNL     1     -14.089 -15.389  30.901  1.00  0.00     0.136 C 
ATOM      2  O   UNL     1     -14.730 -14.585  30.241  1.00  0.00    -0.299 OA
ENDROOT
BRANCH   1   3
ATOM      3  C   UNL     1     -13.962 -15.168  32.398  1.00  0.00     0.053 C 
ATOM      4  C   UNL     1     -15.303 -14.745  33.009  1.00  0.00     0.016 C 
BRANCH   3   5
ATOM      5  C   UNL     1     -13.397 -16.415  33.105  1.00  0.00     0.015 C 
BRANCH   5   6
ATOM      6  C   UNL     1     -11.877 -16.310  33.327  1.00  0.00     0.028 C 
BRANCH   6   7
ATOM      7  C   UNL     1     -11.155 -17.474  32.700  1.00  0.00    -0.028 C 
ATOM      8  C   UNL     1     -10.592 -17.456  31.469  1.00  0.00    -0.070 CG0
ATOM      9  C   UNL     1      -9.942 -18.720  30.968  1.00  0.00     0.039 C 
ATOM     10  G   UNL     1     -10.584 -16.221  30.580  1.00  0.00     0.000 G0
ENDBRANCH   6   7
ENDBRANCH   5   6
ENDBRANCH   3   5
ENDBRANCH   1   3
BRANCH   1  11
ATOM     11  C   UNL     1     -13.482 -16.584  30.198  1.00  0.00     0.087 C 
BRANCH  11  12
ATOM     12  C   UNL     1     -12.651 -16.174  28.952  1.00  0.00     0.066 C 
BRANCH  12  13
ATOM     13  C   UNL     1     -11.180 -16.460  29.214  1.00  0.00     0.140 C 
ATOM     14  O   UNL     1     -10.458 -16.795  28.285  1.00  0.00    -0.299 OA
BRANCH  13  15
ATOM     15  C   UNL     1     -10.574 -16.224  30.576  1.00  0.00     0.106 CG0
ATOM     16  G   UNL     1     -10.611 -17.472  31.446  1.00  0.00     0.000 G0
ENDBRANCH  13  15
ENDBRANCH  12  13
BRANCH  12  17
ATOM     17  C   UNL     1     -13.126 -16.899  27.648  1.00  0.00    -0.006 C 
ATOM     18  C   UNL     1     -14.114 -16.027  26.847  1.00  0.00     0.008 C 
ATOM     19  C   UNL     1     -13.800 -18.253  27.946  1.00  0.00     0.008 C 
ENDBRANCH  12  17
ENDBRANCH  11  12
ENDBRANCH   1  11
TORSDOF 1
ENDMDL
MODEL 3
REMARK VINA RESULT:    -4.433      1.797      3.533
REMARK INTER + INTRA:          -6.600
REMARK INTER:                  -6.557
REMARK INTRA:                  -0.043
REMARK UNBOUND:                 0.165
REMARK SMILES CC1=CCC[C@H](C)C(=O)C[C@H](C(C)C)C(=O)C1
REMARK SMILES IDX 8 1 9 2 6 3 7 4 5 5 4 6 3 7 2 8 1 9 10 11 11 12 15 13 16 14
REMARK SMILES IDX 17 15 12 17 13 18 14 19
REMARK H PARENT
REMARK Flexibility Score: 70.00
ROOT
ATOM      1  C   UNL     1     -12.588 -18.774  28.965  1.00  0.00     0.136 C 
ATOM      2  O   UNL     1     -11.416 -19.088  29.109  1.00  0.00    -0.299 OA
ENDROOT
BRANCH   1   3
ATOM      3  C   UNL     1     -13.661 -19.657  29.578  1.00  0.00     0.053 C 
ATOM      4  C   UNL     1     -14.000 -20.834  28.656  1.00  0.00     0.016 C 
BRANCH   3   5
ATOM      5  C   UNL     1     -13.253 -20.148  30.979  1.00  0.00     0.015 C 
BRANCH   5   6
ATOM      6  C   UNL     1     -13.276 -19.009  32.016  1.00  0.00     0.028 C 
BRANCH   6   7
ATOM      7  C   UNL     1     -11.880 -18.556  32.357  1.00  0.00    -0.028 C 
ATOM      8  C   UNL     1     -11.406 -17.306  32.149  1.00  0.00    -0.070 CG0
ATOM      9  C   UNL     1      -9.969 -17.024  32.507  1.00  0.00     0.039 C 
ATOM     10  G   UNL     1     -12.258 -16.180  31.581  1.00  0.00     0.000 G0
ENDBRANCH   6   7
ENDBRANCH   5   6
ENDBRANCH   3   5
ENDBRANCH   1   3
BRANCH   1  11
ATOM     11  C   UNL     1     -12.911 -17.503  28.209  1.00  0.00     0.087 C 
BRANCH  11  12
ATOM     12  C   UNL     1     -13.296 -16.335  29.158  1.00  0.00     0.066 C 
BRANCH  12  13
ATOM     13  C   UNL     1     -12.125 -16.034  30.081  1.00  0.00     0.140 C 
ATOM     14  O   UNL     1     -11.088 -15.587  29.611  1.00  0.00    -0.299 OA
BRANCH  13  15
ATOM     15  C   UNL     1     -12.262 -16.168  31.578  1.00  0.00     0.106 CG0
ATOM     16  G   UNL     1     -11.401 -17.290  32.137  1.00  0.00     0.000 G0
ENDBRANCH  13  15
ENDBRANCH  12  13
BRANCH  12  17
ATOM     17  C   UNL     1     -13.726 -15.046  28.381  1.00  0.00    -0.006 C 
ATOM     18  C   UNL     1     -14.729 -14.206  29.197  1.00  0.00     0.008 C 
ATOM     19  C   UNL     1     -14.362 -15.374  27.015  1.00  0.00     0.008 C 
ENDBRANCH  12  17
ENDBRANCH  11  12
ENDBRANCH   1  11
TORSDOF 1
ENDMDL
MODEL 4
REMARK VINA RESULT:    -4.352      2.099      3.885
REMARK INTER + INTRA:          -6.476
REMARK INTER:                  -6.297
REMARK INTRA:                  -0.179
REMARK UNBOUND:                 0.165
REMARK SMILES CC1=CCC[C@H](C)C(=O)C[C@H](C(C)C)C(=O)C1
REMARK SMILES IDX 8 1 9 2 6 3 7 4 5 5 4 6 3 7 2 8 1 9 10 11 11 12 15 13 16 14
REMARK SMILES IDX 17 15 12 17 13 18 14 19
REMARK H PARENT
REMARK Flexibility Score: 70.00
ROOT
ATOM      1  C   UNL     1     -13.247 -18.207  31.679  1.00  0.00     0.136 C 
ATOM      2  O   UNL     1     -14.251 -18.246  32.375  1.00  0.00    -0.299 OA
ENDROOT
BRANCH   1   3
ATOM      3  C   UNL     1     -12.798 -19.474  30.974  1.00  0.00     0.053 C 
ATOM      4  C   UNL     1     -12.734 -20.655  31.950  1.00  0.00     0.016 C 
BRANCH   3   5
ATOM      5  C   UNL     1     -13.701 -19.797  29.768  1.00  0.00     0.015 C 
BRANCH   5   6
ATOM      6  C   UNL     1     -13.966 -18.554  28.899  1.00  0.00     0.028 C 
BRANCH   6   7
ATOM      7  C   UNL     1     -12.910 -18.398  27.836  1.00  0.00    -0.028 C 
ATOM      8  C   UNL     1     -12.108 -17.316  27.702  1.00  0.00    -0.070 CG0
ATOM      9  C   UNL     1     -11.129 -17.298  26.556  1.00  0.00     0.039 C 
ATOM     10  G   UNL     1     -12.148 -16.132  28.656  1.00  0.00     0.000 G0
ENDBRANCH   6   7
ENDBRANCH   5   6
ENDBRANCH   3   5
ENDBRANCH   1   3
BRANCH   1  11
ATOM     11  C   UNL     1     -12.519 -16.888  31.530  1.00  0.00     0.087 C 
BRANCH  11  12
ATOM     12  C   UNL     1     -11.107 -17.062  30.906  1.00  0.00     0.066 C 
BRANCH  12  13
ATOM     13  C   UNL     1     -10.990 -16.177  29.675  1.00  0.00     0.140 C 
ATOM     14  O   UNL     1      -9.942 -15.585  29.457  1.00  0.00    -0.299 OA
BRANCH  13  15
ATOM     15  C   UNL     1     -12.104 -16.108  28.659  1.00  0.00     0.106 CG0
ATOM     16  G   UNL     1     -12.095 -17.300  27.714  1.00  0.00     0.000 G0
ENDBRANCH  13  15
ENDBRANCH  12  13
BRANCH  12  17
ATOM     17  C   UNL     1      -9.958 -16.745  31.921  1.00  0.00    -0.006 C 
ATOM     18  C   UNL     1      -9.875 -17.813  33.029  1.00  0.00     0.008 C 
ATOM     19  C   UNL     1     -10.132 -15.364  32.585  1.00  0.00     0.008 C 
ENDBRANCH  12  17
ENDBRANCH  11  12
ENDBRANCH   1  11
TORSDOF 1
ENDMDL
MODEL 5
REMARK VINA RESULT:    -4.326      1.888      2.679
REMARK INTER + INTRA:          -6.438
REMARK INTER:                  -6.768
REMARK INTRA:                   0.330
REMARK UNBOUND:                 0.165
REMARK SMILES CC1=CCC[C@H](C)C(=O)C[C@H](C(C)C)C(=O)C1
REMARK SMILES IDX 8 1 9 2 6 3 7 4 5 5 4 6 3 7 2 8 1 9 10 11 11 12 15 13 16 14
REMARK SMILES IDX 17 15 12 17 13 18 14 19
REMARK H PARENT
REMARK Flexibility Score: 70.00
ROOT
ATOM      1  C   UNL     1     -12.983 -17.319  29.318  1.00  0.00     0.136 C 
ATOM      2  O   UNL     1     -13.917 -18.098  29.444  1.00  0.00    -0.299 OA
ENDROOT
BRANCH   1   3
ATOM      3  C   UNL     1     -11.822 -17.711  28.422  1.00  0.00     0.053 C 
ATOM      4  C   UNL     1     -11.779 -16.841  27.161  1.00  0.00     0.016 C 
BRANCH   3   5
ATOM      5  C   UNL     1     -10.482 -17.657  29.181  1.00  0.00     0.015 C 
BRANCH   5   6
ATOM      6  C   UNL     1     -10.421 -18.698  30.314  1.00  0.00     0.028 C 
BRANCH   6   7
ATOM      7  C   UNL     1      -9.876 -18.093  31.581  1.00  0.00    -0.028 C 
ATOM      8  C   UNL     1     -10.636 -17.623  32.597  1.00  0.00    -0.070 CG0
ATOM      9  C   UNL     1      -9.934 -17.007  33.780  1.00  0.00     0.039 C 
ATOM     10  G   UNL     1     -12.155 -17.698  32.599  1.00  0.00     0.000 G0
ENDBRANCH   6   7
ENDBRANCH   5   6
ENDBRANCH   3   5
ENDBRANCH   1   3
BRANCH   1  11
ATOM     11  C   UNL     1     -13.047 -15.987  30.035  1.00  0.00     0.087 C 
BRANCH  11  12
ATOM     12  C   UNL     1     -13.816 -16.081  31.382  1.00  0.00     0.066 C 
BRANCH  12  13
ATOM     13  C   UNL     1     -12.830 -16.373  32.502  1.00  0.00     0.140 C 
ATOM     14  O   UNL     1     -12.657 -15.542  33.384  1.00  0.00    -0.299 OA
BRANCH  13  15
ATOM     15  C   UNL     1     -12.151 -17.716  32.608  1.00  0.00     0.106 CG0
ATOM     16  G   UNL     1     -10.634 -17.596  32.607  1.00  0.00     0.000 G0
ENDBRANCH  13  15
ENDBRANCH  12  13
BRANCH  12  17
ATOM     17  C   UNL     1     -14.635 -14.784  31.697  1.00  0.00    -0.006 C 
ATOM     18  C   UNL     1     -15.767 -15.064  32.706  1.00  0.00     0.008 C 
ATOM     19  C   UNL     1     -15.254 -14.163  30.429  1.00  0.00     0.008 C 
ENDBRANCH  12  17
ENDBRANCH  11  12
ENDBRANCH   1  11
TORSDOF 1
ENDMDL
MODEL 6
REMARK VINA RESULT:    -4.147      2.022      4.461
REMARK INTER + INTRA:          -6.164
REMARK INTER:                  -6.559
REMARK INTRA:                   0.395
REMARK UNBOUND:                 0.165
REMARK SMILES CC1=CCC[C@H](C)C(=O)C[C@H](C(C)C)C(=O)C1
REMARK SMILES IDX 8 1 9 2 6 3 7 4 5 5 4 6 3 7 2 8 1 9 10 11 11 12 15 13 16 14
REMARK SMILES IDX 17 15 12 17 13 18 14 19
REMARK H PARENT
REMARK Flexibility Score: 70.00
ROOT
ATOM      1  C   UNL     1     -12.781 -16.545  32.726  1.00  0.00     0.136 C 
ATOM      2  O   UNL     1     -12.421 -15.703  33.537  1.00  0.00    -0.299 OA
ENDROOT
BRANCH   1   3
ATOM      3  C   UNL     1     -14.250 -16.615  32.349  1.00  0.00     0.053 C 
ATOM      4  C   UNL     1     -15.129 -16.806  33.591  1.00  0.00     0.016 C 
BRANCH   3   5
ATOM      5  C   UNL     1     -14.685 -15.375  31.546  1.00  0.00     0.015 C 
BRANCH   5   6
ATOM      6  C   UNL     1     -13.584 -14.901  30.578  1.00  0.00     0.028 C 
BRANCH   6   7
ATOM      7  C   UNL     1     -13.785 -15.478  29.201  1.00  0.00    -0.028 C 
ATOM      8  C   UNL     1     -12.800 -16.005  28.437  1.00  0.00    -0.070 CG0
ATOM      9  C   UNL     1     -13.160 -16.503  27.061  1.00  0.00     0.039 C 
ATOM     10  G   UNL     1     -11.358 -16.123  28.910  1.00  0.00     0.000 G0
ENDBRANCH   6   7
ENDBRANCH   5   6
ENDBRANCH   3   5
ENDBRANCH   1   3
BRANCH   1  11
ATOM     11  C   UNL     1     -11.737 -17.454  32.114  1.00  0.00     0.087 C 
BRANCH  11  12
ATOM     12  C   UNL     1     -12.123 -17.914  30.681  1.00  0.00     0.066 C 
BRANCH  12  13
ATOM     13  C   UNL     1     -11.092 -17.391  29.693  1.00  0.00     0.140 C 
ATOM     14  O   UNL     1     -10.090 -18.054  29.463  1.00  0.00    -0.299 OA
BRANCH  13  15
ATOM     15  C   UNL     1     -11.342 -16.128  28.906  1.00  0.00     0.106 CG0
ATOM     16  G   UNL     1     -12.790 -16.007  28.456  1.00  0.00     0.000 G0
ENDBRANCH  13  15
ENDBRANCH  12  13
BRANCH  12  17
ATOM     17  C   UNL     1     -12.256 -19.469  30.564  1.00  0.00    -0.006 C 
ATOM     18  C   UNL     1     -13.362 -19.866  29.566  1.00  0.00     0.008 C 
ATOM     19  C   UNL     1     -12.563 -20.132  31.922  1.00  0.00     0.008 C 
ENDBRANCH  12  17
ENDBRANCH  11  12
ENDBRANCH   1  11
TORSDOF 1
ENDMDL
MODEL 7
REMARK VINA RESULT:    -4.050      2.168      3.940
REMARK INTER + INTRA:          -6.016
REMARK INTER:                  -6.107
REMARK INTRA:                   0.091
REMARK UNBOUND:                 0.165
REMARK SMILES CC1=CCC[C@H](C)C(=O)C[C@H](C(C)C)C(=O)C1
REMARK SMILES IDX 8 1 9 2 6 3 7 4 5 5 4 6 3 7 2 8 1 9 10 11 11 12 15 13 16 14
REMARK SMILES IDX 17 15 12 17 13 18 14 19
REMARK H PARENT
REMARK Flexibility Score: 70.00
ROOT
ATOM      1  C   UNL     1     -13.329 -18.531  28.919  1.00  0.00     0.136 C 
ATOM      2  O   UNL     1     -14.169 -19.131  28.265  1.00  0.00    -0.299 OA
ENDROOT
BRANCH   1   3
ATOM      3  C   UNL     1     -12.763 -17.234  28.367  1.00  0.00     0.053 C 
ATOM      4  C   UNL     1     -12.285 -17.413  26.921  1.00  0.00     0.016 C 
BRANCH   3   5
ATOM      5  C   UNL     1     -13.781 -16.083  28.478  1.00  0.00     0.015 C 
BRANCH   5   6
ATOM      6  C   UNL     1     -13.382 -15.067  29.564  1.00  0.00     0.028 C 
BRANCH   6   7
ATOM      7  C   UNL     1     -14.524 -14.806  30.511  1.00  0.00    -0.028 C 
ATOM      8  C   UNL     1     -14.572 -15.236  31.793  1.00  0.00    -0.070 CG0
ATOM      9  C   UNL     1     -15.808 -14.928  32.598  1.00  0.00     0.039 C 
ATOM     10  G   UNL     1     -13.437 -16.006  32.452  1.00  0.00     0.000 G0
ENDBRANCH   6   7
ENDBRANCH   5   6
ENDBRANCH   3   5
ENDBRANCH   1   3
BRANCH   1  11
ATOM     11  C   UNL     1     -12.918 -19.093  30.263  1.00  0.00     0.087 C 
BRANCH  11  12
ATOM     12  C   UNL     1     -12.308 -18.010  31.194  1.00  0.00     0.066 C 
BRANCH  12  13
ATOM     13  C   UNL     1     -13.396 -17.461  32.104  1.00  0.00     0.140 C 
ATOM     14  O   UNL     1     -14.201 -18.231  32.612  1.00  0.00    -0.299 OA
BRANCH  13  15
ATOM     15  C   UNL     1     -13.428 -16.001  32.484  1.00  0.00     0.106 CG0
ATOM     16  G   UNL     1     -14.555 -15.251  31.790  1.00  0.00     0.000 G0
ENDBRANCH  13  15
ENDBRANCH  12  13
BRANCH  12  17
ATOM     17  C   UNL     1     -11.107 -18.551  32.040  1.00  0.00    -0.006 C 
ATOM     18  C   UNL     1     -10.553 -17.468  32.987  1.00  0.00     0.008 C 
ATOM     19  C   UNL     1      -9.953 -19.061  31.154  1.00  0.00     0.008 C 
ENDBRANCH  12  17
ENDBRANCH  11  12
ENDBRANCH   1  11
TORSDOF 1
ENDMDL
MODEL 8
REMARK VINA RESULT:    -3.985      1.730      2.848
REMARK INTER + INTRA:          -5.917
REMARK INTER:                  -7.424
REMARK INTRA:                   1.507
REMARK UNBOUND:                 0.165
REMARK SMILES CC1=CCC[C@H](C)C(=O)C[C@H](C(C)C)C(=O)C1
REMARK SMILES IDX 8 1 9 2 6 3 7 4 5 5 4 6 3 7 2 8 1 9 10 11 11 12 15 13 16 14
REMARK SMILES IDX 17 15 12 17 13 18 14 19
REMARK H PARENT
REMARK Flexibility Score: 70.00
ROOT
ATOM      1  C   UNL     1     -13.802 -16.005  31.020  1.00  0.00     0.136 C 
ATOM      2  O   UNL     1     -13.872 -14.989  31.697  1.00  0.00    -0.299 OA
ENDROOT
BRANCH   1   3
ATOM      3  C   UNL     1     -13.502 -15.875  29.537  1.00  0.00     0.053 C 
ATOM      4  C   UNL     1     -14.219 -14.660  28.935  1.00  0.00     0.016 C 
BRANCH   3   5
ATOM      5  C   UNL     1     -11.986 -15.813  29.272  1.00  0.00     0.015 C 
BRANCH   5   6
ATOM      6  C   UNL     1     -11.511 -16.976  28.381  1.00  0.00     0.028 C 
BRANCH   6   7
ATOM      7  C   UNL     1     -12.538 -18.078  28.332  1.00  0.00    -0.028 C 
ATOM      8  C   UNL     1     -12.587 -19.122  29.192  1.00  0.00    -0.070 CG0
ATOM      9  C   UNL     1     -13.653 -20.165  28.980  1.00  0.00     0.039 C 
ATOM     10  G   UNL     1     -11.622 -19.280  30.359  1.00  0.00     0.000 G0
ENDBRANCH   6   7
ENDBRANCH   5   6
ENDBRANCH   3   5
ENDBRANCH   1   3
BRANCH   1  11
ATOM     11  C   UNL     1     -13.985 -17.344  31.701  1.00  0.00     0.087 C 
BRANCH  11  12
ATOM     12  C   UNL     1     -12.665 -17.871  32.328  1.00  0.00     0.066 C 
BRANCH  12  13
ATOM     13  C   UNL     1     -12.314 -19.213  31.705  1.00  0.00     0.140 C 
ATOM     14  O   UNL     1     -12.688 -20.244  32.247  1.00  0.00    -0.299 OA
BRANCH  13  15
ATOM     15  C   UNL     1     -11.615 -19.290  30.370  1.00  0.00     0.106 CG0
ATOM     16  G   UNL     1     -12.578 -19.123  29.204  1.00  0.00     0.000 G0
ENDBRANCH  13  15
ENDBRANCH  12  13
BRANCH  12  17
ATOM     17  C   UNL     1     -11.478 -16.864  32.164  1.00  0.00    -0.006 C 
ATOM     18  C   UNL     1     -10.142 -17.600  31.938  1.00  0.00     0.008 C 
ATOM     19  C   UNL     1     -11.324 -15.939  33.389  1.00  0.00     0.008 C 
ENDBRANCH  12  17
ENDBRANCH  11  12
ENDBRANCH   1  11
TORSDOF 1
ENDMDL
MODEL 9
REMARK VINA RESULT:    -3.895      2.100      4.135
REMARK INTER + INTRA:          -5.780
REMARK INTER:                  -6.736
REMARK INTRA:                   0.956
REMARK UNBOUND:                 0.165
REMARK SMILES CC1=CCC[C@H](C)C(=O)C[C@H](C(C)C)C(=O)C1
REMARK SMILES IDX 8 1 9 2 6 3 7 4 5 5 4 6 3 7 2 8 1 9 10 11 11 12 15 13 16 14
REMARK SMILES IDX 17 15 12 17 13 18 14 19
REMARK H PARENT
REMARK Flexibility Score: 70.00
ROOT
ATOM      1  C   UNL     1     -11.240 -16.022  33.305  1.00  0.00     0.136 C 
ATOM      2  O   UNL     1     -11.104 -15.136  34.136  1.00  0.00    -0.299 OA
ENDROOT
BRANCH   1   3
ATOM      3  C   UNL     1     -10.030 -16.459  32.498  1.00  0.00     0.053 C 
ATOM      4  C   UNL     1     -10.091 -17.958  32.180  1.00  0.00     0.016 C 
BRANCH   3   5
ATOM      5  C   UNL     1      -9.879 -15.624  31.213  1.00  0.00     0.015 C 
BRANCH   5   6
ATOM      6  C   UNL     1     -10.203 -16.447  29.952  1.00  0.00     0.028 C 
BRANCH   6   7
ATOM      7  C   UNL     1     -11.321 -15.817  29.164  1.00  0.00    -0.028 C 
ATOM      8  C   UNL     1     -12.526 -16.394  28.943  1.00  0.00    -0.070 CG0
ATOM      9  C   UNL     1     -13.524 -15.648  28.095  1.00  0.00     0.039 C 
ATOM     10  G   UNL     1     -12.913 -17.748  29.518  1.00  0.00     0.000 G0
ENDBRANCH   6   7
ENDBRANCH   5   6
ENDBRANCH   3   5
ENDBRANCH   1   3
BRANCH   1  11
ATOM     11  C   UNL     1     -12.602 -16.663  33.146  1.00  0.00     0.087 C 
BRANCH  11  12
ATOM     12  C   UNL     1     -13.230 -16.374  31.754  1.00  0.00     0.066 C 
BRANCH  12  13
ATOM     13  C   UNL     1     -13.339 -17.675  30.974  1.00  0.00     0.140 C 
ATOM     14  O   UNL     1     -13.874 -18.645  31.494  1.00  0.00    -0.299 OA
BRANCH  13  15
ATOM     15  C   UNL     1     -12.904 -17.754  29.531  1.00  0.00     0.106 CG0
ATOM     16  G   UNL     1     -12.538 -16.390  28.965  1.00  0.00     0.000 G0
ENDBRANCH  13  15
ENDBRANCH  12  13
BRANCH  12  17
ATOM     17  C   UNL     1     -14.628 -15.679  31.859  1.00  0.00    -0.006 C 
ATOM     18  C   UNL     1     -14.738 -14.486  30.887  1.00  0.00     0.008 C 
ATOM     19  C   UNL     1     -14.923 -15.174  33.286  1.00  0.00     0.008 C 
ENDBRANCH  12  17
ENDBRANCH  11  12
ENDBRANCH   1  11
TORSDOF 1
ENDMDL
