MODEL 1
REMARK VINA RESULT:    -4.224      0.000      0.000
REMARK INTER + INTRA:         -11.473
REMARK INTER:                  -9.163
REMARK INTRA:                  -2.310
REMARK UNBOUND:                -2.310
REMARK SMILES CCCCCCCCCCCCCCCCCCCCCC(=O)[O-]
REMARK SMILES IDX 12 1 11 2 10 3 9 4 8 5 7 6 6 7 5 8 4 9 3 10 2 11 1 12 13 13
REMARK SMILES IDX 14 14 15 15 16 16 17 17 18 18 19 19 20 20 21 21 22 22 23 23
REMARK SMILES IDX 24 24
REMARK H PARENT
REMARK Flexibility Score: inf
ROOT
ATOM      1  C   UNL     1      12.788  25.642  33.567  1.00  0.00     0.000 C 
ENDROOT
BRANCH   1   2
ATOM      2  C   UNL     1      12.399  26.953  34.274  1.00  0.00     0.000 C 
BRANCH   2   3
ATOM      3  C   UNL     1      12.323  26.805  35.801  1.00  0.00     0.000 C 
BRANCH   3   4
ATOM      4  C   UNL     1      13.250  27.778  36.552  1.00  0.00    -0.000 C 
BRANCH   4   5
ATOM      5  C   UNL     1      13.663  29.038  35.767  1.00  0.00    -0.000 C 
BRANCH   5   6
ATOM      6  C   UNL     1      15.167  29.151  35.455  1.00  0.00    -0.000 C 
BRANCH   6   7
ATOM      7  C   UNL     1      15.962  27.854  35.716  1.00  0.00    -0.000 C 
BRANCH   7   8
ATOM      8  C   UNL     1      16.642  27.309  34.447  1.00  0.00    -0.000 C 
BRANCH   8   9
ATOM      9  C   UNL     1      15.998  27.861  33.156  1.00  0.00    -0.000 C 
BRANCH   9  10
ATOM     10  C   UNL     1      17.007  28.517  32.194  1.00  0.00    -0.000 C 
BRANCH  10  11
ATOM     11  C   UNL     1      16.549  29.860  31.601  1.00  0.00    -0.003 C 
ATOM     12  C   UNL     1      16.467  30.972  32.646  1.00  0.00     0.004 C 
ENDBRANCH  10  11
ENDBRANCH   9  10
ENDBRANCH   8   9
ENDBRANCH   7   8
ENDBRANCH   6   7
ENDBRANCH   5   6
ENDBRANCH   4   5
ENDBRANCH   3   4
ENDBRANCH   2   3
ENDBRANCH   1   2
BRANCH   1  13
ATOM     13  C   UNL     1      13.888  24.847  34.303  1.00  0.00     0.000 C 
BRANCH  13  14
ATOM     14  C   UNL     1      14.554  23.797  33.395  1.00  0.00     0.000 C 
BRANCH  14  15
ATOM     15  C   UNL     1      16.088  23.875  33.433  1.00  0.00     0.000 C 
BRANCH  15  16
ATOM     16  C   UNL     1      16.739  22.519  33.757  1.00  0.00     0.000 C 
BRANCH  16  17
ATOM     17  C   UNL     1      15.707  21.453  34.161  1.00  0.00     0.000 C 
BRANCH  17  18
ATOM     18  C   UNL     1      16.365  20.142  34.616  1.00  0.00     0.000 C 
BRANCH  18  19
ATOM     19  C   UNL     1      15.385  18.969  34.512  1.00  0.00     0.000 C 
BRANCH  19  20
ATOM     20  C   UNL     1      16.128  17.624  34.565  1.00  0.00     0.006 C 
BRANCH  20  21
ATOM     21  C   UNL     1      15.188  16.454  34.882  1.00  0.00     0.053 C 
BRANCH  21  22
ATOM     22  C   UNL     1      15.414  15.293  33.964  1.00  0.00     0.041 C 
ATOM     23  O   UNL     1      16.587  14.941  33.665  1.00  0.00    -0.550 OA
ATOM     24  O   UNL     1      14.333  14.620  33.410  1.00  0.00    -0.550 OA
ENDBRANCH  21  22
ENDBRANCH  20  21
ENDBRANCH  19  20
ENDBRANCH  18  19
ENDBRANCH  17  18
ENDBRANCH  16  17
ENDBRANCH  15  16
ENDBRANCH  14  15
ENDBRANCH  13  14
ENDBRANCH   1  13
TORSDOF 20
ENDMDL
MODEL 2
REMARK VINA RESULT:    -4.205      4.183      9.968
REMARK INTER + INTRA:         -11.432
REMARK INTER:                  -9.312
REMARK INTRA:                  -2.120
REMARK UNBOUND:                -2.310
REMARK SMILES CCCCCCCCCCCCCCCCCCCCCC(=O)[O-]
REMARK SMILES IDX 12 1 11 2 10 3 9 4 8 5 7 6 6 7 5 8 4 9 3 10 2 11 1 12 13 13
REMARK SMILES IDX 14 14 15 15 16 16 17 17 18 18 19 19 20 20 21 21 22 22 23 23
REMARK SMILES IDX 24 24
REMARK H PARENT
REMARK Flexibility Score: inf
ROOT
ATOM      1  C   UNL     1      15.002  23.798  33.165  1.00  0.00     0.000 C 
ENDROOT
BRANCH   1   2
ATOM      2  C   UNL     1      16.484  23.786  33.582  1.00  0.00     0.000 C 
BRANCH   2   3
ATOM      3  C   UNL     1      16.743  22.923  34.826  1.00  0.00     0.000 C 
BRANCH   3   4
ATOM      4  C   UNL     1      15.452  22.384  35.470  1.00  0.00    -0.000 C 
BRANCH   4   5
ATOM      5  C   UNL     1      15.509  20.919  35.942  1.00  0.00    -0.000 C 
BRANCH   5   6
ATOM      6  C   UNL     1      16.002  19.911  34.887  1.00  0.00    -0.000 C 
BRANCH   6   7
ATOM      7  C   UNL     1      15.104  18.664  34.742  1.00  0.00    -0.000 C 
BRANCH   7   8
ATOM      8  C   UNL     1      15.909  17.384  34.450  1.00  0.00    -0.000 C 
BRANCH   8   9
ATOM      9  C   UNL     1      15.139  16.106  34.848  1.00  0.00    -0.000 C 
BRANCH   9  10
ATOM     10  C   UNL     1      15.516  14.871  34.007  1.00  0.00    -0.000 C 
BRANCH  10  11
ATOM     11  C   UNL     1      14.332  14.189  33.300  1.00  0.00    -0.003 C 
ATOM     12  C   UNL     1      14.770  13.292  32.143  1.00  0.00     0.004 C 
ENDBRANCH  10  11
ENDBRANCH   9  10
ENDBRANCH   8   9
ENDBRANCH   7   8
ENDBRANCH   6   7
ENDBRANCH   5   6
ENDBRANCH   4   5
ENDBRANCH   3   4
ENDBRANCH   2   3
ENDBRANCH   1   2
BRANCH   1  13
ATOM     13  C   UNL     1      14.418  25.219  33.005  1.00  0.00     0.000 C 
BRANCH  13  14
ATOM     14  C   UNL     1      12.932  25.285  33.402  1.00  0.00     0.000 C 
BRANCH  14  15
ATOM     15  C   UNL     1      12.687  26.190  34.619  1.00  0.00     0.000 C 
BRANCH  15  16
ATOM     16  C   UNL     1      13.359  25.656  35.895  1.00  0.00     0.000 C 
BRANCH  16  17
ATOM     17  C   UNL     1      14.318  26.678  36.527  1.00  0.00     0.000 C 
BRANCH  17  18
ATOM     18  C   UNL     1      15.769  26.174  36.569  1.00  0.00     0.000 C 
BRANCH  18  19
ATOM     19  C   UNL     1      16.558  26.667  35.351  1.00  0.00     0.000 C 
BRANCH  19  20
ATOM     20  C   UNL     1      16.514  28.201  35.251  1.00  0.00     0.006 C 
BRANCH  20  21
ATOM     21  C   UNL     1      15.705  28.680  34.039  1.00  0.00     0.053 C 
BRANCH  21  22
ATOM     22  C   UNL     1      16.540  28.734  32.797  1.00  0.00     0.041 C 
ATOM     23  O   UNL     1      16.707  29.827  32.194  1.00  0.00    -0.550 OA
ATOM     24  O   UNL     1      17.105  27.573  32.285  1.00  0.00    -0.550 OA
ENDBRANCH  21  22
ENDBRANCH  20  21
ENDBRANCH  19  20
ENDBRANCH  18  19
ENDBRANCH  17  18
ENDBRANCH  16  17
ENDBRANCH  15  16
ENDBRANCH  14  15
ENDBRANCH  13  14
ENDBRANCH   1  13
TORSDOF 20
ENDMDL
MODEL 3
REMARK VINA RESULT:    -4.177      1.394      3.267
REMARK INTER + INTRA:         -11.370
REMARK INTER:                  -8.556
REMARK INTRA:                  -2.814
REMARK UNBOUND:                -2.310
REMARK SMILES CCCCCCCCCCCCCCCCCCCCCC(=O)[O-]
REMARK SMILES IDX 12 1 11 2 10 3 9 4 8 5 7 6 6 7 5 8 4 9 3 10 2 11 1 12 13 13
REMARK SMILES IDX 14 14 15 15 16 16 17 17 18 18 19 19 20 20 21 21 22 22 23 23
REMARK SMILES IDX 24 24
REMARK H PARENT
REMARK Flexibility Score: inf
ROOT
ATOM      1  C   UNL     1      16.829  26.062  33.373  1.00  0.00     0.000 C 
ENDROOT
BRANCH   1   2
ATOM      2  C   UNL     1      16.093  27.354  32.974  1.00  0.00     0.000 C 
BRANCH   2   3
ATOM      3  C   UNL     1      16.385  28.522  33.927  1.00  0.00     0.000 C 
BRANCH   3   4
ATOM      4  C   UNL     1      15.261  28.764  34.952  1.00  0.00    -0.000 C 
BRANCH   4   5
ATOM      5  C   UNL     1      15.620  28.444  36.416  1.00  0.00    -0.000 C 
BRANCH   5   6
ATOM      6  C   UNL     1      14.738  27.376  37.088  1.00  0.00    -0.000 C 
BRANCH   6   7
ATOM      7  C   UNL     1      14.687  26.034  36.328  1.00  0.00    -0.000 C 
BRANCH   7   8
ATOM      8  C   UNL     1      13.254  25.622  35.947  1.00  0.00    -0.000 C 
BRANCH   8   9
ATOM      9  C   UNL     1      12.923  25.948  34.474  1.00  0.00    -0.000 C 
BRANCH   9  10
ATOM     10  C   UNL     1      12.007  27.175  34.304  1.00  0.00    -0.000 C 
BRANCH  10  11
ATOM     11  C   UNL     1      11.433  27.736  35.616  1.00  0.00    -0.003 C 
ATOM     12  C   UNL     1      11.710  29.228  35.794  1.00  0.00     0.004 C 
ENDBRANCH  10  11
ENDBRANCH   9  10
ENDBRANCH   8   9
ENDBRANCH   7   8
ENDBRANCH   6   7
ENDBRANCH   5   6
ENDBRANCH   4   5
ENDBRANCH   3   4
ENDBRANCH   2   3
ENDBRANCH   1   2
BRANCH   1  13
ATOM     13  C   UNL     1      15.992  24.783  33.160  1.00  0.00     0.000 C 
BRANCH  13  14
ATOM     14  C   UNL     1      16.509  23.602  34.002  1.00  0.00     0.000 C 
BRANCH  14  15
ATOM     15  C   UNL     1      15.375  22.686  34.489  1.00  0.00     0.000 C 
BRANCH  15  16
ATOM     16  C   UNL     1      15.609  22.169  35.919  1.00  0.00     0.000 C 
BRANCH  16  17
ATOM     17  C   UNL     1      16.281  20.787  35.943  1.00  0.00     0.000 C 
BRANCH  17  18
ATOM     18  C   UNL     1      15.299  19.651  35.622  1.00  0.00     0.000 C 
BRANCH  18  19
ATOM     19  C   UNL     1      15.867  18.720  34.545  1.00  0.00     0.000 C 
BRANCH  19  20
ATOM     20  C   UNL     1      15.558  17.250  34.870  1.00  0.00     0.006 C 
BRANCH  20  21
ATOM     21  C   UNL     1      16.427  16.281  34.058  1.00  0.00     0.053 C 
BRANCH  21  22
ATOM     22  C   UNL     1      15.680  15.036  33.690  1.00  0.00     0.041 C 
ATOM     23  O   UNL     1      15.783  14.555  32.530  1.00  0.00    -0.550 OA
ATOM     24  O   UNL     1      14.842  14.427  34.615  1.00  0.00    -0.550 OA
ENDBRANCH  21  22
ENDBRANCH  20  21
ENDBRANCH  19  20
ENDBRANCH  18  19
ENDBRANCH  17  18
ENDBRANCH  16  17
ENDBRANCH  15  16
ENDBRANCH  14  15
ENDBRANCH  13  14
ENDBRANCH   1  13
TORSDOF 20
ENDMDL
MODEL 4
REMARK VINA RESULT:    -4.174      5.136      9.134
REMARK INTER + INTRA:         -11.365
REMARK INTER:                  -8.446
REMARK INTRA:                  -2.920
REMARK UNBOUND:                -2.310
REMARK SMILES CCCCCCCCCCCCCCCCCCCCCC(=O)[O-]
REMARK SMILES IDX 12 1 11 2 10 3 9 4 8 5 7 6 6 7 5 8 4 9 3 10 2 11 1 12 13 13
REMARK SMILES IDX 14 14 15 15 16 16 17 17 18 18 19 19 20 20 21 21 22 22 23 23
REMARK SMILES IDX 24 24
REMARK H PARENT
REMARK Flexibility Score: inf
ROOT
ATOM      1  C   UNL     1      11.734  27.488  34.185  1.00  0.00     0.000 C 
ENDROOT
BRANCH   1   2
ATOM      2  C   UNL     1      12.586  26.367  34.807  1.00  0.00     0.000 C 
BRANCH   2   3
ATOM      3  C   UNL     1      12.939  25.261  33.801  1.00  0.00     0.000 C 
BRANCH   3   4
ATOM      4  C   UNL     1      14.192  25.580  32.964  1.00  0.00    -0.000 C 
BRANCH   4   5
ATOM      5  C   UNL     1      14.957  26.853  33.375  1.00  0.00    -0.000 C 
BRANCH   5   6
ATOM      6  C   UNL     1      16.492  26.741  33.318  1.00  0.00    -0.000 C 
BRANCH   6   7
ATOM      7  C   UNL     1      17.120  26.079  34.563  1.00  0.00    -0.000 C 
BRANCH   7   8
ATOM      8  C   UNL     1      16.190  26.117  35.789  1.00  0.00    -0.000 C 
BRANCH   8   9
ATOM      9  C   UNL     1      16.181  24.778  36.558  1.00  0.00    -0.000 C 
BRANCH   9  10
ATOM     10  C   UNL     1      15.087  23.801  36.085  1.00  0.00    -0.000 C 
BRANCH  10  11
ATOM     11  C   UNL     1      15.606  22.427  35.630  1.00  0.00    -0.003 C 
ATOM     12  C   UNL     1      15.609  22.268  34.110  1.00  0.00     0.004 C 
ENDBRANCH  10  11
ENDBRANCH   9  10
ENDBRANCH   8   9
ENDBRANCH   7   8
ENDBRANCH   6   7
ENDBRANCH   5   6
ENDBRANCH   4   5
ENDBRANCH   3   4
ENDBRANCH   2   3
ENDBRANCH   1   2
BRANCH   1  13
ATOM     13  C   UNL     1      11.133  28.457  35.227  1.00  0.00     0.000 C 
BRANCH  13  14
ATOM     14  C   UNL     1      11.998  28.555  36.497  1.00  0.00     0.000 C 
BRANCH  14  15
ATOM     15  C   UNL     1      12.919  29.785  36.489  1.00  0.00     0.000 C 
BRANCH  15  16
ATOM     16  C   UNL     1      14.409  29.405  36.521  1.00  0.00     0.000 C 
BRANCH  16  17
ATOM     17  C   UNL     1      15.128  29.732  35.202  1.00  0.00     0.000 C 
BRANCH  17  18
ATOM     18  C   UNL     1      15.695  31.159  35.179  1.00  0.00     0.000 C 
BRANCH  18  19
ATOM     19  C   UNL     1      16.856  31.275  34.185  1.00  0.00     0.000 C 
BRANCH  19  20
ATOM     20  C   UNL     1      16.336  31.424  32.747  1.00  0.00     0.006 C 
BRANCH  20  21
ATOM     21  C   UNL     1      16.845  30.307  31.827  1.00  0.00     0.053 C 
BRANCH  21  22
ATOM     22  C   UNL     1      16.678  30.656  30.380  1.00  0.00     0.041 C 
ATOM     23  O   UNL     1      16.458  29.751  29.533  1.00  0.00    -0.550 OA
ATOM     24  O   UNL     1      16.799  31.975  29.963  1.00  0.00    -0.550 OA
ENDBRANCH  21  22
ENDBRANCH  20  21
ENDBRANCH  19  20
ENDBRANCH  18  19
ENDBRANCH  17  18
ENDBRANCH  16  17
ENDBRANCH  15  16
ENDBRANCH  14  15
ENDBRANCH  13  14
ENDBRANCH   1  13
TORSDOF 20
ENDMDL
MODEL 5
REMARK VINA RESULT:    -4.169      1.451      3.576
REMARK INTER + INTRA:         -11.353
REMARK INTER:                  -9.247
REMARK INTRA:                  -2.106
REMARK UNBOUND:                -2.310
REMARK SMILES CCCCCCCCCCCCCCCCCCCCCC(=O)[O-]
REMARK SMILES IDX 12 1 11 2 10 3 9 4 8 5 7 6 6 7 5 8 4 9 3 10 2 11 1 12 13 13
REMARK SMILES IDX 14 14 15 15 16 16 17 17 18 18 19 19 20 20 21 21 22 22 23 23
REMARK SMILES IDX 24 24
REMARK H PARENT
REMARK Flexibility Score: inf
ROOT
ATOM      1  C   UNL     1      15.531  24.299  33.049  1.00  0.00     0.000 C 
ENDROOT
BRANCH   1   2
ATOM      2  C   UNL     1      16.549  25.188  33.787  1.00  0.00     0.000 C 
BRANCH   2   3
ATOM      3  C   UNL     1      16.451  26.666  33.381  1.00  0.00     0.000 C 
BRANCH   3   4
ATOM      4  C   UNL     1      16.275  27.615  34.582  1.00  0.00    -0.000 C 
BRANCH   4   5
ATOM      5  C   UNL     1      15.590  28.958  34.269  1.00  0.00    -0.000 C 
BRANCH   5   6
ATOM      6  C   UNL     1      15.029  29.708  35.492  1.00  0.00    -0.000 C 
BRANCH   6   7
ATOM      7  C   UNL     1      14.008  28.893  36.314  1.00  0.00    -0.000 C 
BRANCH   7   8
ATOM      8  C   UNL     1      12.551  29.262  35.983  1.00  0.00    -0.000 C 
BRANCH   8   9
ATOM      9  C   UNL     1      11.660  28.015  35.795  1.00  0.00    -0.000 C 
BRANCH   9  10
ATOM     10  C   UNL     1      11.638  27.482  34.349  1.00  0.00    -0.000 C 
BRANCH  10  11
ATOM     11  C   UNL     1      12.627  26.339  34.071  1.00  0.00    -0.003 C 
ATOM     12  C   UNL     1      13.095  25.636  35.345  1.00  0.00     0.004 C 
ENDBRANCH  10  11
ENDBRANCH   9  10
ENDBRANCH   8   9
ENDBRANCH   7   8
ENDBRANCH   6   7
ENDBRANCH   5   6
ENDBRANCH   4   5
ENDBRANCH   3   4
ENDBRANCH   2   3
ENDBRANCH   1   2
BRANCH   1  13
ATOM     13  C   UNL     1      15.229  22.971  33.776  1.00  0.00     0.000 C 
BRANCH  13  14
ATOM     14  C   UNL     1      16.372  22.551  34.719  1.00  0.00     0.000 C 
BRANCH  14  15
ATOM     15  C   UNL     1      16.561  21.027  34.771  1.00  0.00     0.000 C 
BRANCH  15  16
ATOM     16  C   UNL     1      15.522  20.275  33.922  1.00  0.00     0.000 C 
BRANCH  16  17
ATOM     17  C   UNL     1      15.112  18.932  34.548  1.00  0.00     0.000 C 
BRANCH  17  18
ATOM     18  C   UNL     1      16.115  18.446  35.604  1.00  0.00     0.000 C 
BRANCH  18  19
ATOM     19  C   UNL     1      16.486  16.976  35.376  1.00  0.00     0.000 C 
BRANCH  19  20
ATOM     20  C   UNL     1      15.259  16.160  34.940  1.00  0.00     0.006 C 
BRANCH  20  21
ATOM     21  C   UNL     1      15.589  15.174  33.812  1.00  0.00     0.053 C 
BRANCH  21  22
ATOM     22  C   UNL     1      14.559  14.092  33.699  1.00  0.00     0.041 C 
ATOM     23  O   UNL     1      14.098  13.547  34.737  1.00  0.00    -0.550 OA
ATOM     24  O   UNL     1      14.136  13.660  32.449  1.00  0.00    -0.550 OA
ENDBRANCH  21  22
ENDBRANCH  20  21
ENDBRANCH  19  20
ENDBRANCH  18  19
ENDBRANCH  17  18
ENDBRANCH  16  17
ENDBRANCH  15  16
ENDBRANCH  14  15
ENDBRANCH  13  14
ENDBRANCH   1  13
TORSDOF 20
ENDMDL
MODEL 6
REMARK VINA RESULT:    -4.145      4.842     10.671
REMARK INTER + INTRA:         -11.303
REMARK INTER:                  -9.857
REMARK INTRA:                  -1.446
REMARK UNBOUND:                -2.310
REMARK SMILES CCCCCCCCCCCCCCCCCCCCCC(=O)[O-]
REMARK SMILES IDX 12 1 11 2 10 3 9 4 8 5 7 6 6 7 5 8 4 9 3 10 2 11 1 12 13 13
REMARK SMILES IDX 14 14 15 15 16 16 17 17 18 18 19 19 20 20 21 21 22 22 23 23
REMARK SMILES IDX 24 24
REMARK H PARENT
REMARK Flexibility Score: inf
ROOT
ATOM      1  C   UNL     1      14.331  25.118  33.000  1.00  0.00     0.000 C 
ENDROOT
BRANCH   1   2
ATOM      2  C   UNL     1      14.959  23.772  33.403  1.00  0.00     0.000 C 
BRANCH   2   3
ATOM      3  C   UNL     1      15.224  23.667  34.912  1.00  0.00     0.000 C 
BRANCH   3   4
ATOM      4  C   UNL     1      15.929  22.359  35.315  1.00  0.00    -0.000 C 
BRANCH   4   5
ATOM      5  C   UNL     1      16.322  21.432  34.149  1.00  0.00    -0.000 C 
BRANCH   5   6
ATOM      6  C   UNL     1      15.501  20.133  34.041  1.00  0.00    -0.000 C 
BRANCH   6   7
ATOM      7  C   UNL     1      15.804  19.104  35.150  1.00  0.00    -0.000 C 
BRANCH   7   8
ATOM      8  C   UNL     1      16.286  17.753  34.591  1.00  0.00    -0.000 C 
BRANCH   8   9
ATOM      9  C   UNL     1      15.131  16.740  34.433  1.00  0.00    -0.000 C 
BRANCH   9  10
ATOM     10  C   UNL     1      15.595  15.341  33.983  1.00  0.00    -0.000 C 
BRANCH  10  11
ATOM     11  C   UNL     1      14.466  14.305  33.842  1.00  0.00    -0.003 C 
ATOM     12  C   UNL     1      14.549  13.513  32.538  1.00  0.00     0.004 C 
ENDBRANCH  10  11
ENDBRANCH   9  10
ENDBRANCH   8   9
ENDBRANCH   7   8
ENDBRANCH   6   7
ENDBRANCH   5   6
ENDBRANCH   4   5
ENDBRANCH   3   4
ENDBRANCH   2   3
ENDBRANCH   1   2
BRANCH   1  13
ATOM     13  C   UNL     1      12.842  25.246  33.389  1.00  0.00     0.000 C 
BRANCH  13  14
ATOM     14  C   UNL     1      12.604  26.366  34.419  1.00  0.00     0.000 C 
BRANCH  14  15
ATOM     15  C   UNL     1      13.726  27.416  34.417  1.00  0.00     0.000 C 
BRANCH  15  16
ATOM     16  C   UNL     1      14.471  27.484  35.761  1.00  0.00     0.000 C 
BRANCH  16  17
ATOM     17  C   UNL     1      15.918  27.980  35.607  1.00  0.00     0.000 C 
BRANCH  17  18
ATOM     18  C   UNL     1      16.161  28.669  34.255  1.00  0.00     0.000 C 
BRANCH  18  19
ATOM     19  C   UNL     1      16.156  30.195  34.407  1.00  0.00     0.000 C 
BRANCH  19  20
ATOM     20  C   UNL     1      16.452  30.882  33.064  1.00  0.00     0.006 C 
BRANCH  20  21
ATOM     21  C   UNL     1      16.742  29.871  31.947  1.00  0.00     0.053 C 
BRANCH  21  22
ATOM     22  C   UNL     1      16.629  30.493  30.589  1.00  0.00     0.041 C 
ATOM     23  O   UNL     1      16.729  29.779  29.556  1.00  0.00    -0.550 OA
ATOM     24  O   UNL     1      16.449  31.864  30.463  1.00  0.00    -0.550 OA
ENDBRANCH  21  22
ENDBRANCH  20  21
ENDBRANCH  19  20
ENDBRANCH  18  19
ENDBRANCH  17  18
ENDBRANCH  16  17
ENDBRANCH  15  16
ENDBRANCH  14  15
ENDBRANCH  13  14
ENDBRANCH   1  13
TORSDOF 20
ENDMDL
MODEL 7
REMARK VINA RESULT:    -4.091      4.211     10.593
REMARK INTER + INTRA:         -11.184
REMARK INTER:                  -9.786
REMARK INTRA:                  -1.398
REMARK UNBOUND:                -2.310
REMARK SMILES CCCCCCCCCCCCCCCCCCCCCC(=O)[O-]
REMARK SMILES IDX 12 1 11 2 10 3 9 4 8 5 7 6 6 7 5 8 4 9 3 10 2 11 1 12 13 13
REMARK SMILES IDX 14 14 15 15 16 16 17 17 18 18 19 19 20 20 21 21 22 22 23 23
REMARK SMILES IDX 24 24
REMARK H PARENT
REMARK Flexibility Score: inf
ROOT
ATOM      1  C   UNL     1      14.605  24.267  33.086  1.00  0.00     0.000 C 
ENDROOT
BRANCH   1   2
ATOM      2  C   UNL     1      15.895  23.517  33.468  1.00  0.00     0.000 C 
BRANCH   2   3
ATOM      3  C   UNL     1      15.622  22.237  34.271  1.00  0.00     0.000 C 
BRANCH   3   4
ATOM      4  C   UNL     1      16.534  21.063  33.871  1.00  0.00    -0.000 C 
BRANCH   4   5
ATOM      5  C   UNL     1      16.438  19.814  34.768  1.00  0.00    -0.000 C 
BRANCH   5   6
ATOM      6  C   UNL     1      15.222  18.908  34.500  1.00  0.00    -0.000 C 
BRANCH   6   7
ATOM      7  C   UNL     1      15.457  17.422  34.843  1.00  0.00    -0.000 C 
BRANCH   7   8
ATOM      8  C   UNL     1      16.704  16.843  34.149  1.00  0.00    -0.000 C 
BRANCH   8   9
ATOM      9  C   UNL     1      16.445  15.441  33.557  1.00  0.00    -0.000 C 
BRANCH   9  10
ATOM     10  C   UNL     1      15.239  14.716  34.186  1.00  0.00    -0.000 C 
BRANCH  10  11
ATOM     11  C   UNL     1      14.324  13.999  33.180  1.00  0.00    -0.003 C 
ATOM     12  C   UNL     1      15.103  13.277  32.080  1.00  0.00     0.004 C 
ENDBRANCH  10  11
ENDBRANCH   9  10
ENDBRANCH   8   9
ENDBRANCH   7   8
ENDBRANCH   6   7
ENDBRANCH   5   6
ENDBRANCH   4   5
ENDBRANCH   3   4
ENDBRANCH   2   3
ENDBRANCH   1   2
BRANCH   1  13
ATOM     13  C   UNL     1      14.102  25.228  34.185  1.00  0.00     0.000 C 
BRANCH  13  14
ATOM     14  C   UNL     1      14.162  26.701  33.741  1.00  0.00     0.000 C 
BRANCH  14  15
ATOM     15  C   UNL     1      15.548  27.099  33.209  1.00  0.00     0.000 C 
BRANCH  15  16
ATOM     16  C   UNL     1      16.026  28.452  33.763  1.00  0.00     0.000 C 
BRANCH  16  17
ATOM     17  C   UNL     1      16.719  28.316  35.129  1.00  0.00     0.000 C 
BRANCH  17  18
ATOM     18  C   UNL     1      16.114  29.249  36.189  1.00  0.00     0.000 C 
BRANCH  18  19
ATOM     19  C   UNL     1      14.716  28.777  36.604  1.00  0.00     0.000 C 
BRANCH  19  20
ATOM     20  C   UNL     1      13.634  29.731  36.074  1.00  0.00     0.006 C 
BRANCH  20  21
ATOM     21  C   UNL     1      12.256  29.439  36.682  1.00  0.00     0.053 C 
BRANCH  21  22
ATOM     22  C   UNL     1      11.480  28.458  35.860  1.00  0.00     0.041 C 
ATOM     23  O   UNL     1      11.524  27.228  36.132  1.00  0.00    -0.550 OA
ATOM     24  O   UNL     1      10.735  28.894  34.771  1.00  0.00    -0.550 OA
ENDBRANCH  21  22
ENDBRANCH  20  21
ENDBRANCH  19  20
ENDBRANCH  18  19
ENDBRANCH  17  18
ENDBRANCH  16  17
ENDBRANCH  15  16
ENDBRANCH  14  15
ENDBRANCH  13  14
ENDBRANCH   1  13
TORSDOF 20
ENDMDL
MODEL 8
REMARK VINA RESULT:    -4.035      4.965      9.881
REMARK INTER + INTRA:         -11.062
REMARK INTER:                  -9.481
REMARK INTRA:                  -1.581
REMARK UNBOUND:                -2.310
REMARK SMILES CCCCCCCCCCCCCCCCCCCCCC(=O)[O-]
REMARK SMILES IDX 12 1 11 2 10 3 9 4 8 5 7 6 6 7 5 8 4 9 3 10 2 11 1 12 13 13
REMARK SMILES IDX 14 14 15 15 16 16 17 17 18 18 19 19 20 20 21 21 22 22 23 23
REMARK SMILES IDX 24 24
REMARK H PARENT
REMARK Flexibility Score: inf
ROOT
ATOM      1  C   UNL     1      11.570  27.497  34.203  1.00  0.00     0.000 C 
ENDROOT
BRANCH   1   2
ATOM      2  C   UNL     1      12.489  26.365  34.696  1.00  0.00     0.000 C 
BRANCH   2   3
ATOM      3  C   UNL     1      12.817  25.344  33.596  1.00  0.00     0.000 C 
BRANCH   3   4
ATOM      4  C   UNL     1      14.247  25.487  33.043  1.00  0.00    -0.000 C 
BRANCH   4   5
ATOM      5  C   UNL     1      15.371  25.448  34.095  1.00  0.00    -0.000 C 
BRANCH   5   6
ATOM      6  C   UNL     1      16.319  24.238  33.997  1.00  0.00    -0.000 C 
BRANCH   6   7
ATOM      7  C   UNL     1      15.774  23.082  33.132  1.00  0.00    -0.000 C 
BRANCH   7   8
ATOM      8  C   UNL     1      16.680  21.838  33.167  1.00  0.00    -0.000 C 
BRANCH   8   9
ATOM      9  C   UNL     1      16.639  21.122  34.534  1.00  0.00    -0.000 C 
BRANCH   9  10
ATOM     10  C   UNL     1      15.637  19.953  34.591  1.00  0.00    -0.000 C 
BRANCH  10  11
ATOM     11  C   UNL     1      16.273  18.556  34.495  1.00  0.00    -0.003 C 
ATOM     12  C   UNL     1      15.388  17.459  35.085  1.00  0.00     0.004 C 
ENDBRANCH  10  11
ENDBRANCH   9  10
ENDBRANCH   8   9
ENDBRANCH   7   8
ENDBRANCH   6   7
ENDBRANCH   5   6
ENDBRANCH   4   5
ENDBRANCH   3   4
ENDBRANCH   2   3
ENDBRANCH   1   2
BRANCH   1  13
ATOM     13  C   UNL     1      11.313  28.590  35.263  1.00  0.00     0.000 C 
BRANCH  13  14
ATOM     14  C   UNL     1      12.397  28.606  36.356  1.00  0.00     0.000 C 
BRANCH  14  15
ATOM     15  C   UNL     1      13.545  29.574  36.031  1.00  0.00     0.000 C 
BRANCH  15  16
ATOM     16  C   UNL     1      14.908  28.866  35.951  1.00  0.00     0.000 C 
BRANCH  16  17
ATOM     17  C   UNL     1      15.557  28.993  34.563  1.00  0.00     0.000 C 
BRANCH  17  18
ATOM     18  C   UNL     1      16.076  30.412  34.286  1.00  0.00     0.000 C 
BRANCH  18  19
ATOM     19  C   UNL     1      16.845  30.467  32.961  1.00  0.00     0.000 C 
BRANCH  19  20
ATOM     20  C   UNL     1      16.240  31.518  32.016  1.00  0.00     0.006 C 
BRANCH  20  21
ATOM     21  C   UNL     1      17.125  31.773  30.789  1.00  0.00     0.053 C 
BRANCH  21  22
ATOM     22  C   UNL     1      16.516  31.220  29.538  1.00  0.00     0.041 C 
ATOM     23  O   UNL     1      16.124  31.998  28.628  1.00  0.00    -0.550 OA
ATOM     24  O   UNL     1      16.350  29.850  29.390  1.00  0.00    -0.550 OA
ENDBRANCH  21  22
ENDBRANCH  20  21
ENDBRANCH  19  20
ENDBRANCH  18  19
ENDBRANCH  17  18
ENDBRANCH  16  17
ENDBRANCH  15  16
ENDBRANCH  14  15
ENDBRANCH  13  14
ENDBRANCH   1  13
TORSDOF 20
ENDMDL
MODEL 9
REMARK VINA RESULT:    -3.951      5.063     10.704
REMARK INTER + INTRA:         -10.880
REMARK INTER:                  -9.121
REMARK INTRA:                  -1.759
REMARK UNBOUND:                -2.310
REMARK SMILES CCCCCCCCCCCCCCCCCCCCCC(=O)[O-]
REMARK SMILES IDX 12 1 11 2 10 3 9 4 8 5 7 6 6 7 5 8 4 9 3 10 2 11 1 12 13 13
REMARK SMILES IDX 14 14 15 15 16 16 17 17 18 18 19 19 20 20 21 21 22 22 23 23
REMARK SMILES IDX 24 24
REMARK H PARENT
REMARK Flexibility Score: inf
ROOT
ATOM      1  C   UNL     1      15.892  24.876  33.414  1.00  0.00     0.000 C 
ENDROOT
BRANCH   1   2
ATOM      2  C   UNL     1      15.313  23.519  32.973  1.00  0.00     0.000 C 
BRANCH   2   3
ATOM      3  C   UNL     1      16.009  22.329  33.650  1.00  0.00     0.000 C 
BRANCH   3   4
ATOM      4  C   UNL     1      15.680  22.206  35.149  1.00  0.00    -0.000 C 
BRANCH   4   5
ATOM      5  C   UNL     1      15.628  20.769  35.700  1.00  0.00    -0.000 C 
BRANCH   5   6
ATOM      6  C   UNL     1      15.400  19.671  34.645  1.00  0.00    -0.000 C 
BRANCH   6   7
ATOM      7  C   UNL     1      16.519  18.609  34.591  1.00  0.00    -0.000 C 
BRANCH   7   8
ATOM      8  C   UNL     1      16.118  17.290  35.277  1.00  0.00    -0.000 C 
BRANCH   8   9
ATOM      9  C   UNL     1      15.027  16.530  34.491  1.00  0.00    -0.000 C 
BRANCH   9  10
ATOM     10  C   UNL     1      15.538  15.246  33.809  1.00  0.00    -0.000 C 
BRANCH  10  11
ATOM     11  C   UNL     1      14.472  14.155  33.613  1.00  0.00    -0.003 C 
ATOM     12  C   UNL     1      14.679  13.348  32.332  1.00  0.00     0.004 C 
ENDBRANCH  10  11
ENDBRANCH   9  10
ENDBRANCH   8   9
ENDBRANCH   7   8
ENDBRANCH   6   7
ENDBRANCH   5   6
ENDBRANCH   4   5
ENDBRANCH   3   4
ENDBRANCH   2   3
ENDBRANCH   1   2
BRANCH   1  13
ATOM     13  C   UNL     1      14.814  25.909  33.807  1.00  0.00     0.000 C 
BRANCH  13  14
ATOM     14  C   UNL     1      13.519  25.240  34.302  1.00  0.00     0.000 C 
BRANCH  14  15
ATOM     15  C   UNL     1      12.257  25.943  33.778  1.00  0.00     0.000 C 
BRANCH  15  16
ATOM     16  C   UNL     1      12.209  27.432  34.160  1.00  0.00     0.000 C 
BRANCH  16  17
ATOM     17  C   UNL     1      11.509  27.672  35.507  1.00  0.00     0.000 C 
BRANCH  17  18
ATOM     18  C   UNL     1      12.338  28.555  36.451  1.00  0.00     0.000 C 
BRANCH  18  19
ATOM     19  C   UNL     1      13.625  27.842  36.884  1.00  0.00     0.000 C 
BRANCH  19  20
ATOM     20  C   UNL     1      14.838  28.778  36.767  1.00  0.00     0.006 C 
BRANCH  20  21
ATOM     21  C   UNL     1      15.033  29.300  35.337  1.00  0.00     0.053 C 
BRANCH  21  22
ATOM     22  C   UNL     1      15.229  30.784  35.308  1.00  0.00     0.041 C 
ATOM     23  O   UNL     1      16.090  31.294  34.542  1.00  0.00    -0.550 OA
ATOM     24  O   UNL     1      14.487  31.603  36.150  1.00  0.00    -0.550 OA
ENDBRANCH  21  22
ENDBRANCH  20  21
ENDBRANCH  19  20
ENDBRANCH  18  19
ENDBRANCH  17  18
ENDBRANCH  16  17
ENDBRANCH  15  16
ENDBRANCH  14  15
ENDBRANCH  13  14
ENDBRANCH   1  13
TORSDOF 20
ENDMDL
