MODEL 1
REMARK VINA RESULT:    -3.450      0.000      0.000
REMARK INTER + INTRA:          -4.312
REMARK INTER:                  -4.256
REMARK INTRA:                  -0.056
REMARK UNBOUND:                -0.056
REMARK SMILES CCCCCC(=O)[O-]
REMARK SMILES IDX 4 1 5 2 6 3 7 4 8 5 3 6 2 7 1 8
REMARK H PARENT
REMARK Flexibility Score: inf
ROOT
ATOM      1  C   UNL     1      -5.262  -4.547   8.421  1.00  0.00     0.006 C 
ENDROOT
BRANCH   1   2
ATOM      2  C   UNL     1      -6.683  -5.072   8.664  1.00  0.00     0.053 C 
BRANCH   2   3
ATOM      3  C   UNL     1      -7.460  -5.179   7.389  1.00  0.00     0.041 C 
ATOM      4  O   UNL     1      -8.079  -4.180   6.937  1.00  0.00    -0.550 OA
ATOM      5  O   UNL     1      -7.476  -6.375   6.682  1.00  0.00    -0.550 OA
ENDBRANCH   2   3
ENDBRANCH   1   2
BRANCH   1   6
ATOM      6  C   UNL     1      -4.306  -4.907   9.569  1.00  0.00     0.000 C 
BRANCH   6   7
ATOM      7  C   UNL     1      -2.912  -4.318   9.326  1.00  0.00    -0.003 C 
ATOM      8  C   UNL     1      -2.045  -5.271   8.508  1.00  0.00     0.004 C 
ENDBRANCH   6   7
ENDBRANCH   1   6
TORSDOF 4
ENDMDL
MODEL 2
REMARK VINA RESULT:    -3.374     14.282     15.661
REMARK INTER + INTRA:          -4.218
REMARK INTER:                  -4.159
REMARK INTRA:                  -0.060
REMARK UNBOUND:                -0.056
REMARK SMILES CCCCCC(=O)[O-]
REMARK SMILES IDX 4 1 5 2 6 3 7 4 8 5 3 6 2 7 1 8
REMARK H PARENT
REMARK Flexibility Score: inf
ROOT
ATOM      1  C   UNL     1       5.326   4.853   8.381  1.00  0.00     0.006 C 
ENDROOT
BRANCH   1   2
ATOM      2  C   UNL     1       6.596   5.695   8.209  1.00  0.00     0.053 C 
BRANCH   2   3
ATOM      3  C   UNL     1       7.547   5.074   7.234  1.00  0.00     0.041 C 
ATOM      4  O   UNL     1       8.440   4.282   7.635  1.00  0.00    -0.550 OA
ATOM      5  O   UNL     1       7.427   5.343   5.877  1.00  0.00    -0.550 OA
ENDBRANCH   2   3
ENDBRANCH   1   2
BRANCH   1   6
ATOM      6  C   UNL     1       4.271   5.561   9.245  1.00  0.00     0.000 C 
BRANCH   6   7
ATOM      7  C   UNL     1       2.916   4.853   9.147  1.00  0.00    -0.003 C 
ATOM      8  C   UNL     1       2.040   5.484   8.068  1.00  0.00     0.004 C 
ENDBRANCH   6   7
ENDBRANCH   1   6
TORSDOF 4
ENDMDL
MODEL 3
REMARK VINA RESULT:    -3.368     14.258     15.668
REMARK INTER + INTRA:          -4.211
REMARK INTER:                  -4.157
REMARK INTRA:                  -0.054
REMARK UNBOUND:                -0.056
REMARK SMILES CCCCCC(=O)[O-]
REMARK SMILES IDX 4 1 5 2 6 3 7 4 8 5 3 6 2 7 1 8
REMARK H PARENT
REMARK Flexibility Score: inf
ROOT
ATOM      1  C   UNL     1       5.387   4.804   8.449  1.00  0.00     0.006 C 
ENDROOT
BRANCH   1   2
ATOM      2  C   UNL     1       6.663   5.649   8.352  1.00  0.00     0.053 C 
BRANCH   2   3
ATOM      3  C   UNL     1       7.477   5.289   7.148  1.00  0.00     0.041 C 
ATOM      4  O   UNL     1       7.497   6.049   6.144  1.00  0.00    -0.550 OA
ATOM      5  O   UNL     1       8.241   4.128   7.147  1.00  0.00    -0.550 OA
ENDBRANCH   2   3
ENDBRANCH   1   2
BRANCH   1   6
ATOM      6  C   UNL     1       4.249   5.550   9.164  1.00  0.00     0.000 C 
BRANCH   6   7
ATOM      7  C   UNL     1       2.925   4.789   9.030  1.00  0.00    -0.003 C 
ATOM      8  C   UNL     1       1.992   5.477   8.038  1.00  0.00     0.004 C 
ENDBRANCH   6   7
ENDBRANCH   1   6
TORSDOF 4
ENDMDL
MODEL 4
REMARK VINA RESULT:    -3.316      2.876      4.483
REMARK INTER + INTRA:          -4.146
REMARK INTER:                  -4.054
REMARK INTRA:                  -0.093
REMARK UNBOUND:                -0.056
REMARK SMILES CCCCCC(=O)[O-]
REMARK SMILES IDX 4 1 5 2 6 3 7 4 8 5 3 6 2 7 1 8
REMARK H PARENT
REMARK Flexibility Score: inf
ROOT
ATOM      1  C   UNL     1      -5.442  -4.064   8.977  1.00  0.00     0.006 C 
ENDROOT
BRANCH   1   2
ATOM      2  C   UNL     1      -4.171  -4.820   9.386  1.00  0.00     0.053 C 
BRANCH   2   3
ATOM      3  C   UNL     1      -3.161  -4.846   8.281  1.00  0.00     0.041 C 
ATOM      4  O   UNL     1      -3.483  -4.488   7.118  1.00  0.00    -0.550 OA
ATOM      5  O   UNL     1      -1.853  -5.235   8.544  1.00  0.00    -0.550 OA
ENDBRANCH   2   3
ENDBRANCH   1   2
BRANCH   1   6
ATOM      6  C   UNL     1      -6.605  -5.014   8.653  1.00  0.00     0.000 C 
BRANCH   6   7
ATOM      7  C   UNL     1      -7.852  -4.231   8.228  1.00  0.00    -0.003 C 
ATOM      8  C   UNL     1      -8.385  -3.378   9.376  1.00  0.00     0.004 C 
ENDBRANCH   6   7
ENDBRANCH   1   6
TORSDOF 4
ENDMDL
MODEL 5
REMARK VINA RESULT:    -3.297     13.515     14.598
REMARK INTER + INTRA:          -4.124
REMARK INTER:                  -4.039
REMARK INTRA:                  -0.085
REMARK UNBOUND:                -0.056
REMARK SMILES CCCCCC(=O)[O-]
REMARK SMILES IDX 4 1 5 2 6 3 7 4 8 5 3 6 2 7 1 8
REMARK H PARENT
REMARK Flexibility Score: inf
ROOT
ATOM      1  C   UNL     1       5.322   4.594   8.744  1.00  0.00     0.006 C 
ENDROOT
BRANCH   1   2
ATOM      2  C   UNL     1       4.022   5.332   9.089  1.00  0.00     0.053 C 
BRANCH   2   3
ATOM      3  C   UNL     1       3.062   5.333   7.939  1.00  0.00     0.041 C 
ATOM      4  O   UNL     1       1.895   5.779   8.088  1.00  0.00    -0.550 OA
ATOM      5  O   UNL     1       3.469   4.871   6.694  1.00  0.00    -0.550 OA
ENDBRANCH   2   3
ENDBRANCH   1   2
BRANCH   1   6
ATOM      6  C   UNL     1       6.453   5.560   8.358  1.00  0.00     0.000 C 
BRANCH   6   7
ATOM      7  C   UNL     1       7.693   4.792   7.885  1.00  0.00    -0.003 C 
ATOM      8  C   UNL     1       8.329   4.011   9.031  1.00  0.00     0.004 C 
ENDBRANCH   6   7
ENDBRANCH   1   6
TORSDOF 4
ENDMDL
MODEL 6
REMARK VINA RESULT:    -3.289      2.889      4.683
REMARK INTER + INTRA:          -4.114
REMARK INTER:                  -3.965
REMARK INTRA:                  -0.149
REMARK UNBOUND:                -0.056
REMARK SMILES CCCCCC(=O)[O-]
REMARK SMILES IDX 4 1 5 2 6 3 7 4 8 5 3 6 2 7 1 8
REMARK H PARENT
REMARK Flexibility Score: inf
ROOT
ATOM      1  C   UNL     1      -7.864  -2.921   8.732  1.00  0.00     0.006 C 
ENDROOT
BRANCH   1   2
ATOM      2  C   UNL     1      -7.402  -4.384   8.742  1.00  0.00     0.053 C 
BRANCH   2   3
ATOM      3  C   UNL     1      -7.125  -4.888   7.359  1.00  0.00     0.041 C 
ATOM      4  O   UNL     1      -6.594  -4.133   6.503  1.00  0.00    -0.550 OA
ATOM      5  O   UNL     1      -7.424  -6.203   7.025  1.00  0.00    -0.550 OA
ENDBRANCH   2   3
ENDBRANCH   1   2
BRANCH   1   6
ATOM      6  C   UNL     1      -9.389  -2.794   8.600  1.00  0.00     0.000 C 
BRANCH   6   7
ATOM      7  C   UNL     1     -10.097  -3.386   9.823  1.00  0.00    -0.003 C 
ATOM      8  C   UNL     1     -10.038  -2.432  11.012  1.00  0.00     0.004 C 
ENDBRANCH   6   7
ENDBRANCH   1   6
TORSDOF 4
ENDMDL
MODEL 7
REMARK VINA RESULT:    -3.263     15.904     16.652
REMARK INTER + INTRA:          -4.082
REMARK INTER:                  -3.988
REMARK INTRA:                  -0.094
REMARK UNBOUND:                -0.056
REMARK SMILES CCCCCC(=O)[O-]
REMARK SMILES IDX 4 1 5 2 6 3 7 4 8 5 3 6 2 7 1 8
REMARK H PARENT
REMARK Flexibility Score: inf
ROOT
ATOM      1  C   UNL     1       8.796   4.043   8.228  1.00  0.00     0.006 C 
ENDROOT
BRANCH   1   2
ATOM      2  C   UNL     1       7.443   4.567   8.727  1.00  0.00     0.053 C 
BRANCH   2   3
ATOM      3  C   UNL     1       6.742   5.378   7.683  1.00  0.00     0.041 C 
ATOM      4  O   UNL     1       7.405   6.066   6.862  1.00  0.00    -0.550 OA
ATOM      5  O   UNL     1       5.356   5.349   7.593  1.00  0.00    -0.550 OA
ENDBRANCH   2   3
ENDBRANCH   1   2
BRANCH   1   6
ATOM      6  C   UNL     1       9.800   3.841   9.373  1.00  0.00     0.000 C 
BRANCH   6   7
ATOM      7  C   UNL     1       9.472   2.576  10.174  1.00  0.00    -0.003 C 
ATOM      8  C   UNL     1       9.907   2.717  11.630  1.00  0.00     0.004 C 
ENDBRANCH   6   7
ENDBRANCH   1   6
TORSDOF 4
ENDMDL
MODEL 8
REMARK VINA RESULT:    -3.110     14.504     15.463
REMARK INTER + INTRA:          -3.893
REMARK INTER:                  -3.835
REMARK INTRA:                  -0.058
REMARK UNBOUND:                -0.056
REMARK SMILES CCCCCC(=O)[O-]
REMARK SMILES IDX 4 1 5 2 6 3 7 4 8 5 3 6 2 7 1 8
REMARK H PARENT
REMARK Flexibility Score: inf
ROOT
ATOM      1  C   UNL     1       6.926   4.163   8.748  1.00  0.00     0.006 C 
ENDROOT
BRANCH   1   2
ATOM      2  C   UNL     1       6.194   5.437   8.306  1.00  0.00     0.053 C 
BRANCH   2   3
ATOM      3  C   UNL     1       4.708   5.288   8.411  1.00  0.00     0.041 C 
ATOM      4  O   UNL     1       4.148   5.291   9.538  1.00  0.00    -0.550 OA
ATOM      5  O   UNL     1       3.937   5.180   7.260  1.00  0.00    -0.550 OA
ENDBRANCH   2   3
ENDBRANCH   1   2
BRANCH   1   6
ATOM      6  C   UNL     1       8.435   4.234   8.472  1.00  0.00     0.000 C 
BRANCH   6   7
ATOM      7  C   UNL     1       9.117   2.902   8.804  1.00  0.00    -0.003 C 
ATOM      8  C   UNL     1       9.394   2.782  10.300  1.00  0.00     0.004 C 
ENDBRANCH   6   7
ENDBRANCH   1   6
TORSDOF 4
ENDMDL
MODEL 9
REMARK VINA RESULT:    -3.105     17.550     18.952
REMARK INTER + INTRA:          -3.887
REMARK INTER:                  -3.803
REMARK INTRA:                  -0.084
REMARK UNBOUND:                -0.056
REMARK SMILES CCCCCC(=O)[O-]
REMARK SMILES IDX 4 1 5 2 6 3 7 4 8 5 3 6 2 7 1 8
REMARK H PARENT
REMARK Flexibility Score: inf
ROOT
ATOM      1  C   UNL     1       8.574   6.250   2.571  1.00  0.00     0.006 C 
ENDROOT
BRANCH   1   2
ATOM      2  C   UNL     1       8.193   4.903   3.198  1.00  0.00     0.053 C 
BRANCH   2   3
ATOM      3  C   UNL     1       8.211   4.962   4.694  1.00  0.00     0.041 C 
ATOM      4  O   UNL     1       8.504   3.938   5.366  1.00  0.00    -0.550 OA
ATOM      5  O   UNL     1       7.936   6.157   5.347  1.00  0.00    -0.550 OA
ENDBRANCH   2   3
ENDBRANCH   1   2
BRANCH   1   6
ATOM      6  C   UNL     1       8.590   6.193   1.036  1.00  0.00     0.000 C 
BRANCH   6   7
ATOM      7  C   UNL     1       8.907   7.569   0.439  1.00  0.00    -0.003 C 
ATOM      8  C   UNL     1       8.929   8.647   1.519  1.00  0.00     0.004 C 
ENDBRANCH   6   7
ENDBRANCH   1   6
TORSDOF 4
ENDMDL
