MODEL 1
REMARK VINA RESULT:    -2.418      0.000      0.000
REMARK INTER + INTRA:          -2.874
REMARK INTER:                  -2.631
REMARK INTRA:                  -0.244
REMARK UNBOUND:                -0.244
REMARK SMILES O=C([O-])c1ccccc1O
REMARK SMILES IDX 4 1 9 2 5 3 8 4 6 5 7 6 2 7 1 8 3 9 10 10
REMARK H PARENT 10 11
REMARK Flexibility Score: inf
ROOT
ATOM      1  C   UNL     1     134.277 125.534 107.180  1.00  0.00     0.039 A 
ATOM      2  C   UNL     1     132.910 125.645 106.817  1.00  0.00     0.124 A 
ATOM      3  C   UNL     1     134.623 124.752 108.298  1.00  0.00     0.014 A 
ATOM      4  C   UNL     1     131.930 125.031 107.609  1.00  0.00     0.047 A 
ATOM      5  C   UNL     1     133.636 124.128 109.064  1.00  0.00     0.001 A 
ATOM      6  C   UNL     1     132.292 124.276 108.726  1.00  0.00     0.004 A 
ENDROOT
BRANCH   1   7
ATOM      7  C   UNL     1     135.351 126.241 106.448  1.00  0.00     0.075 C 
ATOM      8  O   UNL     1     136.125 127.022 107.063  1.00  0.00    -0.545 OA
ATOM      9  O   UNL     1     135.478 126.111 105.071  1.00  0.00    -0.545 OA
ENDBRANCH   1   7
BRANCH   2  10
ATOM     10  O   UNL     1     132.489 126.320 105.670  1.00  0.00    -0.507 OA
ATOM     11  H   UNL     1     132.775 126.061 104.736  1.00  0.00     0.293 HD
ENDBRANCH   2  10
TORSDOF 2
ENDMDL
MODEL 2
REMARK VINA RESULT:    -2.323     11.671     13.008
REMARK INTER + INTRA:          -2.770
REMARK INTER:                  -2.518
REMARK INTRA:                  -0.252
REMARK UNBOUND:                -0.244
REMARK SMILES O=C([O-])c1ccccc1O
REMARK SMILES IDX 4 1 9 2 5 3 8 4 6 5 7 6 2 7 1 8 3 9 10 10
REMARK H PARENT 10 11
REMARK Flexibility Score: inf
ROOT
ATOM      1  C   UNL     1     135.147 127.860  94.979  1.00  0.00     0.039 A 
ATOM      2  C   UNL     1     135.572 128.937  94.158  1.00  0.00     0.124 A 
ATOM      3  C   UNL     1     134.508 128.145  96.200  1.00  0.00     0.014 A 
ATOM      4  C   UNL     1     135.405 130.254  94.604  1.00  0.00     0.047 A 
ATOM      5  C   UNL     1     134.330 129.466  96.619  1.00  0.00     0.001 A 
ATOM      6  C   UNL     1     134.787 130.518  95.827  1.00  0.00     0.004 A 
ENDROOT
BRANCH   1   7
ATOM      7  C   UNL     1     135.386 126.445  94.617  1.00  0.00     0.075 C 
ATOM      8  O   UNL     1     135.788 125.629  95.488  1.00  0.00    -0.545 OA
ATOM      9  O   UNL     1     135.239 126.012  93.304  1.00  0.00    -0.545 OA
ENDBRANCH   1   7
BRANCH   2  10
ATOM     10  O   UNL     1     136.125 128.743  92.891  1.00  0.00    -0.507 OA
ATOM     11  H   UNL     1     136.492 129.493  92.324  1.00  0.00     0.293 HD
ENDBRANCH   2  10
TORSDOF 2
ENDMDL
MODEL 3
REMARK VINA RESULT:    -2.318     11.136     12.371
REMARK INTER + INTRA:          -2.765
REMARK INTER:                  -2.517
REMARK INTRA:                  -0.248
REMARK UNBOUND:                -0.244
REMARK SMILES O=C([O-])c1ccccc1O
REMARK SMILES IDX 4 1 9 2 5 3 8 4 6 5 7 6 2 7 1 8 3 9 10 10
REMARK H PARENT 10 11
REMARK Flexibility Score: inf
ROOT
ATOM      1  C   UNL     1     135.132 127.177  95.095  1.00  0.00     0.039 A 
ATOM      2  C   UNL     1     135.464 125.821  94.844  1.00  0.00     0.124 A 
ATOM      3  C   UNL     1     134.556 127.519  96.334  1.00  0.00     0.014 A 
ATOM      4  C   UNL     1     135.158 124.844  95.800  1.00  0.00     0.047 A 
ATOM      5  C   UNL     1     134.277 126.535  97.285  1.00  0.00     0.001 A 
ATOM      6  C   UNL     1     134.568 125.199  97.015  1.00  0.00     0.004 A 
ENDROOT
BRANCH   1   7
ATOM      7  C   UNL     1     135.334 128.243  94.089  1.00  0.00     0.075 C 
ATOM      8  O   UNL     1     134.969 128.062  92.897  1.00  0.00    -0.545 OA
ATOM      9  O   UNL     1     135.988 129.422  94.422  1.00  0.00    -0.545 OA
ENDBRANCH   1   7
BRANCH   2  10
ATOM     10  O   UNL     1     136.125 125.412  93.684  1.00  0.00    -0.507 OA
ATOM     11  H   UNL     1     136.633 126.043  93.082  1.00  0.00     0.293 HD
ENDBRANCH   2  10
TORSDOF 2
ENDMDL
MODEL 4
REMARK VINA RESULT:    -2.290     14.380     15.862
REMARK INTER + INTRA:          -2.734
REMARK INTER:                  -2.514
REMARK INTRA:                  -0.221
REMARK UNBOUND:                -0.244
REMARK SMILES O=C([O-])c1ccccc1O
REMARK SMILES IDX 4 1 9 2 5 3 8 4 6 5 7 6 2 7 1 8 3 9 10 10
REMARK H PARENT 10 11
REMARK Flexibility Score: inf
ROOT
ATOM      1  C   UNL     1     118.525 125.973 107.090  1.00  0.00     0.039 A 
ATOM      2  C   UNL     1     117.132 125.704 107.093  1.00  0.00     0.124 A 
ATOM      3  C   UNL     1     119.063 126.785 108.106  1.00  0.00     0.014 A 
ATOM      4  C   UNL     1     116.313 126.299 108.061  1.00  0.00     0.047 A 
ATOM      5  C   UNL     1     118.236 127.353 109.077  1.00  0.00     0.001 A 
ATOM      6  C   UNL     1     116.862 127.119 109.049  1.00  0.00     0.004 A 
ENDROOT
BRANCH   1   7
ATOM      7  C   UNL     1     119.429 125.461 106.037  1.00  0.00     0.075 C 
ATOM      8  O   UNL     1     119.212 125.739 104.828  1.00  0.00    -0.545 OA
ATOM      9  O   UNL     1     120.483 124.613 106.355  1.00  0.00    -0.545 OA
ENDBRANCH   1   7
BRANCH   2  10
ATOM     10  O   UNL     1     116.533 124.832 106.181  1.00  0.00    -0.507 OA
ATOM     11  H   UNL     1     115.648 124.375 106.348  1.00  0.00     0.293 HD
ENDBRANCH   2  10
TORSDOF 2
ENDMDL
MODEL 5
REMARK VINA RESULT:    -2.189      1.072      2.942
REMARK INTER + INTRA:          -2.625
REMARK INTER:                  -2.376
REMARK INTRA:                  -0.249
REMARK UNBOUND:                -0.244
REMARK SMILES O=C([O-])c1ccccc1O
REMARK SMILES IDX 4 1 9 2 5 3 8 4 6 5 7 6 2 7 1 8 3 9 10 10
REMARK H PARENT 10 11
REMARK Flexibility Score: inf
ROOT
ATOM      1  C   UNL     1     133.215 125.608 106.454  1.00  0.00     0.039 A 
ATOM      2  C   UNL     1     134.590 125.948 106.522  1.00  0.00     0.124 A 
ATOM      3  C   UNL     1     132.640 124.881 107.514  1.00  0.00     0.014 A 
ATOM      4  C   UNL     1     135.361 125.505 107.605  1.00  0.00     0.047 A 
ATOM      5  C   UNL     1     133.417 124.466 108.597  1.00  0.00     0.001 A 
ATOM      6  C   UNL     1     134.777 124.769 108.637  1.00  0.00     0.004 A 
ENDROOT
BRANCH   1   7
ATOM      7  C   UNL     1     132.368 125.955 105.290  1.00  0.00     0.075 C 
ATOM      8  O   UNL     1     132.795 125.766 104.120  1.00  0.00    -0.545 OA
ATOM      9  O   UNL     1     131.128 126.556 105.467  1.00  0.00    -0.545 OA
ENDBRANCH   1   7
BRANCH   2  10
ATOM     10  O   UNL     1     135.215 126.748 105.562  1.00  0.00    -0.507 OA
ATOM     11  H   UNL     1     135.509 127.698 105.736  1.00  0.00     0.293 HD
ENDBRANCH   2  10
TORSDOF 2
ENDMDL
MODEL 6
REMARK VINA RESULT:    -2.175     11.319     12.792
REMARK INTER + INTRA:          -2.609
REMARK INTER:                  -2.360
REMARK INTRA:                  -0.249
REMARK UNBOUND:                -0.244
REMARK SMILES O=C([O-])c1ccccc1O
REMARK SMILES IDX 4 1 9 2 5 3 8 4 6 5 7 6 2 7 1 8 3 9 10 10
REMARK H PARENT 10 11
REMARK Flexibility Score: inf
ROOT
ATOM      1  C   UNL     1     135.282 127.953  94.857  1.00  0.00     0.039 A 
ATOM      2  C   UNL     1     134.609 128.111  96.096  1.00  0.00     0.124 A 
ATOM      3  C   UNL     1     135.732 129.100  94.176  1.00  0.00     0.014 A 
ATOM      4  C   UNL     1     134.350 129.398  96.585  1.00  0.00     0.047 A 
ATOM      5  C   UNL     1     135.485 130.376  94.688  1.00  0.00     0.001 A 
ATOM      6  C   UNL     1     134.787 130.525  95.885  1.00  0.00     0.004 A 
ENDROOT
BRANCH   1   7
ATOM      7  C   UNL     1     135.496 126.628  94.234  1.00  0.00     0.075 C 
ATOM      8  O   UNL     1     135.949 125.674  94.920  1.00  0.00    -0.545 OA
ATOM      9  O   UNL     1     135.271 126.436  92.876  1.00  0.00    -0.545 OA
ENDBRANCH   1   7
BRANCH   2  10
ATOM     10  O   UNL     1     134.217 127.026  96.881  1.00  0.00    -0.507 OA
ATOM     11  H   UNL     1     133.420 126.443  96.667  1.00  0.00     0.293 HD
ENDBRANCH   2  10
TORSDOF 2
ENDMDL
MODEL 7
REMARK VINA RESULT:    -2.149      2.818      3.633
REMARK INTER + INTRA:          -2.581
REMARK INTER:                  -2.329
REMARK INTRA:                  -0.252
REMARK UNBOUND:                -0.244
REMARK SMILES O=C([O-])c1ccccc1O
REMARK SMILES IDX 4 1 9 2 5 3 8 4 6 5 7 6 2 7 1 8 3 9 10 10
REMARK H PARENT 10 11
REMARK Flexibility Score: inf
ROOT
ATOM      1  C   UNL     1     134.513 124.508 108.815  1.00  0.00     0.039 A 
ATOM      2  C   UNL     1     133.097 124.555 108.728  1.00  0.00     0.124 A 
ATOM      3  C   UNL     1     135.277 125.111 107.798  1.00  0.00     0.014 A 
ATOM      4  C   UNL     1     132.490 125.141 107.610  1.00  0.00     0.047 A 
ATOM      5  C   UNL     1     134.656 125.710 106.700  1.00  0.00     0.001 A 
ATOM      6  C   UNL     1     133.266 125.716 106.601  1.00  0.00     0.004 A 
ENDROOT
BRANCH   1   7
ATOM      7  C   UNL     1     135.217 123.815 109.916  1.00  0.00     0.075 C 
ATOM      8  O   UNL     1     136.125 122.981 109.659  1.00  0.00    -0.545 OA
ATOM      9  O   UNL     1     134.844 124.019 111.239  1.00  0.00    -0.545 OA
ENDBRANCH   1   7
BRANCH   2  10
ATOM     10  O   UNL     1     132.266 124.069 109.740  1.00  0.00    -0.507 OA
ATOM     11  H   UNL     1     131.936 123.115 109.777  1.00  0.00     0.293 HD
ENDBRANCH   2  10
TORSDOF 2
ENDMDL
MODEL 8
REMARK VINA RESULT:    -2.130     10.414     11.406
REMARK INTER + INTRA:          -2.561
REMARK INTER:                  -2.321
REMARK INTRA:                  -0.240
REMARK UNBOUND:                -0.244
REMARK SMILES O=C([O-])c1ccccc1O
REMARK SMILES IDX 4 1 9 2 5 3 8 4 6 5 7 6 2 7 1 8 3 9 10 10
REMARK H PARENT 10 11
REMARK Flexibility Score: inf
ROOT
ATOM      1  C   UNL     1     135.371 131.641  97.859  1.00  0.00     0.039 A 
ATOM      2  C   UNL     1     134.289 130.812  98.253  1.00  0.00     0.124 A 
ATOM      3  C   UNL     1     136.021 131.378  96.639  1.00  0.00     0.014 A 
ATOM      4  C   UNL     1     133.931 129.715  97.458  1.00  0.00     0.047 A 
ATOM      5  C   UNL     1     135.638 130.294  95.847  1.00  0.00     0.001 A 
ATOM      6  C   UNL     1     134.602 129.458  96.260  1.00  0.00     0.004 A 
ENDROOT
BRANCH   1   7
ATOM      7  C   UNL     1     135.866 132.752  98.702  1.00  0.00     0.075 C 
ATOM      8  O   UNL     1     136.122 133.872  98.185  1.00  0.00    -0.545 OA
ATOM      9  O   UNL     1     136.123 132.559 100.054  1.00  0.00    -0.545 OA
ENDBRANCH   1   7
BRANCH   2  10
ATOM     10  O   UNL     1     133.529 131.061  99.398  1.00  0.00    -0.507 OA
ATOM     11  H   UNL     1     133.795 130.749 100.321  1.00  0.00     0.293 HD
ENDBRANCH   2  10
TORSDOF 2
ENDMDL
