MODEL 1
REMARK VINA RESULT:    -3.673      0.000      0.000
REMARK INTER + INTRA:          -5.339
REMARK INTER:                  -4.962
REMARK INTRA:                  -0.378
REMARK UNBOUND:                -0.378
REMARK SMILES CCCCCCCC(=O)[O-]
REMARK SMILES IDX 5 1 6 2 7 3 8 4 9 5 10 6 4 7 3 8 2 9 1 10
REMARK H PARENT
REMARK Flexibility Score: inf
ROOT
ATOM      1  C   UNL     1      43.507  28.549   1.870  1.00  0.00     0.000 C 
ENDROOT
BRANCH   1   2
ATOM      2  C   UNL     1      42.723  27.618   0.937  1.00  0.00     0.006 C 
BRANCH   2   3
ATOM      3  C   UNL     1      43.040  27.918  -0.532  1.00  0.00     0.053 C 
BRANCH   3   4
ATOM      4  C   UNL     1      44.119  27.010  -1.030  1.00  0.00     0.041 C 
ATOM      5  O   UNL     1      45.329  27.333  -0.899  1.00  0.00    -0.550 OA
ATOM      6  O   UNL     1      43.791  25.784  -1.596  1.00  0.00    -0.550 OA
ENDBRANCH   3   4
ENDBRANCH   2   3
ENDBRANCH   1   2
BRANCH   1   7
ATOM      7  C   UNL     1      44.625  27.785   2.596  1.00  0.00     0.000 C 
BRANCH   7   8
ATOM      8  C   UNL     1      44.398  26.263   2.612  1.00  0.00    -0.000 C 
BRANCH   8   9
ATOM      9  C   UNL     1      45.470  25.458   3.369  1.00  0.00    -0.003 C 
ATOM     10  C   UNL     1      45.824  26.061   4.727  1.00  0.00     0.004 C 
ENDBRANCH   8   9
ENDBRANCH   7   8
ENDBRANCH   1   7
TORSDOF 6
ENDMDL
MODEL 2
REMARK VINA RESULT:    -3.654      0.929      1.300
REMARK INTER + INTRA:          -5.313
REMARK INTER:                  -5.004
REMARK INTRA:                  -0.310
REMARK UNBOUND:                -0.378
REMARK SMILES CCCCCCCC(=O)[O-]
REMARK SMILES IDX 5 1 6 2 7 3 8 4 9 5 10 6 4 7 3 8 2 9 1 10
REMARK H PARENT
REMARK Flexibility Score: inf
ROOT
ATOM      1  C   UNL     1      42.286  27.821   0.664  1.00  0.00     0.000 C 
ENDROOT
BRANCH   1   2
ATOM      2  C   UNL     1      43.233  28.672  -0.190  1.00  0.00     0.006 C 
BRANCH   2   3
ATOM      3  C   UNL     1      43.288  28.156  -1.632  1.00  0.00     0.053 C 
BRANCH   3   4
ATOM      4  C   UNL     1      44.247  27.014  -1.742  1.00  0.00     0.041 C 
ATOM      5  O   UNL     1      45.483  27.231  -1.831  1.00  0.00    -0.550 OA
ATOM      6  O   UNL     1      43.779  25.706  -1.700  1.00  0.00    -0.550 OA
ENDBRANCH   3   4
ENDBRANCH   2   3
ENDBRANCH   1   2
BRANCH   1   7
ATOM      7  C   UNL     1      42.919  27.491   2.024  1.00  0.00     0.000 C 
BRANCH   7   8
ATOM      8  C   UNL     1      44.294  26.811   1.896  1.00  0.00    -0.000 C 
BRANCH   8   9
ATOM      9  C   UNL     1      45.076  26.680   3.215  1.00  0.00    -0.003 C 
ATOM     10  C   UNL     1      45.371  25.230   3.594  1.00  0.00     0.004 C 
ENDBRANCH   8   9
ENDBRANCH   7   8
ENDBRANCH   1   7
TORSDOF 6
ENDMDL
MODEL 3
REMARK VINA RESULT:    -3.481      2.238      3.649
REMARK INTER + INTRA:          -5.080
REMARK INTER:                  -4.813
REMARK INTRA:                  -0.267
REMARK UNBOUND:                -0.378
REMARK SMILES CCCCCCCC(=O)[O-]
REMARK SMILES IDX 5 1 6 2 7 3 8 4 9 5 10 6 4 7 3 8 2 9 1 10
REMARK H PARENT
REMARK Flexibility Score: inf
ROOT
ATOM      1  C   UNL     1      45.805  25.852   4.603  1.00  0.00     0.000 C 
ENDROOT
BRANCH   1   2
ATOM      2  C   UNL     1      45.055  25.731   3.271  1.00  0.00     0.006 C 
BRANCH   2   3
ATOM      3  C   UNL     1      44.789  27.111   2.662  1.00  0.00     0.053 C 
BRANCH   3   4
ATOM      4  C   UNL     1      43.851  27.000   1.503  1.00  0.00     0.041 C 
ATOM      5  O   UNL     1      42.663  27.404   1.609  1.00  0.00    -0.550 OA
ATOM      6  O   UNL     1      44.301  26.496   0.289  1.00  0.00    -0.550 OA
ENDBRANCH   3   4
ENDBRANCH   2   3
ENDBRANCH   1   2
BRANCH   1   7
ATOM      7  C   UNL     1      45.973  27.324   5.008  1.00  0.00     0.000 C 
BRANCH   7   8
ATOM      8  C   UNL     1      45.952  27.532   6.533  1.00  0.00    -0.000 C 
BRANCH   8   9
ATOM      9  C   UNL     1      45.868  26.237   7.362  1.00  0.00    -0.003 C 
ATOM     10  C   UNL     1      45.255  26.450   8.744  1.00  0.00     0.004 C 
ENDBRANCH   8   9
ENDBRANCH   7   8
ENDBRANCH   1   7
TORSDOF 6
ENDMDL
MODEL 4
REMARK VINA RESULT:    -3.355      2.390      4.746
REMARK INTER + INTRA:          -4.910
REMARK INTER:                  -4.624
REMARK INTRA:                  -0.286
REMARK UNBOUND:                -0.378
REMARK SMILES CCCCCCCC(=O)[O-]
REMARK SMILES IDX 5 1 6 2 7 3 8 4 9 5 10 6 4 7 3 8 2 9 1 10
REMARK H PARENT
REMARK Flexibility Score: inf
ROOT
ATOM      1  C   UNL     1      43.103  27.436   1.950  1.00  0.00     0.000 C 
ENDROOT
BRANCH   1   2
ATOM      2  C   UNL     1      44.528  26.871   1.908  1.00  0.00     0.006 C 
BRANCH   2   3
ATOM      3  C   UNL     1      44.829  26.043   3.161  1.00  0.00     0.053 C 
BRANCH   3   4
ATOM      4  C   UNL     1      46.250  25.577   3.152  1.00  0.00     0.041 C 
ATOM      5  O   UNL     1      46.889  25.515   2.069  1.00  0.00    -0.550 OA
ATOM      6  O   UNL     1      46.885  25.257   4.346  1.00  0.00    -0.550 OA
ENDBRANCH   3   4
ENDBRANCH   2   3
ENDBRANCH   1   2
BRANCH   1   7
ATOM      7  C   UNL     1      42.477  27.456   0.548  1.00  0.00     0.000 C 
BRANCH   7   8
ATOM      8  C   UNL     1      43.389  26.834  -0.525  1.00  0.00    -0.000 C 
BRANCH   8   9
ATOM      9  C   UNL     1      43.751  27.772  -1.690  1.00  0.00    -0.003 C 
ATOM     10  C   UNL     1      42.765  28.927  -1.856  1.00  0.00     0.004 C 
ENDBRANCH   8   9
ENDBRANCH   7   8
ENDBRANCH   1   7
TORSDOF 6
ENDMDL
MODEL 5
REMARK VINA RESULT:    -3.355      1.760      3.199
REMARK INTER + INTRA:          -4.910
REMARK INTER:                  -4.355
REMARK INTRA:                  -0.555
REMARK UNBOUND:                -0.378
REMARK SMILES CCCCCCCC(=O)[O-]
REMARK SMILES IDX 5 1 6 2 7 3 8 4 9 5 10 6 4 7 3 8 2 9 1 10
REMARK H PARENT
REMARK Flexibility Score: inf
ROOT
ATOM      1  C   UNL     1      43.267  29.793  -1.240  1.00  0.00     0.000 C 
ENDROOT
BRANCH   1   2
ATOM      2  C   UNL     1      42.758  28.747  -2.239  1.00  0.00     0.006 C 
BRANCH   2   3
ATOM      3  C   UNL     1      43.918  27.937  -2.826  1.00  0.00     0.053 C 
BRANCH   3   4
ATOM      4  C   UNL     1      44.480  27.007  -1.799  1.00  0.00     0.041 C 
ATOM      5  O   UNL     1      43.845  25.972  -1.467  1.00  0.00    -0.550 OA
ATOM      6  O   UNL     1      45.728  27.258  -1.242  1.00  0.00    -0.550 OA
ENDBRANCH   3   4
ENDBRANCH   2   3
ENDBRANCH   1   2
BRANCH   1   7
ATOM      7  C   UNL     1      42.290  29.953  -0.065  1.00  0.00     0.000 C 
BRANCH   7   8
ATOM      8  C   UNL     1      42.809  29.313   1.236  1.00  0.00    -0.000 C 
BRANCH   8   9
ATOM      9  C   UNL     1      42.511  27.810   1.381  1.00  0.00    -0.003 C 
ATOM     10  C   UNL     1      43.700  27.013   1.912  1.00  0.00     0.004 C 
ENDBRANCH   8   9
ENDBRANCH   7   8
ENDBRANCH   1   7
TORSDOF 6
ENDMDL
MODEL 6
REMARK VINA RESULT:    -3.311      2.704      3.801
REMARK INTER + INTRA:          -4.850
REMARK INTER:                  -4.557
REMARK INTRA:                  -0.293
REMARK UNBOUND:                -0.378
REMARK SMILES CCCCCCCC(=O)[O-]
REMARK SMILES IDX 5 1 6 2 7 3 8 4 9 5 10 6 4 7 3 8 2 9 1 10
REMARK H PARENT
REMARK Flexibility Score: inf
ROOT
ATOM      1  C   UNL     1      44.130  28.525  -1.647  1.00  0.00     0.000 C 
ENDROOT
BRANCH   1   2
ATOM      2  C   UNL     1      42.779  28.678  -2.356  1.00  0.00     0.006 C 
BRANCH   2   3
ATOM      3  C   UNL     1      42.970  29.051  -3.830  1.00  0.00     0.053 C 
BRANCH   3   4
ATOM      4  C   UNL     1      42.600  27.902  -4.713  1.00  0.00     0.041 C 
ATOM      5  O   UNL     1      41.679  28.028  -5.562  1.00  0.00    -0.550 OA
ATOM      6  O   UNL     1      43.303  26.707  -4.631  1.00  0.00    -0.550 OA
ENDBRANCH   3   4
ENDBRANCH   2   3
ENDBRANCH   1   2
BRANCH   1   7
ATOM      7  C   UNL     1      44.173  27.232  -0.818  1.00  0.00     0.000 C 
BRANCH   7   8
ATOM      8  C   UNL     1      42.889  27.002  -0.001  1.00  0.00    -0.000 C 
BRANCH   8   9
ATOM      9  C   UNL     1      42.980  27.421   1.478  1.00  0.00    -0.003 C 
ATOM     10  C   UNL     1      44.125  26.738   2.223  1.00  0.00     0.004 C 
ENDBRANCH   8   9
ENDBRANCH   7   8
ENDBRANCH   1   7
TORSDOF 6
ENDMDL
MODEL 7
REMARK VINA RESULT:    -3.297      1.858      4.401
REMARK INTER + INTRA:          -4.831
REMARK INTER:                  -4.357
REMARK INTRA:                  -0.474
REMARK UNBOUND:                -0.378
REMARK SMILES CCCCCCCC(=O)[O-]
REMARK SMILES IDX 5 1 6 2 7 3 8 4 9 5 10 6 4 7 3 8 2 9 1 10
REMARK H PARENT
REMARK Flexibility Score: inf
ROOT
ATOM      1  C   UNL     1      42.584  27.306   0.178  1.00  0.00     0.000 C 
ENDROOT
BRANCH   1   2
ATOM      2  C   UNL     1      42.646  27.631   1.676  1.00  0.00     0.006 C 
BRANCH   2   3
ATOM      3  C   UNL     1      44.083  27.925   2.116  1.00  0.00     0.053 C 
BRANCH   3   4
ATOM      4  C   UNL     1      44.953  26.729   1.899  1.00  0.00     0.041 C 
ATOM      5  O   UNL     1      45.854  26.752   1.021  1.00  0.00    -0.550 OA
ATOM      6  O   UNL     1      44.800  25.603   2.699  1.00  0.00    -0.550 OA
ENDBRANCH   3   4
ENDBRANCH   2   3
ENDBRANCH   1   2
BRANCH   1   7
ATOM      7  C   UNL     1      42.865  28.556  -0.668  1.00  0.00     0.000 C 
BRANCH   7   8
ATOM      8  C   UNL     1      44.078  28.388  -1.602  1.00  0.00    -0.000 C 
BRANCH   8   9
ATOM      9  C   UNL     1      44.245  26.978  -2.196  1.00  0.00    -0.003 C 
ATOM     10  C   UNL     1      43.950  26.921  -3.694  1.00  0.00     0.004 C 
ENDBRANCH   8   9
ENDBRANCH   7   8
ENDBRANCH   1   7
TORSDOF 6
ENDMDL
MODEL 8
REMARK VINA RESULT:    -3.126      1.654      2.475
REMARK INTER + INTRA:          -4.600
REMARK INTER:                  -4.310
REMARK INTRA:                  -0.290
REMARK UNBOUND:                -0.378
REMARK SMILES CCCCCCCC(=O)[O-]
REMARK SMILES IDX 5 1 6 2 7 3 8 4 9 5 10 6 4 7 3 8 2 9 1 10
REMARK H PARENT
REMARK Flexibility Score: inf
ROOT
ATOM      1  C   UNL     1      42.856  28.636  -0.421  1.00  0.00     0.000 C 
ENDROOT
BRANCH   1   2
ATOM      2  C   UNL     1      43.254  28.266  -1.855  1.00  0.00     0.006 C 
BRANCH   2   3
ATOM      3  C   UNL     1      44.125  27.006  -1.876  1.00  0.00     0.053 C 
BRANCH   3   4
ATOM      4  C   UNL     1      45.195  27.126  -2.914  1.00  0.00     0.041 C 
ATOM      5  O   UNL     1      46.401  26.935  -2.605  1.00  0.00    -0.550 OA
ATOM      6  O   UNL     1      44.857  27.402  -4.233  1.00  0.00    -0.550 OA
ENDBRANCH   3   4
ENDBRANCH   2   3
ENDBRANCH   1   2
BRANCH   1   7
ATOM      7  C   UNL     1      42.520  27.381   0.398  1.00  0.00     0.000 C 
BRANCH   7   8
ATOM      8  C   UNL     1      42.927  27.505   1.877  1.00  0.00    -0.000 C 
BRANCH   8   9
ATOM      9  C   UNL     1      44.163  26.679   2.279  1.00  0.00    -0.003 C 
ATOM     10  C   UNL     1      45.244  27.514   2.963  1.00  0.00     0.004 C 
ENDBRANCH   8   9
ENDBRANCH   7   8
ENDBRANCH   1   7
TORSDOF 6
ENDMDL
MODEL 9
REMARK VINA RESULT:    -3.096      3.236      5.651
REMARK INTER + INTRA:          -4.559
REMARK INTER:                  -3.908
REMARK INTRA:                  -0.651
REMARK UNBOUND:                -0.378
REMARK SMILES CCCCCCCC(=O)[O-]
REMARK SMILES IDX 5 1 6 2 7 3 8 4 9 5 10 6 4 7 3 8 2 9 1 10
REMARK H PARENT
REMARK Flexibility Score: inf
ROOT
ATOM      1  C   UNL     1      42.997  29.030  -3.579  1.00  0.00     0.000 C 
ENDROOT
BRANCH   1   2
ATOM      2  C   UNL     1      42.768  28.634  -2.116  1.00  0.00     0.006 C 
BRANCH   2   3
ATOM      3  C   UNL     1      44.098  28.485  -1.371  1.00  0.00     0.053 C 
BRANCH   3   4
ATOM      4  C   UNL     1      44.286  27.074  -0.912  1.00  0.00     0.041 C 
ATOM      5  O   UNL     1      44.618  26.835   0.279  1.00  0.00    -0.550 OA
ATOM      6  O   UNL     1      44.049  26.021  -1.786  1.00  0.00    -0.550 OA
ENDBRANCH   3   4
ENDBRANCH   2   3
ENDBRANCH   1   2
BRANCH   1   7
ATOM      7  C   UNL     1      42.636  27.874  -4.525  1.00  0.00     0.000 C 
BRANCH   7   8
ATOM      8  C   UNL     1      43.873  27.153  -5.089  1.00  0.00    -0.000 C 
BRANCH   8   9
ATOM      9  C   UNL     1      45.198  27.920  -4.930  1.00  0.00    -0.003 C 
ATOM     10  C   UNL     1      46.330  27.052  -4.384  1.00  0.00     0.004 C 
ENDBRANCH   8   9
ENDBRANCH   7   8
ENDBRANCH   1   7
TORSDOF 6
ENDMDL
