MODEL 1
REMARK VINA RESULT:    -2.287      0.000      0.000
REMARK INTER + INTRA:          -2.519
REMARK INTER:                  -2.421
REMARK INTRA:                  -0.098
REMARK UNBOUND:                -0.098
REMARK SMILES C=C(C)[C@@H]1CC=C(C)C(=O)C1
REMARK SMILES IDX 8 1 7 2 6 3 5 4 4 5 11 6 9 7 10 8 2 9 1 10 3 11
REMARK H PARENT
REMARK Flexibility Score: inf
ROOT
ATOM      1  C   UNL     1      30.420  21.877  27.995  1.00  0.00     0.048 C 
ATOM      2  C   UNL     1      31.803  22.470  27.974  1.00  0.00    -0.012 C 
ATOM      3  C   UNL     1      32.658  22.156  26.985  1.00  0.00    -0.019 C 
ATOM      4  C   UNL     1      34.021  22.785  26.877  1.00  0.00     0.036 C 
ATOM      5  C   UNL     1      34.578  23.148  28.267  1.00  0.00     0.025 C 
ATOM      6  C   UNL     1      33.581  24.042  29.026  1.00  0.00     0.089 C 
ATOM      7  C   UNL     1      32.211  23.421  29.037  1.00  0.00     0.158 C 
ATOM      8  O   UNL     1      31.394  23.752  29.938  1.00  0.00    -0.295 OA
ENDROOT
BRANCH   5   9
ATOM      9  C   UNL     1      35.948  23.804  28.165  1.00  0.00    -0.077 C 
ATOM     10  C   UNL     1      36.454  24.125  26.964  1.00  0.00     0.008 C 
ATOM     11  C   UNL     1      36.767  24.107  29.395  1.00  0.00     0.039 C 
ENDBRANCH   5   9
TORSDOF 1
ENDMDL
MODEL 2
REMARK VINA RESULT:    -1.783      1.944      4.744
REMARK INTER + INTRA:          -1.986
REMARK INTER:                  -1.888
REMARK INTRA:                  -0.098
REMARK UNBOUND:                -0.098
REMARK SMILES C=C(C)[C@@H]1CC=C(C)C(=O)C1
REMARK SMILES IDX 8 1 7 2 6 3 5 4 4 5 11 6 9 7 10 8 2 9 1 10 3 11
REMARK H PARENT
REMARK Flexibility Score: inf
ROOT
ATOM      1  C   UNL     1      36.785  23.975  29.310  1.00  0.00     0.048 C 
ATOM      2  C   UNL     1      35.359  23.701  28.917  1.00  0.00    -0.012 C 
ATOM      3  C   UNL     1      34.350  24.124  29.697  1.00  0.00    -0.019 C 
ATOM      4  C   UNL     1      32.907  23.944  29.306  1.00  0.00     0.036 C 
ATOM      5  C   UNL     1      32.717  22.678  28.448  1.00  0.00     0.025 C 
ATOM      6  C   UNL     1      33.653  22.713  27.227  1.00  0.00     0.089 C 
ATOM      7  C   UNL     1      35.072  22.981  27.652  1.00  0.00     0.158 C 
ATOM      8  O   UNL     1      36.016  22.627  26.896  1.00  0.00    -0.295 OA
ENDROOT
BRANCH   5   9
ATOM      9  C   UNL     1      31.264  22.500  28.031  1.00  0.00    -0.077 C 
ATOM     10  C   UNL     1      30.304  23.251  28.594  1.00  0.00     0.008 C 
ATOM     11  C   UNL     1      30.865  21.486  26.987  1.00  0.00     0.039 C 
ENDBRANCH   5   9
TORSDOF 1
ENDMDL
