MODEL 1
REMARK VINA RESULT:    -3.012      0.000      0.000
REMARK INTER + INTRA:          -3.880
REMARK INTER:                  -3.717
REMARK INTRA:                  -0.163
REMARK UNBOUND:                -0.163
REMARK SMILES CCCCCC(=O)[O-]
REMARK SMILES IDX 4 1 5 2 6 3 7 4 8 5 3 6 2 7 1 8
REMARK H PARENT
REMARK Flexibility Score: inf
ROOT
ATOM      1  C   UNL     1     -21.945   0.706   2.545  1.00  0.00     0.006 C 
ENDROOT
BRANCH   1   2
ATOM      2  C   UNL     1     -20.885   0.166   1.571  1.00  0.00     0.053 C 
BRANCH   2   3
ATOM      3  C   UNL     1     -20.215   1.265   0.806  1.00  0.00     0.041 C 
ATOM      4  O   UNL     1     -18.978   1.462   0.930  1.00  0.00    -0.550 OA
ATOM      5  O   UNL     1     -20.965   2.094  -0.021  1.00  0.00    -0.550 OA
ENDBRANCH   2   3
ENDBRANCH   1   2
BRANCH   1   6
ATOM      6  C   UNL     1     -23.379   0.705   1.983  1.00  0.00     0.000 C 
BRANCH   6   7
ATOM      7  C   UNL     1     -24.224   1.872   2.513  1.00  0.00    -0.003 C 
ATOM      8  C   UNL     1     -23.415   3.165   2.547  1.00  0.00     0.004 C 
ENDBRANCH   6   7
ENDBRANCH   1   6
TORSDOF 4
ENDMDL
MODEL 2
REMARK VINA RESULT:    -2.887      1.193      1.690
REMARK INTER + INTRA:          -3.725
REMARK INTER:                  -3.584
REMARK INTRA:                  -0.141
REMARK UNBOUND:                -0.163
REMARK SMILES CCCCCC(=O)[O-]
REMARK SMILES IDX 4 1 5 2 6 3 7 4 8 5 3 6 2 7 1 8
REMARK H PARENT
REMARK Flexibility Score: inf
ROOT
ATOM      1  C   UNL     1     -23.282   0.941   2.477  1.00  0.00     0.006 C 
ENDROOT
BRANCH   1   2
ATOM      2  C   UNL     1     -21.965   0.150   2.527  1.00  0.00     0.053 C 
BRANCH   2   3
ATOM      3  C   UNL     1     -21.170   0.306   1.268  1.00  0.00     0.041 C 
ATOM      4  O   UNL     1     -20.005   0.780   1.308  1.00  0.00    -0.550 OA
ATOM      5  O   UNL     1     -21.730  -0.042   0.044  1.00  0.00    -0.550 OA
ENDBRANCH   2   3
ENDBRANCH   1   2
BRANCH   1   6
ATOM      6  C   UNL     1     -23.111   2.433   2.135  1.00  0.00     0.000 C 
BRANCH   6   7
ATOM      7  C   UNL     1     -24.107   3.331   2.882  1.00  0.00    -0.003 C 
ATOM      8  C   UNL     1     -25.397   2.578   3.197  1.00  0.00     0.004 C 
ENDBRANCH   6   7
ENDBRANCH   1   6
TORSDOF 4
ENDMDL
MODEL 3
REMARK VINA RESULT:    -2.850     14.620     16.010
REMARK INTER + INTRA:          -3.679
REMARK INTER:                  -3.509
REMARK INTRA:                  -0.170
REMARK UNBOUND:                -0.163
REMARK SMILES CCCCCC(=O)[O-]
REMARK SMILES IDX 4 1 5 2 6 3 7 4 8 5 3 6 2 7 1 8
REMARK H PARENT
REMARK Flexibility Score: inf
ROOT
ATOM      1  C   UNL     1     -12.567 -11.147   2.883  1.00  0.00     0.006 C 
ENDROOT
BRANCH   1   2
ATOM      2  C   UNL     1     -12.386 -12.607   3.328  1.00  0.00     0.053 C 
BRANCH   2   3
ATOM      3  C   UNL     1     -12.403 -12.746   4.818  1.00  0.00     0.041 C 
ATOM      4  O   UNL     1     -13.449 -13.124   5.408  1.00  0.00    -0.550 OA
ATOM      5  O   UNL     1     -11.272 -12.425   5.560  1.00  0.00    -0.550 OA
ENDBRANCH   2   3
ENDBRANCH   1   2
BRANCH   1   6
ATOM      6  C   UNL     1     -13.759 -10.917   1.935  1.00  0.00     0.000 C 
BRANCH   6   7
ATOM      7  C   UNL     1     -14.829  -9.997   2.539  1.00  0.00    -0.003 C 
ATOM      8  C   UNL     1     -15.701 -10.751   3.538  1.00  0.00     0.004 C 
ENDBRANCH   6   7
ENDBRANCH   1   6
TORSDOF 4
ENDMDL
MODEL 4
REMARK VINA RESULT:    -2.814     14.109     15.707
REMARK INTER + INTRA:          -3.635
REMARK INTER:                  -3.494
REMARK INTRA:                  -0.141
REMARK UNBOUND:                -0.163
REMARK SMILES CCCCCC(=O)[O-]
REMARK SMILES IDX 4 1 5 2 6 3 7 4 8 5 3 6 2 7 1 8
REMARK H PARENT
REMARK Flexibility Score: inf
ROOT
ATOM      1  C   UNL     1     -14.477 -12.706   3.611  1.00  0.00     0.006 C 
ENDROOT
BRANCH   1   2
ATOM      2  C   UNL     1     -15.309 -11.414   3.584  1.00  0.00     0.053 C 
BRANCH   2   3
ATOM      3  C   UNL     1     -14.706 -10.379   2.685  1.00  0.00     0.041 C 
ATOM      4  O   UNL     1     -13.659 -10.634   2.036  1.00  0.00    -0.550 OA
ATOM      5  O   UNL     1     -15.285  -9.119   2.590  1.00  0.00    -0.550 OA
ENDBRANCH   2   3
ENDBRANCH   1   2
BRANCH   1   6
ATOM      6  C   UNL     1     -13.565 -12.846   4.844  1.00  0.00     0.000 C 
BRANCH   6   7
ATOM      7  C   UNL     1     -12.079 -12.657   4.508  1.00  0.00    -0.003 C 
ATOM      8  C   UNL     1     -11.234 -12.582   5.776  1.00  0.00     0.004 C 
ENDBRANCH   6   7
ENDBRANCH   1   6
TORSDOF 4
ENDMDL
MODEL 5
REMARK VINA RESULT:    -2.794      2.007      3.732
REMARK INTER + INTRA:          -3.610
REMARK INTER:                  -3.411
REMARK INTRA:                  -0.199
REMARK UNBOUND:                -0.163
REMARK SMILES CCCCCC(=O)[O-]
REMARK SMILES IDX 4 1 5 2 6 3 7 4 8 5 3 6 2 7 1 8
REMARK H PARENT
REMARK Flexibility Score: inf
ROOT
ATOM      1  C   UNL     1     -23.424   0.877   1.777  1.00  0.00     0.006 C 
ENDROOT
BRANCH   1   2
ATOM      2  C   UNL     1     -24.221   1.992   2.473  1.00  0.00     0.053 C 
BRANCH   2   3
ATOM      3  C   UNL     1     -23.487   3.297   2.459  1.00  0.00     0.041 C 
ATOM      4  O   UNL     1     -22.848   3.655   1.436  1.00  0.00    -0.550 OA
ATOM      5  O   UNL     1     -23.483   4.104   3.591  1.00  0.00    -0.550 OA
ENDBRANCH   2   3
ENDBRANCH   1   2
BRANCH   1   6
ATOM      6  C   UNL     1     -22.254   0.321   2.610  1.00  0.00     0.000 C 
BRANCH   6   7
ATOM      7  C   UNL     1     -21.081  -0.155   1.742  1.00  0.00    -0.003 C 
ATOM      8  C   UNL     1     -20.410   1.018   1.034  1.00  0.00     0.004 C 
ENDBRANCH   6   7
ENDBRANCH   1   6
TORSDOF 4
ENDMDL
MODEL 6
REMARK VINA RESULT:    -2.767     16.869     17.577
REMARK INTER + INTRA:          -3.577
REMARK INTER:                  -3.395
REMARK INTRA:                  -0.181
REMARK UNBOUND:                -0.163
REMARK SMILES CCCCCC(=O)[O-]
REMARK SMILES IDX 4 1 5 2 6 3 7 4 8 5 3 6 2 7 1 8
REMARK H PARENT
REMARK Flexibility Score: inf
ROOT
ATOM      1  C   UNL     1     -19.249   6.866  17.492  1.00  0.00     0.006 C 
ENDROOT
BRANCH   1   2
ATOM      2  C   UNL     1     -17.947   6.183  17.940  1.00  0.00     0.053 C 
BRANCH   2   3
ATOM      3  C   UNL     1     -18.115   5.454  19.237  1.00  0.00     0.041 C 
ATOM      4  O   UNL     1     -19.063   5.745  20.011  1.00  0.00    -0.550 OA
ATOM      5  O   UNL     1     -17.201   4.474  19.606  1.00  0.00    -0.550 OA
ENDBRANCH   2   3
ENDBRANCH   1   2
BRANCH   1   6
ATOM      6  C   UNL     1     -20.159   5.983  16.618  1.00  0.00     0.000 C 
BRANCH   6   7
ATOM      7  C   UNL     1     -21.645   6.341  16.756  1.00  0.00    -0.003 C 
ATOM      8  C   UNL     1     -22.008   6.629  18.210  1.00  0.00     0.004 C 
ENDBRANCH   6   7
ENDBRANCH   1   6
TORSDOF 4
ENDMDL
MODEL 7
REMARK VINA RESULT:    -2.723     13.855     15.269
REMARK INTER + INTRA:          -3.523
REMARK INTER:                  -3.333
REMARK INTRA:                  -0.190
REMARK UNBOUND:                -0.163
REMARK SMILES CCCCCC(=O)[O-]
REMARK SMILES IDX 4 1 5 2 6 3 7 4 8 5 3 6 2 7 1 8
REMARK H PARENT
REMARK Flexibility Score: inf
ROOT
ATOM      1  C   UNL     1     -13.153 -11.349   2.989  1.00  0.00     0.006 C 
ENDROOT
BRANCH   1   2
ATOM      2  C   UNL     1     -12.390 -12.273   2.027  1.00  0.00     0.053 C 
BRANCH   2   3
ATOM      3  C   UNL     1     -12.515 -11.826   0.603  1.00  0.00     0.041 C 
ATOM      4  O   UNL     1     -13.645 -11.778   0.050  1.00  0.00    -0.550 OA
ATOM      5  O   UNL     1     -11.378 -11.495  -0.124  1.00  0.00    -0.550 OA
ENDBRANCH   2   3
ENDBRANCH   1   2
BRANCH   1   6
ATOM      6  C   UNL     1     -14.538 -11.877   3.408  1.00  0.00     0.000 C 
BRANCH   6   7
ATOM      7  C   UNL     1     -15.599 -10.770   3.477  1.00  0.00    -0.003 C 
ATOM      8  C   UNL     1     -15.219  -9.588   2.590  1.00  0.00     0.004 C 
ENDBRANCH   6   7
ENDBRANCH   1   6
TORSDOF 4
ENDMDL
MODEL 8
REMARK VINA RESULT:    -2.722     14.094     15.481
REMARK INTER + INTRA:          -3.522
REMARK INTER:                  -3.323
REMARK INTRA:                  -0.199
REMARK UNBOUND:                -0.163
REMARK SMILES CCCCCC(=O)[O-]
REMARK SMILES IDX 4 1 5 2 6 3 7 4 8 5 3 6 2 7 1 8
REMARK H PARENT
REMARK Flexibility Score: inf
ROOT
ATOM      1  C   UNL     1     -14.825 -11.881   4.085  1.00  0.00     0.006 C 
ENDROOT
BRANCH   1   2
ATOM      2  C   UNL     1     -13.680 -12.888   4.286  1.00  0.00     0.053 C 
BRANCH   2   3
ATOM      3  C   UNL     1     -12.342 -12.279   4.002  1.00  0.00     0.041 C 
ATOM      4  O   UNL     1     -11.333 -12.626   4.668  1.00  0.00    -0.550 OA
ATOM      5  O   UNL     1     -12.217 -11.302   3.021  1.00  0.00    -0.550 OA
ENDBRANCH   2   3
ENDBRANCH   1   2
BRANCH   1   6
ATOM      6  C   UNL     1     -15.655 -12.113   2.808  1.00  0.00     0.000 C 
BRANCH   6   7
ATOM      7  C   UNL     1     -15.928 -10.816   2.034  1.00  0.00    -0.003 C 
ATOM      8  C   UNL     1     -15.278  -9.619   2.721  1.00  0.00     0.004 C 
ENDBRANCH   6   7
ENDBRANCH   1   6
TORSDOF 4
ENDMDL
MODEL 9
REMARK VINA RESULT:    -2.686     14.023     14.563
REMARK INTER + INTRA:          -3.476
REMARK INTER:                  -3.303
REMARK INTRA:                  -0.173
REMARK UNBOUND:                -0.163
REMARK SMILES CCCCCC(=O)[O-]
REMARK SMILES IDX 4 1 5 2 6 3 7 4 8 5 3 6 2 7 1 8
REMARK H PARENT
REMARK Flexibility Score: inf
ROOT
ATOM      1  C   UNL     1     -15.632 -10.821   3.567  1.00  0.00     0.006 C 
ENDROOT
BRANCH   1   2
ATOM      2  C   UNL     1     -14.791 -10.068   2.523  1.00  0.00     0.053 C 
BRANCH   2   3
ATOM      3  C   UNL     1     -13.589 -10.853   2.100  1.00  0.00     0.041 C 
ATOM      4  O   UNL     1     -12.639 -11.042   2.904  1.00  0.00    -0.550 OA
ATOM      5  O   UNL     1     -13.502 -11.349   0.804  1.00  0.00    -0.550 OA
ENDBRANCH   2   3
ENDBRANCH   1   2
BRANCH   1   6
ATOM      6  C   UNL     1     -16.003 -12.260   3.162  1.00  0.00     0.000 C 
BRANCH   6   7
ATOM      7  C   UNL     1     -17.146 -12.313   2.138  1.00  0.00    -0.003 C 
ATOM      8  C   UNL     1     -18.472 -12.653   2.813  1.00  0.00     0.004 C 
ENDBRANCH   6   7
ENDBRANCH   1   6
TORSDOF 4
ENDMDL
