MODEL 1
REMARK VINA RESULT:    15.941      0.000      0.000
REMARK INTER + INTRA:          23.513
REMARK INTER:                  22.464
REMARK INTRA:                   1.049
REMARK UNBOUND:                 1.049
REMARK SMILES CC1=CCC(=C(C)C)C(=O)CC(C)=CCC1
REMARK SMILES IDX 12 1 14 2 13 3 15 4 16 5 2 6 1 7 3 8 11 10 9 11 10 12 5 13
REMARK SMILES IDX 6 14 7 15 8 16 4 17
REMARK H PARENT
REMARK Flexibility Score: 60.00
ROOT
ATOM      1  C   UNL     1      20.580  16.446 -11.665  1.00  0.00    -0.070 C 
ATOM      2  C   UNL     1      20.538  15.402 -12.523  1.00  0.00    -0.027 C 
ATOM      3  C   UNL     1      21.729  17.415 -11.788  1.00  0.00     0.039 C 
ENDROOT
BRANCH   2   4
ATOM      4  C   UNL     1      19.527  14.277 -12.498  1.00  0.00     0.032 C 
BRANCH   4   5
ATOM      5  C   UNL     1      18.418  14.378 -13.566  1.00  0.00     0.034 C 
BRANCH   5   6
ATOM      6  C   UNL     1      17.192  15.135 -13.084  1.00  0.00    -0.077 C 
ATOM      7  C   UNL     1      15.974  14.329 -12.710  1.00  0.00     0.039 C 
ATOM      8  C   UNL     1      17.099  16.486 -13.033  1.00  0.00    -0.023 CG0
ATOM      9  G   UNL     1      18.193  17.490 -13.341  1.00  0.00     0.000 G0
ENDBRANCH   5   6
ENDBRANCH   4   5
ENDBRANCH   2   4
BRANCH   1  10
ATOM     10  C   UNL     1      19.586  16.634 -10.538  1.00  0.00     0.111 C 
BRANCH  10  11
ATOM     11  C   UNL     1      18.619  17.751 -10.830  1.00  0.00     0.163 C 
ATOM     12  O   UNL     1      17.834  18.112  -9.912  1.00  0.00    -0.294 OA
BRANCH  11  13
ATOM     13  C   UNL     1      18.519  18.394 -12.174  1.00  0.00    -0.002 C 
ATOM     14  C   UNL     1      18.640  19.749 -12.311  1.00  0.00    -0.069 C 
ATOM     15  C   UNL     1      18.388  20.446 -13.631  1.00  0.00     0.039 C 
ATOM     16  C   UNL     1      19.031  20.624 -11.141  1.00  0.00     0.039 C 
BRANCH  13  17
ATOM     17  C   UNL     1      18.188  17.494 -13.353  1.00  0.00     0.066 CG0
ATOM     18  G   UNL     1      17.092  16.497 -13.028  1.00  0.00     0.000 G0
ENDBRANCH  13  17
ENDBRANCH  11  13
ENDBRANCH  10  11
ENDBRANCH   1  10
TORSDOF 0
ENDMDL
MODEL 2
REMARK VINA RESULT:    16.681      1.429      4.561
REMARK INTER + INTRA:          24.556
REMARK INTER:                  22.439
REMARK INTRA:                   2.117
REMARK UNBOUND:                 1.049
REMARK SMILES CC1=CCC(=C(C)C)C(=O)CC(C)=CCC1
REMARK SMILES IDX 12 1 14 2 13 3 15 4 16 5 2 6 1 7 3 8 11 10 9 11 10 12 5 13
REMARK SMILES IDX 6 14 7 15 8 16 4 17
REMARK H PARENT
REMARK Flexibility Score: 60.00
ROOT
ATOM      1  C   UNL     1      18.437  19.930 -12.235  1.00  0.00    -0.070 C 
ATOM      2  C   UNL     1      19.638  20.452 -12.569  1.00  0.00    -0.027 C 
ATOM      3  C   UNL     1      17.273  20.191 -13.158  1.00  0.00     0.039 C 
ENDROOT
BRANCH   2   4
ATOM      4  C   UNL     1      20.896  20.383 -11.730  1.00  0.00     0.032 C 
BRANCH   4   5
ATOM      5  C   UNL     1      21.988  19.441 -12.277  1.00  0.00     0.034 C 
BRANCH   5   6
ATOM      6  C   UNL     1      21.855  18.015 -11.771  1.00  0.00    -0.077 C 
ATOM      7  C   UNL     1      22.940  17.487 -10.868  1.00  0.00     0.039 C 
ATOM      8  C   UNL     1      20.862  17.166 -12.134  1.00  0.00    -0.023 CG0
ATOM      9  G   UNL     1      19.665  17.480 -13.009  1.00  0.00     0.000 G0
ENDBRANCH   5   6
ENDBRANCH   4   5
ENDBRANCH   2   4
BRANCH   1  10
ATOM     10  C   UNL     1      18.187  19.181 -10.942  1.00  0.00     0.111 C 
BRANCH  10  11
ATOM     11  C   UNL     1      17.870  17.730 -11.194  1.00  0.00     0.163 C 
ATOM     12  O   UNL     1      17.216  17.104 -10.315  1.00  0.00    -0.294 OA
BRANCH  11  13
ATOM     13  C   UNL     1      18.353  17.002 -12.405  1.00  0.00    -0.002 C 
ATOM     14  C   UNL     1      17.673  15.917 -12.884  1.00  0.00    -0.069 C 
ATOM     15  C   UNL     1      18.218  15.064 -14.010  1.00  0.00     0.039 C 
ATOM     16  C   UNL     1      16.335  15.511 -12.307  1.00  0.00     0.039 C 
BRANCH  13  17
ATOM     17  C   UNL     1      19.668  17.460 -13.014  1.00  0.00     0.066 CG0
ATOM     18  G   UNL     1      20.856  17.137 -12.130  1.00  0.00     0.000 G0
ENDBRANCH  13  17
ENDBRANCH  11  13
ENDBRANCH  10  11
ENDBRANCH   1  10
TORSDOF 0
ENDMDL
MODEL 3
REMARK VINA RESULT:    16.914      1.653      4.276
REMARK INTER + INTRA:          24.884
REMARK INTER:                  24.340
REMARK INTRA:                   0.544
REMARK UNBOUND:                 1.049
REMARK SMILES CC1=CCC(=C(C)C)C(=O)CC(C)=CCC1
REMARK SMILES IDX 12 1 14 2 13 3 15 4 16 5 2 6 1 7 3 8 11 10 9 11 10 12 5 13
REMARK SMILES IDX 6 14 7 15 8 16 4 17
REMARK H PARENT
REMARK Flexibility Score: 60.00
ROOT
ATOM      1  C   UNL     1      21.888  18.417 -11.813  1.00  0.00    -0.070 C 
ATOM      2  C   UNL     1      21.654  19.742 -11.682  1.00  0.00    -0.027 C 
ATOM      3  C   UNL     1      22.988  17.810 -10.979  1.00  0.00     0.039 C 
ENDROOT
BRANCH   2   4
ATOM      4  C   UNL     1      20.666  20.549 -12.496  1.00  0.00     0.032 C 
BRANCH   4   5
ATOM      5  C   UNL     1      19.287  20.745 -11.833  1.00  0.00     0.034 C 
BRANCH   5   6
ATOM      6  C   UNL     1      18.153  20.101 -12.612  1.00  0.00    -0.077 C 
ATOM      7  C   UNL     1      17.453  20.938 -13.653  1.00  0.00     0.039 C 
ATOM      8  C   UNL     1      17.685  18.849 -12.385  1.00  0.00    -0.023 CG0
ATOM      9  G   UNL     1      18.239  17.828 -11.411  1.00  0.00     0.000 G0
ENDBRANCH   5   6
ENDBRANCH   4   5
ENDBRANCH   2   4
BRANCH   1  10
ATOM     10  C   UNL     1      21.167  17.541 -12.816  1.00  0.00     0.111 C 
BRANCH  10  11
ATOM     11  C   UNL     1      20.307  16.509 -12.135  1.00  0.00     0.163 C 
ATOM     12  O   UNL     1      20.876  15.505 -11.626  1.00  0.00    -0.294 OA
BRANCH  11  13
ATOM     13  C   UNL     1      18.817  16.604 -12.099  1.00  0.00    -0.002 C 
ATOM     14  C   UNL     1      18.043  15.679 -12.743  1.00  0.00    -0.069 C 
ATOM     15  C   UNL     1      16.542  15.833 -12.859  1.00  0.00     0.039 C 
ATOM     16  C   UNL     1      18.653  14.450 -13.379  1.00  0.00     0.039 C 
BRANCH  13  17
ATOM     17  C   UNL     1      18.214  17.812 -11.402  1.00  0.00     0.066 CG0
ATOM     18  G   UNL     1      17.675  18.834 -12.384  1.00  0.00     0.000 G0
ENDBRANCH  13  17
ENDBRANCH  11  13
ENDBRANCH  10  11
ENDBRANCH   1  10
TORSDOF 0
ENDMDL
MODEL 4
REMARK VINA RESULT:    17.015      1.549      3.608
REMARK INTER + INTRA:          25.027
REMARK INTER:                  24.753
REMARK INTRA:                   0.274
REMARK UNBOUND:                 1.049
REMARK SMILES CC1=CCC(=C(C)C)C(=O)CC(C)=CCC1
REMARK SMILES IDX 12 1 14 2 13 3 15 4 16 5 2 6 1 7 3 8 11 10 9 11 10 12 5 13
REMARK SMILES IDX 6 14 7 15 8 16 4 17
REMARK H PARENT
REMARK Flexibility Score: 60.00
ROOT
ATOM      1  C   UNL     1      17.887  15.068 -13.212  1.00  0.00    -0.070 C 
ATOM      2  C   UNL     1      18.946  14.263 -12.968  1.00  0.00    -0.027 C 
ATOM      3  C   UNL     1      16.537  14.421 -13.394  1.00  0.00     0.039 C 
ENDROOT
BRANCH   2   4
ATOM      4  C   UNL     1      20.387  14.710 -12.853  1.00  0.00     0.032 C 
BRANCH   4   5
ATOM      5  C   UNL     1      20.754  15.374 -11.510  1.00  0.00     0.034 C 
BRANCH   5   6
ATOM      6  C   UNL     1      21.537  16.665 -11.677  1.00  0.00    -0.077 C 
ATOM      7  C   UNL     1      22.919  16.575 -12.274  1.00  0.00     0.039 C 
ATOM      8  C   UNL     1      21.103  17.880 -11.262  1.00  0.00    -0.023 CG0
ATOM      9  G   UNL     1      19.754  18.212 -10.657  1.00  0.00     0.000 G0
ENDBRANCH   5   6
ENDBRANCH   4   5
ENDBRANCH   2   4
BRANCH   1  10
ATOM     10  C   UNL     1      18.008  16.566 -13.401  1.00  0.00     0.111 C 
BRANCH  10  11
ATOM     11  C   UNL     1      17.831  17.306 -12.101  1.00  0.00     0.163 C 
ATOM     12  O   UNL     1      16.887  16.955 -11.342  1.00  0.00    -0.294 OA
BRANCH  11  13
ATOM     13  C   UNL     1      18.686  18.467 -11.716  1.00  0.00    -0.002 C 
ATOM     14  C   UNL     1      18.562  19.669 -12.357  1.00  0.00    -0.069 C 
ATOM     15  C   UNL     1      19.518  20.815 -12.101  1.00  0.00     0.039 C 
ATOM     16  C   UNL     1      17.459  19.913 -13.362  1.00  0.00     0.039 C 
BRANCH  13  17
ATOM     17  C   UNL     1      19.751  18.227 -10.659  1.00  0.00     0.066 CG0
ATOM     18  G   UNL     1      21.095  17.870 -11.264  1.00  0.00     0.000 G0
ENDBRANCH  13  17
ENDBRANCH  11  13
ENDBRANCH  10  11
ENDBRANCH   1  10
TORSDOF 0
ENDMDL
MODEL 5
REMARK VINA RESULT:    17.668      1.586      4.827
REMARK INTER + INTRA:          25.947
REMARK INTER:                  23.395
REMARK INTRA:                   2.552
REMARK UNBOUND:                 1.049
REMARK SMILES CC1=CCC(=C(C)C)C(=O)CC(C)=CCC1
REMARK SMILES IDX 12 1 14 2 13 3 15 4 16 5 2 6 1 7 3 8 11 10 9 11 10 12 5 13
REMARK SMILES IDX 6 14 7 15 8 16 4 17
REMARK H PARENT
REMARK Flexibility Score: 60.00
ROOT
ATOM      1  C   UNL     1      18.428  20.003 -12.873  1.00  0.00    -0.070 C 
ATOM      2  C   UNL     1      19.410  20.698 -12.257  1.00  0.00    -0.027 C 
ATOM      3  C   UNL     1      17.033  20.577 -12.842  1.00  0.00     0.039 C 
ENDROOT
BRANCH   2   4
ATOM      4  C   UNL     1      20.845  20.244 -12.096  1.00  0.00     0.032 C 
BRANCH   4   5
ATOM      5  C   UNL     1      21.170  18.881 -12.741  1.00  0.00     0.034 C 
BRANCH   5   6
ATOM      6  C   UNL     1      21.597  17.830 -11.731  1.00  0.00    -0.077 C 
ATOM      7  C   UNL     1      22.483  18.269 -10.593  1.00  0.00     0.039 C 
ATOM      8  C   UNL     1      21.290  16.513 -11.824  1.00  0.00    -0.023 CG0
ATOM      9  G   UNL     1      20.406  15.851 -12.863  1.00  0.00     0.000 G0
ENDBRANCH   5   6
ENDBRANCH   4   5
ENDBRANCH   2   4
BRANCH   1  10
ATOM     10  C   UNL     1      18.642  18.644 -13.507  1.00  0.00     0.111 C 
BRANCH  10  11
ATOM     11  C   UNL     1      18.564  17.538 -12.488  1.00  0.00     0.163 C 
ATOM     12  O   UNL     1      18.217  17.837 -11.312  1.00  0.00    -0.294 OA
BRANCH  11  13
ATOM     13  C   UNL     1      18.940  16.128 -12.804  1.00  0.00    -0.002 C 
ATOM     14  C   UNL     1      17.981  15.162 -12.934  1.00  0.00    -0.069 C 
ATOM     15  C   UNL     1      18.335  13.700 -13.097  1.00  0.00     0.039 C 
ATOM     16  C   UNL     1      16.509  15.510 -12.918  1.00  0.00     0.039 C 
BRANCH  13  17
ATOM     17  C   UNL     1      20.422  15.804 -12.880  1.00  0.00     0.066 CG0
ATOM     18  G   UNL     1      21.226  16.525 -11.816  1.00  0.00     0.000 G0
ENDBRANCH  13  17
ENDBRANCH  11  13
ENDBRANCH  10  11
ENDBRANCH   1  10
TORSDOF 0
ENDMDL
MODEL 6
REMARK VINA RESULT:    18.155      1.694      2.929
REMARK INTER + INTRA:          26.633
REMARK INTER:                  25.956
REMARK INTRA:                   0.676
REMARK UNBOUND:                 1.049
REMARK SMILES CC1=CCC(=C(C)C)C(=O)CC(C)=CCC1
REMARK SMILES IDX 12 1 14 2 13 3 15 4 16 5 2 6 1 7 3 8 11 10 9 11 10 12 5 13
REMARK SMILES IDX 6 14 7 15 8 16 4 17
REMARK H PARENT
REMARK Flexibility Score: 60.00
ROOT
ATOM      1  C   UNL     1      15.880  15.957  -9.974  1.00  0.00    -0.070 C 
ATOM      2  C   UNL     1      15.588  15.079 -10.959  1.00  0.00    -0.027 C 
ATOM      3  C   UNL     1      15.675  15.511  -8.548  1.00  0.00     0.039 C 
ENDROOT
BRANCH   2   4
ATOM      4  C   UNL     1      15.635  15.369 -12.444  1.00  0.00     0.032 C 
BRANCH   4   5
ATOM      5  C   UNL     1      16.456  14.362 -13.275  1.00  0.00     0.034 C 
BRANCH   5   6
ATOM      6  C   UNL     1      17.956  14.549 -13.127  1.00  0.00    -0.077 C 
ATOM      7  C   UNL     1      18.802  13.314 -12.944  1.00  0.00     0.039 C 
ATOM      8  C   UNL     1      18.575  15.754 -13.081  1.00  0.00    -0.023 CG0
ATOM      9  G   UNL     1      17.936  17.117 -13.260  1.00  0.00     0.000 G0
ENDBRANCH   5   6
ENDBRANCH   4   5
ENDBRANCH   2   4
BRANCH   1  10
ATOM     10  C   UNL     1      16.311  17.386 -10.235  1.00  0.00     0.111 C 
BRANCH  10  11
ATOM     11  C   UNL     1      17.733  17.456 -10.725  1.00  0.00     0.163 C 
ATOM     12  O   UNL     1      18.649  17.061  -9.952  1.00  0.00    -0.294 OA
BRANCH  11  13
ATOM     13  C   UNL     1      18.095  18.028 -12.056  1.00  0.00    -0.002 C 
ATOM     14  C   UNL     1      18.461  19.340 -12.177  1.00  0.00    -0.069 C 
ATOM     15  C   UNL     1      18.679  19.989 -13.526  1.00  0.00     0.039 C 
ATOM     16  C   UNL     1      18.662  20.214 -10.959  1.00  0.00     0.039 C 
BRANCH  13  17
ATOM     17  C   UNL     1      17.949  17.120 -13.267  1.00  0.00     0.066 CG0
ATOM     18  G   UNL     1      18.595  15.766 -13.054  1.00  0.00     0.000 G0
ENDBRANCH  13  17
ENDBRANCH  11  13
ENDBRANCH  10  11
ENDBRANCH   1  10
TORSDOF 0
ENDMDL
MODEL 7
REMARK VINA RESULT:    18.598      1.546      3.216
REMARK INTER + INTRA:          27.258
REMARK INTER:                  25.015
REMARK INTRA:                   2.243
REMARK UNBOUND:                 1.049
REMARK SMILES CC1=CCC(=C(C)C)C(=O)CC(C)=CCC1
REMARK SMILES IDX 12 1 14 2 13 3 15 4 16 5 2 6 1 7 3 8 11 10 9 11 10 12 5 13
REMARK SMILES IDX 6 14 7 15 8 16 4 17
REMARK H PARENT
REMARK Flexibility Score: 60.00
ROOT
ATOM      1  C   UNL     1      17.074  15.393 -12.874  1.00  0.00    -0.070 C 
ATOM      2  C   UNL     1      17.668  14.178 -12.895  1.00  0.00    -0.027 C 
ATOM      3  C   UNL     1      15.602  15.452 -12.548  1.00  0.00     0.039 C 
ENDROOT
BRANCH   2   4
ATOM      4  C   UNL     1      19.102  13.904 -13.293  1.00  0.00     0.032 C 
BRANCH   4   5
ATOM      5  C   UNL     1      20.033  15.133 -13.250  1.00  0.00     0.034 C 
BRANCH   5   6
ATOM      6  C   UNL     1      20.652  15.366 -11.883  1.00  0.00    -0.077 C 
ATOM      7  C   UNL     1      20.909  14.161 -11.014  1.00  0.00     0.039 C 
ATOM      8  C   UNL     1      20.925  16.590 -11.367  1.00  0.00    -0.023 CG0
ATOM      9  G   UNL     1      20.768  17.930 -12.058  1.00  0.00     0.000 G0
ENDBRANCH   5   6
ENDBRANCH   4   5
ENDBRANCH   2   4
BRANCH   1  10
ATOM     10  C   UNL     1      17.788  16.674 -13.250  1.00  0.00     0.111 C 
BRANCH  10  11
ATOM     11  C   UNL     1      18.248  17.431 -12.032  1.00  0.00     0.163 C 
ATOM     12  O   UNL     1      17.647  17.226 -10.943  1.00  0.00    -0.294 OA
BRANCH  11  13
ATOM     13  C   UNL     1      19.338  18.451 -12.086  1.00  0.00    -0.002 C 
ATOM     14  C   UNL     1      19.047  19.777 -12.248  1.00  0.00    -0.069 C 
ATOM     15  C   UNL     1      20.129  20.813 -12.464  1.00  0.00     0.039 C 
ATOM     16  C   UNL     1      17.619  20.276 -12.222  1.00  0.00     0.039 C 
BRANCH  13  17
ATOM     17  C   UNL     1      20.769  17.941 -12.048  1.00  0.00     0.066 CG0
ATOM     18  G   UNL     1      20.887  16.603 -11.346  1.00  0.00     0.000 G0
ENDBRANCH  13  17
ENDBRANCH  11  13
ENDBRANCH  10  11
ENDBRANCH   1  10
TORSDOF 0
ENDMDL
MODEL 8
REMARK VINA RESULT:    18.785      1.253      4.018
REMARK INTER + INTRA:          27.521
REMARK INTER:                  26.564
REMARK INTRA:                   0.957
REMARK UNBOUND:                 1.049
REMARK SMILES CC1=CCC(=C(C)C)C(=O)CC(C)=CCC1
REMARK SMILES IDX 12 1 14 2 13 3 15 4 16 5 2 6 1 7 3 8 11 10 9 11 10 12 5 13
REMARK SMILES IDX 6 14 7 15 8 16 4 17
REMARK H PARENT
REMARK Flexibility Score: 60.00
ROOT
ATOM      1  C   UNL     1      20.667  16.988 -11.444  1.00  0.00    -0.070 C 
ATOM      2  C   UNL     1      21.552  17.874 -11.951  1.00  0.00    -0.027 C 
ATOM      3  C   UNL     1      20.813  15.540 -11.841  1.00  0.00     0.039 C 
ENDROOT
BRANCH   2   4
ATOM      4  C   UNL     1      21.514  19.374 -11.751  1.00  0.00     0.032 C 
BRANCH   4   5
ATOM      5  C   UNL     1      20.803  20.159 -12.872  1.00  0.00     0.034 C 
BRANCH   5   6
ATOM      6  C   UNL     1      19.342  20.442 -12.569  1.00  0.00    -0.077 C 
ATOM      7  C   UNL     1      19.014  21.700 -11.805  1.00  0.00     0.039 C 
ATOM      8  C   UNL     1      18.321  19.605 -12.880  1.00  0.00    -0.023 CG0
ATOM      9  G   UNL     1      18.409  18.305 -13.655  1.00  0.00     0.000 G0
ENDBRANCH   5   6
ENDBRANCH   4   5
ENDBRANCH   2   4
BRANCH   1  10
ATOM     10  C   UNL     1      19.490  17.390 -10.579  1.00  0.00     0.111 C 
BRANCH  10  11
ATOM     11  C   UNL     1      18.185  17.250 -11.317  1.00  0.00     0.163 C 
ATOM     12  O   UNL     1      17.121  17.225 -10.641  1.00  0.00    -0.294 OA
BRANCH  11  13
ATOM     13  C   UNL     1      18.116  17.080 -12.799  1.00  0.00    -0.002 C 
ATOM     14  C   UNL     1      17.881  15.851 -13.351  1.00  0.00    -0.069 C 
ATOM     15  C   UNL     1      17.962  15.615 -14.844  1.00  0.00     0.039 C 
ATOM     16  C   UNL     1      17.530  14.658 -12.489  1.00  0.00     0.039 C 
BRANCH  13  17
ATOM     17  C   UNL     1      18.409  18.301 -13.654  1.00  0.00     0.066 CG0
ATOM     18  G   UNL     1      18.335  19.592 -12.862  1.00  0.00     0.000 G0
ENDBRANCH  13  17
ENDBRANCH  11  13
ENDBRANCH  10  11
ENDBRANCH   1  10
TORSDOF 0
ENDMDL
