MODEL 1
REMARK VINA RESULT:    -4.893      0.000      0.000
REMARK INTER + INTRA:          -7.717
REMARK INTER:                  -7.467
REMARK INTRA:                  -0.250
REMARK UNBOUND:                -0.250
REMARK SMILES CC1=CCC[C@@H](C)C(=O)C[C@H](C(C)C)C(=O)C1
REMARK SMILES IDX 8 1 9 2 6 3 7 4 5 5 4 6 3 7 2 8 1 9 10 11 11 12 15 13 16 14
REMARK SMILES IDX 17 15 12 17 13 18 14 19
REMARK H PARENT
REMARK Flexibility Score: 70.00
ROOT
ATOM      1  C   UNL     1     102.983 132.498  51.267  1.00  0.00     0.136 C 
ATOM      2  O   UNL     1     103.457 132.144  50.196  1.00  0.00    -0.299 OA
ENDROOT
BRANCH   1   3
ATOM      3  C   UNL     1     102.137 131.536  52.084  1.00  0.00     0.053 C 
ATOM      4  C   UNL     1     102.893 130.247  52.440  1.00  0.00     0.016 C 
BRANCH   3   5
ATOM      5  C   UNL     1     100.795 131.233  51.386  1.00  0.00     0.015 C 
BRANCH   5   6
ATOM      6  C   UNL     1      99.604 132.028  51.958  1.00  0.00     0.028 C 
BRANCH   6   7
ATOM      7  C   UNL     1      99.732 132.182  53.452  1.00  0.00    -0.028 C 
ATOM      8  C   UNL     1      99.939 133.358  54.091  1.00  0.00    -0.070 CG0
ATOM      9  C   UNL     1     100.104 133.330  55.588  1.00  0.00     0.039 C 
ATOM     10  G   UNL     1      99.992 134.696  53.368  1.00  0.00     0.000 G0
ENDBRANCH   6   7
ENDBRANCH   5   6
ENDBRANCH   3   5
ENDBRANCH   1   3
BRANCH   1  11
ATOM     11  C   UNL     1     103.249 133.901  51.755  1.00  0.00     0.087 C 
BRANCH  11  12
ATOM     12  C   UNL     1     101.995 134.807  51.643  1.00  0.00     0.066 C 
BRANCH  12  13
ATOM     13  C   UNL     1     101.413 135.117  53.014  1.00  0.00     0.140 C 
ATOM     14  O   UNL     1     102.069 135.758  53.823  1.00  0.00    -0.299 OA
BRANCH  13  15
ATOM     15  C   UNL     1      99.999 134.718  53.364  1.00  0.00     0.106 CG0
ATOM     16  G   UNL     1      99.934 133.375  54.079  1.00  0.00     0.000 G0
ENDBRANCH  13  15
ENDBRANCH  12  13
BRANCH  12  17
ATOM     17  C   UNL     1     102.248 136.123  50.838  1.00  0.00    -0.006 C 
ATOM     18  C   UNL     1     103.616 136.173  50.132  1.00  0.00     0.008 C 
ATOM     19  C   UNL     1     101.126 136.388  49.821  1.00  0.00     0.008 C 
ENDBRANCH  12  17
ENDBRANCH  11  12
ENDBRANCH   1  11
TORSDOF 1
ENDMDL
MODEL 2
REMARK VINA RESULT:    -4.651      1.840      2.206
REMARK INTER + INTRA:          -7.348
REMARK INTER:                  -7.066
REMARK INTRA:                  -0.282
REMARK UNBOUND:                -0.250
REMARK SMILES CC1=CCC[C@@H](C)C(=O)C[C@H](C(C)C)C(=O)C1
REMARK SMILES IDX 8 1 9 2 6 3 7 4 5 5 4 6 3 7 2 8 1 9 10 11 11 12 15 13 16 14
REMARK SMILES IDX 17 15 12 17 13 18 14 19
REMARK H PARENT
REMARK Flexibility Score: 70.00
ROOT
ATOM      1  C   UNL     1     102.787 132.644  50.569  1.00  0.00     0.136 C 
ATOM      2  O   UNL     1     102.924 132.602  49.353  1.00  0.00    -0.299 OA
ENDROOT
BRANCH   1   3
ATOM      3  C   UNL     1     101.991 131.567  51.286  1.00  0.00     0.053 C 
ATOM      4  C   UNL     1     100.559 132.018  51.616  1.00  0.00     0.016 C 
BRANCH   3   5
ATOM      5  C   UNL     1     102.730 131.062  52.542  1.00  0.00     0.015 C 
BRANCH   5   6
ATOM      6  C   UNL     1     102.055 131.472  53.867  1.00  0.00     0.028 C 
BRANCH   6   7
ATOM      7  C   UNL     1     103.037 132.168  54.775  1.00  0.00    -0.028 C 
ATOM      8  C   UNL     1     103.065 133.502  55.001  1.00  0.00    -0.070 CG0
ATOM      9  C   UNL     1     104.151 134.046  55.892  1.00  0.00     0.039 C 
ATOM     10  G   UNL     1     102.043 134.465  54.412  1.00  0.00     0.000 G0
ENDBRANCH   6   7
ENDBRANCH   5   6
ENDBRANCH   3   5
ENDBRANCH   1   3
BRANCH   1  11
ATOM     11  C   UNL     1     103.416 133.781  51.335  1.00  0.00     0.087 C 
BRANCH  11  12
ATOM     12  C   UNL     1     102.365 134.821  51.807  1.00  0.00     0.066 C 
BRANCH  12  13
ATOM     13  C   UNL     1     102.627 135.259  53.241  1.00  0.00     0.140 C 
ATOM     14  O   UNL     1     103.242 136.293  53.459  1.00  0.00    -0.299 OA
BRANCH  13  15
ATOM     15  C   UNL     1     102.063 134.477  54.404  1.00  0.00     0.106 CG0
ATOM     16  G   UNL     1     103.071 133.500  54.991  1.00  0.00     0.000 G0
ENDBRANCH  13  15
ENDBRANCH  12  13
BRANCH  12  17
ATOM     17  C   UNL     1     102.249 136.061  50.863  1.00  0.00    -0.006 C 
ATOM     18  C   UNL     1     103.509 136.327  50.018  1.00  0.00     0.008 C 
ATOM     19  C   UNL     1     101.019 135.958  49.945  1.00  0.00     0.008 C 
ENDBRANCH  12  17
ENDBRANCH  11  12
ENDBRANCH   1  11
TORSDOF 1
ENDMDL
MODEL 3
REMARK VINA RESULT:    -4.489      2.565      4.132
REMARK INTER + INTRA:          -7.101
REMARK INTER:                  -6.940
REMARK INTRA:                  -0.161
REMARK UNBOUND:                -0.250
REMARK SMILES CC1=CCC[C@@H](C)C(=O)C[C@H](C(C)C)C(=O)C1
REMARK SMILES IDX 8 1 9 2 6 3 7 4 5 5 4 6 3 7 2 8 1 9 10 11 11 12 15 13 16 14
REMARK SMILES IDX 17 15 12 17 13 18 14 19
REMARK H PARENT
REMARK Flexibility Score: 70.00
ROOT
ATOM      1  C   UNL     1     102.782 131.485  53.381  1.00  0.00     0.136 C 
ATOM      2  O   UNL     1     102.958 130.304  53.650  1.00  0.00    -0.299 OA
ENDROOT
BRANCH   1   3
ATOM      3  C   UNL     1     101.881 131.880  52.223  1.00  0.00     0.053 C 
ATOM      4  C   UNL     1     100.463 131.301  52.361  1.00  0.00     0.016 C 
BRANCH   3   5
ATOM      5  C   UNL     1     102.515 131.514  50.866  1.00  0.00     0.015 C 
BRANCH   5   6
ATOM      6  C   UNL     1     103.014 132.733  50.066  1.00  0.00     0.028 C 
BRANCH   6   7
ATOM      7  C   UNL     1     102.140 133.935  50.320  1.00  0.00    -0.028 C 
ATOM      8  C   UNL     1     102.513 135.021  51.036  1.00  0.00    -0.070 CG0
ATOM      9  C   UNL     1     101.496 136.113  51.247  1.00  0.00     0.039 C 
ATOM     10  G   UNL     1     103.910 135.193  51.616  1.00  0.00     0.000 G0
ENDBRANCH   6   7
ENDBRANCH   5   6
ENDBRANCH   3   5
ENDBRANCH   1   3
BRANCH   1  11
ATOM     11  C   UNL     1     103.476 132.535  54.214  1.00  0.00     0.087 C 
BRANCH  11  12
ATOM     12  C   UNL     1     104.509 133.347  53.388  1.00  0.00     0.066 C 
BRANCH  12  13
ATOM     13  C   UNL     1     103.984 134.738  53.063  1.00  0.00     0.140 C 
ATOM     14  O   UNL     1     103.694 135.506  53.969  1.00  0.00    -0.299 OA
BRANCH  13  15
ATOM     15  C   UNL     1     103.896 135.217  51.634  1.00  0.00     0.106 CG0
ATOM     16  G   UNL     1     102.509 135.020  51.038  1.00  0.00     0.000 G0
ENDBRANCH  13  15
ENDBRANCH  12  13
BRANCH  12  17
ATOM     17  C   UNL     1     105.917 133.431  54.062  1.00  0.00    -0.006 C 
ATOM     18  C   UNL     1     106.415 132.094  54.643  1.00  0.00     0.008 C 
ATOM     19  C   UNL     1     106.970 134.004  53.101  1.00  0.00     0.008 C 
ENDBRANCH  12  17
ENDBRANCH  11  12
ENDBRANCH   1  11
TORSDOF 1
ENDMDL
MODEL 4
REMARK VINA RESULT:    -4.374      2.077      4.279
REMARK INTER + INTRA:          -6.925
REMARK INTER:                  -6.756
REMARK INTRA:                  -0.169
REMARK UNBOUND:                -0.250
REMARK SMILES CC1=CCC[C@@H](C)C(=O)C[C@H](C(C)C)C(=O)C1
REMARK SMILES IDX 8 1 9 2 6 3 7 4 5 5 4 6 3 7 2 8 1 9 10 11 11 12 15 13 16 14
REMARK SMILES IDX 17 15 12 17 13 18 14 19
REMARK H PARENT
REMARK Flexibility Score: 70.00
ROOT
ATOM      1  C   UNL     1     103.606 134.972  51.925  1.00  0.00     0.136 C 
ATOM      2  O   UNL     1     103.759 135.759  52.850  1.00  0.00    -0.299 OA
ENDROOT
BRANCH   1   3
ATOM      3  C   UNL     1     102.846 135.394  50.680  1.00  0.00     0.053 C 
ATOM      4  C   UNL     1     103.558 136.518  49.911  1.00  0.00     0.016 C 
BRANCH   3   5
ATOM      5  C   UNL     1     101.386 135.768  51.010  1.00  0.00     0.015 C 
BRANCH   5   6
ATOM      6  C   UNL     1     100.354 134.733  50.518  1.00  0.00     0.028 C 
BRANCH   6   7
ATOM      7  C   UNL     1      99.827 133.915  51.668  1.00  0.00    -0.028 C 
ATOM      8  C   UNL     1     100.293 132.694  52.023  1.00  0.00    -0.070 CG0
ATOM      9  C   UNL     1      99.614 131.981  53.164  1.00  0.00     0.039 C 
ATOM     10  G   UNL     1     101.475 132.025  51.335  1.00  0.00     0.000 G0
ENDBRANCH   6   7
ENDBRANCH   5   6
ENDBRANCH   3   5
ENDBRANCH   1   3
BRANCH   1  11
ATOM     11  C   UNL     1     104.180 133.581  52.048  1.00  0.00     0.087 C 
BRANCH  11  12
ATOM     12  C   UNL     1     103.380 132.705  53.048  1.00  0.00     0.066 C 
BRANCH  12  13
ATOM     13  C   UNL     1     102.580 131.632  52.324  1.00  0.00     0.140 C 
ATOM     14  O   UNL     1     102.774 130.452  52.579  1.00  0.00    -0.299 OA
BRANCH  13  15
ATOM     15  C   UNL     1     101.485 132.005  51.354  1.00  0.00     0.106 CG0
ATOM     16  G   UNL     1     100.308 132.687  52.039  1.00  0.00     0.000 G0
ENDBRANCH  13  15
ENDBRANCH  12  13
BRANCH  12  17
ATOM     17  C   UNL     1     104.267 132.072  54.169  1.00  0.00    -0.006 C 
ATOM     18  C   UNL     1     105.696 132.644  54.236  1.00  0.00     0.008 C 
ATOM     19  C   UNL     1     103.597 132.181  55.548  1.00  0.00     0.008 C 
ENDBRANCH  12  17
ENDBRANCH  11  12
ENDBRANCH   1  11
TORSDOF 1
ENDMDL
MODEL 5
REMARK VINA RESULT:    -4.373      1.392      1.652
REMARK INTER + INTRA:          -6.924
REMARK INTER:                  -6.803
REMARK INTRA:                  -0.121
REMARK UNBOUND:                -0.250
REMARK SMILES CC1=CCC[C@@H](C)C(=O)C[C@H](C(C)C)C(=O)C1
REMARK SMILES IDX 8 1 9 2 6 3 7 4 5 5 4 6 3 7 2 8 1 9 10 11 11 12 15 13 16 14
REMARK SMILES IDX 17 15 12 17 13 18 14 19
REMARK H PARENT
REMARK Flexibility Score: 70.00
ROOT
ATOM      1  C   UNL     1     103.009 132.086  52.788  1.00  0.00     0.136 C 
ATOM      2  O   UNL     1     102.834 131.580  53.889  1.00  0.00    -0.299 OA
ENDROOT
BRANCH   1   3
ATOM      3  C   UNL     1     102.498 131.392  51.537  1.00  0.00     0.053 C 
ATOM      4  C   UNL     1     102.808 132.186  50.258  1.00  0.00     0.016 C 
BRANCH   3   5
ATOM      5  C   UNL     1     100.995 131.061  51.650  1.00  0.00     0.015 C 
BRANCH   5   6
ATOM      6  C   UNL     1     100.091 132.306  51.741  1.00  0.00     0.028 C 
BRANCH   6   7
ATOM      7  C   UNL     1      99.504 132.441  53.123  1.00  0.00    -0.028 C 
ATOM      8  C   UNL     1      99.631 133.535  53.911  1.00  0.00    -0.070 CG0
ATOM      9  C   UNL     1      99.032 133.485  55.292  1.00  0.00     0.039 C 
ATOM     10  G   UNL     1     100.331 134.808  53.456  1.00  0.00     0.000 G0
ENDBRANCH   6   7
ENDBRANCH   5   6
ENDBRANCH   3   5
ENDBRANCH   1   3
BRANCH   1  11
ATOM     11  C   UNL     1     103.741 133.403  52.698  1.00  0.00     0.087 C 
BRANCH  11  12
ATOM     12  C   UNL     1     102.774 134.595  52.469  1.00  0.00     0.066 C 
BRANCH  12  13
ATOM     13  C   UNL     1     101.840 134.784  53.654  1.00  0.00     0.140 C 
ATOM     14  O   UNL     1     102.303 134.966  54.772  1.00  0.00    -0.299 OA
BRANCH  13  15
ATOM     15  C   UNL     1     100.343 134.836  53.460  1.00  0.00     0.106 CG0
ATOM     16  G   UNL     1      99.653 133.558  53.914  1.00  0.00     0.000 G0
ENDBRANCH  13  15
ENDBRANCH  12  13
BRANCH  12  17
ATOM     17  C   UNL     1     103.507 135.932  52.122  1.00  0.00    -0.006 C 
ATOM     18  C   UNL     1     104.912 136.056  52.740  1.00  0.00     0.008 C 
ATOM     19  C   UNL     1     103.584 136.156  50.603  1.00  0.00     0.008 C 
ENDBRANCH  12  17
ENDBRANCH  11  12
ENDBRANCH   1  11
TORSDOF 1
ENDMDL
MODEL 6
REMARK VINA RESULT:    -4.279      2.545      4.880
REMARK INTER + INTRA:          -6.780
REMARK INTER:                  -6.570
REMARK INTRA:                  -0.209
REMARK UNBOUND:                -0.250
REMARK SMILES CC1=CCC[C@@H](C)C(=O)C[C@H](C(C)C)C(=O)C1
REMARK SMILES IDX 8 1 9 2 6 3 7 4 5 5 4 6 3 7 2 8 1 9 10 11 11 12 15 13 16 14
REMARK SMILES IDX 17 15 12 17 13 18 14 19
REMARK H PARENT
REMARK Flexibility Score: 70.00
ROOT
ATOM      1  C   UNL     1     101.660 134.534  51.200  1.00  0.00     0.136 C 
ATOM      2  O   UNL     1     101.421 133.794  50.254  1.00  0.00    -0.299 OA
ENDROOT
BRANCH   1   3
ATOM      3  C   UNL     1     102.331 135.877  50.969  1.00  0.00     0.053 C 
ATOM      4  C   UNL     1     101.863 136.550  49.669  1.00  0.00     0.016 C 
BRANCH   3   5
ATOM      5  C   UNL     1     103.868 135.757  51.026  1.00  0.00     0.015 C 
BRANCH   5   6
ATOM      6  C   UNL     1     104.490 136.351  52.306  1.00  0.00     0.028 C 
BRANCH   6   7
ATOM      7  C   UNL     1     105.358 135.335  53.001  1.00  0.00    -0.028 C 
ATOM      8  C   UNL     1     104.998 134.640  54.106  1.00  0.00    -0.070 CG0
ATOM      9  C   UNL     1     106.010 133.703  54.713  1.00  0.00     0.039 C 
ATOM     10  G   UNL     1     103.620 134.752  54.744  1.00  0.00     0.000 G0
ENDBRANCH   6   7
ENDBRANCH   5   6
ENDBRANCH   3   5
ENDBRANCH   1   3
BRANCH   1  11
ATOM     11  C   UNL     1     101.283 134.085  52.591  1.00  0.00     0.087 C 
BRANCH  11  12
ATOM     12  C   UNL     1     102.310 133.083  53.181  1.00  0.00     0.066 C 
BRANCH  12  13
ATOM     13  C   UNL     1     102.770 133.516  54.566  1.00  0.00     0.140 C 
ATOM     14  O   UNL     1     102.521 132.814  55.536  1.00  0.00    -0.299 OA
BRANCH  13  15
ATOM     15  C   UNL     1     103.605 134.760  54.751  1.00  0.00     0.106 CG0
ATOM     16  G   UNL     1     104.983 134.635  54.117  1.00  0.00     0.000 G0
ENDBRANCH  13  15
ENDBRANCH  12  13
BRANCH  12  17
ATOM     17  C   UNL     1     101.797 131.607  53.204  1.00  0.00    -0.006 C 
ATOM     18  C   UNL     1     100.337 131.443  52.743  1.00  0.00     0.008 C 
ATOM     19  C   UNL     1     102.709 130.680  52.383  1.00  0.00     0.008 C 
ENDBRANCH  12  17
ENDBRANCH  11  12
ENDBRANCH   1  11
TORSDOF 1
ENDMDL
MODEL 7
REMARK VINA RESULT:    -4.086      2.060      3.173
REMARK INTER + INTRA:          -6.485
REMARK INTER:                  -6.999
REMARK INTRA:                   0.514
REMARK UNBOUND:                -0.250
REMARK SMILES CC1=CCC[C@@H](C)C(=O)C[C@H](C(C)C)C(=O)C1
REMARK SMILES IDX 8 1 9 2 6 3 7 4 5 5 4 6 3 7 2 8 1 9 10 11 11 12 15 13 16 14
REMARK SMILES IDX 17 15 12 17 13 18 14 19
REMARK H PARENT
REMARK Flexibility Score: 70.00
ROOT
ATOM      1  C   UNL     1      99.821 133.511  51.857  1.00  0.00     0.136 C 
ATOM      2  O   UNL     1      99.241 133.902  50.852  1.00  0.00    -0.299 OA
ENDROOT
BRANCH   1   3
ATOM      3  C   UNL     1      99.991 132.023  52.112  1.00  0.00     0.053 C 
ATOM      4  C   UNL     1      99.368 131.582  53.446  1.00  0.00     0.016 C 
BRANCH   3   5
ATOM      5  C   UNL     1     101.470 131.598  52.006  1.00  0.00     0.015 C 
BRANCH   5   6
ATOM      6  C   UNL     1     102.157 131.401  53.372  1.00  0.00     0.028 C 
BRANCH   6   7
ATOM      7  C   UNL     1     103.575 131.911  53.337  1.00  0.00    -0.028 C 
ATOM      8  C   UNL     1     103.941 133.190  53.590  1.00  0.00    -0.070 CG0
ATOM      9  C   UNL     1     105.398 133.549  53.453  1.00  0.00     0.039 C 
ATOM     10  G   UNL     1     102.954 134.265  54.022  1.00  0.00     0.000 G0
ENDBRANCH   6   7
ENDBRANCH   5   6
ENDBRANCH   3   5
ENDBRANCH   1   3
BRANCH   1  11
ATOM     11  C   UNL     1     100.356 134.530  52.834  1.00  0.00     0.087 C 
BRANCH  11  12
ATOM     12  C   UNL     1     101.454 135.425  52.202  1.00  0.00     0.066 C 
BRANCH  12  13
ATOM     13  C   UNL     1     102.749 135.354  52.997  1.00  0.00     0.140 C 
ATOM     14  O   UNL     1     103.607 136.212  52.842  1.00  0.00    -0.299 OA
BRANCH  13  15
ATOM     15  C   UNL     1     102.959 134.282  54.040  1.00  0.00     0.106 CG0
ATOM     16  G   UNL     1     103.926 133.201  53.577  1.00  0.00     0.000 G0
ENDBRANCH  13  15
ENDBRANCH  12  13
BRANCH  12  17
ATOM     17  C   UNL     1     101.713 135.119  50.691  1.00  0.00    -0.006 C 
ATOM     18  C   UNL     1     101.620 136.354  49.775  1.00  0.00     0.008 C 
ATOM     19  C   UNL     1     103.064 134.417  50.481  1.00  0.00     0.008 C 
ENDBRANCH  12  17
ENDBRANCH  11  12
ENDBRANCH   1  11
TORSDOF 1
ENDMDL
MODEL 8
REMARK VINA RESULT:    -4.056      2.197      4.130
REMARK INTER + INTRA:          -6.439
REMARK INTER:                  -6.535
REMARK INTRA:                   0.096
REMARK UNBOUND:                -0.250
REMARK SMILES CC1=CCC[C@@H](C)C(=O)C[C@H](C(C)C)C(=O)C1
REMARK SMILES IDX 8 1 9 2 6 3 7 4 5 5 4 6 3 7 2 8 1 9 10 11 11 12 15 13 16 14
REMARK SMILES IDX 17 15 12 17 13 18 14 19
REMARK H PARENT
REMARK Flexibility Score: 70.00
ROOT
ATOM      1  C   UNL     1     101.456 133.648  50.939  1.00  0.00     0.136 C 
ATOM      2  O   UNL     1     100.526 134.353  50.569  1.00  0.00    -0.299 OA
ENDROOT
BRANCH   1   3
ATOM      3  C   UNL     1     102.835 133.816  50.325  1.00  0.00     0.053 C 
ATOM      4  C   UNL     1     103.372 132.507  49.724  1.00  0.00     0.016 C 
BRANCH   3   5
ATOM      5  C   UNL     1     103.830 134.430  51.332  1.00  0.00     0.015 C 
BRANCH   5   6
ATOM      6  C   UNL     1     103.402 135.813  51.861  1.00  0.00     0.028 C 
BRANCH   6   7
ATOM      7  C   UNL     1     103.764 135.964  53.316  1.00  0.00    -0.028 C 
ATOM      8  C   UNL     1     102.913 135.754  54.348  1.00  0.00    -0.070 CG0
ATOM      9  C   UNL     1     103.417 136.007  55.745  1.00  0.00     0.039 C 
ATOM     10  G   UNL     1     101.486 135.259  54.158  1.00  0.00     0.000 G0
ENDBRANCH   6   7
ENDBRANCH   5   6
ENDBRANCH   3   5
ENDBRANCH   1   3
BRANCH   1  11
ATOM     11  C   UNL     1     101.205 132.612  52.008  1.00  0.00     0.087 C 
BRANCH  11  12
ATOM     12  C   UNL     1     102.067 132.858  53.275  1.00  0.00     0.066 C 
BRANCH  12  13
ATOM     13  C   UNL     1     101.349 133.766  54.263  1.00  0.00     0.140 C 
ATOM     14  O   UNL     1     100.725 133.279  55.194  1.00  0.00    -0.299 OA
BRANCH  13  15
ATOM     15  C   UNL     1     101.467 135.268  54.161  1.00  0.00     0.106 CG0
ATOM     16  G   UNL     1     102.897 135.754  54.352  1.00  0.00     0.000 G0
ENDBRANCH  13  15
ENDBRANCH  12  13
BRANCH  12  17
ATOM     17  C   UNL     1     102.537 131.541  53.973  1.00  0.00    -0.006 C 
ATOM     18  C   UNL     1     102.698 130.346  53.016  1.00  0.00     0.008 C 
ATOM     19  C   UNL     1     103.840 131.754  54.762  1.00  0.00     0.008 C 
ENDBRANCH  12  17
ENDBRANCH  11  12
ENDBRANCH   1  11
TORSDOF 1
ENDMDL
MODEL 9
REMARK VINA RESULT:    -4.018      3.093      3.914
REMARK INTER + INTRA:          -6.381
REMARK INTER:                  -6.200
REMARK INTRA:                  -0.181
REMARK UNBOUND:                -0.250
REMARK SMILES CC1=CCC[C@@H](C)C(=O)C[C@H](C(C)C)C(=O)C1
REMARK SMILES IDX 8 1 9 2 6 3 7 4 5 5 4 6 3 7 2 8 1 9 10 11 11 12 15 13 16 14
REMARK SMILES IDX 17 15 12 17 13 18 14 19
REMARK H PARENT
REMARK Flexibility Score: 70.00
ROOT
ATOM      1  C   UNL     1     102.912 132.608  51.930  1.00  0.00     0.136 C 
ATOM      2  O   UNL     1     101.909 132.476  51.240  1.00  0.00    -0.299 OA
ENDROOT
BRANCH   1   3
ATOM      3  C   UNL     1     103.186 131.644  53.072  1.00  0.00     0.053 C 
ATOM      4  C   UNL     1     102.887 130.185  52.691  1.00  0.00     0.016 C 
BRANCH   3   5
ATOM      5  C   UNL     1     102.438 132.061  54.355  1.00  0.00     0.015 C 
BRANCH   5   6
ATOM      6  C   UNL     1     103.335 132.756  55.398  1.00  0.00     0.028 C 
BRANCH   6   7
ATOM      7  C   UNL     1     104.791 132.494  55.110  1.00  0.00    -0.028 C 
ATOM      8  C   UNL     1     105.685 133.440  54.735  1.00  0.00    -0.070 CG0
ATOM      9  C   UNL     1     107.093 133.000  54.427  1.00  0.00     0.039 C 
ATOM     10  G   UNL     1     105.334 134.917  54.630  1.00  0.00     0.000 G0
ENDBRANCH   6   7
ENDBRANCH   5   6
ENDBRANCH   3   5
ENDBRANCH   1   3
BRANCH   1  11
ATOM     11  C   UNL     1     103.861 133.742  51.630  1.00  0.00     0.087 C 
BRANCH  11  12
ATOM     12  C   UNL     1     103.664 134.940  52.597  1.00  0.00     0.066 C 
BRANCH  12  13
ATOM     13  C   UNL     1     104.983 135.362  53.229  1.00  0.00     0.140 C 
ATOM     14  O   UNL     1     105.736 136.112  52.624  1.00  0.00    -0.299 OA
BRANCH  13  15
ATOM     15  C   UNL     1     105.340 134.935  54.633  1.00  0.00     0.106 CG0
ATOM     16  G   UNL     1     105.684 133.454  54.720  1.00  0.00     0.000 G0
ENDBRANCH  13  15
ENDBRANCH  12  13
BRANCH  12  17
ATOM     17  C   UNL     1     102.952 136.164  51.935  1.00  0.00    -0.006 C 
ATOM     18  C   UNL     1     103.090 136.217  50.402  1.00  0.00     0.008 C 
ATOM     19  C   UNL     1     101.467 136.232  52.326  1.00  0.00     0.008 C 
ENDBRANCH  12  17
ENDBRANCH  11  12
ENDBRANCH   1  11
TORSDOF 1
ENDMDL
