MODEL 1
REMARK VINA RESULT:    -3.303      0.000      0.000
REMARK INTER + INTRA:          -3.747
REMARK INTER:                  -3.689
REMARK INTRA:                  -0.058
REMARK UNBOUND:                -0.058
REMARK SMILES CCCC(=O)[O-]
REMARK SMILES IDX 3 1 4 2 5 3 6 4 2 5 1 6
REMARK H PARENT
REMARK Flexibility Score: inf
ROOT
ATOM      1  C   UNL     1       5.094  19.673  -0.669  1.00  0.00     0.052 C 
ENDROOT
BRANCH   1   2
ATOM      2  C   UNL     1       5.788  19.805   0.649  1.00  0.00     0.041 C 
ATOM      3  O   UNL     1       5.208  20.360   1.619  1.00  0.00    -0.550 OA
ATOM      4  O   UNL     1       7.096  19.359   0.794  1.00  0.00    -0.550 OA
ENDBRANCH   1   2
BRANCH   1   5
ATOM      5  C   UNL     1       4.615  21.042  -1.160  1.00  0.00     0.003 C 
ATOM      6  C   UNL     1       5.732  21.789  -1.883  1.00  0.00     0.004 C 
ENDBRANCH   1   5
TORSDOF 2
ENDMDL
MODEL 2
REMARK VINA RESULT:    -3.279      0.111      1.322
REMARK INTER + INTRA:          -3.720
REMARK INTER:                  -3.665
REMARK INTRA:                  -0.056
REMARK UNBOUND:                -0.058
REMARK SMILES CCCC(=O)[O-]
REMARK SMILES IDX 3 1 4 2 5 3 6 4 2 5 1 6
REMARK H PARENT
REMARK Flexibility Score: inf
ROOT
ATOM      1  C   UNL     1       5.100  19.628  -0.693  1.00  0.00     0.052 C 
ENDROOT
BRANCH   1   2
ATOM      2  C   UNL     1       5.850  19.726   0.598  1.00  0.00     0.041 C 
ATOM      3  O   UNL     1       6.985  19.192   0.714  1.00  0.00    -0.550 OA
ATOM      4  O   UNL     1       5.276  20.365   1.689  1.00  0.00    -0.550 OA
ENDBRANCH   1   2
BRANCH   1   5
ATOM      5  C   UNL     1       4.614  21.011  -1.135  1.00  0.00     0.003 C 
ATOM      6  C   UNL     1       5.714  21.769  -1.875  1.00  0.00     0.004 C 
ENDBRANCH   1   5
TORSDOF 2
ENDMDL
MODEL 3
REMARK VINA RESULT:    -3.025      2.243      3.254
REMARK INTER + INTRA:          -3.436
REMARK INTER:                  -3.428
REMARK INTRA:                  -0.008
REMARK UNBOUND:                -0.058
REMARK SMILES CCCC(=O)[O-]
REMARK SMILES IDX 3 1 4 2 5 3 6 4 2 5 1 6
REMARK H PARENT
REMARK Flexibility Score: inf
ROOT
ATOM      1  C   UNL     1       5.416  20.191   0.409  1.00  0.00     0.052 C 
ENDROOT
BRANCH   1   2
ATOM      2  C   UNL     1       4.838  20.441  -0.948  1.00  0.00     0.041 C 
ATOM      3  O   UNL     1       4.324  19.495  -1.602  1.00  0.00    -0.550 OA
ATOM      4  O   UNL     1       4.910  21.708  -1.513  1.00  0.00    -0.550 OA
ENDBRANCH   1   2
BRANCH   1   5
ATOM      5  C   UNL     1       6.269  18.920   0.401  1.00  0.00     0.003 C 
ATOM      6  C   UNL     1       7.459  19.050   1.348  1.00  0.00     0.004 C 
ENDBRANCH   1   5
TORSDOF 2
ENDMDL
MODEL 4
REMARK VINA RESULT:    -2.637      7.128      7.839
REMARK INTER + INTRA:          -3.003
REMARK INTER:                  -2.983
REMARK INTRA:                  -0.020
REMARK UNBOUND:                -0.058
REMARK SMILES CCCC(=O)[O-]
REMARK SMILES IDX 3 1 4 2 5 3 6 4 2 5 1 6
REMARK H PARENT
REMARK Flexibility Score: inf
ROOT
ATOM      1  C   UNL     1       4.496  13.714  -0.735  1.00  0.00     0.052 C 
ENDROOT
BRANCH   1   2
ATOM      2  C   UNL     1       3.117  13.292  -0.335  1.00  0.00     0.041 C 
ATOM      3  O   UNL     1       2.268  14.152   0.018  1.00  0.00    -0.550 OA
ATOM      4  O   UNL     1       2.784  11.944  -0.305  1.00  0.00    -0.550 OA
ENDBRANCH   1   2
BRANCH   1   5
ATOM      5  C   UNL     1       5.469  12.537  -0.624  1.00  0.00     0.003 C 
ATOM      6  C   UNL     1       6.674  12.899   0.239  1.00  0.00     0.004 C 
ENDBRANCH   1   5
TORSDOF 2
ENDMDL
MODEL 5
REMARK VINA RESULT:    -2.549      2.011      3.522
REMARK INTER + INTRA:          -2.904
REMARK INTER:                  -2.867
REMARK INTRA:                  -0.037
REMARK UNBOUND:                -0.058
REMARK SMILES CCCC(=O)[O-]
REMARK SMILES IDX 3 1 4 2 5 3 6 4 2 5 1 6
REMARK H PARENT
REMARK Flexibility Score: inf
ROOT
ATOM      1  C   UNL     1       6.711  18.759   0.784  1.00  0.00     0.052 C 
ENDROOT
BRANCH   1   2
ATOM      2  C   UNL     1       5.819  19.934   0.539  1.00  0.00     0.041 C 
ATOM      3  O   UNL     1       4.992  20.297   1.416  1.00  0.00    -0.550 OA
ATOM      4  O   UNL     1       5.866  20.600  -0.679  1.00  0.00    -0.550 OA
ENDBRANCH   1   2
BRANCH   1   5
ATOM      5  C   UNL     1       7.688  19.058   1.924  1.00  0.00     0.003 C 
ATOM      6  C   UNL     1       7.331  18.264   3.178  1.00  0.00     0.004 C 
ENDBRANCH   1   5
TORSDOF 2
ENDMDL
MODEL 6
REMARK VINA RESULT:    -2.521     12.810     13.141
REMARK INTER + INTRA:          -2.874
REMARK INTER:                  -2.865
REMARK INTRA:                  -0.008
REMARK UNBOUND:                -0.058
REMARK SMILES CCCC(=O)[O-]
REMARK SMILES IDX 3 1 4 2 5 3 6 4 2 5 1 6
REMARK H PARENT
REMARK Flexibility Score: inf
ROOT
ATOM      1  C   UNL     1      -6.490  17.819   4.152  1.00  0.00     0.052 C 
ENDROOT
BRANCH   1   2
ATOM      2  C   UNL     1      -6.649  19.163   4.788  1.00  0.00     0.041 C 
ATOM      3  O   UNL     1      -6.173  19.384   5.933  1.00  0.00    -0.550 OA
ATOM      4  O   UNL     1      -7.367  20.160   4.138  1.00  0.00    -0.550 OA
ENDBRANCH   1   2
BRANCH   1   5
ATOM      5  C   UNL     1      -6.448  17.950   2.627  1.00  0.00     0.003 C 
ATOM      6  C   UNL     1      -6.298  16.585   1.962  1.00  0.00     0.004 C 
ENDBRANCH   1   5
TORSDOF 2
ENDMDL
MODEL 7
REMARK VINA RESULT:    -2.489     15.849     16.375
REMARK INTER + INTRA:          -2.838
REMARK INTER:                  -2.800
REMARK INTRA:                  -0.038
REMARK UNBOUND:                -0.058
REMARK SMILES CCCC(=O)[O-]
REMARK SMILES IDX 3 1 4 2 5 3 6 4 2 5 1 6
REMARK H PARENT
REMARK Flexibility Score: inf
ROOT
ATOM      1  C   UNL     1      -9.038  14.665  -6.938  1.00  0.00     0.052 C 
ENDROOT
BRANCH   1   2
ATOM      2  C   UNL     1      -8.085  15.313  -5.984  1.00  0.00     0.041 C 
ATOM      3  O   UNL     1      -8.510  16.117  -5.112  1.00  0.00    -0.550 OA
ATOM      4  O   UNL     1      -6.722  15.068  -6.087  1.00  0.00    -0.550 OA
ENDBRANCH   1   2
BRANCH   1   5
ATOM      5  C   UNL     1      -8.422  14.586  -8.337  1.00  0.00     0.003 C 
ATOM      6  C   UNL     1      -8.219  13.136  -8.768  1.00  0.00     0.004 C 
ENDBRANCH   1   5
TORSDOF 2
ENDMDL
MODEL 8
REMARK VINA RESULT:    -2.462     14.941     15.458
REMARK INTER + INTRA:          -2.808
REMARK INTER:                  -2.788
REMARK INTRA:                  -0.020
REMARK UNBOUND:                -0.058
REMARK SMILES CCCC(=O)[O-]
REMARK SMILES IDX 3 1 4 2 5 3 6 4 2 5 1 6
REMARK H PARENT
REMARK Flexibility Score: inf
ROOT
ATOM      1  C   UNL     1      -8.414  15.805  -5.348  1.00  0.00     0.052 C 
ENDROOT
BRANCH   1   2
ATOM      2  C   UNL     1      -7.386  15.142  -6.210  1.00  0.00     0.041 C 
ATOM      3  O   UNL     1      -6.273  14.806  -5.725  1.00  0.00    -0.550 OA
ATOM      4  O   UNL     1      -7.637  14.938  -7.561  1.00  0.00    -0.550 OA
ENDBRANCH   1   2
BRANCH   1   5
ATOM      5  C   UNL     1      -8.344  15.261  -3.918  1.00  0.00     0.003 C 
ATOM      6  C   UNL     1      -8.732  16.332  -2.903  1.00  0.00     0.004 C 
ENDBRANCH   1   5
TORSDOF 2
ENDMDL
MODEL 9
REMARK VINA RESULT:    -2.455     14.902     15.421
REMARK INTER + INTRA:          -2.801
REMARK INTER:                  -2.765
REMARK INTRA:                  -0.036
REMARK UNBOUND:                -0.058
REMARK SMILES CCCC(=O)[O-]
REMARK SMILES IDX 3 1 4 2 5 3 6 4 2 5 1 6
REMARK H PARENT
REMARK Flexibility Score: inf
ROOT
ATOM      1  C   UNL     1      -7.259  15.355  -6.484  1.00  0.00     0.052 C 
ENDROOT
BRANCH   1   2
ATOM      2  C   UNL     1      -6.444  14.429  -5.637  1.00  0.00     0.041 C 
ATOM      3  O   UNL     1      -5.770  13.509  -6.171  1.00  0.00    -0.550 OA
ATOM      4  O   UNL     1      -6.466  14.551  -4.253  1.00  0.00    -0.550 OA
ENDBRANCH   1   2
BRANCH   1   5
ATOM      5  C   UNL     1      -8.447  14.610  -7.098  1.00  0.00     0.003 C 
ATOM      6  C   UNL     1      -8.371  14.615  -8.622  1.00  0.00     0.004 C 
ENDBRANCH   1   5
TORSDOF 2
ENDMDL
