MODEL 1
REMARK VINA RESULT:    -5.638      0.000      0.000
REMARK INTER + INTRA:          -5.803
REMARK INTER:                  -5.803
REMARK INTRA:                   0.000
REMARK UNBOUND:                 0.000
REMARK SMILES Oc1ccc2[nH]ccc2c1
REMARK SMILES IDX 3 1 4 2 5 3 9 4 8 5 7 6 6 7 10 8 2 9 1 11
REMARK H PARENT 6 10 1 12
REMARK Flexibility Score: inf
ROOT
ATOM      1  C   UNL     1      30.227  36.448  29.786  1.00  0.00     0.048 A 
ATOM      2  C   UNL     1      30.877  36.154  28.573  1.00  0.00     0.030 A 
ATOM      3  C   UNL     1      30.562  36.932  27.460  1.00  0.00     0.046 A 
ATOM      4  C   UNL     1      29.653  37.954  27.530  1.00  0.00     0.003 A 
ATOM      5  C   UNL     1      29.570  38.519  26.277  1.00  0.00     0.028 A 
ATOM      6  C   UNL     1      30.458  37.790  25.491  1.00  0.00     0.083 A 
ATOM      7  N   UNL     1      31.062  36.822  26.218  1.00  0.00    -0.361 N 
ATOM      8  C   UNL     1      28.993  38.271  28.716  1.00  0.00     0.056 A 
ATOM      9  C   UNL     1      29.287  37.502  29.861  1.00  0.00     0.116 A 
ATOM     10  H   UNL     1      31.770  36.133  25.880  1.00  0.00     0.166 HD
ENDROOT
BRANCH   9  11
ATOM     11  O   UNL     1      28.658  37.773  31.074  1.00  0.00    -0.508 OA
ATOM     12  H   UNL     1      27.661  37.946  31.125  1.00  0.00     0.293 HD
ENDBRANCH   9  11
TORSDOF 1
ENDMDL
MODEL 2
REMARK VINA RESULT:    -5.343      1.286      2.059
REMARK INTER + INTRA:          -5.499
REMARK INTER:                  -5.499
REMARK INTRA:                   0.000
REMARK UNBOUND:                 0.000
REMARK SMILES Oc1ccc2[nH]ccc2c1
REMARK SMILES IDX 3 1 4 2 5 3 9 4 8 5 7 6 6 7 10 8 2 9 1 11
REMARK H PARENT 6 10 1 12
REMARK Flexibility Score: inf
ROOT
ATOM      1  C   UNL     1      29.098  37.522  30.091  1.00  0.00     0.048 A 
ATOM      2  C   UNL     1      28.907  38.427  29.031  1.00  0.00     0.030 A 
ATOM      3  C   UNL     1      29.519  38.141  27.812  1.00  0.00     0.046 A 
ATOM      4  C   UNL     1      30.285  37.019  27.637  1.00  0.00     0.003 A 
ATOM      5  C   UNL     1      30.740  37.029  26.337  1.00  0.00     0.028 A 
ATOM      6  C   UNL     1      30.212  38.188  25.777  1.00  0.00     0.083 A 
ATOM      7  N   UNL     1      29.467  38.864  26.681  1.00  0.00    -0.361 N 
ATOM      8  C   UNL     1      30.495  36.103  28.666  1.00  0.00     0.056 A 
ATOM      9  C   UNL     1      29.890  36.362  29.914  1.00  0.00     0.116 A 
ATOM     10  H   UNL     1      28.957  39.762  26.529  1.00  0.00     0.166 HD
ENDROOT
BRANCH   9  11
ATOM     11  O   UNL     1      30.064  35.483  30.979  1.00  0.00    -0.508 OA
ATOM     12  H   UNL     1      30.755  34.743  30.947  1.00  0.00     0.293 HD
ENDBRANCH   9  11
TORSDOF 1
ENDMDL
MODEL 3
REMARK VINA RESULT:    -5.319      3.175      4.277
REMARK INTER + INTRA:          -5.475
REMARK INTER:                  -5.475
REMARK INTRA:                   0.000
REMARK UNBOUND:                 0.000
REMARK SMILES Oc1ccc2[nH]ccc2c1
REMARK SMILES IDX 3 1 4 2 5 3 9 4 8 5 7 6 6 7 10 8 2 9 1 11
REMARK H PARENT 6 10 1 12
REMARK Flexibility Score: inf
ROOT
ATOM      1  C   UNL     1      30.319  36.557  28.081  1.00  0.00     0.048 A 
ATOM      2  C   UNL     1      30.000  36.918  29.403  1.00  0.00     0.030 A 
ATOM      3  C   UNL     1      28.750  36.548  29.895  1.00  0.00     0.046 A 
ATOM      4  C   UNL     1      27.851  35.855  29.129  1.00  0.00     0.003 A 
ATOM      5  C   UNL     1      26.728  35.646  29.898  1.00  0.00     0.028 A 
ATOM      6  C   UNL     1      27.012  36.240  31.124  1.00  0.00     0.083 A 
ATOM      7  N   UNL     1      28.249  36.789  31.118  1.00  0.00    -0.361 N 
ATOM      8  C   UNL     1      28.136  35.482  27.817  1.00  0.00     0.056 A 
ATOM      9  C   UNL     1      29.393  35.842  27.287  1.00  0.00     0.116 A 
ATOM     10  H   UNL     1      28.714  37.296  31.903  1.00  0.00     0.166 HD
ENDROOT
BRANCH   9  11
ATOM     11  O   UNL     1      29.733  35.496  25.981  1.00  0.00    -0.508 OA
ATOM     12  H   UNL     1      29.720  36.179  25.233  1.00  0.00     0.293 HD
ENDBRANCH   9  11
TORSDOF 1
ENDMDL
MODEL 4
REMARK VINA RESULT:    -5.280      2.603      4.070
REMARK INTER + INTRA:          -5.434
REMARK INTER:                  -5.434
REMARK INTRA:                   0.000
REMARK UNBOUND:                 0.000
REMARK SMILES Oc1ccc2[nH]ccc2c1
REMARK SMILES IDX 3 1 4 2 5 3 9 4 8 5 7 6 6 7 10 8 2 9 1 11
REMARK H PARENT 6 10 1 12
REMARK Flexibility Score: inf
ROOT
ATOM      1  C   UNL     1      29.523  38.598  26.404  1.00  0.00     0.048 A 
ATOM      2  C   UNL     1      28.945  38.765  27.676  1.00  0.00     0.030 A 
ATOM      3  C   UNL     1      29.338  37.894  28.690  1.00  0.00     0.046 A 
ATOM      4  C   UNL     1      30.258  36.903  28.471  1.00  0.00     0.003 A 
ATOM      5  C   UNL     1      30.427  36.227  29.659  1.00  0.00     0.028 A 
ATOM      6  C   UNL     1      29.578  36.861  30.561  1.00  0.00     0.083 A 
ATOM      7  N   UNL     1      28.915  37.879  29.965  1.00  0.00    -0.361 N 
ATOM      8  C   UNL     1      30.850  36.711  27.224  1.00  0.00     0.056 A 
ATOM      9  C   UNL     1      30.473  37.575  26.175  1.00  0.00     0.116 A 
ATOM     10  H   UNL     1      28.218  38.518  30.408  1.00  0.00     0.166 HD
ENDROOT
BRANCH   9  11
ATOM     11  O   UNL     1      31.031  37.431  24.907  1.00  0.00    -0.508 OA
ATOM     12  H   UNL     1      32.015  37.227  24.782  1.00  0.00     0.293 HD
ENDBRANCH   9  11
TORSDOF 1
ENDMDL
MODEL 5
REMARK VINA RESULT:    -5.266     13.142     13.899
REMARK INTER + INTRA:          -5.420
REMARK INTER:                  -5.420
REMARK INTRA:                   0.000
REMARK UNBOUND:                 0.000
REMARK SMILES Oc1ccc2[nH]ccc2c1
REMARK SMILES IDX 3 1 4 2 5 3 9 4 8 5 7 6 6 7 10 8 2 9 1 11
REMARK H PARENT 6 10 1 12
REMARK Flexibility Score: inf
ROOT
ATOM      1  C   UNL     1      26.550  46.875  18.034  1.00  0.00     0.048 A 
ATOM      2  C   UNL     1      25.149  46.773  18.109  1.00  0.00     0.030 A 
ATOM      3  C   UNL     1      24.558  46.825  19.371  1.00  0.00     0.046 A 
ATOM      4  C   UNL     1      25.305  46.972  20.509  1.00  0.00     0.003 A 
ATOM      5  C   UNL     1      24.433  46.988  21.575  1.00  0.00     0.028 A 
ATOM      6  C   UNL     1      23.169  46.846  21.012  1.00  0.00     0.083 A 
ATOM      7  N   UNL     1      23.250  46.747  19.665  1.00  0.00    -0.361 N 
ATOM      8  C   UNL     1      26.694  47.076  20.470  1.00  0.00     0.056 A 
ATOM      9  C   UNL     1      27.324  47.026  19.209  1.00  0.00     0.116 A 
ATOM     10  H   UNL     1      22.457  46.633  18.995  1.00  0.00     0.166 HD
ENDROOT
BRANCH   9  11
ATOM     11  O   UNL     1      28.710  47.125  19.107  1.00  0.00    -0.508 OA
ATOM     12  H   UNL     1      29.161  47.338  18.226  1.00  0.00     0.293 HD
ENDBRANCH   9  11
TORSDOF 1
ENDMDL
MODEL 6
REMARK VINA RESULT:    -5.161      2.110      3.416
REMARK INTER + INTRA:          -5.311
REMARK INTER:                  -5.311
REMARK INTRA:                   0.000
REMARK UNBOUND:                 0.000
REMARK SMILES Oc1ccc2[nH]ccc2c1
REMARK SMILES IDX 3 1 4 2 5 3 9 4 8 5 7 6 6 7 10 8 2 9 1 11
REMARK H PARENT 6 10 1 12
REMARK Flexibility Score: inf
ROOT
ATOM      1  C   UNL     1      29.959  38.030  26.360  1.00  0.00     0.048 A 
ATOM      2  C   UNL     1      30.488  36.947  27.086  1.00  0.00     0.030 A 
ATOM      3  C   UNL     1      30.176  36.857  28.442  1.00  0.00     0.046 A 
ATOM      4  C   UNL     1      29.381  37.785  29.060  1.00  0.00     0.003 A 
ATOM      5  C   UNL     1      29.266  37.415  30.382  1.00  0.00     0.028 A 
ATOM      6  C   UNL     1      30.018  36.250  30.498  1.00  0.00     0.083 A 
ATOM      7  N   UNL     1      30.571  35.912  29.311  1.00  0.00    -0.361 N 
ATOM      8  C   UNL     1      28.842  38.869  28.370  1.00  0.00     0.056 A 
ATOM      9  C   UNL     1      29.139  38.991  26.997  1.00  0.00     0.116 A 
ATOM     10  H   UNL     1      31.180  35.088  29.114  1.00  0.00     0.166 HD
ENDROOT
BRANCH   9  11
ATOM     11  O   UNL     1      28.628  40.054  26.255  1.00  0.00    -0.508 OA
ATOM     12  H   UNL     1      28.839  40.161  25.271  1.00  0.00     0.293 HD
ENDBRANCH   9  11
TORSDOF 1
ENDMDL
MODEL 7
REMARK VINA RESULT:    -5.127      2.986      4.052
REMARK INTER + INTRA:          -5.277
REMARK INTER:                  -5.277
REMARK INTRA:                   0.000
REMARK UNBOUND:                 0.000
REMARK SMILES Oc1ccc2[nH]ccc2c1
REMARK SMILES IDX 3 1 4 2 5 3 9 4 8 5 7 6 6 7 10 8 2 9 1 11
REMARK H PARENT 6 10 1 12
REMARK Flexibility Score: inf
ROOT
ATOM      1  C   UNL     1      29.256  35.596  25.779  1.00  0.00     0.048 A 
ATOM      2  C   UNL     1      28.510  35.144  26.883  1.00  0.00     0.030 A 
ATOM      3  C   UNL     1      28.809  35.679  28.135  1.00  0.00     0.046 A 
ATOM      4  C   UNL     1      29.794  36.616  28.300  1.00  0.00     0.003 A 
ATOM      5  C   UNL     1      29.838  36.936  29.639  1.00  0.00     0.028 A 
ATOM      6  C   UNL     1      28.850  36.155  30.231  1.00  0.00     0.083 A 
ATOM      7  N   UNL     1      28.224  35.389  29.308  1.00  0.00    -0.361 N 
ATOM      8  C   UNL     1      30.551  37.085  27.228  1.00  0.00     0.056 A 
ATOM      9  C   UNL     1      30.275  36.563  25.947  1.00  0.00     0.116 A 
ATOM     10  H   UNL     1      27.447  34.713  29.478  1.00  0.00     0.166 HD
ENDROOT
BRANCH   9  11
ATOM     11  O   UNL     1      30.999  36.994  24.838  1.00  0.00    -0.508 OA
ATOM     12  H   UNL     1      31.160  36.387  24.044  1.00  0.00     0.293 HD
ENDBRANCH   9  11
TORSDOF 1
ENDMDL
MODEL 8
REMARK VINA RESULT:    -5.022      1.500      2.174
REMARK INTER + INTRA:          -5.169
REMARK INTER:                  -5.169
REMARK INTRA:                   0.000
REMARK UNBOUND:                 0.000
REMARK SMILES Oc1ccc2[nH]ccc2c1
REMARK SMILES IDX 3 1 4 2 5 3 9 4 8 5 7 6 6 7 10 8 2 9 1 11
REMARK H PARENT 6 10 1 12
REMARK Flexibility Score: inf
ROOT
ATOM      1  C   UNL     1      30.417  36.125  28.505  1.00  0.00     0.048 A 
ATOM      2  C   UNL     1      30.327  37.006  27.412  1.00  0.00     0.030 A 
ATOM      3  C   UNL     1      29.630  38.199  27.591  1.00  0.00     0.046 A 
ATOM      4  C   UNL     1      29.047  38.518  28.789  1.00  0.00     0.003 A 
ATOM      5  C   UNL     1      28.445  39.748  28.640  1.00  0.00     0.028 A 
ATOM      6  C   UNL     1      28.701  40.120  27.324  1.00  0.00     0.083 A 
ATOM      7  N   UNL     1      29.425  39.171  26.687  1.00  0.00    -0.361 N 
ATOM      8  C   UNL     1      29.118  37.669  29.892  1.00  0.00     0.056 A 
ATOM      9  C   UNL     1      29.816  36.452  29.744  1.00  0.00     0.116 A 
ATOM     10  H   UNL     1      29.755  39.192  25.697  1.00  0.00     0.166 HD
ENDROOT
BRANCH   9  11
ATOM     11  O   UNL     1      29.920  35.564  30.811  1.00  0.00    -0.508 OA
ATOM     12  H   UNL     1      30.081  35.890  31.756  1.00  0.00     0.293 HD
ENDBRANCH   9  11
TORSDOF 1
ENDMDL
MODEL 9
REMARK VINA RESULT:    -5.003      1.932      2.000
REMARK INTER + INTRA:          -5.149
REMARK INTER:                  -5.149
REMARK INTRA:                   0.000
REMARK UNBOUND:                 0.000
REMARK SMILES Oc1ccc2[nH]ccc2c1
REMARK SMILES IDX 3 1 4 2 5 3 9 4 8 5 7 6 6 7 10 8 2 9 1 11
REMARK H PARENT 6 10 1 12
REMARK Flexibility Score: inf
ROOT
ATOM      1  C   UNL     1      29.884  36.799  29.739  1.00  0.00     0.048 A 
ATOM      2  C   UNL     1      30.506  36.509  28.510  1.00  0.00     0.030 A 
ATOM      3  C   UNL     1      29.706  36.046  27.468  1.00  0.00     0.046 A 
ATOM      4  C   UNL     1      28.355  35.873  27.620  1.00  0.00     0.003 A 
ATOM      5  C   UNL     1      27.862  35.410  26.421  1.00  0.00     0.028 A 
ATOM      6  C   UNL     1      28.968  35.323  25.582  1.00  0.00     0.083 A 
ATOM      7  N   UNL     1      30.093  35.713  26.226  1.00  0.00    -0.361 N 
ATOM      8  C   UNL     1      27.709  36.151  28.823  1.00  0.00     0.056 A 
ATOM      9  C   UNL     1      28.490  36.621  29.899  1.00  0.00     0.116 A 
ATOM     10  H   UNL     1      31.060  35.746  25.835  1.00  0.00     0.166 HD
ENDROOT
BRANCH   9  11
ATOM     11  O   UNL     1      27.898  36.916  31.125  1.00  0.00    -0.508 OA
ATOM     12  H   UNL     1      28.333  37.552  31.782  1.00  0.00     0.293 HD
ENDBRANCH   9  11
TORSDOF 1
ENDMDL
