MODEL 1
REMARK VINA RESULT:    -1.124      0.000      0.000
REMARK INTER + INTRA:          -4.245
REMARK INTER:                  -2.964
REMARK INTRA:                  -1.281
REMARK UNBOUND:                -1.281
REMARK SMILES CCCCCCCCCCCCCCCCCCCCCCCCCCCCCC(=O)[O-]
REMARK SMILES IDX 16 1 17 2 18 3 19 4 20 5 21 6 22 7 23 8 24 9 25 10 26 11
REMARK SMILES IDX 27 12 28 13 29 14 30 15 31 16 32 17 15 18 14 19 13 20 12 21
REMARK SMILES IDX 11 22 10 23 9 24 8 25 7 26 6 27 5 28 4 29 3 30 2 31 1 32
REMARK H PARENT
REMARK Flexibility Score: inf
ROOT
ATOM      1  C   UNL     1      28.180  31.840  36.100  1.00  0.00     0.000 C 
ENDROOT
BRANCH   1   2
ATOM      2  C   UNL     1      29.427  32.170  36.937  1.00  0.00     0.000 C 
BRANCH   2   3
ATOM      3  C   UNL     1      30.715  31.594  36.326  1.00  0.00     0.000 C 
BRANCH   3   4
ATOM      4  C   UNL     1      31.124  30.254  36.962  1.00  0.00     0.000 C 
BRANCH   4   5
ATOM      5  C   UNL     1      31.066  29.087  35.964  1.00  0.00     0.000 C 
BRANCH   5   6
ATOM      6  C   UNL     1      29.650  28.859  35.403  1.00  0.00     0.000 C 
BRANCH   6   7
ATOM      7  C   UNL     1      29.647  28.734  33.865  1.00  0.00     0.000 C 
BRANCH   7   8
ATOM      8  C   UNL     1      30.784  29.510  33.179  1.00  0.00     0.000 C 
BRANCH   8   9
ATOM      9  C   UNL     1      30.731  31.019  33.454  1.00  0.00     0.000 C 
BRANCH   9  10
ATOM     10  C   UNL     1      30.135  31.778  32.260  1.00  0.00     0.000 C 
BRANCH  10  11
ATOM     11  C   UNL     1      29.210  32.931  32.686  1.00  0.00     0.000 C 
BRANCH  11  12
ATOM     12  C   UNL     1      28.798  33.893  31.553  1.00  0.00     0.000 C 
BRANCH  12  13
ATOM     13  C   UNL     1      28.071  33.232  30.367  1.00  0.00     0.006 C 
BRANCH  13  14
ATOM     14  C   UNL     1      27.081  34.175  29.674  1.00  0.00     0.053 C 
BRANCH  14  15
ATOM     15  C   UNL     1      25.675  33.813  30.039  1.00  0.00     0.041 C 
ATOM     16  O   UNL     1      25.433  32.727  30.630  1.00  0.00    -0.550 OA
ATOM     17  O   UNL     1      24.625  34.649  29.678  1.00  0.00    -0.550 OA
ENDBRANCH  14  15
ENDBRANCH  13  14
ENDBRANCH  12  13
ENDBRANCH  11  12
ENDBRANCH  10  11
ENDBRANCH   9  10
ENDBRANCH   8   9
ENDBRANCH   7   8
ENDBRANCH   6   7
ENDBRANCH   5   6
ENDBRANCH   4   5
ENDBRANCH   3   4
ENDBRANCH   2   3
ENDBRANCH   1   2
BRANCH   1  18
ATOM     18  C   UNL     1      26.896  31.757  36.948  1.00  0.00     0.000 C 
BRANCH  18  19
ATOM     19  C   UNL     1      26.143  33.091  37.125  1.00  0.00     0.000 C 
BRANCH  19  20
ATOM     20  C   UNL     1      24.614  33.006  36.940  1.00  0.00     0.000 C 
BRANCH  20  21
ATOM     21  C   UNL     1      24.094  33.486  35.570  1.00  0.00     0.000 C 
BRANCH  21  22
ATOM     22  C   UNL     1      24.501  32.610  34.372  1.00  0.00     0.000 C 
BRANCH  22  23
ATOM     23  C   UNL     1      25.543  33.285  33.462  1.00  0.00     0.000 C 
BRANCH  23  24
ATOM     24  C   UNL     1      26.721  33.888  34.246  1.00  0.00    -0.000 C 
BRANCH  24  25
ATOM     25  C   UNL     1      26.889  35.414  34.117  1.00  0.00    -0.000 C 
BRANCH  25  26
ATOM     26  C   UNL     1      26.505  35.978  32.733  1.00  0.00    -0.000 C 
BRANCH  26  27
ATOM     27  C   UNL     1      26.615  37.513  32.665  1.00  0.00    -0.000 C 
BRANCH  27  28
ATOM     28  C   UNL     1      26.658  38.165  34.058  1.00  0.00    -0.000 C 
BRANCH  28  29
ATOM     29  C   UNL     1      27.298  39.563  34.040  1.00  0.00    -0.000 C 
BRANCH  29  30
ATOM     30  C   UNL     1      26.484  40.526  33.162  1.00  0.00    -0.000 C 
BRANCH  30  31
ATOM     31  C   UNL     1      25.207  41.025  33.857  1.00  0.00    -0.003 C 
ATOM     32  C   UNL     1      24.910  42.496  33.564  1.00  0.00     0.004 C 
ENDBRANCH  30  31
ENDBRANCH  29  30
ENDBRANCH  28  29
ENDBRANCH  27  28
ENDBRANCH  26  27
ENDBRANCH  25  26
ENDBRANCH  24  25
ENDBRANCH  23  24
ENDBRANCH  22  23
ENDBRANCH  21  22
ENDBRANCH  20  21
ENDBRANCH  19  20
ENDBRANCH  18  19
ENDBRANCH   1  18
TORSDOF 28
ENDMDL
MODEL 2
REMARK VINA RESULT:    -1.115      2.380      2.706
REMARK INTER + INTRA:          -4.222
REMARK INTER:                  -3.127
REMARK INTRA:                  -1.095
REMARK UNBOUND:                -1.281
REMARK SMILES CCCCCCCCCCCCCCCCCCCCCCCCCCCCCC(=O)[O-]
REMARK SMILES IDX 16 1 17 2 18 3 19 4 20 5 21 6 22 7 23 8 24 9 25 10 26 11
REMARK SMILES IDX 27 12 28 13 29 14 30 15 31 16 32 17 15 18 14 19 13 20 12 21
REMARK SMILES IDX 11 22 10 23 9 24 8 25 7 26 6 27 5 28 4 29 3 30 2 31 1 32
REMARK H PARENT
REMARK Flexibility Score: inf
ROOT
ATOM      1  C   UNL     1      28.006  31.778  35.839  1.00  0.00     0.000 C 
ENDROOT
BRANCH   1   2
ATOM      2  C   UNL     1      29.340  31.967  36.579  1.00  0.00     0.000 C 
BRANCH   2   3
ATOM      3  C   UNL     1      30.443  31.032  36.056  1.00  0.00     0.000 C 
BRANCH   3   4
ATOM      4  C   UNL     1      30.738  29.870  37.020  1.00  0.00     0.000 C 
BRANCH   4   5
ATOM      5  C   UNL     1      30.635  28.497  36.335  1.00  0.00     0.000 C 
BRANCH   5   6
ATOM      6  C   UNL     1      29.431  28.402  35.381  1.00  0.00     0.000 C 
BRANCH   6   7
ATOM      7  C   UNL     1      29.838  27.905  33.978  1.00  0.00     0.000 C 
BRANCH   7   8
ATOM      8  C   UNL     1      31.122  28.559  33.439  1.00  0.00     0.000 C 
BRANCH   8   9
ATOM      9  C   UNL     1      30.952  30.054  33.136  1.00  0.00     0.000 C 
BRANCH   9  10
ATOM     10  C   UNL     1      31.089  30.333  31.633  1.00  0.00     0.000 C 
BRANCH  10  11
ATOM     11  C   UNL     1      30.303  31.577  31.182  1.00  0.00     0.000 C 
BRANCH  11  12
ATOM     12  C   UNL     1      30.737  32.170  29.826  1.00  0.00     0.000 C 
BRANCH  12  13
ATOM     13  C   UNL     1      30.917  31.144  28.692  1.00  0.00     0.006 C 
BRANCH  13  14
ATOM     14  C   UNL     1      30.995  31.795  27.306  1.00  0.00     0.053 C 
BRANCH  14  15
ATOM     15  C   UNL     1      30.276  30.958  26.296  1.00  0.00     0.041 C 
ATOM     16  O   UNL     1      29.075  31.207  26.005  1.00  0.00    -0.550 OA
ATOM     17  O   UNL     1      30.912  29.869  25.713  1.00  0.00    -0.550 OA
ENDBRANCH  14  15
ENDBRANCH  13  14
ENDBRANCH  12  13
ENDBRANCH  11  12
ENDBRANCH  10  11
ENDBRANCH   9  10
ENDBRANCH   8   9
ENDBRANCH   7   8
ENDBRANCH   6   7
ENDBRANCH   5   6
ENDBRANCH   4   5
ENDBRANCH   3   4
ENDBRANCH   2   3
ENDBRANCH   1   2
BRANCH   1  18
ATOM     18  C   UNL     1      26.782  31.940  36.760  1.00  0.00     0.000 C 
BRANCH  18  19
ATOM     19  C   UNL     1      26.046  33.289  36.636  1.00  0.00     0.000 C 
BRANCH  19  20
ATOM     20  C   UNL     1      24.538  33.184  36.331  1.00  0.00     0.000 C 
BRANCH  20  21
ATOM     21  C   UNL     1      24.143  33.500  34.874  1.00  0.00     0.000 C 
BRANCH  21  22
ATOM     22  C   UNL     1      24.724  32.545  33.816  1.00  0.00     0.000 C 
BRANCH  22  23
ATOM     23  C   UNL     1      25.865  33.178  33.000  1.00  0.00     0.000 C 
BRANCH  23  24
ATOM     24  C   UNL     1      26.929  33.852  33.883  1.00  0.00    -0.000 C 
BRANCH  24  25
ATOM     25  C   UNL     1      26.853  35.389  33.953  1.00  0.00    -0.000 C 
BRANCH  25  26
ATOM     26  C   UNL     1      27.110  36.097  32.605  1.00  0.00    -0.000 C 
BRANCH  26  27
ATOM     27  C   UNL     1      26.817  37.609  32.664  1.00  0.00    -0.000 C 
BRANCH  27  28
ATOM     28  C   UNL     1      26.928  38.178  34.088  1.00  0.00    -0.000 C 
BRANCH  28  29
ATOM     29  C   UNL     1      26.975  39.714  34.112  1.00  0.00    -0.000 C 
BRANCH  29  30
ATOM     30  C   UNL     1      25.886  40.310  33.207  1.00  0.00    -0.000 C 
BRANCH  30  31
ATOM     31  C   UNL     1      24.671  40.820  33.999  1.00  0.00    -0.003 C 
ATOM     32  C   UNL     1      24.823  40.621  35.507  1.00  0.00     0.004 C 
ENDBRANCH  30  31
ENDBRANCH  29  30
ENDBRANCH  28  29
ENDBRANCH  27  28
ENDBRANCH  26  27
ENDBRANCH  25  26
ENDBRANCH  24  25
ENDBRANCH  23  24
ENDBRANCH  22  23
ENDBRANCH  21  22
ENDBRANCH  20  21
ENDBRANCH  19  20
ENDBRANCH  18  19
ENDBRANCH   1  18
TORSDOF 28
ENDMDL
MODEL 3
REMARK VINA RESULT:    -0.133      3.222      5.221
REMARK INTER + INTRA:          -1.631
REMARK INTER:                   0.378
REMARK INTRA:                  -2.009
REMARK UNBOUND:                -1.281
REMARK SMILES CCCCCCCCCCCCCCCCCCCCCCCCCCCCCC(=O)[O-]
REMARK SMILES IDX 16 1 17 2 18 3 19 4 20 5 21 6 22 7 23 8 24 9 25 10 26 11
REMARK SMILES IDX 27 12 28 13 29 14 30 15 31 16 32 17 15 18 14 19 13 20 12 21
REMARK SMILES IDX 11 22 10 23 9 24 8 25 7 26 6 27 5 28 4 29 3 30 2 31 1 32
REMARK H PARENT
REMARK Flexibility Score: inf
ROOT
ATOM      1  C   UNL     1      27.788  31.928  36.928  1.00  0.00     0.000 C 
ENDROOT
BRANCH   1   2
ATOM      2  C   UNL     1      28.622  33.205  36.729  1.00  0.00     0.000 C 
BRANCH   2   3
ATOM      3  C   UNL     1      30.125  32.967  36.945  1.00  0.00     0.000 C 
BRANCH   3   4
ATOM      4  C   UNL     1      30.824  32.422  35.687  1.00  0.00     0.000 C 
BRANCH   4   5
ATOM      5  C   UNL     1      30.408  30.978  35.363  1.00  0.00     0.000 C 
BRANCH   5   6
ATOM      6  C   UNL     1      30.233  30.739  33.852  1.00  0.00     0.000 C 
BRANCH   6   7
ATOM      7  C   UNL     1      30.029  32.056  33.074  1.00  0.00     0.000 C 
BRANCH   7   8
ATOM      8  C   UNL     1      28.634  32.676  33.264  1.00  0.00     0.000 C 
BRANCH   8   9
ATOM      9  C   UNL     1      28.501  34.061  32.616  1.00  0.00     0.000 C 
BRANCH   9  10
ATOM     10  C   UNL     1      27.879  35.070  33.591  1.00  0.00     0.000 C 
BRANCH  10  11
ATOM     11  C   UNL     1      27.037  36.146  32.881  1.00  0.00     0.000 C 
BRANCH  11  12
ATOM     12  C   UNL     1      26.773  37.421  33.708  1.00  0.00     0.000 C 
BRANCH  12  13
ATOM     13  C   UNL     1      26.906  38.743  32.930  1.00  0.00     0.006 C 
BRANCH  13  14
ATOM     14  C   UNL     1      27.065  39.961  33.848  1.00  0.00     0.053 C 
BRANCH  14  15
ATOM     15  C   UNL     1      25.727  40.434  34.323  1.00  0.00     0.041 C 
ATOM     16  O   UNL     1      25.054  41.239  33.625  1.00  0.00    -0.550 OA
ATOM     17  O   UNL     1      25.244  40.028  35.561  1.00  0.00    -0.550 OA
ENDBRANCH  14  15
ENDBRANCH  13  14
ENDBRANCH  12  13
ENDBRANCH  11  12
ENDBRANCH  10  11
ENDBRANCH   9  10
ENDBRANCH   8   9
ENDBRANCH   7   8
ENDBRANCH   6   7
ENDBRANCH   5   6
ENDBRANCH   4   5
ENDBRANCH   3   4
ENDBRANCH   2   3
ENDBRANCH   1   2
BRANCH   1  18
ATOM     18  C   UNL     1      26.288  32.218  37.125  1.00  0.00     0.000 C 
BRANCH  18  19
ATOM     19  C   UNL     1      25.868  33.682  36.885  1.00  0.00     0.000 C 
BRANCH  19  20
ATOM     20  C   UNL     1      25.080  33.929  35.583  1.00  0.00     0.000 C 
BRANCH  20  21
ATOM     21  C   UNL     1      24.338  32.698  35.025  1.00  0.00     0.000 C 
BRANCH  21  22
ATOM     22  C   UNL     1      24.727  32.293  33.591  1.00  0.00     0.000 C 
BRANCH  22  23
ATOM     23  C   UNL     1      25.352  33.450  32.791  1.00  0.00     0.000 C 
BRANCH  23  24
ATOM     24  C   UNL     1      25.141  33.310  31.274  1.00  0.00    -0.000 C 
BRANCH  24  25
ATOM     25  C   UNL     1      24.406  34.484  30.598  1.00  0.00    -0.000 C 
BRANCH  25  26
ATOM     26  C   UNL     1      25.091  35.004  29.316  1.00  0.00    -0.000 C 
BRANCH  26  27
ATOM     27  C   UNL     1      24.230  34.793  28.056  1.00  0.00    -0.000 C 
BRANCH  27  28
ATOM     28  C   UNL     1      23.788  36.119  27.413  1.00  0.00    -0.000 C 
BRANCH  28  29
ATOM     29  C   UNL     1      22.921  35.912  26.160  1.00  0.00    -0.000 C 
BRANCH  29  30
ATOM     30  C   UNL     1      21.998  37.118  25.928  1.00  0.00    -0.000 C 
BRANCH  30  31
ATOM     31  C   UNL     1      22.438  38.361  26.719  1.00  0.00    -0.003 C 
ATOM     32  C   UNL     1      23.466  39.207  25.969  1.00  0.00     0.004 C 
ENDBRANCH  30  31
ENDBRANCH  29  30
ENDBRANCH  28  29
ENDBRANCH  27  28
ENDBRANCH  26  27
ENDBRANCH  25  26
ENDBRANCH  24  25
ENDBRANCH  23  24
ENDBRANCH  22  23
ENDBRANCH  21  22
ENDBRANCH  20  21
ENDBRANCH  19  20
ENDBRANCH  18  19
ENDBRANCH   1  18
TORSDOF 28
ENDMDL
MODEL 4
REMARK VINA RESULT:     0.034      4.408      7.138
REMARK INTER + INTRA:          -1.191
REMARK INTER:                   0.978
REMARK INTRA:                  -2.169
REMARK UNBOUND:                -1.281
REMARK SMILES CCCCCCCCCCCCCCCCCCCCCCCCCCCCCC(=O)[O-]
REMARK SMILES IDX 16 1 17 2 18 3 19 4 20 5 21 6 22 7 23 8 24 9 25 10 26 11
REMARK SMILES IDX 27 12 28 13 29 14 30 15 31 16 32 17 15 18 14 19 13 20 12 21
REMARK SMILES IDX 11 22 10 23 9 24 8 25 7 26 6 27 5 28 4 29 3 30 2 31 1 32
REMARK H PARENT
REMARK Flexibility Score: inf
ROOT
ATOM      1  C   UNL     1      28.499  33.606  32.384  1.00  0.00     0.000 C 
ENDROOT
BRANCH   1   2
ATOM      2  C   UNL     1      28.524  34.830  33.314  1.00  0.00     0.000 C 
BRANCH   2   3
ATOM      3  C   UNL     1      27.499  35.901  32.905  1.00  0.00     0.000 C 
BRANCH   3   4
ATOM      4  C   UNL     1      26.268  35.923  33.827  1.00  0.00     0.000 C 
BRANCH   4   5
ATOM      5  C   UNL     1      26.327  34.837  34.913  1.00  0.00     0.000 C 
BRANCH   5   6
ATOM      6  C   UNL     1      25.589  33.550  34.502  1.00  0.00     0.000 C 
BRANCH   6   7
ATOM      7  C   UNL     1      25.741  32.431  35.553  1.00  0.00     0.000 C 
BRANCH   7   8
ATOM      8  C   UNL     1      27.131  31.773  35.559  1.00  0.00     0.000 C 
BRANCH   8   9
ATOM      9  C   UNL     1      27.887  31.981  36.879  1.00  0.00     0.000 C 
BRANCH   9  10
ATOM     10  C   UNL     1      28.866  33.158  36.776  1.00  0.00     0.000 C 
BRANCH  10  11
ATOM     11  C   UNL     1      30.339  32.709  36.752  1.00  0.00     0.000 C 
BRANCH  11  12
ATOM     12  C   UNL     1      30.567  31.233  36.364  1.00  0.00     0.000 C 
BRANCH  12  13
ATOM     13  C   UNL     1      31.125  31.009  34.947  1.00  0.00     0.006 C 
BRANCH  13  14
ATOM     14  C   UNL     1      30.061  30.518  33.958  1.00  0.00     0.053 C 
BRANCH  14  15
ATOM     15  C   UNL     1      30.369  29.124  33.511  1.00  0.00     0.041 C 
ATOM     16  O   UNL     1      30.029  28.737  32.360  1.00  0.00    -0.550 OA
ATOM     17  O   UNL     1      30.984  28.233  34.382  1.00  0.00    -0.550 OA
ENDBRANCH  14  15
ENDBRANCH  13  14
ENDBRANCH  12  13
ENDBRANCH  11  12
ENDBRANCH  10  11
ENDBRANCH   9  10
ENDBRANCH   8   9
ENDBRANCH   7   8
ENDBRANCH   6   7
ENDBRANCH   5   6
ENDBRANCH   4   5
ENDBRANCH   3   4
ENDBRANCH   2   3
ENDBRANCH   1   2
BRANCH   1  18
ATOM     18  C   UNL     1      27.823  33.897  31.030  1.00  0.00     0.000 C 
BRANCH  18  19
ATOM     19  C   UNL     1      26.356  33.434  30.920  1.00  0.00     0.000 C 
BRANCH  19  20
ATOM     20  C   UNL     1      25.364  34.518  30.452  1.00  0.00     0.000 C 
BRANCH  20  21
ATOM     21  C   UNL     1      24.648  34.216  29.120  1.00  0.00     0.000 C 
BRANCH  21  22
ATOM     22  C   UNL     1      24.131  35.450  28.360  1.00  0.00     0.000 C 
BRANCH  22  23
ATOM     23  C   UNL     1      22.970  35.122  27.404  1.00  0.00     0.000 C 
BRANCH  23  24
ATOM     24  C   UNL     1      23.127  35.781  26.023  1.00  0.00    -0.000 C 
BRANCH  24  25
ATOM     25  C   UNL     1      21.813  36.048  25.264  1.00  0.00    -0.000 C 
BRANCH  25  26
ATOM     26  C   UNL     1      21.724  37.451  24.628  1.00  0.00    -0.000 C 
BRANCH  26  27
ATOM     27  C   UNL     1      21.377  38.547  25.653  1.00  0.00    -0.000 C 
BRANCH  27  28
ATOM     28  C   UNL     1      22.396  38.626  26.803  1.00  0.00    -0.000 C 
BRANCH  28  29
ATOM     29  C   UNL     1      23.838  38.813  26.308  1.00  0.00    -0.000 C 
BRANCH  29  30
ATOM     30  C   UNL     1      24.332  40.242  26.586  1.00  0.00    -0.000 C 
BRANCH  30  31
ATOM     31  C   UNL     1      23.965  41.224  25.461  1.00  0.00    -0.003 C 
ATOM     32  C   UNL     1      25.069  41.361  24.413  1.00  0.00     0.004 C 
ENDBRANCH  30  31
ENDBRANCH  29  30
ENDBRANCH  28  29
ENDBRANCH  27  28
ENDBRANCH  26  27
ENDBRANCH  25  26
ENDBRANCH  24  25
ENDBRANCH  23  24
ENDBRANCH  22  23
ENDBRANCH  21  22
ENDBRANCH  20  21
ENDBRANCH  19  20
ENDBRANCH  18  19
ENDBRANCH   1  18
TORSDOF 28
ENDMDL
MODEL 5
REMARK VINA RESULT:     0.053      2.601      5.036
REMARK INTER + INTRA:          -1.141
REMARK INTER:                   1.600
REMARK INTRA:                  -2.740
REMARK UNBOUND:                -1.281
REMARK SMILES CCCCCCCCCCCCCCCCCCCCCCCCCCCCCC(=O)[O-]
REMARK SMILES IDX 16 1 17 2 18 3 19 4 20 5 21 6 22 7 23 8 24 9 25 10 26 11
REMARK SMILES IDX 27 12 28 13 29 14 30 15 31 16 32 17 15 18 14 19 13 20 12 21
REMARK SMILES IDX 11 22 10 23 9 24 8 25 7 26 6 27 5 28 4 29 3 30 2 31 1 32
REMARK H PARENT
REMARK Flexibility Score: inf
ROOT
ATOM      1  C   UNL     1      26.625  31.789  37.103  1.00  0.00     0.000 C 
ENDROOT
BRANCH   1   2
ATOM      2  C   UNL     1      26.847  33.309  37.125  1.00  0.00     0.000 C 
BRANCH   2   3
ATOM      3  C   UNL     1      25.531  34.099  37.037  1.00  0.00     0.000 C 
BRANCH   3   4
ATOM      4  C   UNL     1      25.340  34.779  35.670  1.00  0.00     0.000 C 
BRANCH   4   5
ATOM      5  C   UNL     1      24.407  33.984  34.743  1.00  0.00     0.000 C 
BRANCH   5   6
ATOM      6  C   UNL     1      25.047  32.678  34.238  1.00  0.00     0.000 C 
BRANCH   6   7
ATOM      7  C   UNL     1      24.656  32.363  32.779  1.00  0.00     0.000 C 
BRANCH   7   8
ATOM      8  C   UNL     1      25.675  32.867  31.743  1.00  0.00     0.000 C 
BRANCH   8   9
ATOM      9  C   UNL     1      25.055  33.105  30.359  1.00  0.00     0.000 C 
BRANCH   9  10
ATOM     10  C   UNL     1      24.699  34.585  30.161  1.00  0.00     0.000 C 
BRANCH  10  11
ATOM     11  C   UNL     1      24.831  35.040  28.697  1.00  0.00     0.000 C 
BRANCH  11  12
ATOM     12  C   UNL     1      23.613  35.803  28.136  1.00  0.00     0.000 C 
BRANCH  12  13
ATOM     13  C   UNL     1      23.687  36.141  26.636  1.00  0.00     0.006 C 
BRANCH  13  14
ATOM     14  C   UNL     1      22.349  36.631  26.069  1.00  0.00     0.053 C 
BRANCH  14  15
ATOM     15  C   UNL     1      22.249  38.120  26.183  1.00  0.00     0.041 C 
ATOM     16  O   UNL     1      23.221  38.789  26.626  1.00  0.00    -0.550 OA
ATOM     17  O   UNL     1      21.064  38.766  25.851  1.00  0.00    -0.550 OA
ENDBRANCH  14  15
ENDBRANCH  13  14
ENDBRANCH  12  13
ENDBRANCH  11  12
ENDBRANCH  10  11
ENDBRANCH   9  10
ENDBRANCH   8   9
ENDBRANCH   7   8
ENDBRANCH   6   7
ENDBRANCH   5   6
ENDBRANCH   4   5
ENDBRANCH   3   4
ENDBRANCH   2   3
ENDBRANCH   1   2
BRANCH   1  18
ATOM     18  C   UNL     1      27.572  31.060  36.131  1.00  0.00     0.000 C 
BRANCH  18  19
ATOM     19  C   UNL     1      29.068  31.389  36.305  1.00  0.00     0.000 C 
BRANCH  19  20
ATOM     20  C   UNL     1      29.700  32.189  35.148  1.00  0.00     0.000 C 
BRANCH  20  21
ATOM     21  C   UNL     1      28.699  32.968  34.270  1.00  0.00     0.000 C 
BRANCH  21  22
ATOM     22  C   UNL     1      29.093  33.099  32.788  1.00  0.00     0.000 C 
BRANCH  22  23
ATOM     23  C   UNL     1      28.463  34.328  32.108  1.00  0.00     0.000 C 
BRANCH  23  24
ATOM     24  C   UNL     1      27.822  35.303  33.110  1.00  0.00    -0.000 C 
BRANCH  24  25
ATOM     25  C   UNL     1      26.595  36.075  32.588  1.00  0.00    -0.000 C 
BRANCH  25  26
ATOM     26  C   UNL     1      26.760  37.609  32.603  1.00  0.00    -0.000 C 
BRANCH  26  27
ATOM     27  C   UNL     1      27.189  38.146  33.982  1.00  0.00    -0.000 C 
BRANCH  27  28
ATOM     28  C   UNL     1      27.376  39.673  33.990  1.00  0.00    -0.000 C 
BRANCH  28  29
ATOM     29  C   UNL     1      26.204  40.419  33.334  1.00  0.00    -0.000 C 
BRANCH  29  30
ATOM     30  C   UNL     1      25.065  40.642  34.341  1.00  0.00    -0.000 C 
BRANCH  30  31
ATOM     31  C   UNL     1      24.114  41.774  33.917  1.00  0.00    -0.003 C 
ATOM     32  C   UNL     1      24.838  43.102  33.694  1.00  0.00     0.004 C 
ENDBRANCH  30  31
ENDBRANCH  29  30
ENDBRANCH  28  29
ENDBRANCH  27  28
ENDBRANCH  26  27
ENDBRANCH  25  26
ENDBRANCH  24  25
ENDBRANCH  23  24
ENDBRANCH  22  23
ENDBRANCH  21  22
ENDBRANCH  20  21
ENDBRANCH  19  20
ENDBRANCH  18  19
ENDBRANCH   1  18
TORSDOF 28
ENDMDL
MODEL 6
REMARK VINA RESULT:     0.144      1.969      3.343
REMARK INTER + INTRA:          -0.901
REMARK INTER:                   1.697
REMARK INTRA:                  -2.598
REMARK UNBOUND:                -1.281
REMARK SMILES CCCCCCCCCCCCCCCCCCCCCCCCCCCCCC(=O)[O-]
REMARK SMILES IDX 16 1 17 2 18 3 19 4 20 5 21 6 22 7 23 8 24 9 25 10 26 11
REMARK SMILES IDX 27 12 28 13 29 14 30 15 31 16 32 17 15 18 14 19 13 20 12 21
REMARK SMILES IDX 11 22 10 23 9 24 8 25 7 26 6 27 5 28 4 29 3 30 2 31 1 32
REMARK H PARENT
REMARK Flexibility Score: inf
ROOT
ATOM      1  C   UNL     1      27.684  31.375  35.695  1.00  0.00     0.000 C 
ENDROOT
BRANCH   1   2
ATOM      2  C   UNL     1      29.208  31.180  35.631  1.00  0.00     0.000 C 
BRANCH   2   3
ATOM      3  C   UNL     1      29.814  31.707  34.320  1.00  0.00     0.000 C 
BRANCH   3   4
ATOM      4  C   UNL     1      30.488  30.597  33.494  1.00  0.00     0.000 C 
BRANCH   4   5
ATOM      5  C   UNL     1      31.097  31.126  32.185  1.00  0.00     0.000 C 
BRANCH   5   6
ATOM      6  C   UNL     1      30.137  30.989  30.989  1.00  0.00     0.000 C 
BRANCH   6   7
ATOM      7  C   UNL     1      30.087  32.272  30.134  1.00  0.00     0.000 C 
BRANCH   7   8
ATOM      8  C   UNL     1      29.278  33.412  30.776  1.00  0.00     0.000 C 
BRANCH   8   9
ATOM      9  C   UNL     1      27.763  33.165  30.742  1.00  0.00     0.000 C 
BRANCH   9  10
ATOM     10  C   UNL     1      27.018  34.380  30.172  1.00  0.00     0.000 C 
BRANCH  10  11
ATOM     11  C   UNL     1      25.732  33.994  29.421  1.00  0.00     0.000 C 
BRANCH  11  12
ATOM     12  C   UNL     1      24.606  35.047  29.466  1.00  0.00     0.000 C 
BRANCH  12  13
ATOM     13  C   UNL     1      23.690  35.079  28.229  1.00  0.00     0.006 C 
BRANCH  13  14
ATOM     14  C   UNL     1      24.113  36.136  27.202  1.00  0.00     0.053 C 
BRANCH  14  15
ATOM     15  C   UNL     1      22.912  36.698  26.508  1.00  0.00     0.041 C 
ATOM     16  O   UNL     1      22.498  37.854  26.793  1.00  0.00    -0.550 OA
ATOM     17  O   UNL     1      22.215  35.926  25.587  1.00  0.00    -0.550 OA
ENDBRANCH  14  15
ENDBRANCH  13  14
ENDBRANCH  12  13
ENDBRANCH  11  12
ENDBRANCH  10  11
ENDBRANCH   9  10
ENDBRANCH   8   9
ENDBRANCH   7   8
ENDBRANCH   6   7
ENDBRANCH   5   6
ENDBRANCH   4   5
ENDBRANCH   3   4
ENDBRANCH   2   3
ENDBRANCH   1   2
BRANCH   1  18
ATOM     18  C   UNL     1      27.197  31.829  37.084  1.00  0.00     0.000 C 
BRANCH  18  19
ATOM     19  C   UNL     1      26.556  33.230  37.125  1.00  0.00     0.000 C 
BRANCH  19  20
ATOM     20  C   UNL     1      25.015  33.245  37.075  1.00  0.00     0.000 C 
BRANCH  20  21
ATOM     21  C   UNL     1      24.409  33.588  35.698  1.00  0.00     0.000 C 
BRANCH  21  22
ATOM     22  C   UNL     1      24.604  32.515  34.612  1.00  0.00     0.000 C 
BRANCH  22  23
ATOM     23  C   UNL     1      25.551  32.968  33.486  1.00  0.00     0.000 C 
BRANCH  23  24
ATOM     24  C   UNL     1      26.472  34.125  33.908  1.00  0.00    -0.000 C 
BRANCH  24  25
ATOM     25  C   UNL     1      26.170  35.485  33.250  1.00  0.00    -0.000 C 
BRANCH  25  26
ATOM     26  C   UNL     1      27.377  36.444  33.199  1.00  0.00    -0.000 C 
BRANCH  26  27
ATOM     27  C   UNL     1      26.981  37.876  32.787  1.00  0.00    -0.000 C 
BRANCH  27  28
ATOM     28  C   UNL     1      27.114  38.882  33.942  1.00  0.00    -0.000 C 
BRANCH  28  29
ATOM     29  C   UNL     1      26.954  40.340  33.482  1.00  0.00    -0.000 C 
BRANCH  29  30
ATOM     30  C   UNL     1      25.505  40.622  33.054  1.00  0.00    -0.000 C 
BRANCH  30  31
ATOM     31  C   UNL     1      24.718  41.409  34.114  1.00  0.00    -0.003 C 
ATOM     32  C   UNL     1      24.760  42.920  33.881  1.00  0.00     0.004 C 
ENDBRANCH  30  31
ENDBRANCH  29  30
ENDBRANCH  28  29
ENDBRANCH  27  28
ENDBRANCH  26  27
ENDBRANCH  25  26
ENDBRANCH  24  25
ENDBRANCH  23  24
ENDBRANCH  22  23
ENDBRANCH  21  22
ENDBRANCH  20  21
ENDBRANCH  19  20
ENDBRANCH  18  19
ENDBRANCH   1  18
TORSDOF 28
ENDMDL
MODEL 7
REMARK VINA RESULT:     0.173      3.825      8.901
REMARK INTER + INTRA:          -0.826
REMARK INTER:                   0.764
REMARK INTRA:                  -1.590
REMARK UNBOUND:                -1.281
REMARK SMILES CCCCCCCCCCCCCCCCCCCCCCCCCCCCCC(=O)[O-]
REMARK SMILES IDX 16 1 17 2 18 3 19 4 20 5 21 6 22 7 23 8 24 9 25 10 26 11
REMARK SMILES IDX 27 12 28 13 29 14 30 15 31 16 32 17 15 18 14 19 13 20 12 21
REMARK SMILES IDX 11 22 10 23 9 24 8 25 7 26 6 27 5 28 4 29 3 30 2 31 1 32
REMARK H PARENT
REMARK Flexibility Score: inf
ROOT
ATOM      1  C   UNL     1      26.961  33.543  34.035  1.00  0.00     0.000 C 
ENDROOT
BRANCH   1   2
ATOM      2  C   UNL     1      26.973  34.921  33.355  1.00  0.00     0.000 C 
BRANCH   2   3
ATOM      3  C   UNL     1      27.775  34.925  32.044  1.00  0.00     0.000 C 
BRANCH   3   4
ATOM      4  C   UNL     1      26.987  34.323  30.868  1.00  0.00     0.000 C 
BRANCH   4   5
ATOM      5  C   UNL     1      25.532  34.816  30.821  1.00  0.00     0.000 C 
BRANCH   5   6
ATOM      6  C   UNL     1      24.761  34.268  29.607  1.00  0.00     0.000 C 
BRANCH   6   7
ATOM      7  C   UNL     1      24.498  35.356  28.544  1.00  0.00     0.000 C 
BRANCH   7   8
ATOM      8  C   UNL     1      23.291  35.057  27.639  1.00  0.00     0.000 C 
BRANCH   8   9
ATOM      9  C   UNL     1      23.105  36.097  26.525  1.00  0.00     0.000 C 
BRANCH   9  10
ATOM     10  C   UNL     1      23.765  37.431  26.900  1.00  0.00     0.000 C 
BRANCH  10  11
ATOM     11  C   UNL     1      22.882  38.648  26.569  1.00  0.00     0.000 C 
BRANCH  11  12
ATOM     12  C   UNL     1      23.577  39.760  25.756  1.00  0.00     0.000 C 
BRANCH  12  13
ATOM     13  C   UNL     1      24.444  40.728  26.581  1.00  0.00     0.006 C 
BRANCH  13  14
ATOM     14  C   UNL     1      23.620  41.596  27.539  1.00  0.00     0.053 C 
BRANCH  14  15
ATOM     15  C   UNL     1      24.505  42.570  28.252  1.00  0.00     0.041 C 
ATOM     16  O   UNL     1      25.434  42.156  28.996  1.00  0.00    -0.550 OA
ATOM     17  O   UNL     1      24.271  43.935  28.139  1.00  0.00    -0.550 OA
ENDBRANCH  14  15
ENDBRANCH  13  14
ENDBRANCH  12  13
ENDBRANCH  11  12
ENDBRANCH  10  11
ENDBRANCH   9  10
ENDBRANCH   8   9
ENDBRANCH   7   8
ENDBRANCH   6   7
ENDBRANCH   5   6
ENDBRANCH   4   5
ENDBRANCH   3   4
ENDBRANCH   2   3
ENDBRANCH   1   2
BRANCH   1  18
ATOM     18  C   UNL     1      25.539  32.983  34.230  1.00  0.00     0.000 C 
BRANCH  18  19
ATOM     19  C   UNL     1      24.855  33.384  35.552  1.00  0.00     0.000 C 
BRANCH  19  20
ATOM     20  C   UNL     1      25.680  33.104  36.825  1.00  0.00     0.000 C 
BRANCH  20  21
ATOM     21  C   UNL     1      26.449  31.768  36.824  1.00  0.00     0.000 C 
BRANCH  21  22
ATOM     22  C   UNL     1      27.955  31.878  37.124  1.00  0.00     0.000 C 
BRANCH  22  23
ATOM     23  C   UNL     1      28.565  33.207  36.644  1.00  0.00     0.000 C 
BRANCH  23  24
ATOM     24  C   UNL     1      30.062  33.332  36.977  1.00  0.00    -0.000 C 
BRANCH  24  25
ATOM     25  C   UNL     1      31.026  32.962  35.833  1.00  0.00    -0.000 C 
BRANCH  25  26
ATOM     26  C   UNL     1      30.945  31.486  35.391  1.00  0.00    -0.000 C 
BRANCH  26  27
ATOM     27  C   UNL     1      30.017  31.281  34.177  1.00  0.00    -0.000 C 
BRANCH  27  28
ATOM     28  C   UNL     1      30.402  30.050  33.339  1.00  0.00    -0.000 C 
BRANCH  28  29
ATOM     29  C   UNL     1      30.647  28.799  34.198  1.00  0.00    -0.000 C 
BRANCH  29  30
ATOM     30  C   UNL     1      30.460  27.520  33.368  1.00  0.00    -0.000 C 
BRANCH  30  31
ATOM     31  C   UNL     1      30.667  26.241  34.196  1.00  0.00    -0.003 C 
ATOM     32  C   UNL     1      30.370  26.445  35.682  1.00  0.00     0.004 C 
ENDBRANCH  30  31
ENDBRANCH  29  30
ENDBRANCH  28  29
ENDBRANCH  27  28
ENDBRANCH  26  27
ENDBRANCH  25  26
ENDBRANCH  24  25
ENDBRANCH  23  24
ENDBRANCH  22  23
ENDBRANCH  21  22
ENDBRANCH  20  21
ENDBRANCH  19  20
ENDBRANCH  18  19
ENDBRANCH   1  18
TORSDOF 28
ENDMDL
MODEL 8
REMARK VINA RESULT:     0.272      4.110      5.873
REMARK INTER + INTRA:          -0.565
REMARK INTER:                  -0.508
REMARK INTRA:                  -0.057
REMARK UNBOUND:                -1.281
REMARK SMILES CCCCCCCCCCCCCCCCCCCCCCCCCCCCCC(=O)[O-]
REMARK SMILES IDX 16 1 17 2 18 3 19 4 20 5 21 6 22 7 23 8 24 9 25 10 26 11
REMARK SMILES IDX 27 12 28 13 29 14 30 15 31 16 32 17 15 18 14 19 13 20 12 21
REMARK SMILES IDX 11 22 10 23 9 24 8 25 7 26 6 27 5 28 4 29 3 30 2 31 1 32
REMARK H PARENT
REMARK Flexibility Score: inf
ROOT
ATOM      1  C   UNL     1      28.051  30.167  36.682  1.00  0.00     0.000 C 
ENDROOT
BRANCH   1   2
ATOM      2  C   UNL     1      29.478  30.666  36.961  1.00  0.00     0.000 C 
BRANCH   2   3
ATOM      3  C   UNL     1      30.496  29.517  37.058  1.00  0.00     0.000 C 
BRANCH   3   4
ATOM      4  C   UNL     1      30.666  28.765  35.727  1.00  0.00     0.000 C 
BRANCH   4   5
ATOM      5  C   UNL     1      30.046  27.359  35.762  1.00  0.00     0.000 C 
BRANCH   5   6
ATOM      6  C   UNL     1      29.930  26.729  34.363  1.00  0.00     0.000 C 
BRANCH   6   7
ATOM      7  C   UNL     1      31.125  27.096  33.458  1.00  0.00     0.000 C 
BRANCH   7   8
ATOM      8  C   UNL     1      30.755  28.031  32.294  1.00  0.00     0.000 C 
BRANCH   8   9
ATOM      9  C   UNL     1      30.047  27.303  31.142  1.00  0.00     0.000 C 
BRANCH   9  10
ATOM     10  C   UNL     1      30.034  28.162  29.871  1.00  0.00     0.000 C 
BRANCH  10  11
ATOM     11  C   UNL     1      30.905  27.577  28.745  1.00  0.00     0.000 C 
BRANCH  11  12
ATOM     12  C   UNL     1      30.414  27.878  27.314  1.00  0.00     0.000 C 
BRANCH  12  13
ATOM     13  C   UNL     1      31.119  27.083  26.200  1.00  0.00     0.006 C 
BRANCH  13  14
ATOM     14  C   UNL     1      31.003  25.565  26.386  1.00  0.00     0.053 C 
BRANCH  14  15
ATOM     15  C   UNL     1      29.952  25.007  25.479  1.00  0.00     0.041 C 
ATOM     16  O   UNL     1      30.274  24.511  24.365  1.00  0.00    -0.550 OA
ATOM     17  O   UNL     1      28.612  25.083  25.836  1.00  0.00    -0.550 OA
ENDBRANCH  14  15
ENDBRANCH  13  14
ENDBRANCH  12  13
ENDBRANCH  11  12
ENDBRANCH  10  11
ENDBRANCH   9  10
ENDBRANCH   8   9
ENDBRANCH   7   8
ENDBRANCH   6   7
ENDBRANCH   5   6
ENDBRANCH   4   5
ENDBRANCH   3   4
ENDBRANCH   2   3
ENDBRANCH   1   2
BRANCH   1  18
ATOM     18  C   UNL     1      27.020  31.310  36.618  1.00  0.00     0.000 C 
BRANCH  18  19
ATOM     19  C   UNL     1      27.619  32.727  36.524  1.00  0.00     0.000 C 
BRANCH  19  20
ATOM     20  C   UNL     1      26.653  33.812  36.008  1.00  0.00     0.000 C 
BRANCH  20  21
ATOM     21  C   UNL     1      25.156  33.460  36.123  1.00  0.00     0.000 C 
BRANCH  21  22
ATOM     22  C   UNL     1      24.470  33.072  34.800  1.00  0.00     0.000 C 
BRANCH  22  23
ATOM     23  C   UNL     1      24.961  33.908  33.604  1.00  0.00     0.000 C 
BRANCH  23  24
ATOM     24  C   UNL     1      25.620  33.053  32.508  1.00  0.00    -0.000 C 
BRANCH  24  25
ATOM     25  C   UNL     1      24.884  33.032  31.154  1.00  0.00    -0.000 C 
BRANCH  25  26
ATOM     26  C   UNL     1      24.926  34.374  30.392  1.00  0.00    -0.000 C 
BRANCH  26  27
ATOM     27  C   UNL     1      26.362  34.822  30.057  1.00  0.00    -0.000 C 
BRANCH  27  28
ATOM     28  C   UNL     1      27.428  33.940  30.728  1.00  0.00    -0.000 C 
BRANCH  28  29
ATOM     29  C   UNL     1      27.857  34.471  32.106  1.00  0.00    -0.000 C 
BRANCH  29  30
ATOM     30  C   UNL     1      29.155  33.795  32.573  1.00  0.00    -0.000 C 
BRANCH  30  31
ATOM     31  C   UNL     1      28.920  32.778  33.702  1.00  0.00    -0.003 C 
ATOM     32  C   UNL     1      30.015  31.715  33.779  1.00  0.00     0.004 C 
ENDBRANCH  30  31
ENDBRANCH  29  30
ENDBRANCH  28  29
ENDBRANCH  27  28
ENDBRANCH  26  27
ENDBRANCH  25  26
ENDBRANCH  24  25
ENDBRANCH  23  24
ENDBRANCH  22  23
ENDBRANCH  21  22
ENDBRANCH  20  21
ENDBRANCH  19  20
ENDBRANCH  18  19
ENDBRANCH   1  18
TORSDOF 28
ENDMDL
