MODEL 1
REMARK VINA RESULT:    -3.413      0.000      0.000
REMARK INTER + INTRA:          -7.537
REMARK INTER:                  -6.008
REMARK INTRA:                  -1.530
REMARK UNBOUND:                -1.530
REMARK SMILES CCCCCCC=CCCCCCCCC(=O)[O-]
REMARK SMILES IDX 10 1 11 2 12 3 13 4 14 5 15 6 16 7 17 8 18 9 9 10 8 11 7 12
REMARK SMILES IDX 6 13 5 14 4 15 3 16 2 17 1 18
REMARK H PARENT
REMARK Flexibility Score: inf
ROOT
ATOM      1  C   UNL     1      60.617  29.411  58.835  1.00  0.00     0.004 C 
ENDROOT
BRANCH   1   2
ATOM      2  C   UNL     1      60.634  29.211  60.363  1.00  0.00     0.000 C 
BRANCH   2   3
ATOM      3  C   UNL     1      61.864  28.430  60.871  1.00  0.00     0.000 C 
BRANCH   3   4
ATOM      4  C   UNL     1      63.112  29.323  60.991  1.00  0.00     0.000 C 
BRANCH   4   5
ATOM      5  C   UNL     1      64.183  28.986  59.942  1.00  0.00     0.006 C 
BRANCH   5   6
ATOM      6  C   UNL     1      65.311  28.116  60.512  1.00  0.00     0.053 C 
BRANCH   6   7
ATOM      7  C   UNL     1      66.628  28.524  59.932  1.00  0.00     0.041 C 
ATOM      8  O   UNL     1      66.673  29.145  58.837  1.00  0.00    -0.550 OA
ATOM      9  O   UNL     1      67.804  28.263  60.625  1.00  0.00    -0.550 OA
ENDBRANCH   6   7
ENDBRANCH   5   6
ENDBRANCH   4   5
ENDBRANCH   3   4
ENDBRANCH   2   3
ENDBRANCH   1   2
BRANCH   1  10
ATOM     10  C   UNL     1      60.087  30.782  58.384  1.00  0.00     0.027 C 
BRANCH  10  11
ATOM     11  C   UNL     1      61.140  31.856  58.442  1.00  0.00    -0.031 C 
ATOM     12  C   UNL     1      62.444  31.574  58.302  1.00  0.00    -0.031 C 
BRANCH  12  13
ATOM     13  C   UNL     1      63.476  32.666  58.367  1.00  0.00     0.027 C 
BRANCH  13  14
ATOM     14  C   UNL     1      64.126  32.732  59.754  1.00  0.00     0.004 C 
BRANCH  14  15
ATOM     15  C   UNL     1      64.460  34.180  60.137  1.00  0.00     0.000 C 
BRANCH  15  16
ATOM     16  C   UNL     1      63.414  35.152  59.570  1.00  0.00    -0.000 C 
BRANCH  16  17
ATOM     17  C   UNL     1      62.439  35.661  60.643  1.00  0.00    -0.003 C 
ATOM     18  C   UNL     1      61.104  36.124  60.058  1.00  0.00     0.004 C 
ENDBRANCH  16  17
ENDBRANCH  15  16
ENDBRANCH  14  15
ENDBRANCH  13  14
ENDBRANCH  12  13
ENDBRANCH  10  11
ENDBRANCH   1  10
TORSDOF 13
ENDMDL
MODEL 2
REMARK VINA RESULT:    -3.399      1.529      2.070
REMARK INTER + INTRA:          -7.511
REMARK INTER:                  -5.727
REMARK INTRA:                  -1.784
REMARK UNBOUND:                -1.530
REMARK SMILES CCCCCCC=CCCCCCCCC(=O)[O-]
REMARK SMILES IDX 10 1 11 2 12 3 13 4 14 5 15 6 16 7 17 8 18 9 9 10 8 11 7 12
REMARK SMILES IDX 6 13 5 14 4 15 3 16 2 17 1 18
REMARK H PARENT
REMARK Flexibility Score: inf
ROOT
ATOM      1  C   UNL     1      60.420  29.386  59.902  1.00  0.00     0.004 C 
ENDROOT
BRANCH   1   2
ATOM      2  C   UNL     1      61.310  28.743  60.984  1.00  0.00     0.000 C 
BRANCH   2   3
ATOM      3  C   UNL     1      62.778  28.557  60.548  1.00  0.00     0.000 C 
BRANCH   3   4
ATOM      4  C   UNL     1      63.652  29.772  60.911  1.00  0.00     0.000 C 
BRANCH   4   5
ATOM      5  C   UNL     1      64.958  29.822  60.104  1.00  0.00     0.006 C 
BRANCH   5   6
ATOM      6  C   UNL     1      64.713  29.879  58.591  1.00  0.00     0.053 C 
BRANCH   6   7
ATOM      7  C   UNL     1      65.842  30.582  57.906  1.00  0.00     0.041 C 
ATOM      8  O   UNL     1      65.632  31.650  57.273  1.00  0.00    -0.550 OA
ATOM      9  O   UNL     1      67.135  30.084  58.007  1.00  0.00    -0.550 OA
ENDBRANCH   6   7
ENDBRANCH   5   6
ENDBRANCH   4   5
ENDBRANCH   3   4
ENDBRANCH   2   3
ENDBRANCH   1   2
BRANCH   1  10
ATOM     10  C   UNL     1      60.889  29.122  58.462  1.00  0.00     0.027 C 
BRANCH  10  11
ATOM     11  C   UNL     1      61.459  30.350  57.805  1.00  0.00    -0.031 C 
ATOM     12  C   UNL     1      61.436  31.547  58.408  1.00  0.00    -0.031 C 
BRANCH  12  13
ATOM     13  C   UNL     1      62.010  32.760  57.728  1.00  0.00     0.027 C 
BRANCH  13  14
ATOM     14  C   UNL     1      62.229  33.903  58.726  1.00  0.00     0.004 C 
BRANCH  14  15
ATOM     15  C   UNL     1      63.723  34.125  58.991  1.00  0.00     0.000 C 
BRANCH  15  16
ATOM     16  C   UNL     1      64.136  33.524  60.343  1.00  0.00    -0.000 C 
BRANCH  16  17
ATOM     17  C   UNL     1      64.533  34.597  61.369  1.00  0.00    -0.003 C 
ATOM     18  C   UNL     1      63.413  35.605  61.633  1.00  0.00     0.004 C 
ENDBRANCH  16  17
ENDBRANCH  15  16
ENDBRANCH  14  15
ENDBRANCH  13  14
ENDBRANCH  12  13
ENDBRANCH  10  11
ENDBRANCH   1  10
TORSDOF 13
ENDMDL
MODEL 3
REMARK VINA RESULT:    -3.398     12.328     15.551
REMARK INTER + INTRA:          -7.510
REMARK INTER:                  -6.932
REMARK INTRA:                  -0.578
REMARK UNBOUND:                -1.530
REMARK SMILES CCCCCCC=CCCCCCCCC(=O)[O-]
REMARK SMILES IDX 10 1 11 2 12 3 13 4 14 5 15 6 16 7 17 8 18 9 9 10 8 11 7 12
REMARK SMILES IDX 6 13 5 14 4 15 3 16 2 17 1 18
REMARK H PARENT
REMARK Flexibility Score: inf
ROOT
ATOM      1  C   UNL     1      59.801  24.819  49.641  1.00  0.00     0.004 C 
ENDROOT
BRANCH   1   2
ATOM      2  C   UNL     1      59.891  26.326  49.952  1.00  0.00     0.000 C 
BRANCH   2   3
ATOM      3  C   UNL     1      60.005  27.211  48.693  1.00  0.00     0.000 C 
BRANCH   3   4
ATOM      4  C   UNL     1      58.880  28.259  48.614  1.00  0.00     0.000 C 
BRANCH   4   5
ATOM      5  C   UNL     1      58.116  28.407  49.939  1.00  0.00     0.006 C 
BRANCH   5   6
ATOM      6  C   UNL     1      56.600  28.255  49.765  1.00  0.00     0.053 C 
BRANCH   6   7
ATOM      7  C   UNL     1      55.897  29.499  50.204  1.00  0.00     0.041 C 
ATOM      8  O   UNL     1      54.764  29.787  49.734  1.00  0.00    -0.550 OA
ATOM      9  O   UNL     1      56.469  30.318  51.171  1.00  0.00    -0.550 OA
ENDBRANCH   6   7
ENDBRANCH   5   6
ENDBRANCH   4   5
ENDBRANCH   3   4
ENDBRANCH   2   3
ENDBRANCH   1   2
BRANCH   1  10
ATOM     10  C   UNL     1      61.137  24.068  49.766  1.00  0.00     0.027 C 
BRANCH  10  11
ATOM     11  C   UNL     1      61.091  22.699  49.143  1.00  0.00    -0.031 C 
ATOM     12  C   UNL     1      60.440  21.681  49.724  1.00  0.00    -0.031 C 
BRANCH  12  13
ATOM     13  C   UNL     1      60.412  20.322  49.081  1.00  0.00     0.027 C 
BRANCH  13  14
ATOM     14  C   UNL     1      59.531  19.352  49.876  1.00  0.00     0.004 C 
BRANCH  14  15
ATOM     15  C   UNL     1      59.121  18.150  49.015  1.00  0.00     0.000 C 
BRANCH  15  16
ATOM     16  C   UNL     1      57.807  17.535  49.522  1.00  0.00    -0.000 C 
BRANCH  16  17
ATOM     17  C   UNL     1      57.913  17.027  50.969  1.00  0.00    -0.003 C 
ATOM     18  C   UNL     1      58.952  15.917  51.132  1.00  0.00     0.004 C 
ENDBRANCH  16  17
ENDBRANCH  15  16
ENDBRANCH  14  15
ENDBRANCH  13  14
ENDBRANCH  12  13
ENDBRANCH  10  11
ENDBRANCH   1  10
TORSDOF 13
ENDMDL
MODEL 4
REMARK VINA RESULT:    -3.382      4.455      8.143
REMARK INTER + INTRA:          -7.482
REMARK INTER:                  -5.981
REMARK INTRA:                  -1.502
REMARK UNBOUND:                -1.530
REMARK SMILES CCCCCCC=CCCCCCCCC(=O)[O-]
REMARK SMILES IDX 10 1 11 2 12 3 13 4 14 5 15 6 16 7 17 8 18 9 9 10 8 11 7 12
REMARK SMILES IDX 6 13 5 14 4 15 3 16 2 17 1 18
REMARK H PARENT
REMARK Flexibility Score: inf
ROOT
ATOM      1  C   UNL     1      71.430  27.082  59.860  1.00  0.00     0.004 C 
ENDROOT
BRANCH   1   2
ATOM      2  C   UNL     1      72.791  27.745  60.149  1.00  0.00     0.000 C 
BRANCH   2   3
ATOM      3  C   UNL     1      72.798  28.611  61.426  1.00  0.00     0.000 C 
BRANCH   3   4
ATOM      4  C   UNL     1      72.838  30.116  61.109  1.00  0.00     0.000 C 
BRANCH   4   5
ATOM      5  C   UNL     1      71.472  30.663  60.665  1.00  0.00     0.006 C 
BRANCH   5   6
ATOM      6  C   UNL     1      71.504  31.240  59.244  1.00  0.00     0.053 C 
BRANCH   6   7
ATOM      7  C   UNL     1      71.118  32.685  59.259  1.00  0.00     0.041 C 
ATOM      8  O   UNL     1      71.054  33.313  60.349  1.00  0.00    -0.550 OA
ATOM      9  O   UNL     1      70.875  33.353  58.065  1.00  0.00    -0.550 OA
ENDBRANCH   6   7
ENDBRANCH   5   6
ENDBRANCH   4   5
ENDBRANCH   3   4
ENDBRANCH   2   3
ENDBRANCH   1   2
BRANCH   1  10
ATOM     10  C   UNL     1      70.721  27.618  58.605  1.00  0.00     0.027 C 
BRANCH  10  11
ATOM     11  C   UNL     1      69.294  28.017  58.873  1.00  0.00    -0.031 C 
ATOM     12  C   UNL     1      68.728  27.843  60.076  1.00  0.00    -0.031 C 
BRANCH  12  13
ATOM     13  C   UNL     1      67.299  28.247  60.316  1.00  0.00     0.027 C 
BRANCH  13  14
ATOM     14  C   UNL     1      66.395  27.799  59.162  1.00  0.00     0.004 C 
BRANCH  14  15
ATOM     15  C   UNL     1      65.105  28.628  59.119  1.00  0.00     0.000 C 
BRANCH  15  16
ATOM     16  C   UNL     1      64.297  28.453  60.414  1.00  0.00    -0.000 C 
BRANCH  16  17
ATOM     17  C   UNL     1      63.582  29.745  60.842  1.00  0.00    -0.003 C 
ATOM     18  C   UNL     1      64.262  31.004  60.304  1.00  0.00     0.004 C 
ENDBRANCH  16  17
ENDBRANCH  15  16
ENDBRANCH  14  15
ENDBRANCH  13  14
ENDBRANCH  12  13
ENDBRANCH  10  11
ENDBRANCH   1  10
TORSDOF 13
ENDMDL
MODEL 5
REMARK VINA RESULT:    -3.375      4.201      7.536
REMARK INTER + INTRA:          -7.470
REMARK INTER:                  -6.227
REMARK INTRA:                  -1.243
REMARK UNBOUND:                -1.530
REMARK SMILES CCCCCCC=CCCCCCCCC(=O)[O-]
REMARK SMILES IDX 10 1 11 2 12 3 13 4 14 5 15 6 16 7 17 8 18 9 9 10 8 11 7 12
REMARK SMILES IDX 6 13 5 14 4 15 3 16 2 17 1 18
REMARK H PARENT
REMARK Flexibility Score: inf
ROOT
ATOM      1  C   UNL     1      67.636  28.030  60.082  1.00  0.00     0.004 C 
ENDROOT
BRANCH   1   2
ATOM      2  C   UNL     1      66.231  28.580  60.400  1.00  0.00     0.000 C 
BRANCH   2   3
ATOM      3  C   UNL     1      65.125  28.017  59.483  1.00  0.00     0.000 C 
BRANCH   3   4
ATOM      4  C   UNL     1      63.846  28.873  59.520  1.00  0.00     0.000 C 
BRANCH   4   5
ATOM      5  C   UNL     1      63.333  29.106  60.950  1.00  0.00     0.006 C 
BRANCH   5   6
ATOM      6  C   UNL     1      61.806  29.002  61.050  1.00  0.00     0.053 C 
BRANCH   6   7
ATOM      7  C   UNL     1      61.351  27.628  60.672  1.00  0.00     0.041 C 
ATOM      8  O   UNL     1      60.521  27.470  59.738  1.00  0.00    -0.550 OA
ATOM      9  O   UNL     1      61.881  26.517  61.317  1.00  0.00    -0.550 OA
ENDBRANCH   6   7
ENDBRANCH   5   6
ENDBRANCH   4   5
ENDBRANCH   3   4
ENDBRANCH   2   3
ENDBRANCH   1   2
BRANCH   1  10
ATOM     10  C   UNL     1      68.655  28.209  61.220  1.00  0.00     0.027 C 
BRANCH  10  11
ATOM     11  C   UNL     1      70.078  28.204  60.727  1.00  0.00    -0.031 C 
ATOM     12  C   UNL     1      71.030  28.941  61.316  1.00  0.00    -0.031 C 
BRANCH  12  13
ATOM     13  C   UNL     1      72.443  28.920  60.803  1.00  0.00     0.027 C 
BRANCH  13  14
ATOM     14  C   UNL     1      72.733  30.146  59.929  1.00  0.00     0.004 C 
BRANCH  14  15
ATOM     15  C   UNL     1      71.857  31.335  60.341  1.00  0.00     0.000 C 
BRANCH  15  16
ATOM     16  C   UNL     1      71.247  32.020  59.109  1.00  0.00    -0.000 C 
BRANCH  16  17
ATOM     17  C   UNL     1      70.944  31.030  57.973  1.00  0.00    -0.003 C 
ATOM     18  C   UNL     1      69.479  30.596  57.941  1.00  0.00     0.004 C 
ENDBRANCH  16  17
ENDBRANCH  15  16
ENDBRANCH  14  15
ENDBRANCH  13  14
ENDBRANCH  12  13
ENDBRANCH  10  11
ENDBRANCH   1  10
TORSDOF 13
ENDMDL
MODEL 6
REMARK VINA RESULT:    -3.366      2.723      4.457
REMARK INTER + INTRA:          -7.454
REMARK INTER:                  -5.959
REMARK INTRA:                  -1.494
REMARK UNBOUND:                -1.530
REMARK SMILES CCCCCCC=CCCCCCCCC(=O)[O-]
REMARK SMILES IDX 10 1 11 2 12 3 13 4 14 5 15 6 16 7 17 8 18 9 9 10 8 11 7 12
REMARK SMILES IDX 6 13 5 14 4 15 3 16 2 17 1 18
REMARK H PARENT
REMARK Flexibility Score: inf
ROOT
ATOM      1  C   UNL     1      63.143  28.884  60.524  1.00  0.00     0.004 C 
ENDROOT
BRANCH   1   2
ATOM      2  C   UNL     1      61.756  29.057  61.172  1.00  0.00     0.000 C 
BRANCH   2   3
ATOM      3  C   UNL     1      60.596  28.526  60.303  1.00  0.00     0.000 C 
BRANCH   3   4
ATOM      4  C   UNL     1      60.616  29.118  58.882  1.00  0.00     0.000 C 
BRANCH   4   5
ATOM      5  C   UNL     1      60.388  30.638  58.873  1.00  0.00     0.006 C 
BRANCH   5   6
ATOM      6  C   UNL     1      59.432  31.082  57.758  1.00  0.00     0.053 C 
BRANCH   6   7
ATOM      7  C   UNL     1      60.202  31.498  56.545  1.00  0.00     0.041 C 
ATOM      8  O   UNL     1      59.642  32.169  55.638  1.00  0.00    -0.550 OA
ATOM      9  O   UNL     1      61.552  31.186  56.438  1.00  0.00    -0.550 OA
ENDBRANCH   6   7
ENDBRANCH   5   6
ENDBRANCH   4   5
ENDBRANCH   3   4
ENDBRANCH   2   3
ENDBRANCH   1   2
BRANCH   1  10
ATOM     10  C   UNL     1      64.098  30.068  60.753  1.00  0.00     0.027 C 
BRANCH  10  11
ATOM     11  C   UNL     1      63.925  31.157  59.728  1.00  0.00    -0.031 C 
ATOM     12  C   UNL     1      64.127  32.447  60.029  1.00  0.00    -0.031 C 
BRANCH  12  13
ATOM     13  C   UNL     1      63.945  33.516  58.987  1.00  0.00     0.027 C 
BRANCH  13  14
ATOM     14  C   UNL     1      62.463  33.715  58.651  1.00  0.00     0.004 C 
BRANCH  14  15
ATOM     15  C   UNL     1      61.870  34.887  59.442  1.00  0.00     0.000 C 
BRANCH  15  16
ATOM     16  C   UNL     1      62.981  35.785  60.007  1.00  0.00    -0.000 C 
BRANCH  16  17
ATOM     17  C   UNL     1      62.844  36.012  61.521  1.00  0.00    -0.003 C 
ATOM     18  C   UNL     1      64.060  35.521  62.306  1.00  0.00     0.004 C 
ENDBRANCH  16  17
ENDBRANCH  15  16
ENDBRANCH  14  15
ENDBRANCH  13  14
ENDBRANCH  12  13
ENDBRANCH  10  11
ENDBRANCH   1  10
TORSDOF 13
ENDMDL
MODEL 7
REMARK VINA RESULT:    -3.353     12.729     14.589
REMARK INTER + INTRA:          -7.431
REMARK INTER:                  -6.713
REMARK INTRA:                  -0.718
REMARK UNBOUND:                -1.530
REMARK SMILES CCCCCCC=CCCCCCCCC(=O)[O-]
REMARK SMILES IDX 10 1 11 2 12 3 13 4 14 5 15 6 16 7 17 8 18 9 9 10 8 11 7 12
REMARK SMILES IDX 6 13 5 14 4 15 3 16 2 17 1 18
REMARK H PARENT
REMARK Flexibility Score: inf
ROOT
ATOM      1  C   UNL     1      61.106  21.560  48.846  1.00  0.00     0.004 C 
ENDROOT
BRANCH   1   2
ATOM      2  C   UNL     1      60.621  20.373  49.701  1.00  0.00     0.000 C 
BRANCH   2   3
ATOM      3  C   UNL     1      59.497  19.550  49.037  1.00  0.00     0.000 C 
BRANCH   3   4
ATOM      4  C   UNL     1      59.438  18.108  49.571  1.00  0.00     0.000 C 
BRANCH   4   5
ATOM      5  C   UNL     1      58.054  17.466  49.385  1.00  0.00     0.006 C 
BRANCH   5   6
ATOM      6  C   UNL     1      57.280  17.345  50.703  1.00  0.00     0.053 C 
BRANCH   6   7
ATOM      7  C   UNL     1      56.174  18.351  50.752  1.00  0.00     0.041 C 
ATOM      8  O   UNL     1      56.078  19.141  51.729  1.00  0.00    -0.550 OA
ATOM      9  O   UNL     1      55.276  18.450  49.696  1.00  0.00    -0.550 OA
ENDBRANCH   6   7
ENDBRANCH   5   6
ENDBRANCH   4   5
ENDBRANCH   3   4
ENDBRANCH   2   3
ENDBRANCH   1   2
BRANCH   1  10
ATOM     10  C   UNL     1      61.370  22.847  49.646  1.00  0.00     0.027 C 
BRANCH  10  11
ATOM     11  C   UNL     1      60.347  23.917  49.373  1.00  0.00    -0.031 C 
ATOM     12  C   UNL     1      59.296  24.110  50.182  1.00  0.00    -0.031 C 
BRANCH  12  13
ATOM     13  C   UNL     1      58.287  25.185  49.885  1.00  0.00     0.027 C 
BRANCH  13  14
ATOM     14  C   UNL     1      58.897  26.294  49.021  1.00  0.00     0.004 C 
BRANCH  14  15
ATOM     15  C   UNL     1      58.909  27.632  49.771  1.00  0.00     0.000 C 
BRANCH  15  16
ATOM     16  C   UNL     1      57.723  28.511  49.346  1.00  0.00    -0.000 C 
BRANCH  16  17
ATOM     17  C   UNL     1      56.590  28.515  50.384  1.00  0.00    -0.003 C 
ATOM     18  C   UNL     1      55.357  29.285  49.911  1.00  0.00     0.004 C 
ENDBRANCH  16  17
ENDBRANCH  15  16
ENDBRANCH  14  15
ENDBRANCH  13  14
ENDBRANCH  12  13
ENDBRANCH  10  11
ENDBRANCH   1  10
TORSDOF 13
ENDMDL
MODEL 8
REMARK VINA RESULT:    -3.352     11.044     12.339
REMARK INTER + INTRA:          -7.430
REMARK INTER:                  -5.687
REMARK INTRA:                  -1.743
REMARK UNBOUND:                -1.530
REMARK SMILES CCCCCCC=CCCCCCCCC(=O)[O-]
REMARK SMILES IDX 10 1 11 2 12 3 13 4 14 5 15 6 16 7 17 8 18 9 9 10 8 11 7 12
REMARK SMILES IDX 6 13 5 14 4 15 3 16 2 17 1 18
REMARK H PARENT
REMARK Flexibility Score: inf
ROOT
ATOM      1  C   UNL     1      61.170  24.860  50.777  1.00  0.00     0.004 C 
ENDROOT
BRANCH   1   2
ATOM      2  C   UNL     1      62.707  24.972  50.779  1.00  0.00     0.000 C 
BRANCH   2   3
ATOM      3  C   UNL     1      63.321  25.078  49.368  1.00  0.00     0.000 C 
BRANCH   3   4
ATOM      4  C   UNL     1      64.061  26.411  49.153  1.00  0.00     0.000 C 
BRANCH   4   5
ATOM      5  C   UNL     1      63.560  27.172  47.916  1.00  0.00     0.006 C 
BRANCH   5   6
ATOM      6  C   UNL     1      64.707  27.701  47.047  1.00  0.00     0.053 C 
BRANCH   6   7
ATOM      7  C   UNL     1      64.903  29.166  47.277  1.00  0.00     0.041 C 
ATOM      8  O   UNL     1      65.876  29.766  46.748  1.00  0.00    -0.550 OA
ATOM      9  O   UNL     1      63.984  29.880  48.037  1.00  0.00    -0.550 OA
ENDBRANCH   6   7
ENDBRANCH   5   6
ENDBRANCH   4   5
ENDBRANCH   3   4
ENDBRANCH   2   3
ENDBRANCH   1   2
BRANCH   1  10
ATOM     10  C   UNL     1      60.555  24.642  49.385  1.00  0.00     0.027 C 
BRANCH  10  11
ATOM     11  C   UNL     1      59.604  25.741  48.994  1.00  0.00    -0.031 C 
ATOM     12  C   UNL     1      59.988  27.025  48.954  1.00  0.00    -0.031 C 
BRANCH  12  13
ATOM     13  C   UNL     1      59.017  28.105  48.563  1.00  0.00     0.027 C 
BRANCH  13  14
ATOM     14  C   UNL     1      58.238  28.616  49.780  1.00  0.00     0.004 C 
BRANCH  14  15
ATOM     15  C   UNL     1      56.768  28.182  49.715  1.00  0.00     0.000 C 
BRANCH  15  16
ATOM     16  C   UNL     1      56.328  27.537  51.038  1.00  0.00    -0.000 C 
BRANCH  16  17
ATOM     17  C   UNL     1      56.736  26.058  51.137  1.00  0.00    -0.003 C 
ATOM     18  C   UNL     1      57.790  25.807  52.216  1.00  0.00     0.004 C 
ENDBRANCH  16  17
ENDBRANCH  15  16
ENDBRANCH  14  15
ENDBRANCH  13  14
ENDBRANCH  12  13
ENDBRANCH  10  11
ENDBRANCH   1  10
TORSDOF 13
ENDMDL
MODEL 9
REMARK VINA RESULT:    -3.320     11.312     12.295
REMARK INTER + INTRA:          -7.372
REMARK INTER:                  -5.725
REMARK INTRA:                  -1.648
REMARK UNBOUND:                -1.530
REMARK SMILES CCCCCCC=CCCCCCCCC(=O)[O-]
REMARK SMILES IDX 10 1 11 2 12 3 13 4 14 5 15 6 16 7 17 8 18 9 9 10 8 11 7 12
REMARK SMILES IDX 6 13 5 14 4 15 3 16 2 17 1 18
REMARK H PARENT
REMARK Flexibility Score: inf
ROOT
ATOM      1  C   UNL     1      61.350  23.311  50.348  1.00  0.00     0.004 C 
ENDROOT
BRANCH   1   2
ATOM      2  C   UNL     1      62.453  22.921  49.344  1.00  0.00     0.000 C 
BRANCH   2   3
ATOM      3  C   UNL     1      63.786  23.665  49.571  1.00  0.00     0.000 C 
BRANCH   3   4
ATOM      4  C   UNL     1      63.590  24.996  50.320  1.00  0.00     0.000 C 
BRANCH   4   5
ATOM      5  C   UNL     1      64.262  26.179  49.606  1.00  0.00     0.006 C 
BRANCH   5   6
ATOM      6  C   UNL     1      63.410  26.732  48.456  1.00  0.00     0.053 C 
BRANCH   6   7
ATOM      7  C   UNL     1      64.285  27.329  47.400  1.00  0.00     0.041 C 
ATOM      8  O   UNL     1      64.047  28.485  46.959  1.00  0.00    -0.550 OA
ATOM      9  O   UNL     1      65.393  26.630  46.937  1.00  0.00    -0.550 OA
ENDBRANCH   6   7
ENDBRANCH   5   6
ENDBRANCH   4   5
ENDBRANCH   3   4
ENDBRANCH   2   3
ENDBRANCH   1   2
BRANCH   1  10
ATOM     10  C   UNL     1      60.022  23.730  49.695  1.00  0.00     0.027 C 
BRANCH  10  11
ATOM     11  C   UNL     1      59.960  25.207  49.409  1.00  0.00    -0.031 C 
ATOM     12  C   UNL     1      60.147  26.121  50.372  1.00  0.00    -0.031 C 
BRANCH  12  13
ATOM     13  C   UNL     1      60.077  27.590  50.059  1.00  0.00     0.027 C 
BRANCH  13  14
ATOM     14  C   UNL     1      59.350  27.840  48.734  1.00  0.00     0.004 C 
BRANCH  14  15
ATOM     15  C   UNL     1      58.036  28.598  48.961  1.00  0.00     0.000 C 
BRANCH  15  16
ATOM     16  C   UNL     1      57.011  27.714  49.687  1.00  0.00    -0.000 C 
BRANCH  16  17
ATOM     17  C   UNL     1      55.937  28.535  50.419  1.00  0.00    -0.003 C 
ATOM     18  C   UNL     1      55.732  29.920  49.807  1.00  0.00     0.004 C 
ENDBRANCH  16  17
ENDBRANCH  15  16
ENDBRANCH  14  15
ENDBRANCH  13  14
ENDBRANCH  12  13
ENDBRANCH  10  11
ENDBRANCH   1  10
TORSDOF 13
ENDMDL
