MODEL 1
REMARK VINA RESULT:    -2.312      0.000      0.000
REMARK INTER + INTRA:          -3.191
REMARK INTER:                  -2.921
REMARK INTRA:                  -0.270
REMARK UNBOUND:                -0.270
REMARK SMILES CCCCC[C@H](C)O
REMARK SMILES IDX 4 1 3 2 2 3 1 4 5 5 6 6 7 7 8 8
REMARK H PARENT 8 9
REMARK Flexibility Score: inf
ROOT
ATOM      1  C   UNL     1     132.348 145.777 139.543  1.00  0.00     0.003 C 
ENDROOT
BRANCH   1   2
ATOM      2  C   UNL     1     132.845 147.231 139.580  1.00  0.00    -0.000 C 
BRANCH   2   3
ATOM      3  C   UNL     1     131.990 148.122 140.495  1.00  0.00    -0.003 C 
ATOM      4  C   UNL     1     131.139 147.317 141.478  1.00  0.00     0.004 C 
ENDBRANCH   2   3
ENDBRANCH   1   2
BRANCH   1   5
ATOM      5  C   UNL     1     131.610 145.415 138.238  1.00  0.00     0.031 C 
BRANCH   5   6
ATOM      6  C   UNL     1     130.682 146.502 137.653  1.00  0.00     0.111 C 
ATOM      7  C   UNL     1     129.201 146.246 137.954  1.00  0.00     0.038 C 
BRANCH   6   8
ATOM      8  O   UNL     1     130.888 146.624 136.271  1.00  0.00    -0.393 OA
ATOM      9  H   UNL     1     130.245 146.012 135.827  1.00  0.00     0.210 HD
ENDBRANCH   6   8
ENDBRANCH   5   6
ENDBRANCH   1   5
TORSDOF 5
ENDMDL
MODEL 2
REMARK VINA RESULT:    -2.267     12.105     13.266
REMARK INTER + INTRA:          -3.134
REMARK INTER:                  -2.800
REMARK INTRA:                  -0.334
REMARK UNBOUND:                -0.270
REMARK SMILES CCCCC[C@H](C)O
REMARK SMILES IDX 4 1 3 2 2 3 1 4 5 5 6 6 7 7 8 8
REMARK H PARENT 8 9
REMARK Flexibility Score: inf
ROOT
ATOM      1  C   UNL     1     144.732 145.136 139.787  1.00  0.00     0.003 C 
ENDROOT
BRANCH   1   2
ATOM      2  C   UNL     1     145.885 146.137 139.963  1.00  0.00    -0.000 C 
BRANCH   2   3
ATOM      3  C   UNL     1     146.028 146.621 141.414  1.00  0.00    -0.003 C 
ATOM      4  C   UNL     1     145.358 147.974 141.657  1.00  0.00     0.004 C 
ENDBRANCH   2   3
ENDBRANCH   1   2
BRANCH   1   5
ATOM      5  C   UNL     1     143.705 145.567 138.720  1.00  0.00     0.031 C 
BRANCH   5   6
ATOM      6  C   UNL     1     143.888 146.980 138.125  1.00  0.00     0.111 C 
ATOM      7  C   UNL     1     142.827 147.974 138.614  1.00  0.00     0.038 C 
BRANCH   6   8
ATOM      8  O   UNL     1     143.896 146.921 136.724  1.00  0.00    -0.393 OA
ATOM      9  H   UNL     1     144.757 147.311 136.422  1.00  0.00     0.210 HD
ENDBRANCH   6   8
ENDBRANCH   5   6
ENDBRANCH   1   5
TORSDOF 5
ENDMDL
MODEL 3
REMARK VINA RESULT:    -2.229     12.810     14.109
REMARK INTER + INTRA:          -3.085
REMARK INTER:                  -2.780
REMARK INTRA:                  -0.305
REMARK UNBOUND:                -0.270
REMARK SMILES CCCCC[C@H](C)O
REMARK SMILES IDX 4 1 3 2 2 3 1 4 5 5 6 6 7 7 8 8
REMARK H PARENT 8 9
REMARK Flexibility Score: inf
ROOT
ATOM      1  C   UNL     1     145.053 145.087 139.481  1.00  0.00     0.003 C 
ENDROOT
BRANCH   1   2
ATOM      2  C   UNL     1     143.670 145.621 139.075  1.00  0.00    -0.000 C 
BRANCH   2   3
ATOM      3  C   UNL     1     143.741 146.597 137.890  1.00  0.00    -0.003 C 
ATOM      4  C   UNL     1     143.215 147.990 138.236  1.00  0.00     0.004 C 
ENDBRANCH   2   3
ENDBRANCH   1   2
BRANCH   1   5
ATOM      5  C   UNL     1     145.956 146.157 140.129  1.00  0.00     0.031 C 
BRANCH   5   6
ATOM      6  C   UNL     1     145.627 146.536 141.590  1.00  0.00     0.111 C 
ATOM      7  C   UNL     1     145.045 147.948 141.722  1.00  0.00     0.038 C 
BRANCH   6   8
ATOM      8  O   UNL     1     146.767 146.398 142.396  1.00  0.00    -0.393 OA
ATOM      9  H   UNL     1     147.555 146.567 141.816  1.00  0.00     0.210 HD
ENDBRANCH   6   8
ENDBRANCH   5   6
ENDBRANCH   1   5
TORSDOF 5
ENDMDL
MODEL 4
REMARK VINA RESULT:    -2.170      1.731      3.321
REMARK INTER + INTRA:          -3.012
REMARK INTER:                  -2.611
REMARK INTRA:                  -0.401
REMARK UNBOUND:                -0.270
REMARK SMILES CCCCC[C@H](C)O
REMARK SMILES IDX 4 1 3 2 2 3 1 4 5 5 6 6 7 7 8 8
REMARK H PARENT 8 9
REMARK Flexibility Score: inf
ROOT
ATOM      1  C   UNL     1     132.207 144.737 139.275  1.00  0.00     0.003 C 
ENDROOT
BRANCH   1   2
ATOM      2  C   UNL     1     133.163 143.990 138.331  1.00  0.00    -0.000 C 
BRANCH   2   3
ATOM      3  C   UNL     1     132.417 143.108 137.317  1.00  0.00    -0.003 C 
ATOM      4  C   UNL     1     131.235 142.362 137.937  1.00  0.00     0.004 C 
ENDBRANCH   2   3
ENDBRANCH   1   2
BRANCH   1   5
ATOM      5  C   UNL     1     131.971 146.206 138.871  1.00  0.00     0.031 C 
BRANCH   5   6
ATOM      6  C   UNL     1     130.687 146.497 138.065  1.00  0.00     0.111 C 
ATOM      7  C   UNL     1     129.503 145.622 138.494  1.00  0.00     0.038 C 
BRANCH   6   8
ATOM      8  O   UNL     1     130.931 146.351 136.691  1.00  0.00    -0.393 OA
ATOM      9  H   UNL     1     130.680 145.422 136.449  1.00  0.00     0.210 HD
ENDBRANCH   6   8
ENDBRANCH   5   6
ENDBRANCH   1   5
TORSDOF 5
ENDMDL
MODEL 5
REMARK VINA RESULT:    -2.160      2.472      3.484
REMARK INTER + INTRA:          -2.999
REMARK INTER:                  -2.867
REMARK INTRA:                  -0.132
REMARK UNBOUND:                -0.270
REMARK SMILES CCCCC[C@H](C)O
REMARK SMILES IDX 4 1 3 2 2 3 1 4 5 5 6 6 7 7 8 8
REMARK H PARENT 8 9
REMARK Flexibility Score: inf
ROOT
ATOM      1  C   UNL     1     131.296 144.622 138.218  1.00  0.00     0.003 C 
ENDROOT
BRANCH   1   2
ATOM      2  C   UNL     1     131.401 146.152 138.115  1.00  0.00    -0.000 C 
BRANCH   2   3
ATOM      3  C   UNL     1     131.661 146.816 139.476  1.00  0.00    -0.003 C 
ATOM      4  C   UNL     1     133.116 147.248 139.656  1.00  0.00     0.004 C 
ENDBRANCH   2   3
ENDBRANCH   1   2
BRANCH   1   5
ATOM      5  C   UNL     1     132.642 143.900 138.001  1.00  0.00     0.031 C 
BRANCH   5   6
ATOM      6  C   UNL     1     132.631 142.714 137.013  1.00  0.00     0.111 C 
ATOM      7  C   UNL     1     134.035 142.178 136.709  1.00  0.00     0.038 C 
BRANCH   6   8
ATOM      8  O   UNL     1     131.976 143.075 135.826  1.00  0.00    -0.393 OA
ATOM      9  H   UNL     1     131.161 143.579 136.086  1.00  0.00     0.210 HD
ENDBRANCH   6   8
ENDBRANCH   5   6
ENDBRANCH   1   5
TORSDOF 5
ENDMDL
MODEL 6
REMARK VINA RESULT:    -2.137     11.536     12.907
REMARK INTER + INTRA:          -2.970
REMARK INTER:                  -2.652
REMARK INTRA:                  -0.318
REMARK UNBOUND:                -0.270
REMARK SMILES CCCCC[C@H](C)O
REMARK SMILES IDX 4 1 3 2 2 3 1 4 5 5 6 6 7 7 8 8
REMARK H PARENT 8 9
REMARK Flexibility Score: inf
ROOT
ATOM      1  C   UNL     1     143.235 146.180 137.804  1.00  0.00     0.003 C 
ENDROOT
BRANCH   1   2
ATOM      2  C   UNL     1     141.869 145.617 138.229  1.00  0.00    -0.000 C 
BRANCH   2   3
ATOM      3  C   UNL     1     141.537 144.289 137.530  1.00  0.00    -0.003 C 
ATOM      4  C   UNL     1     142.099 143.074 138.267  1.00  0.00     0.004 C 
ENDBRANCH   2   3
ENDBRANCH   1   2
BRANCH   1   5
ATOM      5  C   UNL     1     144.197 146.410 138.988  1.00  0.00     0.031 C 
BRANCH   5   6
ATOM      6  C   UNL     1     144.970 145.172 139.492  1.00  0.00     0.111 C 
ATOM      7  C   UNL     1     144.395 144.601 140.794  1.00  0.00     0.038 C 
BRANCH   6   8
ATOM      8  O   UNL     1     146.330 145.479 139.650  1.00  0.00    -0.393 OA
ATOM      9  H   UNL     1     146.655 145.814 138.774  1.00  0.00     0.210 HD
ENDBRANCH   6   8
ENDBRANCH   5   6
ENDBRANCH   1   5
TORSDOF 5
ENDMDL
MODEL 7
REMARK VINA RESULT:    -2.134     10.767     11.986
REMARK INTER + INTRA:          -2.965
REMARK INTER:                  -2.554
REMARK INTRA:                  -0.411
REMARK UNBOUND:                -0.270
REMARK SMILES CCCCC[C@H](C)O
REMARK SMILES IDX 4 1 3 2 2 3 1 4 5 5 6 6 7 7 8 8
REMARK H PARENT 8 9
REMARK Flexibility Score: inf
ROOT
ATOM      1  C   UNL     1     143.249 145.104 139.681  1.00  0.00     0.003 C 
ENDROOT
BRANCH   1   2
ATOM      2  C   UNL     1     142.775 143.834 138.957  1.00  0.00    -0.000 C 
BRANCH   2   3
ATOM      3  C   UNL     1     141.321 143.943 138.470  1.00  0.00    -0.003 C 
ATOM      4  C   UNL     1     141.214 144.460 137.035  1.00  0.00     0.004 C 
ENDBRANCH   2   3
ENDBRANCH   1   2
BRANCH   1   5
ATOM      5  C   UNL     1     144.324 145.888 138.902  1.00  0.00     0.031 C 
BRANCH   5   6
ATOM      6  C   UNL     1     143.836 147.130 138.124  1.00  0.00     0.111 C 
ATOM      7  C   UNL     1     142.464 147.627 138.597  1.00  0.00     0.038 C 
BRANCH   6   8
ATOM      8  O   UNL     1     143.814 146.865 136.747  1.00  0.00    -0.393 OA
ATOM      9  H   UNL     1     144.756 146.877 136.434  1.00  0.00     0.210 HD
ENDBRANCH   6   8
ENDBRANCH   5   6
ENDBRANCH   1   5
TORSDOF 5
ENDMDL
MODEL 8
REMARK VINA RESULT:    -2.126     10.243     11.235
REMARK INTER + INTRA:          -2.955
REMARK INTER:                  -2.798
REMARK INTRA:                  -0.158
REMARK UNBOUND:                -0.270
REMARK SMILES CCCCC[C@H](C)O
REMARK SMILES IDX 4 1 3 2 2 3 1 4 5 5 6 6 7 7 8 8
REMARK H PARENT 8 9
REMARK Flexibility Score: inf
ROOT
ATOM      1  C   UNL     1     142.713 144.423 138.872  1.00  0.00     0.003 C 
ENDROOT
BRANCH   1   2
ATOM      2  C   UNL     1     143.258 145.767 138.362  1.00  0.00    -0.000 C 
BRANCH   2   3
ATOM      3  C   UNL     1     144.455 146.267 139.186  1.00  0.00    -0.003 C 
ATOM      4  C   UNL     1     145.358 145.131 139.668  1.00  0.00     0.004 C 
ENDBRANCH   2   3
ENDBRANCH   1   2
BRANCH   1   5
ATOM      5  C   UNL     1     141.710 143.762 137.905  1.00  0.00     0.031 C 
BRANCH   5   6
ATOM      6  C   UNL     1     140.697 144.705 137.219  1.00  0.00     0.111 C 
ATOM      7  C   UNL     1     139.240 144.345 137.534  1.00  0.00     0.038 C 
BRANCH   6   8
ATOM      8  O   UNL     1     140.909 144.723 135.833  1.00  0.00    -0.393 OA
ATOM      9  H   UNL     1     140.876 143.780 135.523  1.00  0.00     0.210 HD
ENDBRANCH   6   8
ENDBRANCH   5   6
ENDBRANCH   1   5
TORSDOF 5
ENDMDL
MODEL 9
REMARK VINA RESULT:    -2.122      2.722      3.678
REMARK INTER + INTRA:          -2.951
REMARK INTER:                  -2.665
REMARK INTRA:                  -0.287
REMARK UNBOUND:                -0.270
REMARK SMILES CCCCC[C@H](C)O
REMARK SMILES IDX 4 1 3 2 2 3 1 4 5 5 6 6 7 7 8 8
REMARK H PARENT 8 9
REMARK Flexibility Score: inf
ROOT
ATOM      1  C   UNL     1     133.650 144.100 138.740  1.00  0.00     0.003 C 
ENDROOT
BRANCH   1   2
ATOM      2  C   UNL     1     132.292 144.593 139.265  1.00  0.00    -0.000 C 
BRANCH   2   3
ATOM      3  C   UNL     1     132.003 146.050 138.872  1.00  0.00    -0.003 C 
ATOM      4  C   UNL     1     131.008 146.166 137.717  1.00  0.00     0.004 C 
ENDBRANCH   2   3
ENDBRANCH   1   2
BRANCH   1   5
ATOM      5  C   UNL     1     133.530 142.964 137.704  1.00  0.00     0.031 C 
BRANCH   5   6
ATOM      6  C   UNL     1     132.109 142.666 137.176  1.00  0.00     0.111 C 
ATOM      7  C   UNL     1     131.696 141.203 137.370  1.00  0.00     0.038 C 
BRANCH   6   8
ATOM      8  O   UNL     1     132.006 143.030 135.825  1.00  0.00    -0.393 OA
ATOM      9  H   UNL     1     132.798 143.590 135.615  1.00  0.00     0.210 HD
ENDBRANCH   6   8
ENDBRANCH   5   6
ENDBRANCH   1   5
TORSDOF 5
ENDMDL
