MODEL 1
REMARK VINA RESULT:    -7.215      0.000      0.000
REMARK INTER + INTRA:          -8.297
REMARK INTER:                  -8.691
REMARK INTRA:                   0.394
REMARK UNBOUND:                 0.394
REMARK SMILES O=c1c(O)c(-c2ccc(O)c(O)c2)oc2cc(O)cc(O)c12
REMARK SMILES IDX 5 1 3 2 2 3 1 4 22 5 20 6 19 7 17 8 16 9 15 10 14 11 6 12
REMARK SMILES IDX 7 13 8 14 9 15 13 16 11 17 10 18 12 20 4 22 21 24 18 26
REMARK H PARENT 10 19 12 21 4 23 21 25 18 27
REMARK Flexibility Score: inf
ROOT
ATOM      1  C   UNL     1     -18.565  22.323  13.676  1.00  0.00     0.180 A 
ATOM      2  C   UNL     1     -19.524  22.486  12.662  1.00  0.00     0.208 A 
ATOM      3  C   UNL     1     -19.091  22.640  11.335  1.00  0.00     0.238 A 
ATOM      4  O   UNL     1     -19.955  22.732  10.424  1.00  0.00    -0.285 OA
ATOM      5  C   UNL     1     -17.707  22.646  11.042  1.00  0.00     0.111 A 
ATOM      6  C   UNL     1     -17.155  22.835   9.739  1.00  0.00     0.134 A 
ATOM      7  C   UNL     1     -15.776  22.691   9.545  1.00  0.00     0.093 A 
ATOM      8  C   UNL     1     -14.920  22.430  10.620  1.00  0.00     0.123 A 
ATOM      9  C   UNL     1     -15.443  22.302  11.903  1.00  0.00     0.094 A 
ATOM     10  C   UNL     1     -16.819  22.405  12.122  1.00  0.00     0.146 A 
ATOM     11  O   UNL     1     -17.276  22.266  13.362  1.00  0.00    -0.452 OA
ENDROOT
BRANCH   1  12
ATOM     12  C   UNL     1     -18.943  22.179  15.102  1.00  0.00     0.025 A 
ATOM     13  C   UNL     1     -20.206  21.665  15.434  1.00  0.00     0.016 A 
ATOM     14  C   UNL     1     -20.575  21.501  16.771  1.00  0.00     0.051 A 
ATOM     15  C   UNL     1     -19.684  21.833  17.796  1.00  0.00     0.157 A 
ATOM     16  C   UNL     1     -18.040  22.491  16.133  1.00  0.00     0.062 A 
ATOM     17  C   UNL     1     -18.407  22.326  17.477  1.00  0.00     0.158 A 
BRANCH  15  18
ATOM     18  O   UNL     1     -20.080  21.661  19.121  1.00  0.00    -0.504 OA
ATOM     19  H   UNL     1     -20.054  20.757  19.578  1.00  0.00     0.293 HD
ENDBRANCH  15  18
BRANCH  17  20
ATOM     20  O   UNL     1     -17.509  22.645  18.494  1.00  0.00    -0.504 OA
ATOM     21  H   UNL     1     -16.981  21.928  18.980  1.00  0.00     0.293 HD
ENDBRANCH  17  20
ENDBRANCH   1  12
BRANCH   2  22
ATOM     22  O   UNL     1     -20.886  22.455  12.970  1.00  0.00    -0.502 OA
ATOM     23  H   UNL     1     -21.255  21.938  13.759  1.00  0.00     0.293 HD
ENDBRANCH   2  22
BRANCH   6  24
ATOM     24  O   UNL     1     -17.908  23.190   8.616  1.00  0.00    -0.507 OA
ATOM     25  H   UNL     1     -18.784  22.763   8.353  1.00  0.00     0.293 HD
ENDBRANCH   6  24
BRANCH   8  26
ATOM     26  O   UNL     1     -13.548  22.304  10.420  1.00  0.00    -0.508 OA
ATOM     27  H   UNL     1     -13.117  22.539   9.534  1.00  0.00     0.293 HD
ENDBRANCH   8  26
TORSDOF 6
ENDMDL
MODEL 2
REMARK VINA RESULT:    -6.934      1.849      6.592
REMARK INTER + INTRA:          -7.958
REMARK INTER:                  -8.351
REMARK INTRA:                   0.393
REMARK UNBOUND:                 0.394
REMARK SMILES O=c1c(O)c(-c2ccc(O)c(O)c2)oc2cc(O)cc(O)c12
REMARK SMILES IDX 5 1 3 2 2 3 1 4 22 5 20 6 19 7 17 8 16 9 15 10 14 11 6 12
REMARK SMILES IDX 7 13 8 14 9 15 13 16 11 17 10 18 12 20 4 22 21 24 18 26
REMARK H PARENT 10 19 12 21 4 23 21 25 18 27
REMARK Flexibility Score: inf
ROOT
ATOM      1  C   UNL     1     -18.553  22.291  13.653  1.00  0.00     0.180 A 
ATOM      2  C   UNL     1     -19.602  22.906  14.358  1.00  0.00     0.208 A 
ATOM      3  C   UNL     1     -19.533  22.972  15.759  1.00  0.00     0.238 A 
ATOM      4  O   UNL     1     -20.448  23.572  16.382  1.00  0.00    -0.285 OA
ATOM      5  C   UNL     1     -18.427  22.406  16.438  1.00  0.00     0.111 A 
ATOM      6  C   UNL     1     -18.274  22.380  17.856  1.00  0.00     0.134 A 
ATOM      7  C   UNL     1     -17.078  21.912  18.413  1.00  0.00     0.093 A 
ATOM      8  C   UNL     1     -16.055  21.408  17.605  1.00  0.00     0.123 A 
ATOM      9  C   UNL     1     -16.219  21.376  16.223  1.00  0.00     0.094 A 
ATOM     10  C   UNL     1     -17.387  21.869  15.636  1.00  0.00     0.146 A 
ATOM     11  O   UNL     1     -17.497  21.829  14.313  1.00  0.00    -0.452 OA
ENDROOT
BRANCH   1  12
ATOM     12  C   UNL     1     -18.565  22.162  12.177  1.00  0.00     0.025 A 
ATOM     13  C   UNL     1     -17.384  21.812  11.504  1.00  0.00     0.016 A 
ATOM     14  C   UNL     1     -17.378  21.664  10.116  1.00  0.00     0.051 A 
ATOM     15  C   UNL     1     -18.552  21.848   9.379  1.00  0.00     0.157 A 
ATOM     16  C   UNL     1     -19.750  22.325  11.438  1.00  0.00     0.062 A 
ATOM     17  C   UNL     1     -19.746  22.176  10.043  1.00  0.00     0.158 A 
BRANCH  15  18
ATOM     18  O   UNL     1     -18.515  21.696   7.994  1.00  0.00    -0.504 OA
ATOM     19  H   UNL     1     -18.475  22.490   7.366  1.00  0.00     0.293 HD
ENDBRANCH  15  18
BRANCH  17  20
ATOM     20  O   UNL     1     -20.924  22.345   9.317  1.00  0.00    -0.504 OA
ATOM     21  H   UNL     1     -21.692  21.688   9.389  1.00  0.00     0.293 HD
ENDBRANCH  17  20
ENDBRANCH   1  12
BRANCH   2  22
ATOM     22  O   UNL     1     -20.673  23.477  13.667  1.00  0.00    -0.502 OA
ATOM     23  H   UNL     1     -21.629  23.411  13.995  1.00  0.00     0.293 HD
ENDBRANCH   2  22
BRANCH   6  24
ATOM     24  O   UNL     1     -19.269  22.772  18.756  1.00  0.00    -0.507 OA
ATOM     25  H   UNL     1     -19.939  22.148  19.180  1.00  0.00     0.293 HD
ENDBRANCH   6  24
BRANCH   8  26
ATOM     26  O   UNL     1     -14.875  20.930  18.169  1.00  0.00    -0.508 OA
ATOM     27  H   UNL     1     -14.876  20.399  19.032  1.00  0.00     0.293 HD
ENDBRANCH   8  26
TORSDOF 6
ENDMDL
MODEL 3
REMARK VINA RESULT:    -6.927      1.237      6.597
REMARK INTER + INTRA:          -7.949
REMARK INTER:                  -8.126
REMARK INTRA:                   0.177
REMARK UNBOUND:                 0.394
REMARK SMILES O=c1c(O)c(-c2ccc(O)c(O)c2)oc2cc(O)cc(O)c12
REMARK SMILES IDX 5 1 3 2 2 3 1 4 22 5 20 6 19 7 17 8 16 9 15 10 14 11 6 12
REMARK SMILES IDX 7 13 8 14 9 15 13 16 11 17 10 18 12 20 4 22 21 24 18 26
REMARK H PARENT 10 19 12 21 4 23 21 25 18 27
REMARK Flexibility Score: inf
ROOT
ATOM      1  C   UNL     1     -18.086  22.242  13.163  1.00  0.00     0.180 A 
ATOM      2  C   UNL     1     -19.477  22.386  13.307  1.00  0.00     0.208 A 
ATOM      3  C   UNL     1     -20.027  22.424  14.599  1.00  0.00     0.238 A 
ATOM      4  O   UNL     1     -21.266  22.606  14.723  1.00  0.00    -0.285 OA
ATOM      5  C   UNL     1     -19.182  22.300  15.728  1.00  0.00     0.111 A 
ATOM      6  C   UNL     1     -19.635  22.285  17.081  1.00  0.00     0.134 A 
ATOM      7  C   UNL     1     -18.700  22.290  18.123  1.00  0.00     0.093 A 
ATOM      8  C   UNL     1     -17.328  22.244  17.860  1.00  0.00     0.123 A 
ATOM      9  C   UNL     1     -16.878  22.199  16.543  1.00  0.00     0.094 A 
ATOM     10  C   UNL     1     -17.786  22.230  15.482  1.00  0.00     0.146 A 
ATOM     11  O   UNL     1     -17.313  22.196  14.241  1.00  0.00    -0.452 OA
ENDROOT
BRANCH   1  12
ATOM     12  C   UNL     1     -17.436  22.170  11.834  1.00  0.00     0.025 A 
ATOM     13  C   UNL     1     -18.062  21.464  10.795  1.00  0.00     0.016 A 
ATOM     14  C   UNL     1     -17.477  21.401   9.528  1.00  0.00     0.051 A 
ATOM     15  C   UNL     1     -16.266  22.053   9.275  1.00  0.00     0.157 A 
ATOM     16  C   UNL     1     -16.229  22.844  11.572  1.00  0.00     0.062 A 
ATOM     17  C   UNL     1     -15.640  22.783  10.300  1.00  0.00     0.158 A 
BRANCH  15  18
ATOM     18  O   UNL     1     -15.705  21.971   8.002  1.00  0.00    -0.504 OA
ATOM     19  H   UNL     1     -16.272  21.893   7.167  1.00  0.00     0.293 HD
ENDBRANCH  15  18
BRANCH  17  20
ATOM     20  O   UNL     1     -14.441  23.448  10.050  1.00  0.00    -0.504 OA
ATOM     21  H   UNL     1     -14.234  23.846   9.141  1.00  0.00     0.293 HD
ENDBRANCH  17  20
ENDBRANCH   1  12
BRANCH   2  22
ATOM     22  O   UNL     1     -20.290  22.527  12.180  1.00  0.00    -0.502 OA
ATOM     23  H   UNL     1     -20.501  23.429  11.771  1.00  0.00     0.293 HD
ENDBRANCH   2  22
BRANCH   6  24
ATOM     24  O   UNL     1     -20.982  22.235  17.453  1.00  0.00    -0.507 OA
ATOM     25  H   UNL     1     -21.401  21.496  17.996  1.00  0.00     0.293 HD
ENDBRANCH   6  24
BRANCH   8  26
ATOM     26  O   UNL     1     -16.405  22.234  18.902  1.00  0.00    -0.508 OA
ATOM     27  H   UNL     1     -15.703  22.959  18.997  1.00  0.00     0.293 HD
ENDBRANCH   8  26
TORSDOF 6
ENDMDL
MODEL 4
REMARK VINA RESULT:    -6.796      1.022      1.692
REMARK INTER + INTRA:          -7.792
REMARK INTER:                  -7.974
REMARK INTRA:                   0.182
REMARK UNBOUND:                 0.394
REMARK SMILES O=c1c(O)c(-c2ccc(O)c(O)c2)oc2cc(O)cc(O)c12
REMARK SMILES IDX 5 1 3 2 2 3 1 4 22 5 20 6 19 7 17 8 16 9 15 10 14 11 6 12
REMARK SMILES IDX 7 13 8 14 9 15 13 16 11 17 10 18 12 20 4 22 21 24 18 26
REMARK H PARENT 10 19 12 21 4 23 21 25 18 27
REMARK Flexibility Score: inf
ROOT
ATOM      1  C   UNL     1     -18.584  22.411  13.245  1.00  0.00     0.180 A 
ATOM      2  C   UNL     1     -19.361  22.672  12.103  1.00  0.00     0.208 A 
ATOM      3  C   UNL     1     -18.719  22.816  10.862  1.00  0.00     0.238 A 
ATOM      4  O   UNL     1     -19.424  22.996   9.835  1.00  0.00    -0.285 OA
ATOM      5  C   UNL     1     -17.310  22.714  10.781  1.00  0.00     0.111 A 
ATOM      6  C   UNL     1     -16.553  22.882   9.584  1.00  0.00     0.134 A 
ATOM      7  C   UNL     1     -15.176  22.629   9.595  1.00  0.00     0.093 A 
ATOM      8  C   UNL     1     -14.518  22.277  10.778  1.00  0.00     0.123 A 
ATOM      9  C   UNL     1     -15.238  22.169  11.963  1.00  0.00     0.094 A 
ATOM     10  C   UNL     1     -16.620  22.379  11.975  1.00  0.00     0.146 A 
ATOM     11  O   UNL     1     -17.270  22.255  13.127  1.00  0.00    -0.452 OA
ENDROOT
BRANCH   1  12
ATOM     12  C   UNL     1     -19.185  22.271  14.592  1.00  0.00     0.025 A 
ATOM     13  C   UNL     1     -18.541  22.846  15.699  1.00  0.00     0.016 A 
ATOM     14  C   UNL     1     -19.101  22.744  16.975  1.00  0.00     0.051 A 
ATOM     15  C   UNL     1     -20.318  22.082  17.162  1.00  0.00     0.157 A 
ATOM     16  C   UNL     1     -20.420  21.625  14.779  1.00  0.00     0.062 A 
ATOM     17  C   UNL     1     -20.985  21.523  16.058  1.00  0.00     0.158 A 
BRANCH  15  18
ATOM     18  O   UNL     1     -20.852  21.995  18.447  1.00  0.00    -0.504 OA
ATOM     19  H   UNL     1     -20.323  22.262  19.269  1.00  0.00     0.293 HD
ENDBRANCH  15  18
BRANCH  17  20
ATOM     20  O   UNL     1     -22.206  20.875  16.236  1.00  0.00    -0.504 OA
ATOM     21  H   UNL     1     -22.334  19.903  15.977  1.00  0.00     0.293 HD
ENDBRANCH  17  20
ENDBRANCH   1  12
BRANCH   2  22
ATOM     22  O   UNL     1     -20.752  22.748  12.202  1.00  0.00    -0.502 OA
ATOM     23  H   UNL     1     -21.221  23.441  12.771  1.00  0.00     0.293 HD
ENDBRANCH   2  22
BRANCH   6  24
ATOM     24  O   UNL     1     -17.096  23.319   8.372  1.00  0.00    -0.507 OA
ATOM     25  H   UNL     1     -16.603  23.874   7.689  1.00  0.00     0.293 HD
ENDBRANCH   6  24
BRANCH   8  26
ATOM     26  O   UNL     1     -13.145  22.043  10.783  1.00  0.00    -0.508 OA
ATOM     27  H   UNL     1     -12.477  22.804  10.750  1.00  0.00     0.293 HD
ENDBRANCH   8  26
TORSDOF 6
ENDMDL
MODEL 5
REMARK VINA RESULT:    -6.654      1.281      1.873
REMARK INTER + INTRA:          -7.621
REMARK INTER:                  -7.746
REMARK INTRA:                   0.125
REMARK UNBOUND:                 0.394
REMARK SMILES O=c1c(O)c(-c2ccc(O)c(O)c2)oc2cc(O)cc(O)c12
REMARK SMILES IDX 5 1 3 2 2 3 1 4 22 5 20 6 19 7 17 8 16 9 15 10 14 11 6 12
REMARK SMILES IDX 7 13 8 14 9 15 13 16 11 17 10 18 12 20 4 22 21 24 18 26
REMARK H PARENT 10 19 12 21 4 23 21 25 18 27
REMARK Flexibility Score: inf
ROOT
ATOM      1  C   UNL     1     -17.436  22.192  13.827  1.00  0.00     0.180 A 
ATOM      2  C   UNL     1     -18.704  22.256  13.223  1.00  0.00     0.208 A 
ATOM      3  C   UNL     1     -18.790  22.549  11.852  1.00  0.00     0.238 A 
ATOM      4  O   UNL     1     -19.924  22.552  11.305  1.00  0.00    -0.285 OA
ATOM      5  C   UNL     1     -17.611  22.790  11.108  1.00  0.00     0.111 A 
ATOM      6  C   UNL     1     -17.583  23.135   9.723  1.00  0.00     0.134 A 
ATOM      7  C   UNL     1     -16.354  23.223   9.058  1.00  0.00     0.093 A 
ATOM      8  C   UNL     1     -15.149  23.043   9.742  1.00  0.00     0.123 A 
ATOM      9  C   UNL     1     -15.164  22.764  11.106  1.00  0.00     0.094 A 
ATOM     10  C   UNL     1     -16.376  22.634  11.790  1.00  0.00     0.146 A 
ATOM     11  O   UNL     1     -16.345  22.357  13.088  1.00  0.00    -0.452 OA
ENDROOT
BRANCH   1  12
ATOM     12  C   UNL     1     -17.266  21.912  15.272  1.00  0.00     0.025 A 
ATOM     13  C   UNL     1     -16.180  21.134  15.702  1.00  0.00     0.016 A 
ATOM     14  C   UNL     1     -15.988  20.875  17.061  1.00  0.00     0.051 A 
ATOM     15  C   UNL     1     -16.867  21.402  18.012  1.00  0.00     0.157 A 
ATOM     16  C   UNL     1     -18.136  22.460  16.231  1.00  0.00     0.062 A 
ATOM     17  C   UNL     1     -17.944  22.203  17.596  1.00  0.00     0.158 A 
BRANCH  15  18
ATOM     18  O   UNL     1     -16.652  21.126  19.361  1.00  0.00    -0.504 OA
ATOM     19  H   UNL     1     -15.883  20.547  19.676  1.00  0.00     0.293 HD
ENDBRANCH  15  18
BRANCH  17  20
ATOM     20  O   UNL     1     -18.815  22.744  18.541  1.00  0.00    -0.504 OA
ATOM     21  H   UNL     1     -18.501  22.996  19.471  1.00  0.00     0.293 HD
ENDBRANCH  17  20
ENDBRANCH   1  12
BRANCH   2  22
ATOM     22  O   UNL     1     -19.854  21.992  13.971  1.00  0.00    -0.502 OA
ATOM     23  H   UNL     1     -20.343  22.712  14.488  1.00  0.00     0.293 HD
ENDBRANCH   2  22
BRANCH   6  24
ATOM     24  O   UNL     1     -18.723  23.427   8.968  1.00  0.00    -0.507 OA
ATOM     25  H   UNL     1     -19.392  22.742   8.651  1.00  0.00     0.293 HD
ENDBRANCH   6  24
BRANCH   8  26
ATOM     26  O   UNL     1     -13.931  23.147   9.076  1.00  0.00    -0.508 OA
ATOM     27  H   UNL     1     -13.348  22.336   8.905  1.00  0.00     0.293 HD
ENDBRANCH   8  26
TORSDOF 6
ENDMDL
MODEL 6
REMARK VINA RESULT:    -6.651      1.659      7.160
REMARK INTER + INTRA:          -7.617
REMARK INTER:                  -7.598
REMARK INTRA:                  -0.020
REMARK UNBOUND:                 0.394
REMARK SMILES O=c1c(O)c(-c2ccc(O)c(O)c2)oc2cc(O)cc(O)c12
REMARK SMILES IDX 5 1 3 2 2 3 1 4 22 5 20 6 19 7 17 8 16 9 15 10 14 11 6 12
REMARK SMILES IDX 7 13 8 14 9 15 13 16 11 17 10 18 12 20 4 22 21 24 18 26
REMARK H PARENT 10 19 12 21 4 23 21 25 18 27
REMARK Flexibility Score: inf
ROOT
ATOM      1  C   UNL     1     -18.067  22.074  13.584  1.00  0.00     0.180 A 
ATOM      2  C   UNL     1     -16.843  22.454  14.162  1.00  0.00     0.208 A 
ATOM      3  C   UNL     1     -16.737  22.499  15.562  1.00  0.00     0.238 A 
ATOM      4  O   UNL     1     -15.625  22.787  16.075  1.00  0.00    -0.285 OA
ATOM      5  C   UNL     1     -17.860  22.180  16.364  1.00  0.00     0.111 A 
ATOM      6  C   UNL     1     -17.877  22.232  17.790  1.00  0.00     0.134 A 
ATOM      7  C   UNL     1     -19.002  21.769  18.484  1.00  0.00     0.093 A 
ATOM      8  C   UNL     1     -20.135  21.318  17.801  1.00  0.00     0.123 A 
ATOM      9  C   UNL     1     -20.150  21.320  16.410  1.00  0.00     0.094 A 
ATOM     10  C   UNL     1     -19.028  21.742  15.689  1.00  0.00     0.146 A 
ATOM     11  O   UNL     1     -19.082  21.717  14.362  1.00  0.00    -0.452 OA
ENDROOT
BRANCH   1  12
ATOM     12  C   UNL     1     -18.263  22.026  12.116  1.00  0.00     0.025 A 
ATOM     13  C   UNL     1     -17.401  21.248  11.328  1.00  0.00     0.016 A 
ATOM     14  C   UNL     1     -17.580  21.172   9.945  1.00  0.00     0.051 A 
ATOM     15  C   UNL     1     -18.631  21.858   9.330  1.00  0.00     0.157 A 
ATOM     16  C   UNL     1     -19.333  22.698  11.498  1.00  0.00     0.062 A 
ATOM     17  C   UNL     1     -19.516  22.622  10.110  1.00  0.00     0.158 A 
BRANCH  15  18
ATOM     18  O   UNL     1     -18.784  21.765   7.948  1.00  0.00    -0.504 OA
ATOM     19  H   UNL     1     -18.067  22.078   7.304  1.00  0.00     0.293 HD
ENDBRANCH  15  18
BRANCH  17  20
ATOM     20  O   UNL     1     -20.575  23.296   9.504  1.00  0.00    -0.504 OA
ATOM     21  H   UNL     1     -20.497  23.675   8.566  1.00  0.00     0.293 HD
ENDBRANCH  17  20
ENDBRANCH   1  12
BRANCH   2  22
ATOM     22  O   UNL     1     -15.743  22.743  13.353  1.00  0.00    -0.502 OA
ATOM     23  H   UNL     1     -14.793  22.741  13.704  1.00  0.00     0.293 HD
ENDBRANCH   2  22
BRANCH   6  24
ATOM     24  O   UNL     1     -16.835  22.750  18.565  1.00  0.00    -0.507 OA
ATOM     25  H   UNL     1     -16.060  22.211  18.919  1.00  0.00     0.293 HD
ENDBRANCH   6  24
BRANCH   8  26
ATOM     26  O   UNL     1     -21.255  20.875  18.500  1.00  0.00    -0.508 OA
ATOM     27  H   UNL     1     -21.424  19.889  18.661  1.00  0.00     0.293 HD
ENDBRANCH   8  26
TORSDOF 6
ENDMDL
MODEL 7
REMARK VINA RESULT:    -6.257      1.309      2.984
REMARK INTER + INTRA:          -7.143
REMARK INTER:                  -7.305
REMARK INTRA:                   0.162
REMARK UNBOUND:                 0.394
REMARK SMILES O=c1c(O)c(-c2ccc(O)c(O)c2)oc2cc(O)cc(O)c12
REMARK SMILES IDX 5 1 3 2 2 3 1 4 22 5 20 6 19 7 17 8 16 9 15 10 14 11 6 12
REMARK SMILES IDX 7 13 8 14 9 15 13 16 11 17 10 18 12 20 4 22 21 24 18 26
REMARK H PARENT 10 19 12 21 4 23 21 25 18 27
REMARK Flexibility Score: inf
ROOT
ATOM      1  C   UNL     1     -17.128  21.916  13.973  1.00  0.00     0.180 A 
ATOM      2  C   UNL     1     -15.807  21.460  13.821  1.00  0.00     0.208 A 
ATOM      3  C   UNL     1     -15.229  21.462  12.540  1.00  0.00     0.238 A 
ATOM      4  O   UNL     1     -14.029  21.104  12.418  1.00  0.00    -0.285 OA
ATOM      5  C   UNL     1     -15.985  21.902  11.427  1.00  0.00     0.111 A 
ATOM      6  C   UNL     1     -15.515  21.908  10.080  1.00  0.00     0.134 A 
ATOM      7  C   UNL     1     -16.301  22.487   9.076  1.00  0.00     0.093 A 
ATOM      8  C   UNL     1     -17.569  23.002   9.361  1.00  0.00     0.123 A 
ATOM      9  C   UNL     1     -18.061  22.947  10.662  1.00  0.00     0.094 A 
ATOM     10  C   UNL     1     -17.284  22.408  11.692  1.00  0.00     0.146 A 
ATOM     11  O   UNL     1     -17.788  22.385  12.920  1.00  0.00    -0.452 OA
ENDROOT
BRANCH   1  12
ATOM     12  C   UNL     1     -17.812  21.922  15.286  1.00  0.00     0.025 A 
ATOM     13  C   UNL     1     -19.148  21.498  15.372  1.00  0.00     0.016 A 
ATOM     14  C   UNL     1     -19.806  21.476  16.603  1.00  0.00     0.051 A 
ATOM     15  C   UNL     1     -19.138  21.861  17.769  1.00  0.00     0.157 A 
ATOM     16  C   UNL     1     -17.136  22.288  16.463  1.00  0.00     0.062 A 
ATOM     17  C   UNL     1     -17.794  22.265  17.701  1.00  0.00     0.158 A 
BRANCH  15  18
ATOM     18  O   UNL     1     -19.821  21.831  18.984  1.00  0.00    -0.504 OA
ATOM     19  H   UNL     1     -20.781  21.514  19.054  1.00  0.00     0.293 HD
ENDBRANCH  15  18
BRANCH  17  20
ATOM     20  O   UNL     1     -17.118  22.636  18.862  1.00  0.00    -0.504 OA
ATOM     21  H   UNL     1     -16.195  23.056  18.829  1.00  0.00     0.293 HD
ENDBRANCH  17  20
ENDBRANCH   1  12
BRANCH   2  22
ATOM     22  O   UNL     1     -15.071  21.051  14.936  1.00  0.00    -0.502 OA
ATOM     23  H   UNL     1     -14.073  21.198  15.013  1.00  0.00     0.293 HD
ENDBRANCH   2  22
BRANCH   6  24
ATOM     24  O   UNL     1     -14.305  21.337   9.673  1.00  0.00    -0.507 OA
ATOM     25  H   UNL     1     -14.025  21.210   8.712  1.00  0.00     0.293 HD
ENDBRANCH   6  24
BRANCH   8  26
ATOM     26  O   UNL     1     -18.350  23.562   8.354  1.00  0.00    -0.508 OA
ATOM     27  H   UNL     1     -19.305  23.857   8.525  1.00  0.00     0.293 HD
ENDBRANCH   8  26
TORSDOF 6
ENDMDL
MODEL 8
REMARK VINA RESULT:    -6.032      1.676      3.510
REMARK INTER + INTRA:          -6.872
REMARK INTER:                  -7.393
REMARK INTRA:                   0.522
REMARK UNBOUND:                 0.394
REMARK SMILES O=c1c(O)c(-c2ccc(O)c(O)c2)oc2cc(O)cc(O)c12
REMARK SMILES IDX 5 1 3 2 2 3 1 4 22 5 20 6 19 7 17 8 16 9 15 10 14 11 6 12
REMARK SMILES IDX 7 13 8 14 9 15 13 16 11 17 10 18 12 20 4 22 21 24 18 26
REMARK H PARENT 10 19 12 21 4 23 21 25 18 27
REMARK Flexibility Score: inf
ROOT
ATOM      1  C   UNL     1     -17.244  22.063  13.014  1.00  0.00     0.180 A 
ATOM      2  C   UNL     1     -15.902  21.718  13.248  1.00  0.00     0.208 A 
ATOM      3  C   UNL     1     -14.965  21.894  12.216  1.00  0.00     0.238 A 
ATOM      4  O   UNL     1     -13.755  21.634  12.448  1.00  0.00    -0.285 OA
ATOM      5  C   UNL     1     -15.385  22.396  10.961  1.00  0.00     0.111 A 
ATOM      6  C   UNL     1     -14.529  22.576   9.833  1.00  0.00     0.134 A 
ATOM      7  C   UNL     1     -15.025  23.202   8.683  1.00  0.00     0.093 A 
ATOM      8  C   UNL     1     -16.363  23.596   8.597  1.00  0.00     0.123 A 
ATOM      9  C   UNL     1     -17.220  23.371   9.670  1.00  0.00     0.094 A 
ATOM     10  C   UNL     1     -16.746  22.780  10.845  1.00  0.00     0.146 A 
ATOM     11  O   UNL     1     -17.596  22.594  11.848  1.00  0.00    -0.452 OA
ENDROOT
BRANCH   1  12
ATOM     12  C   UNL     1     -18.294  21.884  14.044  1.00  0.00     0.025 A 
ATOM     13  C   UNL     1     -17.924  21.574  15.362  1.00  0.00     0.016 A 
ATOM     14  C   UNL     1     -18.896  21.421  16.353  1.00  0.00     0.051 A 
ATOM     15  C   UNL     1     -20.250  21.591  16.048  1.00  0.00     0.157 A 
ATOM     16  C   UNL     1     -19.655  22.076  13.744  1.00  0.00     0.062 A 
ATOM     17  C   UNL     1     -20.633  21.925  14.737  1.00  0.00     0.158 A 
BRANCH  15  18
ATOM     18  O   UNL     1     -21.198  21.430  17.057  1.00  0.00    -0.504 OA
ATOM     19  H   UNL     1     -20.994  20.926  17.912  1.00  0.00     0.293 HD
ENDBRANCH  15  18
BRANCH  17  20
ATOM     20  O   UNL     1     -21.979  22.110  14.430  1.00  0.00    -0.504 OA
ATOM     21  H   UNL     1     -22.275  22.455  13.523  1.00  0.00     0.293 HD
ENDBRANCH  17  20
ENDBRANCH   1  12
BRANCH   2  22
ATOM     22  O   UNL     1     -15.505  21.245  14.501  1.00  0.00    -0.502 OA
ATOM     23  H   UNL     1     -16.039  21.421  15.343  1.00  0.00     0.293 HD
ENDBRANCH   2  22
BRANCH   6  24
ATOM     24  O   UNL     1     -13.203  22.136   9.781  1.00  0.00    -0.507 OA
ATOM     25  H   UNL     1     -12.854  21.437   9.143  1.00  0.00     0.293 HD
ENDBRANCH   6  24
BRANCH   8  26
ATOM     26  O   UNL     1     -16.851  24.204   7.443  1.00  0.00    -0.508 OA
ATOM     27  H   UNL     1     -16.895  23.708   6.560  1.00  0.00     0.293 HD
ENDBRANCH   8  26
TORSDOF 6
ENDMDL
MODEL 9
REMARK VINA RESULT:    -4.892      1.630      3.640
REMARK INTER + INTRA:          -5.499
REMARK INTER:                  -5.891
REMARK INTRA:                   0.393
REMARK UNBOUND:                 0.394
REMARK SMILES O=c1c(O)c(-c2ccc(O)c(O)c2)oc2cc(O)cc(O)c12
REMARK SMILES IDX 5 1 3 2 2 3 1 4 22 5 20 6 19 7 17 8 16 9 15 10 14 11 6 12
REMARK SMILES IDX 7 13 8 14 9 15 13 16 11 17 10 18 12 20 4 22 21 24 18 26
REMARK H PARENT 10 19 12 21 4 23 21 25 18 27
REMARK Flexibility Score: inf
ROOT
ATOM      1  C   UNL     1     -17.172  21.912  13.840  1.00  0.00     0.180 A 
ATOM      2  C   UNL     1     -16.091  21.821  12.946  1.00  0.00     0.208 A 
ATOM      3  C   UNL     1     -16.332  21.970  11.570  1.00  0.00     0.238 A 
ATOM      4  O   UNL     1     -15.353  21.943  10.779  1.00  0.00    -0.285 OA
ATOM      5  C   UNL     1     -17.650  22.191  11.106  1.00  0.00     0.111 A 
ATOM      6  C   UNL     1     -18.015  22.316   9.732  1.00  0.00     0.134 A 
ATOM      7  C   UNL     1     -19.329  22.663   9.394  1.00  0.00     0.093 A 
ATOM      8  C   UNL     1     -20.307  22.824  10.379  1.00  0.00     0.123 A 
ATOM      9  C   UNL     1     -19.974  22.646  11.719  1.00  0.00     0.094 A 
ATOM     10  C   UNL     1     -18.663  22.336  12.089  1.00  0.00     0.146 A 
ATOM     11  O   UNL     1     -18.388  22.185  13.379  1.00  0.00    -0.452 OA
ENDROOT
BRANCH   1  12
ATOM     12  C   UNL     1     -17.002  21.741  15.302  1.00  0.00     0.025 A 
ATOM     13  C   UNL     1     -15.895  21.030  15.791  1.00  0.00     0.016 A 
ATOM     14  C   UNL     1     -15.703  20.875  17.165  1.00  0.00     0.051 A 
ATOM     15  C   UNL     1     -16.604  21.441  18.073  1.00  0.00     0.157 A 
ATOM     16  C   UNL     1     -17.895  22.328  16.216  1.00  0.00     0.062 A 
ATOM     17  C   UNL     1     -17.704  22.175  17.597  1.00  0.00     0.158 A 
BRANCH  15  18
ATOM     18  O   UNL     1     -16.389  21.268  19.439  1.00  0.00    -0.504 OA
ATOM     19  H   UNL     1     -15.802  20.526  19.802  1.00  0.00     0.293 HD
ENDBRANCH  15  18
BRANCH  17  20
ATOM     20  O   UNL     1     -18.597  22.754  18.497  1.00  0.00    -0.504 OA
ATOM     21  H   UNL     1     -19.600  22.710  18.353  1.00  0.00     0.293 HD
ENDBRANCH  17  20
ENDBRANCH   1  12
BRANCH   2  22
ATOM     22  O   UNL     1     -14.795  21.625  13.428  1.00  0.00    -0.502 OA
ATOM     23  H   UNL     1     -14.351  22.266  14.074  1.00  0.00     0.293 HD
ENDBRANCH   2  22
BRANCH   6  24
ATOM     24  O   UNL     1     -17.138  22.084   8.667  1.00  0.00    -0.507 OA
ATOM     25  H   UNL     1     -16.692  22.806   8.122  1.00  0.00     0.293 HD
ENDBRANCH   6  24
BRANCH   8  26
ATOM     26  O   UNL     1     -21.615  23.154  10.033  1.00  0.00    -0.508 OA
ATOM     27  H   UNL     1     -21.851  24.066   9.659  1.00  0.00     0.293 HD
ENDBRANCH   8  26
TORSDOF 6
ENDMDL
