MODEL 1
REMARK VINA RESULT:    -4.988      0.000      0.000
REMARK INTER + INTRA:         -11.034
REMARK INTER:                  -9.361
REMARK INTRA:                  -1.673
REMARK UNBOUND:                -1.673
REMARK SMILES CCCCCCCCCCCCCC=CC=CC(=O)OC
REMARK SMILES IDX 9 1 8 2 7 3 6 4 5 5 4 6 3 7 2 8 1 9 10 10 11 11 12 12 13 13
REMARK SMILES IDX 14 14 15 15 16 16 17 17 18 18 19 19 20 20 21 21
REMARK H PARENT
REMARK Flexibility Score: inf
ROOT
ATOM      1  C   UNL     1      -8.874  -8.298   3.565  1.00  0.00     0.000 C 
ENDROOT
BRANCH   1   2
ATOM      2  C   UNL     1      -8.056  -8.205   4.861  1.00  0.00     0.000 C 
BRANCH   2   3
ATOM      3  C   UNL     1      -7.811  -6.739   5.250  1.00  0.00     0.000 C 
BRANCH   3   4
ATOM      4  C   UNL     1      -6.582  -6.564   6.156  1.00  0.00    -0.000 C 
BRANCH   4   5
ATOM      5  C   UNL     1      -6.445  -5.133   6.699  1.00  0.00    -0.000 C 
BRANCH   5   6
ATOM      6  C   UNL     1      -6.735  -5.091   8.207  1.00  0.00    -0.000 C 
BRANCH   6   7
ATOM      7  C   UNL     1      -8.220  -4.844   8.518  1.00  0.00    -0.000 C 
BRANCH   7   8
ATOM      8  C   UNL     1      -8.680  -5.553   9.801  1.00  0.00    -0.003 C 
ATOM      9  C   UNL     1      -7.795  -6.758  10.109  1.00  0.00     0.004 C 
ENDBRANCH   7   8
ENDBRANCH   6   7
ENDBRANCH   5   6
ENDBRANCH   4   5
ENDBRANCH   3   4
ENDBRANCH   2   3
ENDBRANCH   1   2
BRANCH   1  10
ATOM     10  C   UNL     1      -8.439  -7.262   2.516  1.00  0.00     0.000 C 
BRANCH  10  11
ATOM     11  C   UNL     1      -9.611  -6.397   2.020  1.00  0.00     0.000 C 
BRANCH  11  12
ATOM     12  C   UNL     1      -9.522  -4.946   2.518  1.00  0.00     0.004 C 
BRANCH  12  13
ATOM     13  C   UNL     1     -10.410  -4.691   3.746  1.00  0.00     0.027 C 
BRANCH  13  14
ATOM     14  C   UNL     1      -9.599  -4.197   4.915  1.00  0.00    -0.027 C 
ATOM     15  C   UNL     1      -9.746  -2.996   5.495  1.00  0.00    -0.004 C 
BRANCH  15  16
ATOM     16  C   UNL     1     -10.700  -1.966   5.024  1.00  0.00     0.007 C 
ATOM     17  C   UNL     1     -10.824  -0.739   5.554  1.00  0.00     0.093 C 
BRANCH  17  18
ATOM     18  C   UNL     1     -10.159  -0.246   6.777  1.00  0.00     0.330 C 
ATOM     19  O   UNL     1      -9.256   0.632   6.723  1.00  0.00    -0.247 OA
BRANCH  18  20
ATOM     20  O   UNL     1     -10.506  -0.822   8.002  1.00  0.00    -0.466 OA
ATOM     21  C   UNL     1     -11.794  -0.664   8.587  1.00  0.00     0.282 C 
ENDBRANCH  18  20
ENDBRANCH  17  18
ENDBRANCH  15  16
ENDBRANCH  13  14
ENDBRANCH  12  13
ENDBRANCH  11  12
ENDBRANCH  10  11
ENDBRANCH   1  10
TORSDOF 15
ENDMDL
MODEL 2
REMARK VINA RESULT:    -4.786      2.044      5.339
REMARK INTER + INTRA:         -10.656
REMARK INTER:                  -8.709
REMARK INTRA:                  -1.948
REMARK UNBOUND:                -1.673
REMARK SMILES CCCCCCCCCCCCCC=CC=CC(=O)OC
REMARK SMILES IDX 9 1 8 2 7 3 6 4 5 5 4 6 3 7 2 8 1 9 10 10 11 11 12 12 13 13
REMARK SMILES IDX 14 14 15 15 16 16 17 17 18 18 19 19 20 20 21 21
REMARK H PARENT
REMARK Flexibility Score: inf
ROOT
ATOM      1  C   UNL     1     -10.047  -6.481   1.123  1.00  0.00     0.000 C 
ENDROOT
BRANCH   1   2
ATOM      2  C   UNL     1      -9.318  -5.767   2.271  1.00  0.00     0.000 C 
BRANCH   2   3
ATOM      3  C   UNL     1     -10.288  -5.440   3.416  1.00  0.00     0.000 C 
BRANCH   3   4
ATOM      4  C   UNL     1      -9.692  -4.455   4.434  1.00  0.00    -0.000 C 
BRANCH   4   5
ATOM      5  C   UNL     1     -10.267  -3.037   4.294  1.00  0.00    -0.000 C 
BRANCH   5   6
ATOM      6  C   UNL     1     -10.216  -2.291   5.636  1.00  0.00    -0.000 C 
BRANCH   6   7
ATOM      7  C   UNL     1     -11.010  -0.975   5.613  1.00  0.00    -0.000 C 
BRANCH   7   8
ATOM      8  C   UNL     1     -11.273  -0.421   7.021  1.00  0.00    -0.003 C 
ATOM      9  C   UNL     1     -10.922   1.062   7.101  1.00  0.00     0.004 C 
ENDBRANCH   7   8
ENDBRANCH   6   7
ENDBRANCH   5   6
ENDBRANCH   4   5
ENDBRANCH   3   4
ENDBRANCH   2   3
ENDBRANCH   1   2
BRANCH   1  10
ATOM     10  C   UNL     1      -9.433  -7.851   0.794  1.00  0.00     0.000 C 
BRANCH  10  11
ATOM     11  C   UNL     1      -9.567  -8.851   1.956  1.00  0.00     0.000 C 
BRANCH  11  12
ATOM     12  C   UNL     1      -8.250  -9.585   2.254  1.00  0.00     0.004 C 
BRANCH  12  13
ATOM     13  C   UNL     1      -7.418  -8.881   3.338  1.00  0.00     0.027 C 
BRANCH  13  14
ATOM     14  C   UNL     1      -8.247  -8.590   4.562  1.00  0.00    -0.027 C 
ATOM     15  C   UNL     1      -8.039  -7.564   5.400  1.00  0.00    -0.004 C 
BRANCH  15  16
ATOM     16  C   UNL     1      -6.922  -6.601   5.262  1.00  0.00     0.007 C 
ATOM     17  C   UNL     1      -6.544  -5.727   6.208  1.00  0.00     0.093 C 
BRANCH  17  18
ATOM     18  C   UNL     1      -7.249  -5.456   7.477  1.00  0.00     0.330 C 
ATOM     19  O   UNL     1      -8.118  -4.546   7.563  1.00  0.00    -0.247 OA
BRANCH  18  20
ATOM     20  O   UNL     1      -6.885  -6.189   8.610  1.00  0.00    -0.466 OA
ATOM     21  C   UNL     1      -7.756  -6.368   9.721  1.00  0.00     0.282 C 
ENDBRANCH  18  20
ENDBRANCH  17  18
ENDBRANCH  15  16
ENDBRANCH  13  14
ENDBRANCH  12  13
ENDBRANCH  11  12
ENDBRANCH  10  11
ENDBRANCH   1  10
TORSDOF 15
ENDMDL
MODEL 3
REMARK VINA RESULT:    -4.679      3.187      7.085
REMARK INTER + INTRA:         -10.455
REMARK INTER:                  -8.214
REMARK INTRA:                  -2.241
REMARK UNBOUND:                -1.673
REMARK SMILES CCCCCCCCCCCCCC=CC=CC(=O)OC
REMARK SMILES IDX 9 1 8 2 7 3 6 4 5 5 4 6 3 7 2 8 1 9 10 10 11 11 12 12 13 13
REMARK SMILES IDX 14 14 15 15 16 16 17 17 18 18 19 19 20 20 21 21
REMARK H PARENT
REMARK Flexibility Score: inf
ROOT
ATOM      1  C   UNL     1      -8.869  -8.547   1.841  1.00  0.00     0.000 C 
ENDROOT
BRANCH   1   2
ATOM      2  C   UNL     1      -9.664  -9.330   0.786  1.00  0.00     0.000 C 
BRANCH   2   3
ATOM      3  C   UNL     1     -11.169  -9.049   0.915  1.00  0.00     0.000 C 
BRANCH   3   4
ATOM      4  C   UNL     1     -11.710  -8.184  -0.234  1.00  0.00    -0.000 C 
BRANCH   4   5
ATOM      5  C   UNL     1     -11.968  -6.729   0.190  1.00  0.00    -0.000 C 
BRANCH   5   6
ATOM      6  C   UNL     1     -11.116  -5.758  -0.641  1.00  0.00    -0.000 C 
BRANCH   6   7
ATOM      7  C   UNL     1     -10.445  -6.438  -1.845  1.00  0.00    -0.000 C 
BRANCH   7   8
ATOM      8  C   UNL     1     -10.273  -5.488  -3.039  1.00  0.00    -0.003 C 
ATOM      9  C   UNL     1     -10.763  -4.083  -2.699  1.00  0.00     0.004 C 
ENDBRANCH   7   8
ENDBRANCH   6   7
ENDBRANCH   5   6
ENDBRANCH   4   5
ENDBRANCH   3   4
ENDBRANCH   2   3
ENDBRANCH   1   2
BRANCH   1  10
ATOM     10  C   UNL     1      -8.284  -7.238   1.288  1.00  0.00     0.000 C 
BRANCH  10  11
ATOM     11  C   UNL     1      -8.708  -6.008   2.110  1.00  0.00     0.000 C 
BRANCH  11  12
ATOM     12  C   UNL     1      -9.683  -6.366   3.242  1.00  0.00     0.004 C 
BRANCH  12  13
ATOM     13  C   UNL     1      -9.122  -6.023   4.632  1.00  0.00     0.027 C 
BRANCH  13  14
ATOM     14  C   UNL     1      -8.256  -7.135   5.161  1.00  0.00    -0.027 C 
ATOM     15  C   UNL     1      -7.074  -6.959   5.772  1.00  0.00    -0.004 C 
BRANCH  15  16
ATOM     16  C   UNL     1      -6.433  -5.638   5.961  1.00  0.00     0.007 C 
ATOM     17  C   UNL     1      -6.464  -4.928   7.099  1.00  0.00     0.093 C 
BRANCH  17  18
ATOM     18  C   UNL     1      -7.255  -5.247   8.305  1.00  0.00     0.330 C 
ATOM     19  O   UNL     1      -8.261  -4.561   8.630  1.00  0.00    -0.247 OA
BRANCH  18  20
ATOM     20  O   UNL     1      -6.824  -6.294   9.126  1.00  0.00    -0.466 OA
ATOM     21  C   UNL     1      -7.649  -7.408   9.445  1.00  0.00     0.282 C 
ENDBRANCH  18  20
ENDBRANCH  17  18
ENDBRANCH  15  16
ENDBRANCH  13  14
ENDBRANCH  12  13
ENDBRANCH  11  12
ENDBRANCH  10  11
ENDBRANCH   1  10
TORSDOF 15
ENDMDL
MODEL 4
REMARK VINA RESULT:    -4.672      3.652      7.588
REMARK INTER + INTRA:         -10.442
REMARK INTER:                  -8.858
REMARK INTRA:                  -1.584
REMARK UNBOUND:                -1.673
REMARK SMILES CCCCCCCCCCCCCC=CC=CC(=O)OC
REMARK SMILES IDX 9 1 8 2 7 3 6 4 5 5 4 6 3 7 2 8 1 9 10 10 11 11 12 12 13 13
REMARK SMILES IDX 14 14 15 15 16 16 17 17 18 18 19 19 20 20 21 21
REMARK H PARENT
REMARK Flexibility Score: inf
ROOT
ATOM      1  C   UNL     1      -9.733  -8.045   1.237  1.00  0.00     0.000 C 
ENDROOT
BRANCH   1   2
ATOM      2  C   UNL     1     -10.357  -7.722  -0.128  1.00  0.00     0.000 C 
BRANCH   2   3
ATOM      3  C   UNL     1     -11.431  -6.632   0.005  1.00  0.00     0.000 C 
BRANCH   3   4
ATOM      4  C   UNL     1     -10.922  -5.244  -0.417  1.00  0.00    -0.000 C 
BRANCH   4   5
ATOM      5  C   UNL     1     -11.739  -4.639  -1.569  1.00  0.00    -0.000 C 
BRANCH   5   6
ATOM      6  C   UNL     1     -10.835  -4.309  -2.767  1.00  0.00    -0.000 C 
BRANCH   6   7
ATOM      7  C   UNL     1      -9.897  -5.468  -3.139  1.00  0.00    -0.000 C 
BRANCH   7   8
ATOM      8  C   UNL     1     -10.471  -6.357  -4.251  1.00  0.00    -0.003 C 
ATOM      9  C   UNL     1     -10.460  -7.827  -3.840  1.00  0.00     0.004 C 
ENDBRANCH   7   8
ENDBRANCH   6   7
ENDBRANCH   5   6
ENDBRANCH   4   5
ENDBRANCH   3   4
ENDBRANCH   2   3
ENDBRANCH   1   2
BRANCH   1  10
ATOM     10  C   UNL     1      -8.364  -7.376   1.435  1.00  0.00     0.000 C 
BRANCH  10  11
ATOM     11  C   UNL     1      -8.456  -6.075   2.252  1.00  0.00     0.000 C 
BRANCH  11  12
ATOM     12  C   UNL     1      -9.604  -6.101   3.272  1.00  0.00     0.004 C 
BRANCH  12  13
ATOM     13  C   UNL     1      -9.110  -5.934   4.718  1.00  0.00     0.027 C 
BRANCH  13  14
ATOM     14  C   UNL     1      -8.053  -6.952   5.056  1.00  0.00    -0.027 C 
ATOM     15  C   UNL     1      -7.016  -6.733   5.879  1.00  0.00    -0.004 C 
BRANCH  15  16
ATOM     16  C   UNL     1      -6.741  -5.431   6.529  1.00  0.00     0.007 C 
ATOM     17  C   UNL     1      -6.803  -5.208   7.851  1.00  0.00     0.093 C 
BRANCH  17  18
ATOM     18  C   UNL     1      -7.297  -6.153   8.873  1.00  0.00     0.330 C 
ATOM     19  O   UNL     1      -6.795  -7.303   8.999  1.00  0.00    -0.247 OA
BRANCH  18  20
ATOM     20  O   UNL     1      -8.385  -5.771   9.662  1.00  0.00    -0.466 OA
ATOM     21  C   UNL     1      -8.701  -4.409   9.926  1.00  0.00     0.282 C 
ENDBRANCH  18  20
ENDBRANCH  17  18
ENDBRANCH  15  16
ENDBRANCH  13  14
ENDBRANCH  12  13
ENDBRANCH  11  12
ENDBRANCH  10  11
ENDBRANCH   1  10
TORSDOF 15
ENDMDL
MODEL 5
REMARK VINA RESULT:    -4.614      3.455      7.462
REMARK INTER + INTRA:         -10.332
REMARK INTER:                  -8.164
REMARK INTRA:                  -2.168
REMARK UNBOUND:                -1.673
REMARK SMILES CCCCCCCCCCCCCC=CC=CC(=O)OC
REMARK SMILES IDX 9 1 8 2 7 3 6 4 5 5 4 6 3 7 2 8 1 9 10 10 11 11 12 12 13 13
REMARK SMILES IDX 14 14 15 15 16 16 17 17 18 18 19 19 20 20 21 21
REMARK H PARENT
REMARK Flexibility Score: inf
ROOT
ATOM      1  C   UNL     1     -10.217  -8.091  -0.264  1.00  0.00     0.000 C 
ENDROOT
BRANCH   1   2
ATOM      2  C   UNL     1     -11.728  -7.885  -0.081  1.00  0.00     0.000 C 
BRANCH   2   3
ATOM      3  C   UNL     1     -12.064  -6.393   0.064  1.00  0.00     0.000 C 
BRANCH   3   4
ATOM      4  C   UNL     1     -10.912  -5.481  -0.387  1.00  0.00    -0.000 C 
BRANCH   4   5
ATOM      5  C   UNL     1     -11.399  -4.266  -1.191  1.00  0.00    -0.000 C 
BRANCH   5   6
ATOM      6  C   UNL     1     -11.243  -4.509  -2.699  1.00  0.00    -0.000 C 
BRANCH   6   7
ATOM      7  C   UNL     1      -9.953  -5.267  -3.047  1.00  0.00    -0.000 C 
BRANCH   7   8
ATOM      8  C   UNL     1     -10.181  -6.374  -4.086  1.00  0.00    -0.003 C 
ATOM      9  C   UNL     1     -11.438  -7.178  -3.765  1.00  0.00     0.004 C 
ENDBRANCH   7   8
ENDBRANCH   6   7
ENDBRANCH   5   6
ENDBRANCH   4   5
ENDBRANCH   3   4
ENDBRANCH   2   3
ENDBRANCH   1   2
BRANCH   1  10
ATOM     10  C   UNL     1      -9.668  -9.238   0.599  1.00  0.00     0.000 C 
BRANCH  10  11
ATOM     11  C   UNL     1      -8.778  -8.737   1.750  1.00  0.00     0.000 C 
BRANCH  11  12
ATOM     12  C   UNL     1      -8.358  -7.270   1.572  1.00  0.00     0.004 C 
BRANCH  12  13
ATOM     13  C   UNL     1      -8.822  -6.380   2.736  1.00  0.00     0.027 C 
BRANCH  13  14
ATOM     14  C   UNL     1      -9.070  -7.192   3.980  1.00  0.00    -0.027 C 
ATOM     15  C   UNL     1      -8.300  -7.164   5.078  1.00  0.00    -0.004 C 
BRANCH  15  16
ATOM     16  C   UNL     1      -7.060  -6.361   5.193  1.00  0.00     0.007 C 
ATOM     17  C   UNL     1      -6.825  -5.451   6.150  1.00  0.00     0.093 C 
BRANCH  17  18
ATOM     18  C   UNL     1      -7.795  -4.972   7.157  1.00  0.00     0.330 C 
ATOM     19  O   UNL     1      -8.645  -4.083   6.877  1.00  0.00    -0.247 OA
BRANCH  18  20
ATOM     20  O   UNL     1      -7.709  -5.477   8.457  1.00  0.00    -0.466 OA
ATOM     21  C   UNL     1      -8.386  -4.882   9.558  1.00  0.00     0.282 C 
ENDBRANCH  18  20
ENDBRANCH  17  18
ENDBRANCH  15  16
ENDBRANCH  13  14
ENDBRANCH  12  13
ENDBRANCH  11  12
ENDBRANCH  10  11
ENDBRANCH   1  10
TORSDOF 15
ENDMDL
MODEL 6
REMARK VINA RESULT:    -4.547      4.810      7.116
REMARK INTER + INTRA:         -10.206
REMARK INTER:                  -8.524
REMARK INTRA:                  -1.682
REMARK UNBOUND:                -1.673
REMARK SMILES CCCCCCCCCCCCCC=CC=CC(=O)OC
REMARK SMILES IDX 9 1 8 2 7 3 6 4 5 5 4 6 3 7 2 8 1 9 10 10 11 11 12 12 13 13
REMARK SMILES IDX 14 14 15 15 16 16 17 17 18 18 19 19 20 20 21 21
REMARK H PARENT
REMARK Flexibility Score: inf
ROOT
ATOM      1  C   UNL     1      -8.385  -6.604   2.452  1.00  0.00     0.000 C 
ENDROOT
BRANCH   1   2
ATOM      2  C   UNL     1      -9.727  -5.858   2.440  1.00  0.00     0.000 C 
BRANCH   2   3
ATOM      3  C   UNL     1      -9.943  -5.098   3.758  1.00  0.00     0.000 C 
BRANCH   3   4
ATOM      4  C   UNL     1      -9.058  -5.628   4.898  1.00  0.00    -0.000 C 
BRANCH   4   5
ATOM      5  C   UNL     1      -8.750  -4.558   5.956  1.00  0.00    -0.000 C 
BRANCH   5   6
ATOM      6  C   UNL     1      -7.298  -4.672   6.444  1.00  0.00    -0.000 C 
BRANCH   6   7
ATOM      7  C   UNL     1      -7.047  -5.947   7.265  1.00  0.00    -0.000 C 
BRANCH   7   8
ATOM      8  C   UNL     1      -7.419  -5.778   8.746  1.00  0.00    -0.003 C 
ATOM      9  C   UNL     1      -7.514  -7.131   9.446  1.00  0.00     0.004 C 
ENDBRANCH   7   8
ENDBRANCH   6   7
ENDBRANCH   5   6
ENDBRANCH   4   5
ENDBRANCH   3   4
ENDBRANCH   2   3
ENDBRANCH   1   2
BRANCH   1  10
ATOM     10  C   UNL     1      -8.549  -8.117   2.239  1.00  0.00     0.000 C 
BRANCH  10  11
ATOM     11  C   UNL     1      -9.847  -8.664   2.860  1.00  0.00     0.000 C 
BRANCH  11  12
ATOM     12  C   UNL     1     -10.616  -9.584   1.899  1.00  0.00     0.004 C 
BRANCH  12  13
ATOM     13  C   UNL     1     -11.410  -8.799   0.842  1.00  0.00     0.027 C 
BRANCH  13  14
ATOM     14  C   UNL     1     -10.821  -8.981  -0.532  1.00  0.00    -0.027 C 
ATOM     15  C   UNL     1     -10.545  -7.983  -1.384  1.00  0.00    -0.004 C 
BRANCH  15  16
ATOM     16  C   UNL     1     -10.834  -6.557  -1.104  1.00  0.00     0.007 C 
ATOM     17  C   UNL     1     -10.680  -5.558  -1.986  1.00  0.00     0.093 C 
BRANCH  17  18
ATOM     18  C   UNL     1     -10.060  -5.662  -3.323  1.00  0.00     0.330 C 
ATOM     19  O   UNL     1      -8.809  -5.610  -3.471  1.00  0.00    -0.247 OA
BRANCH  18  20
ATOM     20  O   UNL     1     -10.896  -5.753  -4.439  1.00  0.00    -0.466 OA
ATOM     21  C   UNL     1     -10.787  -6.799  -5.397  1.00  0.00     0.282 C 
ENDBRANCH  18  20
ENDBRANCH  17  18
ENDBRANCH  15  16
ENDBRANCH  13  14
ENDBRANCH  12  13
ENDBRANCH  11  12
ENDBRANCH  10  11
ENDBRANCH   1  10
TORSDOF 15
ENDMDL
MODEL 7
REMARK VINA RESULT:    -4.440      3.863      5.937
REMARK INTER + INTRA:         -10.007
REMARK INTER:                  -8.316
REMARK INTRA:                  -1.691
REMARK UNBOUND:                -1.673
REMARK SMILES CCCCCCCCCCCCCC=CC=CC(=O)OC
REMARK SMILES IDX 9 1 8 2 7 3 6 4 5 5 4 6 3 7 2 8 1 9 10 10 11 11 12 12 13 13
REMARK SMILES IDX 14 14 15 15 16 16 17 17 18 18 19 19 20 20 21 21
REMARK H PARENT
REMARK Flexibility Score: inf
ROOT
ATOM      1  C   UNL     1      -8.005  -7.959   5.310  1.00  0.00     0.000 C 
ENDROOT
BRANCH   1   2
ATOM      2  C   UNL     1      -7.960  -6.634   4.533  1.00  0.00     0.000 C 
BRANCH   2   3
ATOM      3  C   UNL     1      -8.840  -5.572   5.212  1.00  0.00     0.000 C 
BRANCH   3   4
ATOM      4  C   UNL     1      -8.038  -4.646   6.140  1.00  0.00    -0.000 C 
BRANCH   4   5
ATOM      5  C   UNL     1      -8.860  -4.157   7.343  1.00  0.00    -0.000 C 
BRANCH   5   6
ATOM      6  C   UNL     1      -8.471  -4.919   8.618  1.00  0.00    -0.000 C 
BRANCH   6   7
ATOM      7  C   UNL     1      -7.132  -5.660   8.481  1.00  0.00    -0.000 C 
BRANCH   7   8
ATOM      8  C   UNL     1      -7.076  -6.941   9.327  1.00  0.00    -0.003 C 
ATOM      9  C   UNL     1      -8.364  -7.128  10.125  1.00  0.00     0.004 C 
ENDBRANCH   7   8
ENDBRANCH   6   7
ENDBRANCH   5   6
ENDBRANCH   4   5
ENDBRANCH   3   4
ENDBRANCH   2   3
ENDBRANCH   1   2
BRANCH   1  10
ATOM     10  C   UNL     1      -8.400  -9.150   4.424  1.00  0.00     0.000 C 
BRANCH  10  11
ATOM     11  C   UNL     1      -7.619  -9.185   3.098  1.00  0.00     0.000 C 
BRANCH  11  12
ATOM     12  C   UNL     1      -8.386  -9.913   1.984  1.00  0.00     0.004 C 
BRANCH  12  13
ATOM     13  C   UNL     1      -9.119  -8.942   1.044  1.00  0.00     0.027 C 
BRANCH  13  14
ATOM     14  C   UNL     1      -8.653  -7.525   1.249  1.00  0.00    -0.027 C 
ATOM     15  C   UNL     1      -9.461  -6.457   1.317  1.00  0.00    -0.004 C 
BRANCH  15  16
ATOM     16  C   UNL     1     -10.931  -6.523   1.144  1.00  0.00     0.007 C 
ATOM     17  C   UNL     1     -11.573  -6.338  -0.020  1.00  0.00     0.093 C 
BRANCH  17  18
ATOM     18  C   UNL     1     -10.966  -5.890  -1.290  1.00  0.00     0.330 C 
ATOM     19  O   UNL     1     -10.283  -6.674  -2.003  1.00  0.00    -0.247 OA
BRANCH  18  20
ATOM     20  O   UNL     1     -11.108  -4.549  -1.658  1.00  0.00    -0.466 OA
ATOM     21  C   UNL     1     -10.680  -4.051  -2.921  1.00  0.00     0.282 C 
ENDBRANCH  18  20
ENDBRANCH  17  18
ENDBRANCH  15  16
ENDBRANCH  13  14
ENDBRANCH  12  13
ENDBRANCH  11  12
ENDBRANCH  10  11
ENDBRANCH   1  10
TORSDOF 15
ENDMDL
MODEL 8
REMARK VINA RESULT:    -4.373      3.599      7.440
REMARK INTER + INTRA:          -9.880
REMARK INTER:                  -8.091
REMARK INTRA:                  -1.789
REMARK UNBOUND:                -1.673
REMARK SMILES CCCCCCCCCCCCCC=CC=CC(=O)OC
REMARK SMILES IDX 9 1 8 2 7 3 6 4 5 5 4 6 3 7 2 8 1 9 10 10 11 11 12 12 13 13
REMARK SMILES IDX 14 14 15 15 16 16 17 17 18 18 19 19 20 20 21 21
REMARK H PARENT
REMARK Flexibility Score: inf
ROOT
ATOM      1  C   UNL     1      -8.687  -9.633   1.464  1.00  0.00     0.000 C 
ENDROOT
BRANCH   1   2
ATOM      2  C   UNL     1     -10.156  -9.747   1.031  1.00  0.00     0.000 C 
BRANCH   2   3
ATOM      3  C   UNL     1     -10.278  -9.725  -0.500  1.00  0.00     0.000 C 
BRANCH   3   4
ATOM      4  C   UNL     1     -11.475  -8.893  -0.986  1.00  0.00    -0.000 C 
BRANCH   4   5
ATOM      5  C   UNL     1     -11.051  -7.560  -1.622  1.00  0.00    -0.000 C 
BRANCH   5   6
ATOM      6  C   UNL     1     -10.639  -7.759  -3.088  1.00  0.00    -0.000 C 
BRANCH   6   7
ATOM      7  C   UNL     1     -10.611  -6.442  -3.880  1.00  0.00    -0.000 C 
BRANCH   7   8
ATOM      8  C   UNL     1      -9.836  -5.333  -3.154  1.00  0.00    -0.003 C 
ATOM      9  C   UNL     1     -10.744  -4.149  -2.832  1.00  0.00     0.004 C 
ENDBRANCH   7   8
ENDBRANCH   6   7
ENDBRANCH   5   6
ENDBRANCH   4   5
ENDBRANCH   3   4
ENDBRANCH   2   3
ENDBRANCH   1   2
BRANCH   1  10
ATOM     10  C   UNL     1      -8.388  -8.319   2.203  1.00  0.00     0.000 C 
BRANCH  10  11
ATOM     11  C   UNL     1      -8.401  -7.099   1.266  1.00  0.00     0.000 C 
BRANCH  11  12
ATOM     12  C   UNL     1      -9.524  -6.108   1.607  1.00  0.00     0.004 C 
BRANCH  12  13
ATOM     13  C   UNL     1     -10.150  -6.380   2.985  1.00  0.00     0.027 C 
BRANCH  13  14
ATOM     14  C   UNL     1      -9.895  -5.242   3.937  1.00  0.00    -0.027 C 
ATOM     15  C   UNL     1      -9.012  -5.273   4.946  1.00  0.00    -0.004 C 
BRANCH  15  16
ATOM     16  C   UNL     1      -8.201  -6.462   5.295  1.00  0.00     0.007 C 
ATOM     17  C   UNL     1      -7.142  -6.451   6.119  1.00  0.00     0.093 C 
BRANCH  17  18
ATOM     18  C   UNL     1      -6.501  -5.253   6.700  1.00  0.00     0.330 C 
ATOM     19  O   UNL     1      -5.703  -4.546   6.028  1.00  0.00    -0.247 OA
BRANCH  18  20
ATOM     20  O   UNL     1      -6.746  -4.953   8.043  1.00  0.00    -0.466 OA
ATOM     21  C   UNL     1      -7.458  -5.830   8.908  1.00  0.00     0.282 C 
ENDBRANCH  18  20
ENDBRANCH  17  18
ENDBRANCH  15  16
ENDBRANCH  13  14
ENDBRANCH  12  13
ENDBRANCH  11  12
ENDBRANCH  10  11
ENDBRANCH   1  10
TORSDOF 15
ENDMDL
MODEL 9
REMARK VINA RESULT:    -4.326      4.708      6.499
REMARK INTER + INTRA:          -9.792
REMARK INTER:                  -7.890
REMARK INTRA:                  -1.902
REMARK UNBOUND:                -1.673
REMARK SMILES CCCCCCCCCCCCCC=CC=CC(=O)OC
REMARK SMILES IDX 9 1 8 2 7 3 6 4 5 5 4 6 3 7 2 8 1 9 10 10 11 11 12 12 13 13
REMARK SMILES IDX 14 14 15 15 16 16 17 17 18 18 19 19 20 20 21 21
REMARK H PARENT
REMARK Flexibility Score: inf
ROOT
ATOM      1  C   UNL     1      -8.800  -9.238   2.324  1.00  0.00     0.000 C 
ENDROOT
BRANCH   1   2
ATOM      2  C   UNL     1      -7.940  -8.186   3.040  1.00  0.00     0.000 C 
BRANCH   2   3
ATOM      3  C   UNL     1      -8.284  -8.124   4.536  1.00  0.00     0.000 C 
BRANCH   3   4
ATOM      4  C   UNL     1      -8.126  -6.711   5.121  1.00  0.00    -0.000 C 
BRANCH   4   5
ATOM      5  C   UNL     1      -6.824  -6.543   5.919  1.00  0.00    -0.000 C 
BRANCH   5   6
ATOM      6  C   UNL     1      -6.731  -5.134   6.525  1.00  0.00    -0.000 C 
BRANCH   6   7
ATOM      7  C   UNL     1      -7.008  -5.119   8.036  1.00  0.00    -0.000 C 
BRANCH   7   8
ATOM      8  C   UNL     1      -7.095  -6.531   8.634  1.00  0.00    -0.003 C 
ATOM      9  C   UNL     1      -7.754  -6.505  10.011  1.00  0.00     0.004 C 
ENDBRANCH   7   8
ENDBRANCH   6   7
ENDBRANCH   5   6
ENDBRANCH   4   5
ENDBRANCH   3   4
ENDBRANCH   2   3
ENDBRANCH   1   2
BRANCH   1  10
ATOM     10  C   UNL     1      -9.984  -9.714   3.179  1.00  0.00     0.000 C 
BRANCH  10  11
ATOM     11  C   UNL     1     -11.339  -9.234   2.631  1.00  0.00     0.000 C 
BRANCH  11  12
ATOM     12  C   UNL     1     -11.635  -7.770   2.995  1.00  0.00     0.004 C 
BRANCH  12  13
ATOM     13  C   UNL     1     -11.915  -6.902   1.757  1.00  0.00     0.027 C 
BRANCH  13  14
ATOM     14  C   UNL     1     -10.640  -6.360   1.168  1.00  0.00    -0.027 C 
ATOM     15  C   UNL     1     -10.119  -6.740  -0.007  1.00  0.00    -0.004 C 
BRANCH  15  16
ATOM     16  C   UNL     1     -10.706  -7.794  -0.867  1.00  0.00     0.007 C 
ATOM     17  C   UNL     1     -10.834  -7.710  -2.200  1.00  0.00     0.093 C 
BRANCH  17  18
ATOM     18  C   UNL     1     -10.563  -6.519  -3.030  1.00  0.00     0.330 C 
ATOM     19  O   UNL     1      -9.548  -6.456  -3.776  1.00  0.00    -0.247 OA
BRANCH  18  20
ATOM     20  O   UNL     1     -11.424  -5.423  -2.922  1.00  0.00    -0.466 OA
ATOM     21  C   UNL     1     -10.957  -4.099  -2.691  1.00  0.00     0.282 C 
ENDBRANCH  18  20
ENDBRANCH  17  18
ENDBRANCH  15  16
ENDBRANCH  13  14
ENDBRANCH  12  13
ENDBRANCH  11  12
ENDBRANCH  10  11
ENDBRANCH   1  10
TORSDOF 15
ENDMDL
