MODEL 1
REMARK VINA RESULT:    -4.663      0.000      0.000
REMARK INTER + INTRA:          -6.260
REMARK INTER:                  -6.026
REMARK INTRA:                  -0.235
REMARK UNBOUND:                -0.235
REMARK SMILES CCCCCCC(=O)[O-]
REMARK SMILES IDX 5 1 6 2 7 3 8 4 9 5 4 6 3 7 2 8 1 9
REMARK H PARENT
REMARK Flexibility Score: inf
ROOT
ATOM      1  C   UNL     1      18.162  -6.965  23.554  1.00  0.00     0.006 C 
ENDROOT
BRANCH   1   2
ATOM      2  C   UNL     1      19.039  -8.112  24.075  1.00  0.00     0.053 C 
BRANCH   2   3
ATOM      3  C   UNL     1      20.327  -8.218  23.318  1.00  0.00     0.041 C 
ATOM      4  O   UNL     1      21.408  -7.859  23.855  1.00  0.00    -0.550 OA
ATOM      5  O   UNL     1      20.330  -8.685  22.011  1.00  0.00    -0.550 OA
ENDBRANCH   2   3
ENDBRANCH   1   2
BRANCH   1   6
ATOM      6  C   UNL     1      18.981  -5.695  23.265  1.00  0.00     0.000 C 
BRANCH   6   7
ATOM      7  C   UNL     1      18.587  -5.028  21.937  1.00  0.00    -0.000 C 
BRANCH   7   8
ATOM      8  C   UNL     1      19.309  -5.642  20.729  1.00  0.00    -0.003 C 
ATOM      9  C   UNL     1      18.427  -6.671  20.026  1.00  0.00     0.004 C 
ENDBRANCH   7   8
ENDBRANCH   6   7
ENDBRANCH   1   6
TORSDOF 5
ENDMDL
MODEL 2
REMARK VINA RESULT:    -4.445      1.289      2.013
REMARK INTER + INTRA:          -5.979
REMARK INTER:                  -5.663
REMARK INTRA:                  -0.316
REMARK UNBOUND:                -0.235
REMARK SMILES CCCCCCC(=O)[O-]
REMARK SMILES IDX 5 1 6 2 7 3 8 4 9 5 4 6 3 7 2 8 1 9
REMARK H PARENT
REMARK Flexibility Score: inf
ROOT
ATOM      1  C   UNL     1      17.879  -7.887  22.668  1.00  0.00     0.006 C 
ENDROOT
BRANCH   1   2
ATOM      2  C   UNL     1      18.716  -8.152  23.926  1.00  0.00     0.053 C 
BRANCH   2   3
ATOM      3  C   UNL     1      19.915  -7.257  24.000  1.00  0.00     0.041 C 
ATOM      4  O   UNL     1      19.769  -6.010  24.099  1.00  0.00    -0.550 OA
ATOM      5  O   UNL     1      21.193  -7.796  23.927  1.00  0.00    -0.550 OA
ENDBRANCH   2   3
ENDBRANCH   1   2
BRANCH   1   6
ATOM      6  C   UNL     1      18.703  -8.051  21.379  1.00  0.00     0.000 C 
BRANCH   6   7
ATOM      7  C   UNL     1      18.410  -6.950  20.347  1.00  0.00    -0.000 C 
BRANCH   7   8
ATOM      8  C   UNL     1      18.817  -5.553  20.838  1.00  0.00    -0.003 C 
ATOM      9  C   UNL     1      20.335  -5.415  20.908  1.00  0.00     0.004 C 
ENDBRANCH   7   8
ENDBRANCH   6   7
ENDBRANCH   1   6
TORSDOF 5
ENDMDL
MODEL 3
REMARK VINA RESULT:    -4.421      2.121      3.741
REMARK INTER + INTRA:          -5.948
REMARK INTER:                  -5.683
REMARK INTRA:                  -0.265
REMARK UNBOUND:                -0.235
REMARK SMILES CCCCCCC(=O)[O-]
REMARK SMILES IDX 5 1 6 2 7 3 8 4 9 5 4 6 3 7 2 8 1 9
REMARK H PARENT
REMARK Flexibility Score: inf
ROOT
ATOM      1  C   UNL     1      18.668  -7.870  21.274  1.00  0.00     0.006 C 
ENDROOT
BRANCH   1   2
ATOM      2  C   UNL     1      18.603  -6.560  20.478  1.00  0.00     0.053 C 
BRANCH   2   3
ATOM      3  C   UNL     1      19.331  -5.449  21.171  1.00  0.00     0.041 C 
ATOM      4  O   UNL     1      20.581  -5.345  21.059  1.00  0.00    -0.550 OA
ATOM      5  O   UNL     1      18.634  -4.547  21.964  1.00  0.00    -0.550 OA
ENDBRANCH   2   3
ENDBRANCH   1   2
BRANCH   1   6
ATOM      6  C   UNL     1      17.914  -7.774  22.612  1.00  0.00     0.000 C 
BRANCH   6   7
ATOM      7  C   UNL     1      18.791  -8.163  23.812  1.00  0.00    -0.000 C 
BRANCH   7   8
ATOM      8  C   UNL     1      19.869  -7.115  24.124  1.00  0.00    -0.003 C 
ATOM      9  C   UNL     1      21.257  -7.622  23.744  1.00  0.00     0.004 C 
ENDBRANCH   7   8
ENDBRANCH   6   7
ENDBRANCH   1   6
TORSDOF 5
ENDMDL
MODEL 4
REMARK VINA RESULT:    -4.304      1.902      3.360
REMARK INTER + INTRA:          -5.796
REMARK INTER:                  -5.502
REMARK INTRA:                  -0.294
REMARK UNBOUND:                -0.235
REMARK SMILES CCCCCCC(=O)[O-]
REMARK SMILES IDX 5 1 6 2 7 3 8 4 9 5 4 6 3 7 2 8 1 9
REMARK H PARENT
REMARK Flexibility Score: inf
ROOT
ATOM      1  C   UNL     1      18.987  -5.710  23.503  1.00  0.00     0.006 C 
ENDROOT
BRANCH   1   2
ATOM      2  C   UNL     1      18.552  -4.989  22.220  1.00  0.00     0.053 C 
BRANCH   2   3
ATOM      3  C   UNL     1      19.262  -5.519  21.012  1.00  0.00     0.041 C 
ATOM      4  O   UNL     1      20.491  -5.296  20.852  1.00  0.00    -0.550 OA
ATOM      5  O   UNL     1      18.561  -6.233  20.049  1.00  0.00    -0.550 OA
ENDBRANCH   2   3
ENDBRANCH   1   2
BRANCH   1   6
ATOM      6  C   UNL     1      18.201  -7.013  23.730  1.00  0.00     0.000 C 
BRANCH   6   7
ATOM      7  C   UNL     1      19.113  -8.197  24.092  1.00  0.00    -0.000 C 
BRANCH   7   8
ATOM      8  C   UNL     1      20.434  -8.189  23.308  1.00  0.00    -0.003 C 
ATOM      9  C   UNL     1      20.232  -8.701  21.885  1.00  0.00     0.004 C 
ENDBRANCH   7   8
ENDBRANCH   6   7
ENDBRANCH   1   6
TORSDOF 5
ENDMDL
MODEL 5
REMARK VINA RESULT:    -3.948      1.432      3.559
REMARK INTER + INTRA:          -5.336
REMARK INTER:                  -5.190
REMARK INTRA:                  -0.146
REMARK UNBOUND:                -0.235
REMARK SMILES CCCCCCC(=O)[O-]
REMARK SMILES IDX 5 1 6 2 7 3 8 4 9 5 4 6 3 7 2 8 1 9
REMARK H PARENT
REMARK Flexibility Score: inf
ROOT
ATOM      1  C   UNL     1      18.630  -5.114  21.944  1.00  0.00     0.006 C 
ENDROOT
BRANCH   1   2
ATOM      2  C   UNL     1      19.329  -5.773  20.748  1.00  0.00     0.053 C 
BRANCH   2   3
ATOM      3  C   UNL     1      18.729  -7.105  20.414  1.00  0.00     0.041 C 
ATOM      4  O   UNL     1      17.670  -7.171  19.737  1.00  0.00    -0.550 OA
ATOM      5  O   UNL     1      19.323  -8.272  20.878  1.00  0.00    -0.550 OA
ENDBRANCH   2   3
ENDBRANCH   1   2
BRANCH   1   6
ATOM      6  C   UNL     1      19.189  -5.612  23.289  1.00  0.00     0.000 C 
BRANCH   6   7
ATOM      7  C   UNL     1      18.405  -6.812  23.845  1.00  0.00    -0.000 C 
BRANCH   7   8
ATOM      8  C   UNL     1      19.300  -8.028  24.121  1.00  0.00    -0.003 C 
ATOM      9  C   UNL     1      20.763  -7.716  23.818  1.00  0.00     0.004 C 
ENDBRANCH   7   8
ENDBRANCH   6   7
ENDBRANCH   1   6
TORSDOF 5
ENDMDL
MODEL 6
REMARK VINA RESULT:    -3.511      2.246      3.927
REMARK INTER + INTRA:          -4.771
REMARK INTER:                  -4.662
REMARK INTRA:                  -0.109
REMARK UNBOUND:                -0.235
REMARK SMILES CCCCCCC(=O)[O-]
REMARK SMILES IDX 5 1 6 2 7 3 8 4 9 5 4 6 3 7 2 8 1 9
REMARK H PARENT
REMARK Flexibility Score: inf
ROOT
ATOM      1  C   UNL     1      18.663  -6.608  20.324  1.00  0.00     0.006 C 
ENDROOT
BRANCH   1   2
ATOM      2  C   UNL     1      19.564  -5.591  21.036  1.00  0.00     0.053 C 
BRANCH   2   3
ATOM      3  C   UNL     1      18.866  -4.934  22.187  1.00  0.00     0.041 C 
ATOM      4  O   UNL     1      17.844  -4.227  21.987  1.00  0.00    -0.550 OA
ATOM      5  O   UNL     1      19.362  -5.076  23.476  1.00  0.00    -0.550 OA
ENDBRANCH   2   3
ENDBRANCH   1   2
BRANCH   1   6
ATOM      6  C   UNL     1      18.431  -7.871  21.172  1.00  0.00     0.000 C 
BRANCH   6   7
ATOM      7  C   UNL     1      19.663  -8.253  22.008  1.00  0.00    -0.000 C 
BRANCH   7   8
ATOM      8  C   UNL     1      19.377  -8.256  23.517  1.00  0.00    -0.003 C 
ATOM      9  C   UNL     1      17.878  -8.201  23.794  1.00  0.00     0.004 C 
ENDBRANCH   7   8
ENDBRANCH   6   7
ENDBRANCH   1   6
TORSDOF 5
ENDMDL
MODEL 7
REMARK VINA RESULT:    -2.751     15.069     16.450
REMARK INTER + INTRA:          -3.790
REMARK INTER:                  -3.586
REMARK INTRA:                  -0.204
REMARK UNBOUND:                -0.235
REMARK SMILES CCCCCCC(=O)[O-]
REMARK SMILES IDX 5 1 6 2 7 3 8 4 9 5 4 6 3 7 2 8 1 9
REMARK H PARENT
REMARK Flexibility Score: inf
ROOT
ATOM      1  C   UNL     1      18.274  -7.453   5.164  1.00  0.00     0.006 C 
ENDROOT
BRANCH   1   2
ATOM      2  C   UNL     1      19.379  -6.786   5.993  1.00  0.00     0.053 C 
BRANCH   2   3
ATOM      3  C   UNL     1      19.365  -7.249   7.418  1.00  0.00     0.041 C 
ATOM      4  O   UNL     1      19.771  -8.404   7.713  1.00  0.00    -0.550 OA
ATOM      5  O   UNL     1      18.876  -6.417   8.416  1.00  0.00    -0.550 OA
ENDBRANCH   2   3
ENDBRANCH   1   2
BRANCH   1   6
ATOM      6  C   UNL     1      17.313  -6.422   4.545  1.00  0.00     0.000 C 
BRANCH   6   7
ATOM      7  C   UNL     1      15.888  -6.530   5.110  1.00  0.00    -0.000 C 
BRANCH   7   8
ATOM      8  C   UNL     1      15.848  -7.190   6.496  1.00  0.00    -0.003 C 
ATOM      9  C   UNL     1      14.564  -7.991   6.688  1.00  0.00     0.004 C 
ENDBRANCH   7   8
ENDBRANCH   6   7
ENDBRANCH   1   6
TORSDOF 5
ENDMDL
MODEL 8
REMARK VINA RESULT:    -2.703     15.161     17.140
REMARK INTER + INTRA:          -3.728
REMARK INTER:                  -3.556
REMARK INTRA:                  -0.172
REMARK UNBOUND:                -0.235
REMARK SMILES CCCCCCC(=O)[O-]
REMARK SMILES IDX 5 1 6 2 7 3 8 4 9 5 4 6 3 7 2 8 1 9
REMARK H PARENT
REMARK Flexibility Score: inf
ROOT
ATOM      1  C   UNL     1      18.672  -7.084   4.805  1.00  0.00     0.006 C 
ENDROOT
BRANCH   1   2
ATOM      2  C   UNL     1      19.185  -7.505   6.189  1.00  0.00     0.053 C 
BRANCH   2   3
ATOM      3  C   UNL     1      18.392  -6.878   7.294  1.00  0.00     0.041 C 
ATOM      4  O   UNL     1      17.139  -6.792   7.204  1.00  0.00    -0.550 OA
ATOM      5  O   UNL     1      19.039  -6.359   8.408  1.00  0.00    -0.550 OA
ENDBRANCH   2   3
ENDBRANCH   1   2
BRANCH   1   6
ATOM      6  C   UNL     1      19.577  -6.027   4.149  1.00  0.00     0.000 C 
BRANCH   6   7
ATOM      7  C   UNL     1      20.886  -5.808   4.923  1.00  0.00    -0.000 C 
BRANCH   7   8
ATOM      8  C   UNL     1      21.872  -4.898   4.176  1.00  0.00    -0.003 C 
ATOM      9  C   UNL     1      21.247  -3.539   3.875  1.00  0.00     0.004 C 
ENDBRANCH   7   8
ENDBRANCH   6   7
ENDBRANCH   1   6
TORSDOF 5
ENDMDL
MODEL 9
REMARK VINA RESULT:    -2.700     16.538     17.880
REMARK INTER + INTRA:          -3.724
REMARK INTER:                  -3.502
REMARK INTRA:                  -0.222
REMARK UNBOUND:                -0.235
REMARK SMILES CCCCCCC(=O)[O-]
REMARK SMILES IDX 5 1 6 2 7 3 8 4 9 5 4 6 3 7 2 8 1 9
REMARK H PARENT
REMARK Flexibility Score: inf
ROOT
ATOM      1  C   UNL     1      19.888  -6.787   5.384  1.00  0.00     0.006 C 
ENDROOT
BRANCH   1   2
ATOM      2  C   UNL     1      20.040  -5.811   4.210  1.00  0.00     0.053 C 
BRANCH   2   3
ATOM      3  C   UNL     1      21.281  -4.980   4.331  1.00  0.00     0.041 C 
ATOM      4  O   UNL     1      22.388  -5.528   4.572  1.00  0.00    -0.550 OA
ATOM      5  O   UNL     1      21.210  -3.599   4.207  1.00  0.00    -0.550 OA
ENDBRANCH   2   3
ENDBRANCH   1   2
BRANCH   1   6
ATOM      6  C   UNL     1      18.495  -7.439   5.419  1.00  0.00     0.000 C 
BRANCH   6   7
ATOM      7  C   UNL     1      17.459  -6.661   4.592  1.00  0.00    -0.000 C 
BRANCH   7   8
ATOM      8  C   UNL     1      16.188  -6.333   5.389  1.00  0.00    -0.003 C 
ATOM      9  C   UNL     1      16.374  -6.642   6.872  1.00  0.00     0.004 C 
ENDBRANCH   7   8
ENDBRANCH   6   7
ENDBRANCH   1   6
TORSDOF 5
ENDMDL
