MODEL 1
REMARK VINA RESULT:     6.751      0.000      0.000
REMARK INTER + INTRA:           9.502
REMARK INTER:                   9.118
REMARK INTRA:                   0.383
REMARK UNBOUND:                 0.383
REMARK SMILES COc1ccc(-c2cc(=O)c3c(OC)c(OC)c(OC)c(OC)c3o2)cc1
REMARK SMILES IDX 7 1 8 2 9 3 10 4 11 5 24 6 25 7 21 8 18 9 15 10 12 11 6 12
REMARK SMILES IDX 3 13 4 14 27 15 5 16 26 17 2 18 1 19 22 20 23 21 13 22 14 23
REMARK SMILES IDX 19 24 20 25 16 26 17 27
REMARK H PARENT
REMARK Flexibility Score: inf
ROOT
ATOM      1  C   UNL     1       1.839  15.277  18.172  1.00  0.00     0.138 A 
ATOM      2  C   UNL     1       2.584  14.704  19.210  1.00  0.00     0.100 A 
ATOM      3  C   UNL     1       3.519  13.716  18.913  1.00  0.00     0.197 A 
ATOM      4  O   UNL     1       4.189  13.214  19.855  1.00  0.00    -0.289 OA
ATOM      5  C   UNL     1       3.704  13.306  17.574  1.00  0.00     0.115 A 
ATOM      6  C   UNL     1       2.918  13.931  16.576  1.00  0.00     0.188 A 
ATOM      7  O   UNL     1       2.044  14.875  16.920  1.00  0.00    -0.452 OA
ATOM      8  C   UNL     1       3.051  13.543  15.222  1.00  0.00     0.209 A 
ATOM      9  C   UNL     1       3.989  12.563  14.862  1.00  0.00     0.211 A 
ATOM     10  C   UNL     1       4.808  11.970  15.850  1.00  0.00     0.208 A 
ATOM     11  C   UNL     1       4.621  12.295  17.208  1.00  0.00     0.179 A 
ENDROOT
BRANCH   1  12
ATOM     12  C   UNL     1       0.829  16.329  18.435  1.00  0.00     0.018 A 
ATOM     13  C   UNL     1      -1.121  18.299  18.975  1.00  0.00     0.118 A 
ATOM     14  C   UNL     1       0.215  18.668  18.734  1.00  0.00     0.047 A 
ATOM     15  C   UNL     1      -1.469  16.945  18.948  1.00  0.00     0.047 A 
ATOM     16  C   UNL     1       1.180  17.692  18.470  1.00  0.00     0.016 A 
ATOM     17  C   UNL     1      -0.505  15.969  18.685  1.00  0.00     0.016 A 
BRANCH  13  18
ATOM     18  O   UNL     1      -2.125  19.241  19.243  1.00  0.00    -0.497 OA
ATOM     19  C   UNL     1      -2.125  20.121  20.362  1.00  0.00     0.278 C 
ENDBRANCH  13  18
ENDBRANCH   1  12
BRANCH   8  20
ATOM     20  O   UNL     1       2.280  14.087  14.175  1.00  0.00    -0.490 OA
ATOM     21  C   UNL     1       1.068  13.560  13.648  1.00  0.00     0.278 C 
ENDBRANCH   8  20
BRANCH  11  22
ATOM     22  O   UNL     1       5.330  11.609  18.201  1.00  0.00    -0.492 OA
ATOM     23  C   UNL     1       6.428  12.195  18.893  1.00  0.00     0.278 C 
ENDBRANCH  11  22
BRANCH   9  24
ATOM     24  O   UNL     1       4.061  12.237  13.493  1.00  0.00    -0.490 OA
ATOM     25  C   UNL     1       3.768  10.976  12.901  1.00  0.00     0.279 C 
ENDBRANCH   9  24
BRANCH  10  26
ATOM     26  O   UNL     1       5.812  11.069  15.478  1.00  0.00    -0.490 OA
ATOM     27  C   UNL     1       7.180  11.446  15.363  1.00  0.00     0.278 C 
ENDBRANCH  10  26
TORSDOF 6
ENDMDL
MODEL 2
REMARK VINA RESULT:     6.811      1.085      3.644
REMARK INTER + INTRA:           9.584
REMARK INTER:                   9.302
REMARK INTRA:                   0.282
REMARK UNBOUND:                 0.383
REMARK SMILES COc1ccc(-c2cc(=O)c3c(OC)c(OC)c(OC)c(OC)c3o2)cc1
REMARK SMILES IDX 7 1 8 2 9 3 10 4 11 5 24 6 25 7 21 8 18 9 15 10 12 11 6 12
REMARK SMILES IDX 3 13 4 14 27 15 5 16 26 17 2 18 1 19 22 20 23 21 13 22 14 23
REMARK SMILES IDX 19 24 20 25 16 26 17 27
REMARK H PARENT
REMARK Flexibility Score: inf
ROOT
ATOM      1  C   UNL     1       1.389  15.254  17.732  1.00  0.00     0.138 A 
ATOM      2  C   UNL     1       1.236  15.209  16.341  1.00  0.00     0.100 A 
ATOM      3  C   UNL     1       2.129  14.458  15.582  1.00  0.00     0.197 A 
ATOM      4  O   UNL     1       1.976  14.418  14.331  1.00  0.00    -0.289 OA
ATOM      5  C   UNL     1       3.173  13.753  16.221  1.00  0.00     0.115 A 
ATOM      6  C   UNL     1       3.265  13.843  17.631  1.00  0.00     0.188 A 
ATOM      7  O   UNL     1       2.377  14.572  18.305  1.00  0.00    -0.452 OA
ATOM      8  C   UNL     1       4.305  13.172  18.318  1.00  0.00     0.209 A 
ATOM      9  C   UNL     1       5.224  12.388  17.606  1.00  0.00     0.211 A 
ATOM     10  C   UNL     1       5.108  12.259  16.202  1.00  0.00     0.208 A 
ATOM     11  C   UNL     1       4.125  12.991  15.507  1.00  0.00     0.179 A 
ENDROOT
BRANCH   1  12
ATOM     12  C   UNL     1       0.467  16.042  18.585  1.00  0.00     0.018 A 
ATOM     13  C   UNL     1      -1.284  17.585  20.174  1.00  0.00     0.118 A 
ATOM     14  C   UNL     1      -1.501  16.205  20.011  1.00  0.00     0.047 A 
ATOM     15  C   UNL     1      -0.193  18.183  19.535  1.00  0.00     0.047 A 
ATOM     16  C   UNL     1      -0.636  15.442  19.222  1.00  0.00     0.016 A 
ATOM     17  C   UNL     1       0.673  17.421  18.745  1.00  0.00     0.016 A 
BRANCH  13  18
ATOM     18  O   UNL     1      -2.123  18.393  20.956  1.00  0.00    -0.497 OA
ATOM     19  C   UNL     1      -2.118  19.816  20.936  1.00  0.00     0.278 C 
ENDBRANCH  13  18
ENDBRANCH   1  12
BRANCH   8  20
ATOM     20  O   UNL     1       4.488  13.242  19.714  1.00  0.00    -0.490 OA
ATOM     21  C   UNL     1       4.658  12.146  20.605  1.00  0.00     0.278 C 
ENDBRANCH   8  20
BRANCH  11  22
ATOM     22  O   UNL     1       4.095  12.978  14.107  1.00  0.00    -0.492 OA
ATOM     23  C   UNL     1       3.857  11.786  13.364  1.00  0.00     0.278 C 
ENDBRANCH  11  22
BRANCH   9  24
ATOM     24  O   UNL     1       6.226  11.751  18.365  1.00  0.00    -0.490 OA
ATOM     25  C   UNL     1       7.538  12.238  18.624  1.00  0.00     0.279 C 
ENDBRANCH   9  24
BRANCH  10  26
ATOM     26  O   UNL     1       5.962  11.397  15.506  1.00  0.00    -0.490 OA
ATOM     27  C   UNL     1       7.283  11.766  15.123  1.00  0.00     0.278 C 
ENDBRANCH  10  26
TORSDOF 6
ENDMDL
