MODEL 1
REMARK VINA RESULT:    -6.232      0.000      0.000
REMARK INTER + INTRA:          -6.232
REMARK INTER:                  -6.232
REMARK INTRA:                   0.000
REMARK UNBOUND:                 0.000
REMARK SMILES CC1=CC(=O)[C@H]2C[C@@H]1C2(C)C
REMARK SMILES IDX 1 1 2 2 3 3 4 4 5 5 6 6 7 7 8 8 9 9 10 10 11 11
REMARK H PARENT
REMARK Flexibility Score: inf
ROOT
ATOM      1  C   UNL     1       0.507 -24.010 -10.688  1.00  0.00     0.040 C 
ATOM      2  C   UNL     1      -0.783 -23.253 -10.657  1.00  0.00    -0.066 C 
ATOM      3  C   UNL     1      -1.431 -22.966  -9.493  1.00  0.00     0.047 C 
ATOM      4  C   UNL     1      -2.714 -22.202  -9.620  1.00  0.00     0.159 C 
ATOM      5  O   UNL     1      -3.426 -21.913  -8.622  1.00  0.00    -0.295 OA
ATOM      6  C   UNL     1      -3.097 -21.799 -11.044  1.00  0.00     0.067 C 
ATOM      7  C   UNL     1      -1.787 -21.244 -11.645  1.00  0.00     0.021 C 
ATOM      8  C   UNL     1      -1.412 -22.712 -11.957  1.00  0.00     0.022 C 
ATOM      9  C   UNL     1      -2.935 -23.038 -11.970  1.00  0.00    -0.019 C 
ATOM     10  C   UNL     1      -3.394 -24.424 -11.436  1.00  0.00     0.012 C 
ATOM     11  C   UNL     1      -3.573 -22.819 -13.365  1.00  0.00     0.012 C 
ENDROOT
TORSDOF 0
ENDMDL
MODEL 2
REMARK VINA RESULT:    -6.107      1.269      1.616
REMARK INTER + INTRA:          -6.107
REMARK INTER:                  -6.107
REMARK INTRA:                   0.000
REMARK UNBOUND:                 0.000
REMARK SMILES CC1=CC(=O)[C@H]2C[C@@H]1C2(C)C
REMARK SMILES IDX 1 1 2 2 3 3 4 4 5 5 6 6 7 7 8 8 9 9 10 10 11 11
REMARK H PARENT
REMARK Flexibility Score: inf
ROOT
ATOM      1  C   UNL     1      -0.006 -24.440 -12.200  1.00  0.00     0.040 C 
ATOM      2  C   UNL     1      -1.073 -23.624 -11.539  1.00  0.00    -0.066 C 
ATOM      3  C   UNL     1      -1.959 -24.164 -10.655  1.00  0.00     0.047 C 
ATOM      4  C   UNL     1      -2.972 -23.223 -10.076  1.00  0.00     0.159 C 
ATOM      5  O   UNL     1      -3.870 -23.607  -9.282  1.00  0.00    -0.295 OA
ATOM      6  C   UNL     1      -2.838 -21.764 -10.517  1.00  0.00     0.067 C 
ATOM      7  C   UNL     1      -1.327 -21.470 -10.393  1.00  0.00     0.021 C 
ATOM      8  C   UNL     1      -1.178 -22.107 -11.794  1.00  0.00     0.022 C 
ATOM      9  C   UNL     1      -2.664 -21.728 -12.062  1.00  0.00    -0.019 C 
ATOM     10  C   UNL     1      -3.524 -22.695 -12.925  1.00  0.00     0.012 C 
ATOM     11  C   UNL     1      -2.813 -20.298 -12.638  1.00  0.00     0.012 C 
ENDROOT
TORSDOF 0
ENDMDL
MODEL 3
REMARK VINA RESULT:    -5.795      1.249      3.017
REMARK INTER + INTRA:          -5.795
REMARK INTER:                  -5.795
REMARK INTRA:                   0.000
REMARK UNBOUND:                 0.000
REMARK SMILES CC1=CC(=O)[C@H]2C[C@@H]1C2(C)C
REMARK SMILES IDX 1 1 2 2 3 3 4 4 5 5 6 6 7 7 8 8 9 9 10 10 11 11
REMARK H PARENT
REMARK Flexibility Score: inf
ROOT
ATOM      1  C   UNL     1      -3.152 -20.101 -12.503  1.00  0.00     0.040 C 
ATOM      2  C   UNL     1      -3.059 -21.454 -11.868  1.00  0.00    -0.066 C 
ATOM      3  C   UNL     1      -3.699 -21.756 -10.704  1.00  0.00     0.047 C 
ATOM      4  C   UNL     1      -3.511 -23.151 -10.189  1.00  0.00     0.159 C 
ATOM      5  O   UNL     1      -4.015 -23.540  -9.102  1.00  0.00    -0.295 OA
ATOM      6  C   UNL     1      -2.666 -24.067 -11.074  1.00  0.00     0.067 C 
ATOM      7  C   UNL     1      -3.207 -23.820 -12.499  1.00  0.00     0.021 C 
ATOM      8  C   UNL     1      -2.270 -22.591 -12.547  1.00  0.00     0.022 C 
ATOM      9  C   UNL     1      -1.376 -23.303 -11.489  1.00  0.00    -0.019 C 
ATOM     10  C   UNL     1      -0.661 -22.427 -10.421  1.00  0.00     0.012 C 
ATOM     11  C   UNL     1      -0.322 -24.235 -12.139  1.00  0.00     0.012 C 
ENDROOT
TORSDOF 0
ENDMDL
MODEL 4
REMARK VINA RESULT:    -5.677      1.906      3.122
REMARK INTER + INTRA:          -5.677
REMARK INTER:                  -5.677
REMARK INTRA:                   0.000
REMARK UNBOUND:                 0.000
REMARK SMILES CC1=CC(=O)[C@H]2C[C@@H]1C2(C)C
REMARK SMILES IDX 1 1 2 2 3 3 4 4 5 5 6 6 7 7 8 8 9 9 10 10 11 11
REMARK H PARENT
REMARK Flexibility Score: inf
ROOT
ATOM      1  C   UNL     1       0.400 -24.735 -11.731  1.00  0.00     0.040 C 
ATOM      2  C   UNL     1      -0.856 -23.929 -11.847  1.00  0.00    -0.066 C 
ATOM      3  C   UNL     1      -1.180 -23.246 -12.981  1.00  0.00     0.047 C 
ATOM      4  C   UNL     1      -2.469 -22.483 -12.947  1.00  0.00     0.159 C 
ATOM      5  O   UNL     1      -2.859 -21.779 -13.915  1.00  0.00    -0.295 OA
ATOM      6  C   UNL     1      -3.277 -22.619 -11.656  1.00  0.00     0.067 C 
ATOM      7  C   UNL     1      -3.250 -24.132 -11.351  1.00  0.00     0.021 C 
ATOM      8  C   UNL     1      -1.874 -23.885 -10.690  1.00  0.00     0.022 C 
ATOM      9  C   UNL     1      -2.318 -22.412 -10.448  1.00  0.00    -0.019 C 
ATOM     10  C   UNL     1      -1.242 -21.294 -10.543  1.00  0.00     0.012 C 
ATOM     11  C   UNL     1      -3.084 -22.239  -9.112  1.00  0.00     0.012 C 
ENDROOT
TORSDOF 0
ENDMDL
MODEL 5
REMARK VINA RESULT:    -5.500      1.851      3.214
REMARK INTER + INTRA:          -5.500
REMARK INTER:                  -5.500
REMARK INTRA:                   0.000
REMARK UNBOUND:                 0.000
REMARK SMILES CC1=CC(=O)[C@H]2C[C@@H]1C2(C)C
REMARK SMILES IDX 1 1 2 2 3 3 4 4 5 5 6 6 7 7 8 8 9 9 10 10 11 11
REMARK H PARENT
REMARK Flexibility Score: inf
ROOT
ATOM      1  C   UNL     1      -2.989 -22.123 -14.118  1.00  0.00     0.040 C 
ATOM      2  C   UNL     1      -2.230 -22.355 -12.850  1.00  0.00    -0.066 C 
ATOM      3  C   UNL     1      -1.133 -23.161 -12.795  1.00  0.00     0.047 C 
ATOM      4  C   UNL     1      -0.478 -23.298 -11.454  1.00  0.00     0.159 C 
ATOM      5  O   UNL     1       0.516 -24.046 -11.264  1.00  0.00    -0.295 OA
ATOM      6  C   UNL     1      -1.102 -22.465 -10.333  1.00  0.00     0.067 C 
ATOM      7  C   UNL     1      -1.313 -21.074 -10.969  1.00  0.00     0.021 C 
ATOM      8  C   UNL     1      -2.633 -21.635 -11.546  1.00  0.00     0.022 C 
ATOM      9  C   UNL     1      -2.645 -22.658 -10.373  1.00  0.00    -0.019 C 
ATOM     10  C   UNL     1      -3.204 -24.083 -10.646  1.00  0.00     0.012 C 
ATOM     11  C   UNL     1      -3.342 -22.096  -9.108  1.00  0.00     0.012 C 
ENDROOT
TORSDOF 0
ENDMDL
MODEL 6
REMARK VINA RESULT:    -5.447      1.014      3.049
REMARK INTER + INTRA:          -5.447
REMARK INTER:                  -5.447
REMARK INTRA:                   0.000
REMARK UNBOUND:                 0.000
REMARK SMILES CC1=CC(=O)[C@H]2C[C@@H]1C2(C)C
REMARK SMILES IDX 1 1 2 2 3 3 4 4 5 5 6 6 7 7 8 8 9 9 10 10 11 11
REMARK H PARENT
REMARK Flexibility Score: inf
ROOT
ATOM      1  C   UNL     1      -3.068 -21.585 -13.511  1.00  0.00     0.040 C 
ATOM      2  C   UNL     1      -2.961 -22.225 -12.162  1.00  0.00    -0.066 C 
ATOM      3  C   UNL     1      -3.479 -21.649 -11.041  1.00  0.00     0.047 C 
ATOM      4  C   UNL     1      -3.291 -22.407  -9.761  1.00  0.00     0.159 C 
ATOM      5  O   UNL     1      -3.687 -21.961  -8.652  1.00  0.00    -0.295 OA
ATOM      6  C   UNL     1      -2.588 -23.757  -9.897  1.00  0.00     0.067 C 
ATOM      7  C   UNL     1      -3.273 -24.420 -11.112  1.00  0.00     0.021 C 
ATOM      8  C   UNL     1      -2.298 -23.607 -11.995  1.00  0.00     0.022 C 
ATOM      9  C   UNL     1      -1.322 -23.569 -10.782  1.00  0.00    -0.019 C 
ATOM     10  C   UNL     1      -0.458 -22.293 -10.573  1.00  0.00     0.012 C 
ATOM     11  C   UNL     1      -0.385 -24.803 -10.740  1.00  0.00     0.012 C 
ENDROOT
TORSDOF 0
ENDMDL
MODEL 7
REMARK VINA RESULT:    -5.444      2.156      3.774
REMARK INTER + INTRA:          -5.444
REMARK INTER:                  -5.444
REMARK INTRA:                   0.000
REMARK UNBOUND:                 0.000
REMARK SMILES CC1=CC(=O)[C@H]2C[C@@H]1C2(C)C
REMARK SMILES IDX 1 1 2 2 3 3 4 4 5 5 6 6 7 7 8 8 9 9 10 10 11 11
REMARK H PARENT
REMARK Flexibility Score: inf
ROOT
ATOM      1  C   UNL     1      -5.103 -20.659 -11.631  1.00  0.00     0.040 C 
ATOM      2  C   UNL     1      -3.825 -21.389 -11.902  1.00  0.00    -0.066 C 
ATOM      3  C   UNL     1      -3.412 -21.689 -13.166  1.00  0.00     0.047 C 
ATOM      4  C   UNL     1      -2.112 -22.426 -13.280  1.00  0.00     0.159 C 
ATOM      5  O   UNL     1      -1.644 -22.796 -14.389  1.00  0.00    -0.295 OA
ATOM      6  C   UNL     1      -1.394 -22.696 -11.957  1.00  0.00     0.067 C 
ATOM      7  C   UNL     1      -1.474 -21.351 -11.203  1.00  0.00     0.021 C 
ATOM      8  C   UNL     1      -2.885 -21.790 -10.747  1.00  0.00     0.022 C 
ATOM      9  C   UNL     1      -2.426 -23.265 -10.941  1.00  0.00    -0.019 C 
ATOM     10  C   UNL     1      -3.471 -24.298 -11.450  1.00  0.00     0.012 C 
ATOM     11  C   UNL     1      -1.748 -23.843  -9.674  1.00  0.00     0.012 C 
ENDROOT
TORSDOF 0
ENDMDL
MODEL 8
REMARK VINA RESULT:    -5.318      2.245      3.361
REMARK INTER + INTRA:          -5.318
REMARK INTER:                  -5.318
REMARK INTRA:                   0.000
REMARK UNBOUND:                 0.000
REMARK SMILES CC1=CC(=O)[C@H]2C[C@@H]1C2(C)C
REMARK SMILES IDX 1 1 2 2 3 3 4 4 5 5 6 6 7 7 8 8 9 9 10 10 11 11
REMARK H PARENT
REMARK Flexibility Score: inf
ROOT
ATOM      1  C   UNL     1      -0.346 -23.251 -10.553  1.00  0.00     0.040 C 
ATOM      2  C   UNL     1      -1.392 -22.962 -11.584  1.00  0.00    -0.066 C 
ATOM      3  C   UNL     1      -1.122 -22.982 -12.920  1.00  0.00     0.047 C 
ATOM      4  C   UNL     1      -2.271 -22.670 -13.831  1.00  0.00     0.159 C 
ATOM      5  O   UNL     1      -2.140 -22.616 -15.082  1.00  0.00    -0.295 OA
ATOM      6  C   UNL     1      -3.610 -22.423 -13.136  1.00  0.00     0.067 C 
ATOM      7  C   UNL     1      -3.714 -23.563 -12.099  1.00  0.00     0.021 C 
ATOM      8  C   UNL     1      -2.850 -22.679 -11.170  1.00  0.00     0.022 C 
ATOM      9  C   UNL     1      -3.378 -21.440 -11.952  1.00  0.00    -0.019 C 
ATOM     10  C   UNL     1      -2.414 -20.239 -12.166  1.00  0.00     0.012 C 
ATOM     11  C   UNL     1      -4.708 -20.898 -11.368  1.00  0.00     0.012 C 
ENDROOT
TORSDOF 0
ENDMDL
MODEL 9
REMARK VINA RESULT:    -5.291      1.734      3.527
REMARK INTER + INTRA:          -5.291
REMARK INTER:                  -5.291
REMARK INTRA:                   0.000
REMARK UNBOUND:                 0.000
REMARK SMILES CC1=CC(=O)[C@H]2C[C@@H]1C2(C)C
REMARK SMILES IDX 1 1 2 2 3 3 4 4 5 5 6 6 7 7 8 8 9 9 10 10 11 11
REMARK H PARENT
REMARK Flexibility Score: inf
ROOT
ATOM      1  C   UNL     1      -3.190 -19.812 -12.659  1.00  0.00     0.040 C 
ATOM      2  C   UNL     1      -2.873 -21.234 -12.319  1.00  0.00    -0.066 C 
ATOM      3  C   UNL     1      -3.780 -22.239 -12.475  1.00  0.00     0.047 C 
ATOM      4  C   UNL     1      -3.318 -23.612 -12.090  1.00  0.00     0.159 C 
ATOM      5  O   UNL     1      -4.075 -24.617 -12.149  1.00  0.00    -0.295 OA
ATOM      6  C   UNL     1      -1.865 -23.708 -11.624  1.00  0.00     0.067 C 
ATOM      7  C   UNL     1      -1.080 -22.874 -12.659  1.00  0.00     0.021 C 
ATOM      8  C   UNL     1      -1.468 -21.632 -11.824  1.00  0.00     0.022 C 
ATOM      9  C   UNL     1      -1.602 -22.574 -10.591  1.00  0.00    -0.019 C 
ATOM     10  C   UNL     1      -2.706 -22.260  -9.542  1.00  0.00     0.012 C 
ATOM     11  C   UNL     1      -0.258 -22.760  -9.842  1.00  0.00     0.012 C 
ENDROOT
TORSDOF 0
ENDMDL
