MODEL 1
REMARK VINA RESULT:    11.161      0.000      0.000
REMARK INTER + INTRA:          12.593
REMARK INTER:                  12.140
REMARK INTRA:                   0.453
REMARK UNBOUND:                 0.453
REMARK SMILES C[C@H]1[C@H](C)CC[C@]2(C(=O)[O-])CC[C@@]3(C)C(=CC[C@@H]4[C@@]5(C)CC[C@@H](O)C(C)(C)[C@@H]5CC[C@]43C)[C@H]12
REMARK SMILES IDX 7 1 6 2 11 3 33 4 5 5 12 6 15 7 2 8 3 9 13 10 16 11 1 12
REMARK SMILES IDX 4 13 14 14 31 15 17 16 18 17 30 18 32 19 19 20 29 21 28 22
REMARK SMILES IDX 21 23 20 24 25 25 22 26 23 27 26 28 27 29 8 30 9 31 10 32
REMARK SMILES IDX 24 33
REMARK H PARENT 24 34
REMARK Flexibility Score: inf
ROOT
ATOM      1  C   UNL     1      21.465  40.940   4.916  1.00  0.00     0.017 C 
ATOM      2  C   UNL     1      22.161  39.784   4.113  1.00  0.00     0.014 C 
ATOM      3  C   UNL     1      21.576  40.593   6.451  1.00  0.00     0.014 C 
ATOM      4  C   UNL     1      19.958  41.140   4.434  1.00  0.00     0.030 C 
ATOM      5  C   UNL     1      21.602  39.632   2.702  1.00  0.00     0.004 C 
ATOM      6  C   UNL     1      20.254  40.603   7.228  1.00  0.00     0.013 C 
ATOM      7  C   UNL     1      19.079  41.892   5.465  1.00  0.00    -0.063 C 
ATOM      8  C   UNL     1      19.321  39.788   3.935  1.00  0.00    -0.003 C 
ATOM      9  C   UNL     1      20.136  39.160   2.752  1.00  0.00    -0.011 C 
ATOM     10  C   UNL     1      19.360  41.855   6.990  1.00  0.00    -0.006 C 
ATOM     11  C   UNL     1      18.001  42.570   5.000  1.00  0.00    -0.027 C 
ATOM     12  C   UNL     1      17.853  39.923   3.465  1.00  0.00     0.008 C 
ATOM     13  C   UNL     1      20.070  37.621   2.798  1.00  0.00     0.008 C 
ATOM     14  C   UNL     1      20.227  43.117   7.300  1.00  0.00     0.017 C 
ATOM     15  C   UNL     1      17.983  41.829   7.910  1.00  0.00    -0.020 C 
ATOM     16  C   UNL     1      16.791  42.794   5.870  1.00  0.00     0.032 C 
ATOM     17  C   UNL     1      16.734  41.678   6.947  1.00  0.00     0.006 C 
ATOM     18  C   UNL     1      17.944  40.630   8.927  1.00  0.00     0.008 C 
ATOM     19  C   UNL     1      17.859  43.123   8.797  1.00  0.00     0.012 C 
ATOM     20  C   UNL     1      15.307  41.388   7.589  1.00  0.00    -0.025 C 
ATOM     21  C   UNL     1      16.585  40.411   9.617  1.00  0.00     0.005 C 
ATOM     22  C   UNL     1      15.484  40.149   8.561  1.00  0.00     0.003 C 
ATOM     23  C   UNL     1      14.316  40.949   6.455  1.00  0.00     0.010 C 
ATOM     24  C   UNL     1      14.733  42.664   8.280  1.00  0.00     0.012 C 
ATOM     25  C   UNL     1      14.167  39.484   9.107  1.00  0.00    -0.006 C 
ATOM     26  C   UNL     1      13.000  40.334   6.972  1.00  0.00     0.033 C 
ATOM     27  C   UNL     1      13.235  39.132   7.895  1.00  0.00     0.120 C 
ATOM     28  C   UNL     1      13.409  40.378  10.122  1.00  0.00     0.014 C 
ATOM     29  C   UNL     1      14.504  38.165   9.857  1.00  0.00     0.014 C 
ENDROOT
BRANCH   1  30
ATOM     30  C   UNL     1      22.287  42.207   4.649  1.00  0.00     0.048 C 
ATOM     31  O   UNL     1      22.774  42.460   3.512  1.00  0.00    -0.550 OA
ATOM     32  O   UNL     1      22.518  43.110   5.680  1.00  0.00    -0.550 OA
ENDBRANCH   1  30
BRANCH  27  33
ATOM     33  O   UNL     1      13.776  38.085   7.124  1.00  0.00    -0.393 OA
ATOM     34  H   UNL     1      14.478  38.467   6.541  1.00  0.00     0.210 HD
ENDBRANCH  27  33
TORSDOF 2
ENDMDL
MODEL 2
REMARK VINA RESULT:    13.429      1.000      1.176
REMARK INTER + INTRA:          15.060
REMARK INTER:                  14.511
REMARK INTRA:                   0.549
REMARK UNBOUND:                 0.453
REMARK SMILES C[C@H]1[C@H](C)CC[C@]2(C(=O)[O-])CC[C@@]3(C)C(=CC[C@@H]4[C@@]5(C)CC[C@@H](O)C(C)(C)[C@@H]5CC[C@]43C)[C@H]12
REMARK SMILES IDX 7 1 6 2 11 3 33 4 5 5 12 6 15 7 2 8 3 9 13 10 16 11 1 12
REMARK SMILES IDX 4 13 14 14 31 15 17 16 18 17 30 18 32 19 19 20 29 21 28 22
REMARK SMILES IDX 21 23 20 24 25 25 22 26 23 27 26 28 27 29 8 30 9 31 10 32
REMARK SMILES IDX 24 33
REMARK H PARENT 24 34
REMARK Flexibility Score: inf
ROOT
ATOM      1  C   UNL     1      21.225  40.962   4.699  1.00  0.00     0.017 C 
ATOM      2  C   UNL     1      21.609  40.160   3.404  1.00  0.00     0.014 C 
ATOM      3  C   UNL     1      21.281  39.961   5.918  1.00  0.00     0.014 C 
ATOM      4  C   UNL     1      19.800  41.657   4.535  1.00  0.00     0.030 C 
ATOM      5  C   UNL     1      21.001  40.760   2.141  1.00  0.00     0.004 C 
ATOM      6  C   UNL     1      20.015  39.901   6.782  1.00  0.00     0.013 C 
ATOM      7  C   UNL     1      19.146  42.043   5.886  1.00  0.00    -0.063 C 
ATOM      8  C   UNL     1      18.849  40.824   3.593  1.00  0.00    -0.003 C 
ATOM      9  C   UNL     1      19.466  40.626   2.166  1.00  0.00    -0.011 C 
ATOM     10  C   UNL     1      19.441  41.284   7.205  1.00  0.00    -0.006 C 
ATOM     11  C   UNL     1      18.251  43.062   5.885  1.00  0.00    -0.027 C 
ATOM     12  C   UNL     1      17.445  41.450   3.408  1.00  0.00     0.008 C 
ATOM     13  C   UNL     1      19.037  39.273   1.566  1.00  0.00     0.008 C 
ATOM     14  C   UNL     1      20.590  42.075   7.910  1.00  0.00     0.017 C 
ATOM     15  C   UNL     1      18.116  41.141   8.189  1.00  0.00    -0.020 C 
ATOM     16  C   UNL     1      17.147  43.125   6.910  1.00  0.00     0.032 C 
ATOM     17  C   UNL     1      16.848  41.687   7.413  1.00  0.00     0.006 C 
ATOM     18  C   UNL     1      17.814  39.654   8.602  1.00  0.00     0.008 C 
ATOM     19  C   UNL     1      18.322  41.909   9.547  1.00  0.00     0.012 C 
ATOM     20  C   UNL     1      15.406  41.445   8.043  1.00  0.00    -0.025 C 
ATOM     21  C   UNL     1      16.456  39.438   9.296  1.00  0.00     0.005 C 
ATOM     22  C   UNL     1      15.304  39.898   8.371  1.00  0.00     0.003 C 
ATOM     23  C   UNL     1      14.317  41.762   6.960  1.00  0.00     0.010 C 
ATOM     24  C   UNL     1      15.167  42.376   9.271  1.00  0.00     0.012 C 
ATOM     25  C   UNL     1      13.877  39.347   8.743  1.00  0.00    -0.006 C 
ATOM     26  C   UNL     1      12.903  41.268   7.326  1.00  0.00     0.033 C 
ATOM     27  C   UNL     1      12.863  39.763   7.620  1.00  0.00     0.120 C 
ATOM     28  C   UNL     1      13.375  39.840  10.124  1.00  0.00     0.014 C 
ATOM     29  C   UNL     1      13.905  37.796   8.819  1.00  0.00     0.014 C 
ENDROOT
BRANCH   1  30
ATOM     30  C   UNL     1      22.320  42.018   4.893  1.00  0.00     0.048 C 
ATOM     31  O   UNL     1      22.564  42.527   6.022  1.00  0.00    -0.550 OA
ATOM     32  O   UNL     1      23.069  42.443   3.802  1.00  0.00    -0.550 OA
ENDBRANCH   1  30
BRANCH  27  33
ATOM     33  O   UNL     1      13.124  39.074   6.418  1.00  0.00    -0.393 OA
ATOM     34  H   UNL     1      12.367  38.462   6.246  1.00  0.00     0.210 HD
ENDBRANCH  27  33
TORSDOF 2
ENDMDL
